MODEL 1
REMARK VINA RESULT:     -12.5      0.000      0.000
REMARK SMILES Cc1ccc(S(=O)(=O)N(CC(=O)OCCOC(=O)c2ccc(-c3c4nc(c(-c5c(F)cc(S(=O)(=O)[O-])cc5F)c5ccc([nH]5)c(-c5c(F)cc(S(=O)(=O)[O-])cc5F)c5nc(c(-c6c(F)cc(S(=O)(=O)[O-])cc6F)c6ccc3[nH]6)C=C5)C=C4)cc2)c2cc(Cl)cc(Cl)c2)cc1
REMARK SMILES IDX 14 1 13 2 11 3 12 4 10 5 9 6 6 7 7 8 8 9 5 10 1 11 2 12 3 13
REMARK SMILES IDX 94 14 4 15 93 16 85 17 86 18 92 19 87 20 90 21 88 22 89 23
REMARK SMILES IDX 91 24 15 25 16 26 17 27 18 28 19 29 20 30 84 31 21 32 83 33
REMARK SMILES IDX 22 34 23 35 24 36 77 37 25 38 82 39 76 40 78 41 26 42 81 43
REMARK SMILES IDX 75 44 74 45 27 47 61 48 40 49 60 50 41 51 44 52 59 53 79 54
REMARK SMILES IDX 42 55 43 56 58 58 80 59 45 60 28 61 29 62 38 63 30 64 31 65
REMARK SMILES IDX 37 66 39 67 32 68 33 69 34 70 35 71 36 72 62 73 63 74 72 75
REMARK SMILES IDX 64 76 65 77 71 78 73 79 66 80 67 81 68 82 69 83 70 84 46 85
REMARK SMILES IDX 47 86 56 87 48 88 49 89 55 90 57 91 50 92 51 93 52 94 53 95
REMARK SMILES IDX 54 96
REMARK H PARENT 78 46 44 57
REMARK Flexibility Score: inf
ROOT
ATOM      1  C   UNL A   1      31.994  30.563  26.577  1.00  0.00     0.274 C 
ENDROOT
BRANCH   1   2
ATOM      2  O   UNL A   1      31.568  29.315  25.996  1.00  0.00    -0.461 OA
BRANCH   2   3
ATOM      3  C   UNL A   1      31.971  28.161  26.581  1.00  0.00     0.326 C 
ATOM      4  O   UNL A   1      31.400  27.704  27.559  1.00  0.00    -0.250 OA
BRANCH   3   5
ATOM      5  C   UNL A   1      33.069  27.506  25.764  1.00  0.00     0.258 C 
BRANCH   5   6
ATOM      6  N   UNL A   1      33.042  26.172  25.084  1.00  0.00    -0.255 N 
BRANCH   6   7
ATOM      7  S   UNL A   1      32.655  26.219  23.414  1.00  0.00     0.264 S 
ATOM      8  O   UNL A   1      32.420  24.844  23.012  1.00  0.00    -0.201 OA
ATOM      9  O   UNL A   1      33.594  27.046  22.687  1.00  0.00    -0.201 OA
BRANCH   7  10
ATOM     10  C   UNL A   1      31.076  27.065  23.287  1.00  0.00     0.088 A 
ATOM     11  C   UNL A   1      27.371  29.238  22.848  1.00  0.00     0.044 C 
ATOM     12  C   UNL A   1      28.655  28.471  23.010  1.00  0.00    -0.051 A 
ATOM     13  C   UNL A   1      29.861  29.045  22.591  1.00  0.00     0.005 A 
ATOM     14  C   UNL A   1      28.679  27.199  23.602  1.00  0.00     0.005 A 
ATOM     15  C   UNL A   1      31.063  28.345  22.718  1.00  0.00     0.022 A 
ATOM     16  C   UNL A   1      29.886  26.495  23.750  1.00  0.00     0.022 A 
ENDBRANCH   7  10
ENDBRANCH   6   7
BRANCH   6  17
ATOM     17  C   UNL A   1      32.750  24.935  25.794  1.00  0.00     0.055 A 
ATOM     18  C   UNL A   1      33.748  24.068  26.238  1.00  0.00     0.047 A 
ATOM     19  C   UNL A   1      31.428  24.592  26.110  1.00  0.00     0.047 A 
ATOM     20  C   UNL A   1      33.442  22.804  26.752  1.00  0.00     0.044 A 
ATOM     21  C   UNL A   1      31.132  23.377  26.747  1.00  0.00     0.044 A 
ATOM     22  Cl  UNL A   1      34.716  21.684  27.062  1.00  0.00    -0.084 Cl
ATOM     23  C   UNL A   1      32.130  22.448  27.009  1.00  0.00     0.041 A 
ATOM     24  Cl  UNL A   1      29.522  23.041  27.262  1.00  0.00    -0.084 Cl
ENDBRANCH   6  17
ENDBRANCH   5   6
ENDBRANCH   3   5
ENDBRANCH   2   3
ENDBRANCH   1   2
BRANCH   1  25
ATOM     25  C   UNL A   1      33.478  30.575  27.034  1.00  0.00     0.275 C 
BRANCH  25  26
ATOM     26  O   UNL A   1      33.830  31.473  28.119  1.00  0.00    -0.458 OA
BRANCH  26  27
ATOM     27  C   UNL A   1      34.977  32.217  28.007  1.00  0.00     0.338 C 
ATOM     28  O   UNL A   1      35.024  33.371  27.646  1.00  0.00    -0.246 OA
BRANCH  27  29
ATOM     29  C   UNL A   1      36.048  31.526  28.779  1.00  0.00     0.060 A 
ATOM     30  C   UNL A   1      35.817  30.624  29.831  1.00  0.00     0.016 A 
ATOM     31  C   UNL A   1      37.272  31.518  28.134  1.00  0.00     0.016 A 
ATOM     32  C   UNL A   1      36.836  29.728  30.188  1.00  0.00     0.010 A 
ATOM     33  C   UNL A   1      37.999  30.372  28.159  1.00  0.00     0.010 A 
ATOM     34  C   UNL A   1      37.910  29.593  29.307  1.00  0.00    -0.014 A 
BRANCH  34  35
ATOM     35  C   UNL A   1      39.245  29.079  29.577  1.00  0.00     0.031 A 
ATOM     36  C   UNL A   1      39.696  27.782  29.069  1.00  0.00     0.074 A 
ATOM     37  C   UNL A   1      40.082  30.118  29.836  1.00  0.00     0.049 A 
ATOM     38  N   UNL A   1      40.603  27.068  29.636  1.00  0.00    -0.248 NA
ATOM     39  C   UNL A   1      39.156  27.178  27.848  1.00  0.00     0.031 C 
ATOM     40  C   UNL A   1      41.499  30.307  29.593  1.00  0.00     0.029 A 
ATOM     41  N   UNL A   1      39.686  31.363  30.329  1.00  0.00    -0.354 N 
ATOM     42  C   UNL A   1      41.011  26.152  28.689  1.00  0.00     0.074 A 
ATOM     43  C   UNL A   1      39.971  26.126  27.685  1.00  0.00     0.031 C 
ATOM     44  C   UNL A   1      41.890  31.449  30.205  1.00  0.00     0.029 A 
ATOM     45  C   UNL A   1      40.748  31.997  30.940  1.00  0.00     0.049 A 
ATOM     46  H   UNL A   1      38.778  31.736  30.252  1.00  0.00     0.167 HD
ATOM     47  C   UNL A   1      42.312  25.739  28.651  1.00  0.00     0.037 A 
ATOM     48  C   UNL A   1      40.601  32.138  32.291  1.00  0.00     0.037 A 
ATOM     49  C   UNL A   1      43.120  26.609  29.509  1.00  0.00     0.049 A 
ATOM     50  C   UNL A   1      41.426  31.073  32.971  1.00  0.00     0.074 A 
ATOM     51  C   UNL A   1      43.894  27.714  29.189  1.00  0.00     0.029 A 
ATOM     52  N   UNL A   1      42.899  26.674  30.882  1.00  0.00    -0.354 N 
ATOM     53  N   UNL A   1      41.795  29.959  32.397  1.00  0.00    -0.248 NA
ATOM     54  C   UNL A   1      41.986  31.230  34.305  1.00  0.00     0.031 C 
ATOM     55  C   UNL A   1      44.070  28.486  30.362  1.00  0.00     0.029 A 
ATOM     56  C   UNL A   1      43.398  27.861  31.398  1.00  0.00     0.049 A 
ATOM     57  H   UNL A   1      42.451  25.977  31.412  1.00  0.00     0.167 HD
ATOM     58  C   UNL A   1      42.676  29.301  33.199  1.00  0.00     0.074 A 
ATOM     59  C   UNL A   1      42.746  30.125  34.396  1.00  0.00     0.031 C 
ATOM     60  C   UNL A   1      43.313  28.155  32.820  1.00  0.00     0.037 A 
BRANCH  47  61
ATOM     61  C   UNL A   1      42.888  24.848  27.567  1.00  0.00     0.058 A 
ATOM     62  C   UNL A   1      42.960  23.446  27.720  1.00  0.00     0.135 A 
ATOM     63  C   UNL A   1      43.338  25.331  26.318  1.00  0.00     0.135 A 
ATOM     64  F   UNL A   1      42.508  22.833  28.820  1.00  0.00    -0.206 F 
ATOM     65  C   UNL A   1      43.496  22.598  26.749  1.00  0.00     0.059 A 
ATOM     66  C   UNL A   1      43.906  24.503  25.339  1.00  0.00     0.059 A 
ATOM     67  F   UNL A   1      43.215  26.629  25.997  1.00  0.00    -0.206 F 
ATOM     68  C   UNL A   1      43.980  23.134  25.564  1.00  0.00     0.060 A 
BRANCH  68  69
ATOM     69  S   UNL A   1      44.670  22.005  24.337  1.00  0.00     0.124 S 
ATOM     70  O   UNL A   1      46.106  22.183  24.531  1.00  0.00    -0.237 OA
ATOM     71  O   UNL A   1      44.126  20.722  24.765  1.00  0.00    -0.237 OA
ATOM     72  O   UNL A   1      44.147  22.519  23.073  1.00  0.00    -0.744 OA
ENDBRANCH  68  69
ENDBRANCH  47  61
BRANCH  48  73
ATOM     73  C   UNL A   1      39.203  32.587  32.665  1.00  0.00     0.058 A 
ATOM     74  C   UNL A   1      38.824  33.905  32.309  1.00  0.00     0.135 A 
ATOM     75  C   UNL A   1      38.156  31.711  32.995  1.00  0.00     0.135 A 
ATOM     76  F   UNL A   1      39.764  34.794  31.947  1.00  0.00    -0.206 F 
ATOM     77  C   UNL A   1      37.491  34.306  32.199  1.00  0.00     0.059 A 
ATOM     78  C   UNL A   1      36.806  32.097  32.903  1.00  0.00     0.059 A 
ATOM     79  F   UNL A   1      38.416  30.435  33.316  1.00  0.00    -0.206 F 
ATOM     80  C   UNL A   1      36.484  33.388  32.476  1.00  0.00     0.060 A 
BRANCH  80  81
ATOM     81  S   UNL A   1      34.766  33.846  32.106  1.00  0.00     0.124 S 
ATOM     82  O   UNL A   1      34.095  32.553  32.159  1.00  0.00    -0.237 OA
ATOM     83  O   UNL A   1      34.453  34.770  33.194  1.00  0.00    -0.237 OA
ATOM     84  O   UNL A   1      34.867  34.459  30.786  1.00  0.00    -0.744 OA
ENDBRANCH  80  81
ENDBRANCH  48  73
BRANCH  60  85
ATOM     85  C   UNL A   1      44.049  27.269  33.776  1.00  0.00     0.058 A 
ATOM     86  C   UNL A   1      43.394  26.348  34.606  1.00  0.00     0.135 A 
ATOM     87  C   UNL A   1      45.462  27.219  33.770  1.00  0.00     0.135 A 
ATOM     88  F   UNL A   1      42.059  26.216  34.591  1.00  0.00    -0.206 F 
ATOM     89  C   UNL A   1      44.092  25.504  35.460  1.00  0.00     0.059 A 
ATOM     90  C   UNL A   1      46.177  26.334  34.562  1.00  0.00     0.059 A 
ATOM     91  F   UNL A   1      46.195  28.022  32.984  1.00  0.00    -0.206 F 
ATOM     92  C   UNL A   1      45.482  25.510  35.435  1.00  0.00     0.060 A 
BRANCH  92  93
ATOM     93  S   UNL A   1      46.385  24.415  36.534  1.00  0.00     0.124 S 
ATOM     94  O   UNL A   1      47.450  25.296  37.001  1.00  0.00    -0.237 OA
ATOM     95  O   UNL A   1      45.378  24.058  37.528  1.00  0.00    -0.237 OA
ATOM     96  O   UNL A   1      46.801  23.328  35.654  1.00  0.00    -0.744 OA
ENDBRANCH  92  93
ENDBRANCH  60  85
ENDBRANCH  34  35
ENDBRANCH  27  29
ENDBRANCH  26  27
ENDBRANCH  25  26
ENDBRANCH   1  25
TORSDOF 18
ENDMDL
MODEL 2
REMARK VINA RESULT:     -12.2      3.909     10.022
REMARK SMILES Cc1ccc(S(=O)(=O)N(CC(=O)OCCOC(=O)c2ccc(-c3c4nc(c(-c5c(F)cc(S(=O)(=O)[O-])cc5F)c5ccc([nH]5)c(-c5c(F)cc(S(=O)(=O)[O-])cc5F)c5nc(c(-c6c(F)cc(S(=O)(=O)[O-])cc6F)c6ccc3[nH]6)C=C5)C=C4)cc2)c2cc(Cl)cc(Cl)c2)cc1
REMARK SMILES IDX 14 1 13 2 11 3 12 4 10 5 9 6 6 7 7 8 8 9 5 10 1 11 2 12 3 13
REMARK SMILES IDX 94 14 4 15 93 16 85 17 86 18 92 19 87 20 90 21 88 22 89 23
REMARK SMILES IDX 91 24 15 25 16 26 17 27 18 28 19 29 20 30 84 31 21 32 83 33
REMARK SMILES IDX 22 34 23 35 24 36 77 37 25 38 82 39 76 40 78 41 26 42 81 43
REMARK SMILES IDX 75 44 74 45 27 47 61 48 40 49 60 50 41 51 44 52 59 53 79 54
REMARK SMILES IDX 42 55 43 56 58 58 80 59 45 60 28 61 29 62 38 63 30 64 31 65
REMARK SMILES IDX 37 66 39 67 32 68 33 69 34 70 35 71 36 72 62 73 63 74 72 75
REMARK SMILES IDX 64 76 65 77 71 78 73 79 66 80 67 81 68 82 69 83 70 84 46 85
REMARK SMILES IDX 47 86 56 87 48 88 49 89 55 90 57 91 50 92 51 93 52 94 53 95
REMARK SMILES IDX 54 96
REMARK H PARENT 78 46 44 57
REMARK Flexibility Score: inf
ROOT
ATOM      1  C   UNL A   1      37.393  23.232  25.401  1.00  0.00     0.274 C 
ENDROOT
BRANCH   1   2
ATOM      2  O   UNL A   1      36.042  23.018  24.950  1.00  0.00    -0.461 OA
BRANCH   2   3
ATOM      3  C   UNL A   1      35.780  23.129  23.625  1.00  0.00     0.326 C 
ATOM      4  O   UNL A   1      36.654  22.987  22.784  1.00  0.00    -0.250 OA
BRANCH   3   5
ATOM      5  C   UNL A   1      34.289  23.282  23.388  1.00  0.00     0.258 C 
BRANCH   5   6
ATOM      6  N   UNL A   1      33.269  23.893  24.299  1.00  0.00    -0.255 N 
BRANCH   6   7
ATOM      7  S   UNL A   1      31.798  23.021  24.426  1.00  0.00     0.264 S 
ATOM      8  O   UNL A   1      30.993  23.415  23.284  1.00  0.00    -0.201 OA
ATOM      9  O   UNL A   1      31.260  23.103  25.767  1.00  0.00    -0.201 OA
BRANCH   7  10
ATOM     10  C   UNL A   1      32.215  21.292  24.183  1.00  0.00     0.088 A 
ATOM     11  C   UNL A   1      33.213  17.167  23.388  1.00  0.00     0.044 C 
ATOM     12  C   UNL A   1      32.867  18.602  23.680  1.00  0.00    -0.051 A 
ATOM     13  C   UNL A   1      32.358  19.411  22.658  1.00  0.00     0.005 A 
ATOM     14  C   UNL A   1      33.013  19.144  24.966  1.00  0.00     0.005 A 
ATOM     15  C   UNL A   1      32.043  20.751  22.903  1.00  0.00     0.022 A 
ATOM     16  C   UNL A   1      32.682  20.485  25.225  1.00  0.00     0.022 A 
ENDBRANCH   7  10
ENDBRANCH   6   7
BRANCH   6  17
ATOM     17  C   UNL A   1      33.214  25.323  24.569  1.00  0.00     0.055 A 
ATOM     18  C   UNL A   1      32.796  25.843  25.793  1.00  0.00     0.047 A 
ATOM     19  C   UNL A   1      33.638  26.245  23.602  1.00  0.00     0.047 A 
ATOM     20  C   UNL A   1      32.576  27.213  25.969  1.00  0.00     0.044 A 
ATOM     21  C   UNL A   1      33.539  27.626  23.831  1.00  0.00     0.044 A 
ATOM     22  Cl  UNL A   1      31.835  27.773  27.422  1.00  0.00    -0.084 Cl
ATOM     23  C   UNL A   1      32.945  28.116  24.987  1.00  0.00     0.041 A 
ATOM     24  Cl  UNL A   1      34.205  28.740  22.698  1.00  0.00    -0.084 Cl
ENDBRANCH   6  17
ENDBRANCH   5   6
ENDBRANCH   3   5
ENDBRANCH   2   3
ENDBRANCH   1   2
BRANCH   1  25
ATOM     25  C   UNL A   1      38.151  21.929  25.774  1.00  0.00     0.275 C 
BRANCH  25  26
ATOM     26  O   UNL A   1      39.600  21.995  25.817  1.00  0.00    -0.458 OA
BRANCH  26  27
ATOM     27  C   UNL A   1      40.215  22.088  27.040  1.00  0.00     0.338 C 
ATOM     28  O   UNL A   1      40.522  21.148  27.737  1.00  0.00    -0.246 OA
BRANCH  27  29
ATOM     29  C   UNL A   1      40.796  23.456  27.157  1.00  0.00     0.060 A 
ATOM     30  C   UNL A   1      41.091  24.292  26.068  1.00  0.00     0.016 A 
ATOM     31  C   UNL A   1      40.653  24.007  28.418  1.00  0.00     0.016 A 
ATOM     32  C   UNL A   1      41.218  25.672  26.292  1.00  0.00     0.010 A 
ATOM     33  C   UNL A   1      40.296  25.313  28.506  1.00  0.00     0.010 A 
ATOM     34  C   UNL A   1      40.775  26.167  27.519  1.00  0.00    -0.014 A 
BRANCH  34  35
ATOM     35  C   UNL A   1      41.129  27.418  28.172  1.00  0.00     0.031 A 
ATOM     36  C   UNL A   1      40.141  28.468  28.430  1.00  0.00     0.074 A 
ATOM     37  C   UNL A   1      42.241  27.229  28.931  1.00  0.00     0.049 A 
ATOM     38  N   UNL A   1      40.434  29.716  28.529  1.00  0.00    -0.248 NA
ATOM     39  C   UNL A   1      38.715  28.187  28.611  1.00  0.00     0.031 C 
ATOM     40  C   UNL A   1      42.687  27.837  30.170  1.00  0.00     0.029 A 
ATOM     41  N   UNL A   1      43.206  26.245  28.708  1.00  0.00    -0.354 N 
ATOM     42  C   UNL A   1      39.349  30.312  29.140  1.00  0.00     0.074 A 
ATOM     43  C   UNL A   1      38.250  29.384  28.994  1.00  0.00     0.031 C 
ATOM     44  C   UNL A   1      43.954  27.430  30.416  1.00  0.00     0.029 A 
ATOM     45  C   UNL A   1      44.403  26.605  29.292  1.00  0.00     0.049 A 
ATOM     46  H   UNL A   1      43.055  25.413  28.204  1.00  0.00     0.167 HD
ATOM     47  C   UNL A   1      39.534  31.365  29.989  1.00  0.00     0.037 A 
ATOM     48  C   UNL A   1      45.397  26.870  28.394  1.00  0.00     0.037 A 
ATOM     49  C   UNL A   1      40.959  31.485  30.307  1.00  0.00     0.049 A 
ATOM     50  C   UNL A   1      45.527  28.367  28.259  1.00  0.00     0.074 A 
ATOM     51  C   UNL A   1      41.677  31.014  31.396  1.00  0.00     0.029 A 
ATOM     52  N   UNL A   1      41.897  31.770  29.318  1.00  0.00    -0.354 N 
ATOM     53  N   UNL A   1      44.575  29.211  28.552  1.00  0.00    -0.248 NA
ATOM     54  C   UNL A   1      46.771  29.028  27.891  1.00  0.00     0.031 C 
ATOM     55  C   UNL A   1      43.042  30.943  31.030  1.00  0.00     0.029 A 
ATOM     56  C   UNL A   1      43.161  31.361  29.715  1.00  0.00     0.049 A 
ATOM     57  H   UNL A   1      41.691  32.201  28.457  1.00  0.00     0.167 HD
ATOM     58  C   UNL A   1      45.058  30.483  28.504  1.00  0.00     0.074 A 
ATOM     59  C   UNL A   1      46.435  30.319  28.061  1.00  0.00     0.031 C 
ATOM     60  C   UNL A   1      44.321  31.573  28.862  1.00  0.00     0.037 A 
BRANCH  47  61
ATOM     61  C   UNL A   1      38.427  31.994  30.814  1.00  0.00     0.058 A 
ATOM     62  C   UNL A   1      37.682  33.095  30.338  1.00  0.00     0.135 A 
ATOM     63  C   UNL A   1      38.020  31.505  32.075  1.00  0.00     0.135 A 
ATOM     64  F   UNL A   1      37.904  33.627  29.130  1.00  0.00    -0.206 F 
ATOM     65  C   UNL A   1      36.667  33.707  31.075  1.00  0.00     0.059 A 
ATOM     66  C   UNL A   1      37.023  32.119  32.846  1.00  0.00     0.059 A 
ATOM     67  F   UNL A   1      38.565  30.391  32.589  1.00  0.00    -0.206 F 
ATOM     68  C   UNL A   1      36.349  33.222  32.336  1.00  0.00     0.060 A 
BRANCH  68  69
ATOM     69  S   UNL A   1      35.035  34.044  33.259  1.00  0.00     0.124 S 
ATOM     70  O   UNL A   1      33.860  33.752  32.443  1.00  0.00    -0.237 OA
ATOM     71  O   UNL A   1      35.098  33.364  34.548  1.00  0.00    -0.237 OA
ATOM     72  O   UNL A   1      35.451  35.444  33.268  1.00  0.00    -0.744 OA
ENDBRANCH  68  69
ENDBRANCH  47  61
BRANCH  48  73
ATOM     73  C   UNL A   1      45.439  25.846  27.277  1.00  0.00     0.058 A 
ATOM     74  C   UNL A   1      45.941  24.559  27.590  1.00  0.00     0.135 A 
ATOM     75  C   UNL A   1      44.700  25.949  26.086  1.00  0.00     0.135 A 
ATOM     76  F   UNL A   1      46.628  24.371  28.729  1.00  0.00    -0.206 F 
ATOM     77  C   UNL A   1      45.655  23.428  26.823  1.00  0.00     0.059 A 
ATOM     78  C   UNL A   1      44.411  24.824  25.292  1.00  0.00     0.059 A 
ATOM     79  F   UNL A   1      44.161  27.121  25.723  1.00  0.00    -0.206 F 
ATOM     80  C   UNL A   1      44.869  23.564  25.684  1.00  0.00     0.060 A 
BRANCH  80  81
ATOM     81  S   UNL A   1      44.312  22.062  24.829  1.00  0.00     0.124 S 
ATOM     82  O   UNL A   1      45.566  21.342  24.645  1.00  0.00    -0.237 OA
ATOM     83  O   UNL A   1      43.383  21.484  25.797  1.00  0.00    -0.237 OA
ATOM     84  O   UNL A   1      43.693  22.585  23.616  1.00  0.00    -0.744 OA
ENDBRANCH  80  81
ENDBRANCH  48  73
BRANCH  60  85
ATOM     85  C   UNL A   1      44.724  32.979  28.546  1.00  0.00     0.058 A 
ATOM     86  C   UNL A   1      44.472  33.574  27.302  1.00  0.00     0.135 A 
ATOM     87  C   UNL A   1      45.246  33.823  29.554  1.00  0.00     0.135 A 
ATOM     88  F   UNL A   1      43.856  32.903  26.317  1.00  0.00    -0.206 F 
ATOM     89  C   UNL A   1      44.817  34.892  27.035  1.00  0.00     0.059 A 
ATOM     90  C   UNL A   1      45.530  35.161  29.328  1.00  0.00     0.059 A 
ATOM     91  F   UNL A   1      45.486  33.377  30.796  1.00  0.00    -0.206 F 
ATOM     92  C   UNL A   1      45.351  35.674  28.053  1.00  0.00     0.060 A 
BRANCH  92  93
ATOM     93  S   UNL A   1      45.790  37.381  27.710  1.00  0.00     0.124 S 
ATOM     94  O   UNL A   1      46.237  37.827  29.025  1.00  0.00    -0.237 OA
ATOM     95  O   UNL A   1      46.835  37.245  26.700  1.00  0.00    -0.237 OA
ATOM     96  O   UNL A   1      44.538  37.958  27.235  1.00  0.00    -0.744 OA
ENDBRANCH  92  93
ENDBRANCH  60  85
ENDBRANCH  34  35
ENDBRANCH  27  29
ENDBRANCH  26  27
ENDBRANCH  25  26
ENDBRANCH   1  25
TORSDOF 18
ENDMDL
MODEL 3
REMARK VINA RESULT:     -12.1      3.739      9.562
REMARK SMILES Cc1ccc(S(=O)(=O)N(CC(=O)OCCOC(=O)c2ccc(-c3c4nc(c(-c5c(F)cc(S(=O)(=O)[O-])cc5F)c5ccc([nH]5)c(-c5c(F)cc(S(=O)(=O)[O-])cc5F)c5nc(c(-c6c(F)cc(S(=O)(=O)[O-])cc6F)c6ccc3[nH]6)C=C5)C=C4)cc2)c2cc(Cl)cc(Cl)c2)cc1
REMARK SMILES IDX 14 1 13 2 11 3 12 4 10 5 9 6 6 7 7 8 8 9 5 10 1 11 2 12 3 13
REMARK SMILES IDX 94 14 4 15 93 16 85 17 86 18 92 19 87 20 90 21 88 22 89 23
REMARK SMILES IDX 91 24 15 25 16 26 17 27 18 28 19 29 20 30 84 31 21 32 83 33
REMARK SMILES IDX 22 34 23 35 24 36 77 37 25 38 82 39 76 40 78 41 26 42 81 43
REMARK SMILES IDX 75 44 74 45 27 47 61 48 40 49 60 50 41 51 44 52 59 53 79 54
REMARK SMILES IDX 42 55 43 56 58 58 80 59 45 60 28 61 29 62 38 63 30 64 31 65
REMARK SMILES IDX 37 66 39 67 32 68 33 69 34 70 35 71 36 72 62 73 63 74 72 75
REMARK SMILES IDX 64 76 65 77 71 78 73 79 66 80 67 81 68 82 69 83 70 84 46 85
REMARK SMILES IDX 47 86 56 87 48 88 49 89 55 90 57 91 50 92 51 93 52 94 53 95
REMARK SMILES IDX 54 96
REMARK H PARENT 78 46 44 57
REMARK Flexibility Score: inf
ROOT
ATOM      1  C   UNL A   1      35.277  24.625  25.028  1.00  0.00     0.274 C 
ENDROOT
BRANCH   1   2
ATOM      2  O   UNL A   1      33.898  24.210  25.034  1.00  0.00    -0.461 OA
BRANCH   2   3
ATOM      3  C   UNL A   1      33.225  24.229  26.211  1.00  0.00     0.326 C 
ATOM      4  O   UNL A   1      33.646  23.649  27.200  1.00  0.00    -0.250 OA
BRANCH   3   5
ATOM      5  C   UNL A   1      32.033  25.164  26.126  1.00  0.00     0.258 C 
BRANCH   5   6
ATOM      6  N   UNL A   1      31.930  26.462  25.385  1.00  0.00    -0.255 N 
BRANCH   6   7
ATOM      7  S   UNL A   1      31.799  26.313  23.682  1.00  0.00     0.264 S 
ATOM      8  O   UNL A   1      31.183  25.023  23.433  1.00  0.00    -0.201 OA
ATOM      9  O   UNL A   1      33.043  26.670  23.033  1.00  0.00    -0.201 OA
BRANCH   7  10
ATOM     10  C   UNL A   1      30.613  27.555  23.158  1.00  0.00     0.088 A 
ATOM     11  C   UNL A   1      27.909  30.619  21.765  1.00  0.00     0.044 C 
ATOM     12  C   UNL A   1      28.840  29.546  22.259  1.00  0.00    -0.051 A 
ATOM     13  C   UNL A   1      30.211  29.644  21.993  1.00  0.00     0.005 A 
ATOM     14  C   UNL A   1      28.371  28.458  23.011  1.00  0.00     0.005 A 
ATOM     15  C   UNL A   1      31.092  28.652  22.430  1.00  0.00     0.022 A 
ATOM     16  C   UNL A   1      29.253  27.464  23.469  1.00  0.00     0.022 A 
ENDBRANCH   7  10
ENDBRANCH   6   7
BRANCH   6  17
ATOM     17  C   UNL A   1      32.489  27.705  25.898  1.00  0.00     0.055 A 
ATOM     18  C   UNL A   1      33.828  27.833  26.266  1.00  0.00     0.047 A 
ATOM     19  C   UNL A   1      31.695  28.856  25.992  1.00  0.00     0.047 A 
ATOM     20  C   UNL A   1      34.299  28.973  26.925  1.00  0.00     0.044 A 
ATOM     21  C   UNL A   1      32.209  30.043  26.534  1.00  0.00     0.044 A 
ATOM     22  Cl  UNL A   1      35.899  28.981  27.569  1.00  0.00    -0.084 Cl
ATOM     23  C   UNL A   1      33.491  30.088  27.066  1.00  0.00     0.041 A 
ATOM     24  Cl  UNL A   1      31.268  31.487  26.502  1.00  0.00    -0.084 Cl
ENDBRANCH   6  17
ENDBRANCH   5   6
ENDBRANCH   3   5
ENDBRANCH   2   3
ENDBRANCH   1   2
BRANCH   1  25
ATOM     25  C   UNL A   1      36.286  23.474  25.291  1.00  0.00     0.275 C 
BRANCH  25  26
ATOM     26  O   UNL A   1      37.691  23.830  25.369  1.00  0.00    -0.458 OA
BRANCH  26  27
ATOM     27  C   UNL A   1      38.523  23.053  26.135  1.00  0.00     0.338 C 
ATOM     28  O   UNL A   1      38.860  21.923  25.867  1.00  0.00    -0.246 OA
BRANCH  27  29
ATOM     29  C   UNL A   1      39.242  23.950  27.085  1.00  0.00     0.060 A 
ATOM     30  C   UNL A   1      40.360  23.571  27.846  1.00  0.00     0.016 A 
ATOM     31  C   UNL A   1      38.989  25.292  26.870  1.00  0.00     0.016 A 
ATOM     32  C   UNL A   1      41.198  24.574  28.358  1.00  0.00     0.010 A 
ATOM     33  C   UNL A   1      40.033  26.157  26.938  1.00  0.00     0.010 A 
ATOM     34  C   UNL A   1      41.036  25.865  27.855  1.00  0.00    -0.014 A 
BRANCH  34  35
ATOM     35  C   UNL A   1      41.452  27.127  28.449  1.00  0.00     0.031 A 
ATOM     36  C   UNL A   1      40.488  28.155  28.844  1.00  0.00     0.074 A 
ATOM     37  C   UNL A   1      42.665  26.966  29.041  1.00  0.00     0.049 A 
ATOM     38  N   UNL A   1      40.762  29.411  28.899  1.00  0.00    -0.248 NA
ATOM     39  C   UNL A   1      39.109  27.843  29.228  1.00  0.00     0.031 C 
ATOM     40  C   UNL A   1      43.270  27.590  30.202  1.00  0.00     0.029 A 
ATOM     41  N   UNL A   1      43.611  26.003  28.683  1.00  0.00    -0.354 N 
ATOM     42  C   UNL A   1      39.764  29.985  29.658  1.00  0.00     0.074 A 
ATOM     43  C   UNL A   1      38.676  29.032  29.672  1.00  0.00     0.031 C 
ATOM     44  C   UNL A   1      44.568  27.212  30.264  1.00  0.00     0.029 A 
ATOM     45  C   UNL A   1      44.870  26.393  29.089  1.00  0.00     0.049 A 
ATOM     46  H   UNL A   1      43.408  25.166  28.206  1.00  0.00     0.167 HD
ATOM     47  C   UNL A   1      40.044  31.046  30.470  1.00  0.00     0.037 A 
ATOM     48  C   UNL A   1      45.719  26.675  28.057  1.00  0.00     0.037 A 
ATOM     49  C   UNL A   1      41.497  31.199  30.580  1.00  0.00     0.049 A 
ATOM     50  C   UNL A   1      45.794  28.174  27.903  1.00  0.00     0.074 A 
ATOM     51  C   UNL A   1      42.374  30.750  31.556  1.00  0.00     0.029 A 
ATOM     52  N   UNL A   1      42.276  31.500  29.466  1.00  0.00    -0.354 N 
ATOM     53  N   UNL A   1      44.875  28.999  28.328  1.00  0.00    -0.248 NA
ATOM     54  C   UNL A   1      46.957  28.862  27.359  1.00  0.00     0.031 C 
ATOM     55  C   UNL A   1      43.674  30.708  30.997  1.00  0.00     0.029 A 
ATOM     56  C   UNL A   1      43.593  31.122  29.679  1.00  0.00     0.049 A 
ATOM     57  H   UNL A   1      41.940  31.922  28.643  1.00  0.00     0.167 HD
ATOM     58  C   UNL A   1      45.317  30.280  28.210  1.00  0.00     0.074 A 
ATOM     59  C   UNL A   1      46.619  30.145  27.574  1.00  0.00     0.031 C 
ATOM     60  C   UNL A   1      44.614  31.356  28.668  1.00  0.00     0.037 A 
BRANCH  47  61
ATOM     61  C   UNL A   1      39.053  31.653  31.444  1.00  0.00     0.058 A 
ATOM     62  C   UNL A   1      38.279  32.785  31.105  1.00  0.00     0.135 A 
ATOM     63  C   UNL A   1      38.785  31.115  32.722  1.00  0.00     0.135 A 
ATOM     64  F   UNL A   1      38.370  33.366  29.903  1.00  0.00    -0.206 F 
ATOM     65  C   UNL A   1      37.369  33.378  31.981  1.00  0.00     0.059 A 
ATOM     66  C   UNL A   1      37.896  31.709  33.630  1.00  0.00     0.059 A 
ATOM     67  F   UNL A   1      39.364  29.971  33.122  1.00  0.00    -0.206 F 
ATOM     68  C   UNL A   1      37.190  32.843  33.249  1.00  0.00     0.060 A 
BRANCH  68  69
ATOM     69  S   UNL A   1      36.008  33.642  34.353  1.00  0.00     0.124 S 
ATOM     70  O   UNL A   1      36.160  35.049  33.997  1.00  0.00    -0.237 OA
ATOM     71  O   UNL A   1      34.751  33.018  33.955  1.00  0.00    -0.237 OA
ATOM     72  O   UNL A   1      36.492  33.283  35.684  1.00  0.00    -0.744 OA
ENDBRANCH  68  69
ENDBRANCH  47  61
BRANCH  48  73
ATOM     73  C   UNL A   1      45.623  25.648  26.947  1.00  0.00     0.058 A 
ATOM     74  C   UNL A   1      46.257  24.398  27.158  1.00  0.00     0.135 A 
ATOM     75  C   UNL A   1      44.676  25.693  25.911  1.00  0.00     0.135 A 
ATOM     76  F   UNL A   1      47.150  24.264  28.153  1.00  0.00    -0.206 F 
ATOM     77  C   UNL A   1      45.911  23.245  26.452  1.00  0.00     0.059 A 
ATOM     78  C   UNL A   1      44.321  24.545  25.178  1.00  0.00     0.059 A 
ATOM     79  F   UNL A   1      44.004  26.825  25.656  1.00  0.00    -0.206 F 
ATOM     80  C   UNL A   1      44.924  23.320  25.475  1.00  0.00     0.060 A 
BRANCH  80  81
ATOM     81  S   UNL A   1      44.320  21.779  24.730  1.00  0.00     0.124 S 
ATOM     82  O   UNL A   1      45.232  20.795  25.300  1.00  0.00    -0.237 OA
ATOM     83  O   UNL A   1      42.942  21.725  25.211  1.00  0.00    -0.237 OA
ATOM     84  O   UNL A   1      44.463  22.028  23.299  1.00  0.00    -0.744 OA
ENDBRANCH  80  81
ENDBRANCH  48  73
BRANCH  60  85
ATOM     85  C   UNL A   1      44.935  32.769  28.296  1.00  0.00     0.058 A 
ATOM     86  C   UNL A   1      45.673  33.620  29.131  1.00  0.00     0.135 A 
ATOM     87  C   UNL A   1      44.633  33.260  27.004  1.00  0.00     0.135 A 
ATOM     88  F   UNL A   1      46.129  33.208  30.323  1.00  0.00    -0.206 F 
ATOM     89  C   UNL A   1      45.998  34.916  28.756  1.00  0.00     0.059 A 
ATOM     90  C   UNL A   1      45.011  34.526  26.584  1.00  0.00     0.059 A 
ATOM     91  F   UNL A   1      43.970  32.520  26.103  1.00  0.00    -0.206 F 
ATOM     92  C   UNL A   1      45.656  35.361  27.484  1.00  0.00     0.060 A 
BRANCH  92  93
ATOM     93  S   UNL A   1      46.082  37.036  26.995  1.00  0.00     0.124 S 
ATOM     94  O   UNL A   1      46.886  37.467  28.134  1.00  0.00    -0.237 OA
ATOM     95  O   UNL A   1      46.811  36.829  25.749  1.00  0.00    -0.237 OA
ATOM     96  O   UNL A   1      44.782  37.682  26.855  1.00  0.00    -0.744 OA
ENDBRANCH  92  93
ENDBRANCH  60  85
ENDBRANCH  34  35
ENDBRANCH  27  29
ENDBRANCH  26  27
ENDBRANCH  25  26
ENDBRANCH   1  25
TORSDOF 18
ENDMDL
