MODEL 1
REMARK VINA RESULT:     -12.0      0.000      0.000
REMARK SMILES COc1ccc([C@@H]2[NH2+][C@H](C(=O)OCCOC(=O)c3ccc(-c4c5nc(c(-c6c(F)cc(S(=O)(=O)[O-])cc6F)c6ccc([nH]6)c(-c6c(F)cc(S(=O)(=O)[O-])cc6F)c6nc(c(-c7c(F)cc(S(=O)(=O)[O-])cc7F)c7ccc4[nH]7)C=C6)C=C5)cc3)CS2)cc1Cn1nc(C)c(Br)c1C
REMARK SMILES IDX 13 1 12 2 10 3 11 4 9 5 7 6 8 7 85 8 84 11 6 12 3 13 4 14
REMARK SMILES IDX 87 15 5 16 86 17 2 18 1 19 88 20 89 21 90 22 95 23 91 24
REMARK SMILES IDX 93 25 96 26 92 27 94 28 14 29 15 30 16 31 17 32 18 33 19 34
REMARK SMILES IDX 83 35 20 36 82 37 21 38 22 39 23 40 76 41 24 42 81 43 75 44
REMARK SMILES IDX 77 45 25 46 80 47 74 48 73 49 26 51 60 52 39 53 59 54 40 55
REMARK SMILES IDX 43 56 58 57 78 58 41 59 42 60 57 62 79 63 44 64 27 65 28 66
REMARK SMILES IDX 37 67 29 68 30 69 36 70 38 71 31 72 32 73 33 74 34 75 35 76
REMARK SMILES IDX 61 77 62 78 71 79 63 80 64 81 70 82 72 83 65 84 66 85 67 86
REMARK SMILES IDX 68 87 69 88 45 89 46 90 55 91 47 92 48 93 54 94 56 95 49 96
REMARK SMILES IDX 50 97 51 98 52 99 53 100
REMARK H PARENT 8 9 8 10 77 50 43 61
REMARK Flexibility Score: inf
ROOT
ATOM      1  C   UNL A   1      33.713  28.778  27.033  1.00  0.00     0.274 C 
ENDROOT
BRANCH   1   2
ATOM      2  O   UNL A   1      32.917  27.645  26.262  1.00  0.00    -0.458 OA
BRANCH   2   3
ATOM      3  C   UNL A   1      33.473  26.903  25.216  1.00  0.00     0.365 C 
ATOM      4  O   UNL A   1      34.007  25.817  25.467  1.00  0.00    -0.245 OA
BRANCH   3   5
ATOM      5  C   UNL A   1      33.480  27.371  23.660  1.00  0.00     0.304 C 
ATOM      6  C   UNL A   1      31.473  26.990  22.343  1.00  0.00     0.274 C 
ATOM      7  N   UNL A   1      32.876  26.585  22.519  1.00  0.00    -0.319 N 
ATOM      8  S   UNL A   1      31.428  28.765  22.835  1.00  0.00    -0.087 SA
ATOM      9  H   UNL A   1      33.396  26.773  21.662  1.00  0.00     0.348 HD
ATOM     10  H   UNL A   1      32.921  25.588  22.728  1.00  0.00     0.348 HD
ATOM     11  C   UNL A   1      33.150  28.814  23.382  1.00  0.00     0.153 C 
BRANCH   6  12
ATOM     12  C   UNL A   1      30.620  26.083  23.195  1.00  0.00     0.021 A 
ATOM     13  C   UNL A   1      30.493  24.680  25.441  1.00  0.00     0.123 A 
ATOM     14  C   UNL A   1      29.714  25.850  25.338  1.00  0.00     0.047 A 
ATOM     15  C   UNL A   1      31.020  23.943  24.248  1.00  0.00     0.016 A 
ATOM     16  C   UNL A   1      29.845  26.610  24.215  1.00  0.00     0.015 A 
ATOM     17  C   UNL A   1      30.858  24.687  23.093  1.00  0.00     0.020 A 
BRANCH  13  18
ATOM     18  O   UNL A   1      30.758  24.391  26.760  1.00  0.00    -0.496 OA
ATOM     19  C   UNL A   1      32.024  23.854  27.209  1.00  0.00     0.278 C 
ENDBRANCH  13  18
BRANCH  15  20
ATOM     20  C   UNL A   1      32.206  22.785  23.975  1.00  0.00     0.184 C 
BRANCH  20  21
ATOM     21  N   UNL A   1      33.632  22.455  24.449  1.00  0.00    -0.264 N 
ATOM     22  N   UNL A   1      34.700  22.991  23.801  1.00  0.00    -0.177 NA
ATOM     23  C   UNL A   1      33.997  21.150  24.871  1.00  0.00     0.050 A 
ATOM     24  C   UNL A   1      35.737  22.164  23.936  1.00  0.00     0.074 A 
ATOM     25  C   UNL A   1      35.331  20.989  24.563  1.00  0.00     0.061 A 
ATOM     26  C   UNL A   1      33.068  20.117  25.385  1.00  0.00     0.067 C 
ATOM     27  C   UNL A   1      37.086  22.547  23.430  1.00  0.00     0.070 C 
ATOM     28  Br  UNL A   1      36.408  19.474  24.822  1.00  0.00    -0.047 Br
ENDBRANCH  20  21
ENDBRANCH  15  20
ENDBRANCH   6  12
ENDBRANCH   3   5
ENDBRANCH   2   3
ENDBRANCH   1   2
BRANCH   1  29
ATOM     29  C   UNL A   1      33.333  30.555  27.225  1.00  0.00     0.275 C 
BRANCH  29  30
ATOM     30  O   UNL A   1      34.196  31.598  28.054  1.00  0.00    -0.458 OA
BRANCH  30  31
ATOM     31  C   UNL A   1      34.968  31.631  29.235  1.00  0.00     0.338 C 
ATOM     32  O   UNL A   1      34.715  32.253  30.230  1.00  0.00    -0.246 OA
BRANCH  31  33
ATOM     33  C   UNL A   1      36.253  30.718  29.178  1.00  0.00     0.060 A 
ATOM     34  C   UNL A   1      36.935  30.344  27.992  1.00  0.00     0.016 A 
ATOM     35  C   UNL A   1      36.876  30.314  30.361  1.00  0.00     0.016 A 
ATOM     36  C   UNL A   1      38.297  29.907  27.983  1.00  0.00     0.010 A 
ATOM     37  C   UNL A   1      38.208  29.798  30.355  1.00  0.00     0.010 A 
ATOM     38  C   UNL A   1      38.983  29.683  29.179  1.00  0.00    -0.014 A 
BRANCH  38  39
ATOM     39  C   UNL A   1      40.413  29.189  29.265  1.00  0.00     0.031 A 
ATOM     40  C   UNL A   1      41.500  30.206  29.466  1.00  0.00     0.074 A 
ATOM     41  C   UNL A   1      40.812  27.905  29.081  1.00  0.00     0.049 A 
ATOM     42  N   UNL A   1      42.792  30.094  29.292  1.00  0.00    -0.248 NA
ATOM     43  C   UNL A   1      41.060  31.522  29.941  1.00  0.00     0.031 C 
ATOM     44  C   UNL A   1      39.944  26.741  29.059  1.00  0.00     0.029 A 
ATOM     45  N   UNL A   1      42.064  27.360  28.832  1.00  0.00    -0.354 N 
ATOM     46  C   UNL A   1      43.323  31.333  29.621  1.00  0.00     0.074 A 
ATOM     47  C   UNL A   1      42.207  32.182  29.989  1.00  0.00     0.031 C 
ATOM     48  C   UNL A   1      40.638  25.654  28.675  1.00  0.00     0.029 A 
ATOM     49  C   UNL A   1      42.030  26.030  28.447  1.00  0.00     0.049 A 
ATOM     50  H   UNL A   1      42.900  27.871  28.921  1.00  0.00     0.167 HD
ATOM     51  C   UNL A   1      44.616  31.736  29.622  1.00  0.00     0.037 A 
ATOM     52  C   UNL A   1      42.986  25.207  27.952  1.00  0.00     0.037 A 
ATOM     53  C   UNL A   1      45.736  30.916  29.243  1.00  0.00     0.049 A 
ATOM     54  C   UNL A   1      44.406  25.708  27.825  1.00  0.00     0.074 A 
ATOM     55  C   UNL A   1      47.077  31.261  29.197  1.00  0.00     0.029 A 
ATOM     56  N   UNL A   1      45.653  29.594  28.835  1.00  0.00    -0.354 N 
ATOM     57  N   UNL A   1      44.887  26.890  28.121  1.00  0.00    -0.248 NA
ATOM     58  C   UNL A   1      45.418  24.763  27.320  1.00  0.00     0.031 C 
ATOM     59  C   UNL A   1      47.800  30.161  28.725  1.00  0.00     0.029 A 
ATOM     60  C   UNL A   1      46.916  29.115  28.519  1.00  0.00     0.049 A 
ATOM     61  H   UNL A   1      44.821  29.072  28.778  1.00  0.00     0.167 HD
ATOM     62  C   UNL A   1      46.257  26.817  27.885  1.00  0.00     0.074 A 
ATOM     63  C   UNL A   1      46.532  25.477  27.415  1.00  0.00     0.031 C 
ATOM     64  C   UNL A   1      47.198  27.776  28.061  1.00  0.00     0.037 A 
BRANCH  51  65
ATOM     65  C   UNL A   1      44.867  33.163  30.012  1.00  0.00     0.058 A 
ATOM     66  C   UNL A   1      44.862  34.196  29.060  1.00  0.00     0.135 A 
ATOM     67  C   UNL A   1      45.156  33.494  31.344  1.00  0.00     0.135 A 
ATOM     68  F   UNL A   1      44.615  33.924  27.769  1.00  0.00    -0.206 F 
ATOM     69  C   UNL A   1      45.180  35.502  29.410  1.00  0.00     0.059 A 
ATOM     70  C   UNL A   1      45.450  34.799  31.721  1.00  0.00     0.059 A 
ATOM     71  F   UNL A   1      45.176  32.541  32.289  1.00  0.00    -0.206 F 
ATOM     72  C   UNL A   1      45.482  35.792  30.742  1.00  0.00     0.060 A 
BRANCH  72  73
ATOM     73  S   UNL A   1      45.926  37.486  31.176  1.00  0.00     0.124 S 
ATOM     74  O   UNL A   1      44.613  38.079  31.413  1.00  0.00    -0.237 OA
ATOM     75  O   UNL A   1      46.758  37.300  32.359  1.00  0.00    -0.237 OA
ATOM     76  O   UNL A   1      46.627  37.967  29.989  1.00  0.00    -0.744 OA
ENDBRANCH  72  73
ENDBRANCH  51  65
BRANCH  52  77
ATOM     77  C   UNL A   1      42.658  23.809  27.522  1.00  0.00     0.058 A 
ATOM     78  C   UNL A   1      42.747  22.728  28.415  1.00  0.00     0.135 A 
ATOM     79  C   UNL A   1      42.304  23.516  26.194  1.00  0.00     0.135 A 
ATOM     80  F   UNL A   1      43.114  22.942  29.687  1.00  0.00    -0.206 F 
ATOM     81  C   UNL A   1      42.505  21.415  28.011  1.00  0.00     0.059 A 
ATOM     82  C   UNL A   1      42.038  22.212  25.769  1.00  0.00     0.059 A 
ATOM     83  F   UNL A   1      42.218  24.503  25.288  1.00  0.00    -0.206 F 
ATOM     84  C   UNL A   1      42.148  21.166  26.685  1.00  0.00     0.060 A 
BRANCH  84  85
ATOM     85  S   UNL A   1      41.786  19.464  26.187  1.00  0.00     0.124 S 
ATOM     86  O   UNL A   1      42.698  19.282  25.063  1.00  0.00    -0.237 OA
ATOM     87  O   UNL A   1      42.110  18.714  27.397  1.00  0.00    -0.237 OA
ATOM     88  O   UNL A   1      40.367  19.506  25.847  1.00  0.00    -0.744 OA
ENDBRANCH  84  85
ENDBRANCH  52  77
BRANCH  64  89
ATOM     89  C   UNL A   1      48.635  27.413  27.793  1.00  0.00     0.058 A 
ATOM     90  C   UNL A   1      49.449  26.834  28.778  1.00  0.00     0.135 A 
ATOM     91  C   UNL A   1      49.182  27.587  26.511  1.00  0.00     0.135 A 
ATOM     92  F   UNL A   1      48.980  26.653  30.022  1.00  0.00    -0.206 F 
ATOM     93  C   UNL A   1      50.760  26.451  28.505  1.00  0.00     0.059 A 
ATOM     94  C   UNL A   1      50.482  27.190  26.210  1.00  0.00     0.059 A 
ATOM     95  F   UNL A   1      48.444  28.128  25.529  1.00  0.00    -0.206 F 
ATOM     96  C   UNL A   1      51.267  26.630  27.216  1.00  0.00     0.060 A 
BRANCH  96  97
ATOM     97  S   UNL A   1      52.952  26.086  26.860  1.00  0.00     0.124 S 
ATOM     98  O   UNL A   1      53.402  27.108  25.921  1.00  0.00    -0.237 OA
ATOM     99  O   UNL A   1      53.579  26.116  28.178  1.00  0.00    -0.237 OA
ATOM    100  O   UNL A   1      52.766  24.753  26.294  1.00  0.00    -0.744 OA
ENDBRANCH  96  97
ENDBRANCH  64  89
ENDBRANCH  38  39
ENDBRANCH  31  33
ENDBRANCH  30  31
ENDBRANCH  29  30
ENDBRANCH   1  29
TORSDOF 18
ENDMDL
MODEL 2
REMARK VINA RESULT:     -11.7      4.965      7.456
REMARK SMILES COc1ccc([C@@H]2[NH2+][C@H](C(=O)OCCOC(=O)c3ccc(-c4c5nc(c(-c6c(F)cc(S(=O)(=O)[O-])cc6F)c6ccc([nH]6)c(-c6c(F)cc(S(=O)(=O)[O-])cc6F)c6nc(c(-c7c(F)cc(S(=O)(=O)[O-])cc7F)c7ccc4[nH]7)C=C6)C=C5)cc3)CS2)cc1Cn1nc(C)c(Br)c1C
REMARK SMILES IDX 13 1 12 2 10 3 11 4 9 5 7 6 8 7 85 8 84 11 6 12 3 13 4 14
REMARK SMILES IDX 87 15 5 16 86 17 2 18 1 19 88 20 89 21 90 22 95 23 91 24
REMARK SMILES IDX 93 25 96 26 92 27 94 28 14 29 15 30 16 31 17 32 18 33 19 34
REMARK SMILES IDX 83 35 20 36 82 37 21 38 22 39 23 40 76 41 24 42 81 43 75 44
REMARK SMILES IDX 77 45 25 46 80 47 74 48 73 49 26 51 60 52 39 53 59 54 40 55
REMARK SMILES IDX 43 56 58 57 78 58 41 59 42 60 57 62 79 63 44 64 27 65 28 66
REMARK SMILES IDX 37 67 29 68 30 69 36 70 38 71 31 72 32 73 33 74 34 75 35 76
REMARK SMILES IDX 61 77 62 78 71 79 63 80 64 81 70 82 72 83 65 84 66 85 67 86
REMARK SMILES IDX 68 87 69 88 45 89 46 90 55 91 47 92 48 93 54 94 56 95 49 96
REMARK SMILES IDX 50 97 51 98 52 99 53 100
REMARK H PARENT 8 9 8 10 77 50 43 61
REMARK Flexibility Score: inf
ROOT
ATOM      1  C   UNL A   1      33.941  34.310  28.337  1.00  0.00     0.274 C 
ENDROOT
BRANCH   1   2
ATOM      2  O   UNL A   1      32.810  34.656  29.393  1.00  0.00    -0.458 OA
BRANCH   2   3
ATOM      3  C   UNL A   1      32.752  35.876  30.072  1.00  0.00     0.365 C 
ATOM      4  O   UNL A   1      32.977  36.921  29.451  1.00  0.00    -0.245 OA
BRANCH   3   5
ATOM      5  C   UNL A   1      32.411  36.032  31.653  1.00  0.00     0.304 C 
ATOM      6  C   UNL A   1      33.917  34.999  33.256  1.00  0.00     0.274 C 
ATOM      7  N   UNL A   1      32.564  34.936  32.682  1.00  0.00    -0.319 N 
ATOM      8  S   UNL A   1      34.365  36.786  33.217  1.00  0.00    -0.087 SA
ATOM      9  H   UNL A   1      31.873  35.064  33.422  1.00  0.00     0.348 HD
ATOM     10  H   UNL A   1      32.421  34.028  32.241  1.00  0.00     0.348 HD
ATOM     11  C   UNL A   1      32.876  37.295  32.328  1.00  0.00     0.153 C 
BRANCH   6  12
ATOM     12  C   UNL A   1      34.812  34.111  32.427  1.00  0.00     0.021 A 
ATOM     13  C   UNL A   1      36.672  32.223  32.486  1.00  0.00     0.123 A 
ATOM     14  C   UNL A   1      35.380  31.875  32.046  1.00  0.00     0.047 A 
ATOM     15  C   UNL A   1      37.182  33.632  32.489  1.00  0.00     0.016 A 
ATOM     16  C   UNL A   1      34.407  32.828  32.095  1.00  0.00     0.015 A 
ATOM     17  C   UNL A   1      36.157  34.530  32.253  1.00  0.00     0.020 A 
BRANCH  13  18
ATOM     18  O   UNL A   1      37.328  31.118  32.979  1.00  0.00    -0.496 OA
ATOM     19  C   UNL A   1      38.769  31.003  33.001  1.00  0.00     0.278 C 
ENDBRANCH  13  18
BRANCH  15  20
ATOM     20  C   UNL A   1      38.453  34.450  33.219  1.00  0.00     0.184 C 
BRANCH  20  21
ATOM     21  N   UNL A   1      39.988  34.371  33.298  1.00  0.00    -0.264 N 
ATOM     22  N   UNL A   1      40.665  35.205  34.132  1.00  0.00    -0.177 NA
ATOM     23  C   UNL A   1      40.788  34.178  32.142  1.00  0.00     0.050 A 
ATOM     24  C   UNL A   1      41.885  35.405  33.632  1.00  0.00     0.074 A 
ATOM     25  C   UNL A   1      41.988  34.814  32.375  1.00  0.00     0.061 A 
ATOM     26  C   UNL A   1      40.339  33.556  30.874  1.00  0.00     0.067 C 
ATOM     27  C   UNL A   1      42.900  36.184  34.395  1.00  0.00     0.070 C 
ATOM     28  Br  UNL A   1      43.463  34.972  31.225  1.00  0.00    -0.047 Br
ENDBRANCH  20  21
ENDBRANCH  15  20
ENDBRANCH   6  12
ENDBRANCH   3   5
ENDBRANCH   2   3
ENDBRANCH   1   2
BRANCH   1  29
ATOM     29  C   UNL A   1      35.735  34.062  28.579  1.00  0.00     0.275 C 
BRANCH  29  30
ATOM     30  O   UNL A   1      36.469  32.657  28.660  1.00  0.00    -0.458 OA
BRANCH  30  31
ATOM     31  C   UNL A   1      36.137  31.286  28.624  1.00  0.00     0.338 C 
ATOM     32  O   UNL A   1      35.027  30.826  28.620  1.00  0.00    -0.246 OA
BRANCH  31  33
ATOM     33  C   UNL A   1      37.390  30.331  28.554  1.00  0.00     0.060 A 
ATOM     34  C   UNL A   1      37.927  29.779  27.365  1.00  0.00     0.016 A 
ATOM     35  C   UNL A   1      38.133  30.069  29.707  1.00  0.00     0.016 A 
ATOM     36  C   UNL A   1      39.272  29.298  27.269  1.00  0.00     0.010 A 
ATOM     37  C   UNL A   1      39.446  29.512  29.629  1.00  0.00     0.010 A 
ATOM     38  C   UNL A   1      40.082  29.214  28.402  1.00  0.00    -0.014 A 
BRANCH  38  39
ATOM     39  C   UNL A   1      41.504  28.687  28.401  1.00  0.00     0.031 A 
ATOM     40  C   UNL A   1      42.626  29.685  28.419  1.00  0.00     0.074 A 
ATOM     41  C   UNL A   1      41.856  27.382  28.288  1.00  0.00     0.049 A 
ATOM     42  N   UNL A   1      43.894  29.523  28.139  1.00  0.00    -0.248 NA
ATOM     43  C   UNL A   1      42.259  31.047  28.822  1.00  0.00     0.031 C 
ATOM     44  C   UNL A   1      40.965  26.245  28.441  1.00  0.00     0.029 A 
ATOM     45  N   UNL A   1      43.068  26.782  27.974  1.00  0.00    -0.354 N 
ATOM     46  C   UNL A   1      44.478  30.768  28.317  1.00  0.00     0.074 A 
ATOM     47  C   UNL A   1      43.419  31.676  28.712  1.00  0.00     0.031 C 
ATOM     48  C   UNL A   1      41.598  25.111  28.086  1.00  0.00     0.029 A 
ATOM     49  C   UNL A   1      42.971  25.427  27.705  1.00  0.00     0.049 A 
ATOM     50  H   UNL A   1      43.920  27.275  27.946  1.00  0.00     0.167 HD
ATOM     51  C   UNL A   1      45.774  31.132  28.168  1.00  0.00     0.037 A 
ATOM     52  C   UNL A   1      43.859  24.540  27.196  1.00  0.00     0.037 A 
ATOM     53  C   UNL A   1      46.837  30.253  27.759  1.00  0.00     0.049 A 
ATOM     54  C   UNL A   1      45.272  24.988  26.901  1.00  0.00     0.074 A 
ATOM     55  C   UNL A   1      48.175  30.555  27.566  1.00  0.00     0.029 A 
ATOM     56  N   UNL A   1      46.689  28.905  27.471  1.00  0.00    -0.354 N 
ATOM     57  N   UNL A   1      45.803  26.176  27.054  1.00  0.00    -0.248 NA
ATOM     58  C   UNL A   1      46.213  23.977  26.387  1.00  0.00     0.031 C 
ATOM     59  C   UNL A   1      48.829  29.400  27.123  1.00  0.00     0.029 A 
ATOM     60  C   UNL A   1      47.908  28.366  27.084  1.00  0.00     0.049 A 
ATOM     61  H   UNL A   1      45.844  28.404  27.532  1.00  0.00     0.167 HD
ATOM     62  C   UNL A   1      47.144  26.045  26.704  1.00  0.00     0.074 A 
ATOM     63  C   UNL A   1      47.346  24.664  26.323  1.00  0.00     0.031 C 
ATOM     64  C   UNL A   1      48.117  26.988  26.715  1.00  0.00     0.037 A 
BRANCH  51  65
ATOM     65  C   UNL A   1      46.090  32.578  28.415  1.00  0.00     0.058 A 
ATOM     66  C   UNL A   1      45.927  33.547  27.411  1.00  0.00     0.135 A 
ATOM     67  C   UNL A   1      46.601  32.991  29.655  1.00  0.00     0.135 A 
ATOM     68  F   UNL A   1      45.465  33.195  26.201  1.00  0.00    -0.206 F 
ATOM     69  C   UNL A   1      46.302  34.869  27.615  1.00  0.00     0.059 A 
ATOM     70  C   UNL A   1      46.958  34.314  29.889  1.00  0.00     0.059 A 
ATOM     71  F   UNL A   1      46.779  32.101  30.644  1.00  0.00    -0.206 F 
ATOM     72  C   UNL A   1      46.825  35.241  28.856  1.00  0.00     0.060 A 
BRANCH  72  73
ATOM     73  S   UNL A   1      47.339  36.953  29.095  1.00  0.00     0.124 S 
ATOM     74  O   UNL A   1      46.203  37.498  29.833  1.00  0.00    -0.237 OA
ATOM     75  O   UNL A   1      48.575  36.807  29.856  1.00  0.00    -0.237 OA
ATOM     76  O   UNL A   1      47.500  37.453  27.733  1.00  0.00    -0.744 OA
ENDBRANCH  72  73
ENDBRANCH  51  65
BRANCH  52  77
ATOM     77  C   UNL A   1      43.464  23.122  26.914  1.00  0.00     0.058 A 
ATOM     78  C   UNL A   1      43.296  22.188  27.950  1.00  0.00     0.135 A 
ATOM     79  C   UNL A   1      43.301  22.655  25.598  1.00  0.00     0.135 A 
ATOM     80  F   UNL A   1      43.472  22.567  29.225  1.00  0.00    -0.206 F 
ATOM     81  C   UNL A   1      42.989  20.851  27.697  1.00  0.00     0.059 A 
ATOM     82  C   UNL A   1      42.975  21.326  25.319  1.00  0.00     0.059 A 
ATOM     83  F   UNL A   1      43.464  23.494  24.563  1.00  0.00    -0.206 F 
ATOM     84  C   UNL A   1      42.827  20.429  26.377  1.00  0.00     0.060 A 
BRANCH  84  85
ATOM     85  S   UNL A   1      42.378  18.704  26.065  1.00  0.00     0.124 S 
ATOM     86  O   UNL A   1      40.979  18.826  25.672  1.00  0.00    -0.237 OA
ATOM     87  O   UNL A   1      43.307  18.331  25.003  1.00  0.00    -0.237 OA
ATOM     88  O   UNL A   1      42.617  18.055  27.352  1.00  0.00    -0.744 OA
ENDBRANCH  84  85
ENDBRANCH  52  77
BRANCH  64  89
ATOM     89  C   UNL A   1      49.515  26.563  26.350  1.00  0.00     0.058 A 
ATOM     90  C   UNL A   1      50.063  26.819  25.084  1.00  0.00     0.135 A 
ATOM     91  C   UNL A   1      50.340  25.947  27.307  1.00  0.00     0.135 A 
ATOM     92  F   UNL A   1      49.316  27.397  24.130  1.00  0.00    -0.206 F 
ATOM     93  C   UNL A   1      51.375  26.470  24.774  1.00  0.00     0.059 A 
ATOM     94  C   UNL A   1      51.662  25.611  27.026  1.00  0.00     0.059 A 
ATOM     95  F   UNL A   1      49.871  25.686  28.537  1.00  0.00    -0.206 F 
ATOM     96  C   UNL A   1      52.169  25.869  25.754  1.00  0.00     0.060 A 
BRANCH  96  97
ATOM     97  S   UNL A   1      53.884  25.465  25.357  1.00  0.00     0.124 S 
ATOM     98  O   UNL A   1      54.613  26.343  26.267  1.00  0.00    -0.237 OA
ATOM     99  O   UNL A   1      53.951  24.039  25.661  1.00  0.00    -0.237 OA
ATOM    100  O   UNL A   1      53.992  25.801  23.940  1.00  0.00    -0.744 OA
ENDBRANCH  96  97
ENDBRANCH  64  89
ENDBRANCH  38  39
ENDBRANCH  31  33
ENDBRANCH  30  31
ENDBRANCH  29  30
ENDBRANCH   1  29
TORSDOF 18
ENDMDL
MODEL 3
REMARK VINA RESULT:     -11.5      1.349      2.151
REMARK SMILES COc1ccc([C@@H]2[NH2+][C@H](C(=O)OCCOC(=O)c3ccc(-c4c5nc(c(-c6c(F)cc(S(=O)(=O)[O-])cc6F)c6ccc([nH]6)c(-c6c(F)cc(S(=O)(=O)[O-])cc6F)c6nc(c(-c7c(F)cc(S(=O)(=O)[O-])cc7F)c7ccc4[nH]7)C=C6)C=C5)cc3)CS2)cc1Cn1nc(C)c(Br)c1C
REMARK SMILES IDX 13 1 12 2 10 3 11 4 9 5 7 6 8 7 85 8 84 11 6 12 3 13 4 14
REMARK SMILES IDX 87 15 5 16 86 17 2 18 1 19 88 20 89 21 90 22 95 23 91 24
REMARK SMILES IDX 93 25 96 26 92 27 94 28 14 29 15 30 16 31 17 32 18 33 19 34
REMARK SMILES IDX 83 35 20 36 82 37 21 38 22 39 23 40 76 41 24 42 81 43 75 44
REMARK SMILES IDX 77 45 25 46 80 47 74 48 73 49 26 51 60 52 39 53 59 54 40 55
REMARK SMILES IDX 43 56 58 57 78 58 41 59 42 60 57 62 79 63 44 64 27 65 28 66
REMARK SMILES IDX 37 67 29 68 30 69 36 70 38 71 31 72 32 73 33 74 34 75 35 76
REMARK SMILES IDX 61 77 62 78 71 79 63 80 64 81 70 82 72 83 65 84 66 85 67 86
REMARK SMILES IDX 68 87 69 88 45 89 46 90 55 91 47 92 48 93 54 94 56 95 49 96
REMARK SMILES IDX 50 97 51 98 52 99 53 100
REMARK H PARENT 8 9 8 10 77 50 43 61
REMARK Flexibility Score: inf
ROOT
ATOM      1  C   UNL A   1      34.006  28.605  27.306  1.00  0.00     0.274 C 
ENDROOT
BRANCH   1   2
ATOM      2  O   UNL A   1      33.074  27.595  26.517  1.00  0.00    -0.458 OA
BRANCH   2   3
ATOM      3  C   UNL A   1      33.560  26.707  25.553  1.00  0.00     0.365 C 
ATOM      4  O   UNL A   1      33.705  25.516  25.853  1.00  0.00    -0.245 OA
BRANCH   3   5
ATOM      5  C   UNL A   1      33.963  27.127  24.036  1.00  0.00     0.304 C 
ATOM      6  C   UNL A   1      32.209  27.161  22.355  1.00  0.00     0.274 C 
ATOM      7  N   UNL A   1      33.431  26.465  22.787  1.00  0.00    -0.319 N 
ATOM      8  S   UNL A   1      32.458  28.915  22.864  1.00  0.00    -0.087 SA
ATOM      9  H   UNL A   1      34.133  26.517  22.047  1.00  0.00     0.348 HD
ATOM     10  H   UNL A   1      33.218  25.487  22.980  1.00  0.00     0.348 HD
ATOM     11  C   UNL A   1      34.014  28.600  23.730  1.00  0.00     0.153 C 
BRANCH   6  12
ATOM     12  C   UNL A   1      31.034  26.481  23.010  1.00  0.00     0.021 A 
ATOM     13  C   UNL A   1      30.207  25.100  25.117  1.00  0.00     0.123 A 
ATOM     14  C   UNL A   1      29.768  26.431  24.976  1.00  0.00     0.047 A 
ATOM     15  C   UNL A   1      30.718  24.283  23.970  1.00  0.00     0.016 A 
ATOM     16  C   UNL A   1      30.261  27.162  23.936  1.00  0.00     0.015 A 
ATOM     17  C   UNL A   1      30.932  25.073  22.854  1.00  0.00     0.020 A 
BRANCH  13  18
ATOM     18  O   UNL A   1      30.178  24.720  26.439  1.00  0.00    -0.496 OA
ATOM     19  C   UNL A   1      30.204  23.337  26.861  1.00  0.00     0.278 C 
ENDBRANCH  13  18
BRANCH  15  20
ATOM     20  C   UNL A   1      31.608  22.869  23.801  1.00  0.00     0.184 C 
BRANCH  20  21
ATOM     21  N   UNL A   1      32.840  22.195  24.429  1.00  0.00    -0.264 N 
ATOM     22  N   UNL A   1      32.845  21.897  25.756  1.00  0.00    -0.177 NA
ATOM     23  C   UNL A   1      34.162  22.567  24.069  1.00  0.00     0.050 A 
ATOM     24  C   UNL A   1      34.106  21.912  26.189  1.00  0.00     0.074 A 
ATOM     25  C   UNL A   1      34.952  22.362  25.179  1.00  0.00     0.061 A 
ATOM     26  C   UNL A   1      34.562  23.211  22.796  1.00  0.00     0.067 C 
ATOM     27  C   UNL A   1      34.434  21.502  27.584  1.00  0.00     0.070 C 
ATOM     28  Br  UNL A   1      36.787  22.700  25.378  1.00  0.00    -0.047 Br
ENDBRANCH  20  21
ENDBRANCH  15  20
ENDBRANCH   6  12
ENDBRANCH   3   5
ENDBRANCH   2   3
ENDBRANCH   1   2
BRANCH   1  29
ATOM     29  C   UNL A   1      34.101  30.427  27.217  1.00  0.00     0.275 C 
BRANCH  29  30
ATOM     30  O   UNL A   1      35.343  31.309  27.665  1.00  0.00    -0.458 OA
BRANCH  30  31
ATOM     31  C   UNL A   1      36.118  31.535  28.822  1.00  0.00     0.338 C 
ATOM     32  O   UNL A   1      35.872  32.320  29.697  1.00  0.00    -0.246 OA
BRANCH  31  33
ATOM     33  C   UNL A   1      37.394  30.614  28.921  1.00  0.00     0.060 A 
ATOM     34  C   UNL A   1      37.722  29.577  28.012  1.00  0.00     0.016 A 
ATOM     35  C   UNL A   1      38.367  30.870  29.890  1.00  0.00     0.016 A 
ATOM     36  C   UNL A   1      39.051  29.067  27.860  1.00  0.00     0.010 A 
ATOM     37  C   UNL A   1      39.673  30.300  29.794  1.00  0.00     0.010 A 
ATOM     38  C   UNL A   1      40.073  29.471  28.720  1.00  0.00    -0.014 A 
BRANCH  38  39
ATOM     39  C   UNL A   1      41.499  28.960  28.656  1.00  0.00     0.031 A 
ATOM     40  C   UNL A   1      42.610  29.970  28.648  1.00  0.00     0.074 A 
ATOM     41  C   UNL A   1      41.860  27.661  28.507  1.00  0.00     0.049 A 
ATOM     42  N   UNL A   1      43.868  29.826  28.318  1.00  0.00    -0.248 NA
ATOM     43  C   UNL A   1      42.245  31.321  29.088  1.00  0.00     0.031 C 
ATOM     44  C   UNL A   1      40.987  26.512  28.673  1.00  0.00     0.029 A 
ATOM     45  N   UNL A   1      43.065  27.080  28.136  1.00  0.00    -0.354 N 
ATOM     46  C   UNL A   1      44.447  31.075  28.495  1.00  0.00     0.074 A 
ATOM     47  C   UNL A   1      43.394  31.964  28.945  1.00  0.00     0.031 C 
ATOM     48  C   UNL A   1      41.617  25.391  28.275  1.00  0.00     0.029 A 
ATOM     49  C   UNL A   1      42.971  25.729  27.847  1.00  0.00     0.049 A 
ATOM     50  H   UNL A   1      43.910  27.582  28.084  1.00  0.00     0.167 HD
ATOM     51  C   UNL A   1      45.732  31.455  28.303  1.00  0.00     0.037 A 
ATOM     52  C   UNL A   1      43.849  24.860  27.290  1.00  0.00     0.037 A 
ATOM     53  C   UNL A   1      46.788  30.595  27.839  1.00  0.00     0.049 A 
ATOM     54  C   UNL A   1      45.244  25.328  26.949  1.00  0.00     0.074 A 
ATOM     55  C   UNL A   1      48.114  30.914  27.600  1.00  0.00     0.029 A 
ATOM     56  N   UNL A   1      46.643  29.250  27.533  1.00  0.00    -0.354 N 
ATOM     57  N   UNL A   1      45.769  26.519  27.102  1.00  0.00    -0.248 NA
ATOM     58  C   UNL A   1      46.175  24.336  26.382  1.00  0.00     0.031 C 
ATOM     59  C   UNL A   1      48.762  29.774  27.113  1.00  0.00     0.029 A 
ATOM     60  C   UNL A   1      47.851  28.731  27.091  1.00  0.00     0.049 A 
ATOM     61  H   UNL A   1      45.806  28.739  27.617  1.00  0.00     0.167 HD
ATOM     62  C   UNL A   1      47.097  26.409  26.699  1.00  0.00     0.074 A 
ATOM     63  C   UNL A   1      47.298  25.036  26.286  1.00  0.00     0.031 C 
ATOM     64  C   UNL A   1      48.060  27.362  26.690  1.00  0.00     0.037 A 
BRANCH  51  65
ATOM     65  C   UNL A   1      46.043  32.900  28.563  1.00  0.00     0.058 A 
ATOM     66  C   UNL A   1      46.445  33.347  29.832  1.00  0.00     0.135 A 
ATOM     67  C   UNL A   1      45.897  33.852  27.543  1.00  0.00     0.135 A 
ATOM     68  F   UNL A   1      46.575  32.477  30.846  1.00  0.00    -0.206 F 
ATOM     69  C   UNL A   1      46.648  34.697  30.092  1.00  0.00     0.059 A 
ATOM     70  C   UNL A   1      46.121  35.204  27.774  1.00  0.00     0.059 A 
ATOM     71  F   UNL A   1      45.511  33.473  26.314  1.00  0.00    -0.206 F 
ATOM     72  C   UNL A   1      46.475  35.619  29.057  1.00  0.00     0.060 A 
BRANCH  72  73
ATOM     73  S   UNL A   1      46.710  37.371  29.417  1.00  0.00     0.124 S 
ATOM     74  O   UNL A   1      46.469  37.972  28.109  1.00  0.00    -0.237 OA
ATOM     75  O   UNL A   1      45.687  37.624  30.427  1.00  0.00    -0.237 OA
ATOM     76  O   UNL A   1      48.087  37.438  29.895  1.00  0.00    -0.744 OA
ENDBRANCH  72  73
ENDBRANCH  51  65
BRANCH  52  77
ATOM     77  C   UNL A   1      43.457  23.443  26.999  1.00  0.00     0.058 A 
ATOM     78  C   UNL A   1      43.140  23.024  25.696  1.00  0.00     0.135 A 
ATOM     79  C   UNL A   1      43.335  22.491  28.026  1.00  0.00     0.135 A 
ATOM     80  F   UNL A   1      43.204  23.897  24.680  1.00  0.00    -0.206 F 
ATOM     81  C   UNL A   1      42.713  21.724  25.422  1.00  0.00     0.059 A 
ATOM     82  C   UNL A   1      42.929  21.178  27.774  1.00  0.00     0.059 A 
ATOM     83  F   UNL A   1      43.607  22.834  29.295  1.00  0.00    -0.206 F 
ATOM     84  C   UNL A   1      42.614  20.806  26.468  1.00  0.00     0.060 A 
BRANCH  84  85
ATOM     85  S   UNL A   1      42.109  19.109  26.090  1.00  0.00     0.124 S 
ATOM     86  O   UNL A   1      40.697  19.283  25.769  1.00  0.00    -0.237 OA
ATOM     87  O   UNL A   1      42.980  18.772  24.968  1.00  0.00    -0.237 OA
ATOM     88  O   UNL A   1      42.390  18.389  27.329  1.00  0.00    -0.744 OA
ENDBRANCH  84  85
ENDBRANCH  52  77
BRANCH  64  89
ATOM     89  C   UNL A   1      49.447  26.958  26.265  1.00  0.00     0.058 A 
ATOM     90  C   UNL A   1      50.362  26.389  27.163  1.00  0.00     0.135 A 
ATOM     91  C   UNL A   1      49.841  27.083  24.922  1.00  0.00     0.135 A 
ATOM     92  F   UNL A   1      50.041  26.254  28.460  1.00  0.00    -0.206 F 
ATOM     93  C   UNL A   1      51.624  25.969  26.749  1.00  0.00     0.059 A 
ATOM     94  C   UNL A   1      51.088  26.648  24.481  1.00  0.00     0.059 A 
ATOM     95  F   UNL A   1      49.002  27.612  24.018  1.00  0.00    -0.206 F 
ATOM     96  C   UNL A   1      51.977  26.099  25.404  1.00  0.00     0.060 A 
BRANCH  96  97
ATOM     97  S   UNL A   1      53.597  25.507  24.868  1.00  0.00     0.124 S 
ATOM     98  O   UNL A   1      53.500  24.079  25.154  1.00  0.00    -0.237 OA
ATOM     99  O   UNL A   1      53.615  25.872  23.455  1.00  0.00    -0.237 OA
ATOM    100  O   UNL A   1      54.527  26.254  25.711  1.00  0.00    -0.744 OA
ENDBRANCH  96  97
ENDBRANCH  64  89
ENDBRANCH  38  39
ENDBRANCH  31  33
ENDBRANCH  30  31
ENDBRANCH  29  30
ENDBRANCH   1  29
TORSDOF 18
ENDMDL
