MODEL 1
REMARK VINA RESULT:     -11.9      0.000      0.000
REMARK SMILES CCc1cc(/C=C/C(=O)OCCOC(=O)c2ccc(-c3c4nc(c(-c5c(F)cc(S(=O)(=O)[O-])cc5F)c5ccc([nH]5)c(-c5c(F)cc(S(=O)(=O)[O-])cc5F)c5nc(c(-c6c(F)cc(S(=O)(=O)[O-])cc6F)c6ccc3[nH]6)C=C5)C=C4)cc2)cc(C(=O)c2ccccc2)c1
REMARK SMILES IDX 11 1 10 2 8 3 9 4 7 5 6 6 5 7 3 8 4 9 92 10 83 11 82 12 2 13
REMARK SMILES IDX 1 14 84 15 85 16 86 17 87 18 91 19 88 20 90 21 89 22 12 23
REMARK SMILES IDX 13 24 14 25 15 26 16 27 17 28 81 29 18 30 80 31 19 32 20 33
REMARK SMILES IDX 21 34 74 35 22 36 79 37 73 38 75 39 23 40 78 41 72 42 71 43
REMARK SMILES IDX 24 45 58 46 37 47 57 48 38 49 41 50 56 51 76 52 39 53 40 54
REMARK SMILES IDX 55 56 77 57 42 58 25 59 26 60 35 61 27 62 28 63 34 64 36 65
REMARK SMILES IDX 29 66 30 67 31 68 32 69 33 70 59 71 60 72 69 73 61 74 62 75
REMARK SMILES IDX 68 76 70 77 63 78 64 79 65 80 66 81 67 82 43 83 44 84 53 85
REMARK SMILES IDX 45 86 46 87 52 88 54 89 47 90 48 91 49 92 50 93 51 94
REMARK H PARENT 75 44 41 55
REMARK Flexibility Score: inf
ROOT
ATOM      1  C   UNL A   1      42.182  22.123  26.343  1.00  0.00     0.275 C 
ENDROOT
BRANCH   1   2
ATOM      2  O   UNL A   1      40.772  22.354  26.164  1.00  0.00    -0.459 OA
BRANCH   2   3
ATOM      3  C   UNL A   1      39.998  21.244  26.119  1.00  0.00     0.330 C 
ATOM      4  O   UNL A   1      40.376  20.094  26.284  1.00  0.00    -0.247 OA
BRANCH   3   5
ATOM      5  C   UNL A   1      38.568  21.555  25.918  1.00  0.00     0.094 C 
ATOM      6  C   UNL A   1      37.768  21.001  24.993  1.00  0.00     0.015 C 
BRANCH   6   7
ATOM      7  C   UNL A   1      36.388  21.458  24.757  1.00  0.00    -0.024 A 
ATOM      8  C   UNL A   1      34.823  23.189  24.017  1.00  0.00    -0.047 A 
ATOM      9  C   UNL A   1      36.126  22.760  24.304  1.00  0.00     0.011 A 
ATOM     10  C   UNL A   1      33.761  22.297  24.208  1.00  0.00     0.016 A 
ATOM     11  C   UNL A   1      34.001  20.982  24.632  1.00  0.00     0.023 A 
ATOM     12  C   UNL A   1      35.316  20.571  24.904  1.00  0.00     0.020 A 
BRANCH   8  13
ATOM     13  C   UNL A   1      34.574  24.590  23.511  1.00  0.00     0.032 C 
ATOM     14  C   UNL A   1      34.068  25.524  24.602  1.00  0.00     0.009 C 
ENDBRANCH   8  13
BRANCH  11  15
ATOM     15  C   UNL A   1      32.892  20.008  24.854  1.00  0.00     0.193 C 
ATOM     16  O   UNL A   1      31.760  20.410  25.117  1.00  0.00    -0.289 OA
BRANCH  15  17
ATOM     17  C   UNL A   1      33.098  18.546  24.728  1.00  0.00     0.022 A 
ATOM     18  C   UNL A   1      32.800  17.736  25.830  1.00  0.00     0.012 A 
ATOM     19  C   UNL A   1      33.598  17.975  23.552  1.00  0.00     0.012 A 
ATOM     20  C   UNL A   1      32.962  16.353  25.741  1.00  0.00     0.001 A 
ATOM     21  C   UNL A   1      33.757  16.590  23.469  1.00  0.00     0.001 A 
ATOM     22  C   UNL A   1      33.432  15.780  24.559  1.00  0.00     0.000 A 
ENDBRANCH  15  17
ENDBRANCH  11  15
ENDBRANCH   6   7
ENDBRANCH   3   5
ENDBRANCH   2   3
ENDBRANCH   1   2
BRANCH   1  23
ATOM     23  C   UNL A   1      43.016  23.196  25.636  1.00  0.00     0.275 C 
BRANCH  23  24
ATOM     24  O   UNL A   1      43.180  24.375  26.446  1.00  0.00    -0.458 OA
BRANCH  24  25
ATOM     25  C   UNL A   1      42.498  25.463  26.009  1.00  0.00     0.338 C 
ATOM     26  O   UNL A   1      42.206  25.725  24.855  1.00  0.00    -0.246 OA
BRANCH  25  27
ATOM     27  C   UNL A   1      42.029  26.272  27.152  1.00  0.00     0.060 A 
ATOM     28  C   UNL A   1      42.646  27.510  27.359  1.00  0.00     0.016 A 
ATOM     29  C   UNL A   1      41.062  25.810  28.049  1.00  0.00     0.016 A 
ATOM     30  C   UNL A   1      42.305  28.286  28.463  1.00  0.00     0.010 A 
ATOM     31  C   UNL A   1      40.721  26.592  29.164  1.00  0.00     0.010 A 
ATOM     32  C   UNL A   1      41.350  27.829  29.384  1.00  0.00    -0.014 A 
BRANCH  32  33
ATOM     33  C   UNL A   1      41.051  28.661  30.578  1.00  0.00     0.031 A 
ATOM     34  C   UNL A   1      41.899  28.550  31.814  1.00  0.00     0.074 A 
ATOM     35  C   UNL A   1      40.058  29.567  30.522  1.00  0.00     0.049 A 
ATOM     36  N   UNL A   1      41.860  29.267  32.909  1.00  0.00    -0.248 NA
ATOM     37  C   UNL A   1      42.928  27.499  31.821  1.00  0.00     0.031 C 
ATOM     38  C   UNL A   1      39.165  29.769  29.381  1.00  0.00     0.029 A 
ATOM     39  N   UNL A   1      39.646  30.501  31.440  1.00  0.00    -0.354 N 
ATOM     40  C   UNL A   1      42.857  28.760  33.734  1.00  0.00     0.074 A 
ATOM     41  C   UNL A   1      43.463  27.653  33.025  1.00  0.00     0.031 C 
ATOM     42  C   UNL A   1      38.321  30.777  29.659  1.00  0.00     0.029 A 
ATOM     43  C   UNL A   1      38.603  31.281  31.000  1.00  0.00     0.049 A 
ATOM     44  H   UNL A   1      40.058  30.602  32.328  1.00  0.00     0.167 HD
ATOM     45  C   UNL A   1      43.239  29.187  34.963  1.00  0.00     0.037 A 
ATOM     46  C   UNL A   1      37.952  32.293  31.607  1.00  0.00     0.037 A 
ATOM     47  C   UNL A   1      42.634  30.287  35.669  1.00  0.00     0.049 A 
ATOM     48  C   UNL A   1      38.388  32.738  32.977  1.00  0.00     0.074 A 
ATOM     49  C   UNL A   1      42.969  30.805  36.910  1.00  0.00     0.029 A 
ATOM     50  N   UNL A   1      41.564  31.036  35.204  1.00  0.00    -0.354 N 
ATOM     51  N   UNL A   1      39.361  32.274  33.725  1.00  0.00    -0.248 NA
ATOM     52  C   UNL A   1      37.645  33.854  33.578  1.00  0.00     0.031 C 
ATOM     53  C   UNL A   1      42.079  31.843  37.209  1.00  0.00     0.029 A 
ATOM     54  C   UNL A   1      41.215  32.001  36.138  1.00  0.00     0.049 A 
ATOM     55  H   UNL A   1      41.116  30.904  34.338  1.00  0.00     0.167 HD
ATOM     56  C   UNL A   1      39.355  33.049  34.879  1.00  0.00     0.074 A 
ATOM     57  C   UNL A   1      38.297  34.026  34.719  1.00  0.00     0.031 C 
ATOM     58  C   UNL A   1      40.151  32.959  35.974  1.00  0.00     0.037 A 
BRANCH  45  59
ATOM     59  C   UNL A   1      44.366  28.447  35.631  1.00  0.00     0.058 A 
ATOM     60  C   UNL A   1      45.706  28.822  35.439  1.00  0.00     0.135 A 
ATOM     61  C   UNL A   1      44.103  27.374  36.497  1.00  0.00     0.135 A 
ATOM     62  F   UNL A   1      46.014  29.832  34.611  1.00  0.00    -0.206 F 
ATOM     63  C   UNL A   1      46.747  28.140  36.063  1.00  0.00     0.059 A 
ATOM     64  C   UNL A   1      45.128  26.692  37.147  1.00  0.00     0.059 A 
ATOM     65  F   UNL A   1      42.840  26.976  36.714  1.00  0.00    -0.206 F 
ATOM     66  C   UNL A   1      46.448  27.074  36.912  1.00  0.00     0.060 A 
BRANCH  66  67
ATOM     67  S   UNL A   1      47.809  26.196  37.711  1.00  0.00     0.124 S 
ATOM     68  O   UNL A   1      47.892  24.987  36.897  1.00  0.00    -0.237 OA
ATOM     69  O   UNL A   1      48.917  27.134  37.565  1.00  0.00    -0.237 OA
ATOM     70  O   UNL A   1      47.332  26.003  39.077  1.00  0.00    -0.744 OA
ENDBRANCH  66  67
ENDBRANCH  45  59
BRANCH  46  71
ATOM     71  C   UNL A   1      36.824  32.966  30.913  1.00  0.00     0.058 A 
ATOM     72  C   UNL A   1      37.051  33.829  29.831  1.00  0.00     0.135 A 
ATOM     73  C   UNL A   1      35.497  32.751  31.315  1.00  0.00     0.135 A 
ATOM     74  F   UNL A   1      38.304  34.072  29.417  1.00  0.00    -0.206 F 
ATOM     75  C   UNL A   1      36.002  34.469  29.179  1.00  0.00     0.059 A 
ATOM     76  C   UNL A   1      34.430  33.360  30.664  1.00  0.00     0.059 A 
ATOM     77  F   UNL A   1      35.231  31.925  32.338  1.00  0.00    -0.206 F 
ATOM     78  C   UNL A   1      34.693  34.225  29.603  1.00  0.00     0.060 A 
BRANCH  78  79
ATOM     79  S   UNL A   1      33.331  35.016  28.718  1.00  0.00     0.124 S 
ATOM     80  O   UNL A   1      32.379  35.252  29.796  1.00  0.00    -0.237 OA
ATOM     81  O   UNL A   1      33.972  36.202  28.159  1.00  0.00    -0.237 OA
ATOM     82  O   UNL A   1      32.940  34.006  27.739  1.00  0.00    -0.744 OA
ENDBRANCH  78  79
ENDBRANCH  46  71
BRANCH  58  83
ATOM     83  C   UNL A   1      39.910  33.956  37.073  1.00  0.00     0.058 A 
ATOM     84  C   UNL A   1      39.085  33.657  38.170  1.00  0.00     0.135 A 
ATOM     85  C   UNL A   1      40.507  35.227  37.030  1.00  0.00     0.135 A 
ATOM     86  F   UNL A   1      38.488  32.458  38.258  1.00  0.00    -0.206 F 
ATOM     87  C   UNL A   1      38.824  34.598  39.161  1.00  0.00     0.059 A 
ATOM     88  C   UNL A   1      40.280  36.174  38.024  1.00  0.00     0.059 A 
ATOM     89  F   UNL A   1      41.315  35.559  36.011  1.00  0.00    -0.206 F 
ATOM     90  C   UNL A   1      39.419  35.858  39.074  1.00  0.00     0.060 A 
BRANCH  90  91
ATOM     91  S   UNL A   1      39.064  37.080  40.356  1.00  0.00     0.124 S 
ATOM     92  O   UNL A   1      40.396  37.326  40.901  1.00  0.00    -0.237 OA
ATOM     93  O   UNL A   1      38.479  38.179  39.593  1.00  0.00    -0.237 OA
ATOM     94  O   UNL A   1      38.140  36.380  41.242  1.00  0.00    -0.744 OA
ENDBRANCH  90  91
ENDBRANCH  58  83
ENDBRANCH  32  33
ENDBRANCH  25  27
ENDBRANCH  24  25
ENDBRANCH  23  24
ENDBRANCH   1  23
TORSDOF 18
ENDMDL
MODEL 2
REMARK VINA RESULT:     -11.7      6.548     12.586
REMARK SMILES CCc1cc(/C=C/C(=O)OCCOC(=O)c2ccc(-c3c4nc(c(-c5c(F)cc(S(=O)(=O)[O-])cc5F)c5ccc([nH]5)c(-c5c(F)cc(S(=O)(=O)[O-])cc5F)c5nc(c(-c6c(F)cc(S(=O)(=O)[O-])cc6F)c6ccc3[nH]6)C=C5)C=C4)cc2)cc(C(=O)c2ccccc2)c1
REMARK SMILES IDX 11 1 10 2 8 3 9 4 7 5 6 6 5 7 3 8 4 9 92 10 83 11 82 12 2 13
REMARK SMILES IDX 1 14 84 15 85 16 86 17 87 18 91 19 88 20 90 21 89 22 12 23
REMARK SMILES IDX 13 24 14 25 15 26 16 27 17 28 81 29 18 30 80 31 19 32 20 33
REMARK SMILES IDX 21 34 74 35 22 36 79 37 73 38 75 39 23 40 78 41 72 42 71 43
REMARK SMILES IDX 24 45 58 46 37 47 57 48 38 49 41 50 56 51 76 52 39 53 40 54
REMARK SMILES IDX 55 56 77 57 42 58 25 59 26 60 35 61 27 62 28 63 34 64 36 65
REMARK SMILES IDX 29 66 30 67 31 68 32 69 33 70 59 71 60 72 69 73 61 74 62 75
REMARK SMILES IDX 68 76 70 77 63 78 64 79 65 80 66 81 67 82 43 83 44 84 53 85
REMARK SMILES IDX 45 86 46 87 52 88 54 89 47 90 48 91 49 92 50 93 51 94
REMARK H PARENT 75 44 41 55
REMARK Flexibility Score: inf
ROOT
ATOM      1  C   UNL A   1      34.822  32.418  28.824  1.00  0.00     0.275 C 
ENDROOT
BRANCH   1   2
ATOM      2  O   UNL A   1      34.062  31.311  28.306  1.00  0.00    -0.459 OA
BRANCH   2   3
ATOM      3  C   UNL A   1      33.014  31.640  27.513  1.00  0.00     0.330 C 
ATOM      4  O   UNL A   1      32.555  32.762  27.353  1.00  0.00    -0.247 OA
BRANCH   3   5
ATOM      5  C   UNL A   1      32.487  30.485  26.758  1.00  0.00     0.094 C 
ATOM      6  C   UNL A   1      32.454  29.214  27.192  1.00  0.00     0.015 C 
BRANCH   6   7
ATOM      7  C   UNL A   1      32.042  28.091  26.333  1.00  0.00    -0.024 A 
ATOM      8  C   UNL A   1      31.635  25.697  26.021  1.00  0.00    -0.047 A 
ATOM      9  C   UNL A   1      32.082  26.770  26.805  1.00  0.00     0.011 A 
ATOM     10  C   UNL A   1      31.158  25.957  24.731  1.00  0.00     0.016 A 
ATOM     11  C   UNL A   1      31.080  27.272  24.249  1.00  0.00     0.023 A 
ATOM     12  C   UNL A   1      31.524  28.332  25.057  1.00  0.00     0.020 A 
BRANCH   8  13
ATOM     13  C   UNL A   1      31.671  24.288  26.562  1.00  0.00     0.032 C 
ATOM     14  C   UNL A   1      32.961  23.558  26.206  1.00  0.00     0.009 C 
ENDBRANCH   8  13
BRANCH  11  15
ATOM     15  C   UNL A   1      30.584  27.584  22.877  1.00  0.00     0.193 C 
ATOM     16  O   UNL A   1      30.950  26.907  21.919  1.00  0.00    -0.289 OA
BRANCH  15  17
ATOM     17  C   UNL A   1      29.613  28.675  22.625  1.00  0.00     0.022 A 
ATOM     18  C   UNL A   1      28.303  28.519  23.092  1.00  0.00     0.012 A 
ATOM     19  C   UNL A   1      29.974  29.829  21.920  1.00  0.00     0.012 A 
ATOM     20  C   UNL A   1      27.368  29.535  22.892  1.00  0.00     0.001 A 
ATOM     21  C   UNL A   1      29.034  30.843  21.724  1.00  0.00     0.001 A 
ATOM     22  C   UNL A   1      27.735  30.698  22.216  1.00  0.00     0.000 A 
ENDBRANCH  15  17
ENDBRANCH  11  15
ENDBRANCH   6   7
ENDBRANCH   3   5
ENDBRANCH   2   3
ENDBRANCH   1   2
BRANCH   1  23
ATOM     23  C   UNL A   1      34.986  32.317  30.344  1.00  0.00     0.275 C 
BRANCH  23  24
ATOM     24  O   UNL A   1      36.352  32.064  30.725  1.00  0.00    -0.458 OA
BRANCH  24  25
ATOM     25  C   UNL A   1      36.652  30.757  30.922  1.00  0.00     0.338 C 
ATOM     26  O   UNL A   1      35.897  29.886  31.321  1.00  0.00    -0.246 OA
BRANCH  25  27
ATOM     27  C   UNL A   1      38.029  30.469  30.471  1.00  0.00     0.060 A 
ATOM     28  C   UNL A   1      38.261  30.443  29.092  1.00  0.00     0.016 A 
ATOM     29  C   UNL A   1      39.059  30.158  31.363  1.00  0.00     0.016 A 
ATOM     30  C   UNL A   1      39.517  30.100  28.600  1.00  0.00     0.010 A 
ATOM     31  C   UNL A   1      40.324  29.810  30.866  1.00  0.00     0.010 A 
ATOM     32  C   UNL A   1      40.557  29.766  29.481  1.00  0.00    -0.014 A 
BRANCH  32  33
ATOM     33  C   UNL A   1      41.868  29.355  28.918  1.00  0.00     0.031 A 
ATOM     34  C   UNL A   1      43.013  30.329  28.863  1.00  0.00     0.074 A 
ATOM     35  C   UNL A   1      42.049  28.083  28.519  1.00  0.00     0.049 A 
ATOM     36  N   UNL A   1      44.256  30.123  28.508  1.00  0.00    -0.248 NA
ATOM     37  C   UNL A   1      42.724  31.714  29.263  1.00  0.00     0.031 C 
ATOM     38  C   UNL A   1      41.017  27.045  28.521  1.00  0.00     0.029 A 
ATOM     39  N   UNL A   1      43.169  27.441  28.053  1.00  0.00    -0.354 N 
ATOM     40  C   UNL A   1      44.900  31.346  28.644  1.00  0.00     0.074 A 
ATOM     41  C   UNL A   1      43.901  32.298  29.083  1.00  0.00     0.031 C 
ATOM     42  C   UNL A   1      41.556  25.891  28.095  1.00  0.00     0.029 A 
ATOM     43  C   UNL A   1      42.965  26.110  27.776  1.00  0.00     0.049 A 
ATOM     44  H   UNL A   1      44.036  27.891  27.929  1.00  0.00     0.167 HD
ATOM     45  C   UNL A   1      46.206  31.646  28.434  1.00  0.00     0.037 A 
ATOM     46  C   UNL A   1      43.818  25.171  27.322  1.00  0.00     0.037 A 
ATOM     47  C   UNL A   1      47.199  30.699  27.994  1.00  0.00     0.049 A 
ATOM     48  C   UNL A   1      45.259  25.532  27.084  1.00  0.00     0.074 A 
ATOM     49  C   UNL A   1      48.551  30.906  27.775  1.00  0.00     0.029 A 
ATOM     50  N   UNL A   1      46.950  29.367  27.698  1.00  0.00    -0.354 N 
ATOM     51  N   UNL A   1      45.860  26.685  27.258  1.00  0.00    -0.248 NA
ATOM     52  C   UNL A   1      46.139  24.460  26.601  1.00  0.00     0.031 C 
ATOM     53  C   UNL A   1      49.111  29.709  27.313  1.00  0.00     0.029 A 
ATOM     54  C   UNL A   1      48.118  28.744  27.283  1.00  0.00     0.049 A 
ATOM     55  H   UNL A   1      46.073  28.927  27.772  1.00  0.00     0.167 HD
ATOM     56  C   UNL A   1      47.192  26.474  26.918  1.00  0.00     0.074 A 
ATOM     57  C   UNL A   1      47.311  25.078  26.551  1.00  0.00     0.031 C 
ATOM     58  C   UNL A   1      48.222  27.357  26.907  1.00  0.00     0.037 A 
BRANCH  45  59
ATOM     59  C   UNL A   1      46.635  33.068  28.668  1.00  0.00     0.058 A 
ATOM     60  C   UNL A   1      46.598  34.025  27.640  1.00  0.00     0.135 A 
ATOM     61  C   UNL A   1      47.054  33.489  29.940  1.00  0.00     0.135 A 
ATOM     62  F   UNL A   1      46.218  33.673  26.402  1.00  0.00    -0.206 F 
ATOM     63  C   UNL A   1      46.989  35.342  27.860  1.00  0.00     0.059 A 
ATOM     64  C   UNL A   1      47.429  34.806  30.187  1.00  0.00     0.059 A 
ATOM     65  F   UNL A   1      47.107  32.614  30.957  1.00  0.00    -0.206 F 
ATOM     66  C   UNL A   1      47.407  35.723  29.137  1.00  0.00     0.060 A 
BRANCH  66  67
ATOM     67  S   UNL A   1      47.915  37.435  29.406  1.00  0.00     0.124 S 
ATOM     68  O   UNL A   1      49.271  37.258  29.915  1.00  0.00    -0.237 OA
ATOM     69  O   UNL A   1      47.811  38.008  28.068  1.00  0.00    -0.237 OA
ATOM     70  O   UNL A   1      46.940  37.929  30.373  1.00  0.00    -0.744 OA
ENDBRANCH  66  67
ENDBRANCH  45  59
BRANCH  46  71
ATOM     71  C   UNL A   1      43.332  23.789  27.077  1.00  0.00     0.058 A 
ATOM     72  C   UNL A   1      43.064  23.334  25.777  1.00  0.00     0.135 A 
ATOM     73  C   UNL A   1      43.132  22.894  28.139  1.00  0.00     0.135 A 
ATOM     74  F   UNL A   1      43.232  24.157  24.730  1.00  0.00    -0.206 F 
ATOM     75  C   UNL A   1      42.603  22.044  25.539  1.00  0.00     0.059 A 
ATOM     76  C   UNL A   1      42.695  21.592  27.924  1.00  0.00     0.059 A 
ATOM     77  F   UNL A   1      43.386  23.281  29.399  1.00  0.00    -0.206 F 
ATOM     78  C   UNL A   1      42.423  21.179  26.621  1.00  0.00     0.060 A 
BRANCH  78  79
ATOM     79  S   UNL A   1      41.876  19.488  26.300  1.00  0.00     0.124 S 
ATOM     80  O   UNL A   1      42.585  19.180  25.064  1.00  0.00    -0.237 OA
ATOM     81  O   UNL A   1      42.335  18.783  27.493  1.00  0.00    -0.237 OA
ATOM     82  O   UNL A   1      40.427  19.623  26.182  1.00  0.00    -0.744 OA
ENDBRANCH  78  79
ENDBRANCH  46  71
BRANCH  58  83
ATOM     83  C   UNL A   1      49.568  26.826  26.498  1.00  0.00     0.058 A 
ATOM     84  C   UNL A   1      50.018  26.906  25.170  1.00  0.00     0.135 A 
ATOM     85  C   UNL A   1      50.417  26.226  27.442  1.00  0.00     0.135 A 
ATOM     86  F   UNL A   1      49.243  27.467  24.228  1.00  0.00    -0.206 F 
ATOM     87  C   UNL A   1      51.242  26.370  24.783  1.00  0.00     0.059 A 
ATOM     88  C   UNL A   1      51.657  25.706  27.081  1.00  0.00     0.059 A 
ATOM     89  F   UNL A   1      50.042  26.135  28.728  1.00  0.00    -0.206 F 
ATOM     90  C   UNL A   1      52.051  25.763  25.746  1.00  0.00     0.060 A 
BRANCH  90  91
ATOM     91  S   UNL A   1      53.632  25.056  25.235  1.00  0.00     0.124 S 
ATOM     92  O   UNL A   1      54.527  25.559  26.273  1.00  0.00    -0.237 OA
ATOM     93  O   UNL A   1      53.364  23.621  25.271  1.00  0.00    -0.237 OA
ATOM     94  O   UNL A   1      53.837  25.615  23.903  1.00  0.00    -0.744 OA
ENDBRANCH  90  91
ENDBRANCH  58  83
ENDBRANCH  32  33
ENDBRANCH  25  27
ENDBRANCH  24  25
ENDBRANCH  23  24
ENDBRANCH   1  23
TORSDOF 18
ENDMDL
MODEL 3
REMARK VINA RESULT:     -11.6      0.910      3.146
REMARK SMILES CCc1cc(/C=C/C(=O)OCCOC(=O)c2ccc(-c3c4nc(c(-c5c(F)cc(S(=O)(=O)[O-])cc5F)c5ccc([nH]5)c(-c5c(F)cc(S(=O)(=O)[O-])cc5F)c5nc(c(-c6c(F)cc(S(=O)(=O)[O-])cc6F)c6ccc3[nH]6)C=C5)C=C4)cc2)cc(C(=O)c2ccccc2)c1
REMARK SMILES IDX 11 1 10 2 8 3 9 4 7 5 6 6 5 7 3 8 4 9 92 10 83 11 82 12 2 13
REMARK SMILES IDX 1 14 84 15 85 16 86 17 87 18 91 19 88 20 90 21 89 22 12 23
REMARK SMILES IDX 13 24 14 25 15 26 16 27 17 28 81 29 18 30 80 31 19 32 20 33
REMARK SMILES IDX 21 34 74 35 22 36 79 37 73 38 75 39 23 40 78 41 72 42 71 43
REMARK SMILES IDX 24 45 58 46 37 47 57 48 38 49 41 50 56 51 76 52 39 53 40 54
REMARK SMILES IDX 55 56 77 57 42 58 25 59 26 60 35 61 27 62 28 63 34 64 36 65
REMARK SMILES IDX 29 66 30 67 31 68 32 69 33 70 59 71 60 72 69 73 61 74 62 75
REMARK SMILES IDX 68 76 70 77 63 78 64 79 65 80 66 81 67 82 43 83 44 84 53 85
REMARK SMILES IDX 45 86 46 87 52 88 54 89 47 90 48 91 49 92 50 93 51 94
REMARK H PARENT 75 44 41 55
REMARK Flexibility Score: inf
ROOT
ATOM      1  C   UNL A   1      41.806  21.668  26.542  1.00  0.00     0.275 C 
ENDROOT
BRANCH   1   2
ATOM      2  O   UNL A   1      40.374  21.561  26.447  1.00  0.00    -0.459 OA
BRANCH   2   3
ATOM      3  C   UNL A   1      39.908  20.433  25.862  1.00  0.00     0.330 C 
ATOM      4  O   UNL A   1      40.495  19.363  25.790  1.00  0.00    -0.247 OA
BRANCH   3   5
ATOM      5  C   UNL A   1      38.529  20.582  25.354  1.00  0.00     0.094 C 
ATOM      6  C   UNL A   1      37.881  21.746  25.177  1.00  0.00     0.015 C 
BRANCH   6   7
ATOM      7  C   UNL A   1      36.460  21.815  24.798  1.00  0.00    -0.024 A 
ATOM      8  C   UNL A   1      34.205  20.862  24.833  1.00  0.00    -0.047 A 
ATOM      9  C   UNL A   1      35.572  20.782  25.133  1.00  0.00     0.011 A 
ATOM     10  C   UNL A   1      33.726  21.995  24.166  1.00  0.00     0.016 A 
ATOM     11  C   UNL A   1      34.589  23.054  23.847  1.00  0.00     0.023 A 
ATOM     12  C   UNL A   1      35.953  22.957  24.167  1.00  0.00     0.020 A 
BRANCH   8  13
ATOM     13  C   UNL A   1      33.270  19.743  25.225  1.00  0.00     0.032 C 
ATOM     14  C   UNL A   1      32.632  19.066  24.018  1.00  0.00     0.009 C 
ENDBRANCH   8  13
BRANCH  11  15
ATOM     15  C   UNL A   1      34.113  24.273  23.129  1.00  0.00     0.193 C 
ATOM     16  O   UNL A   1      33.866  24.224  21.926  1.00  0.00    -0.289 OA
BRANCH  15  17
ATOM     17  C   UNL A   1      33.883  25.557  23.833  1.00  0.00     0.022 A 
ATOM     18  C   UNL A   1      33.455  26.659  23.083  1.00  0.00     0.012 A 
ATOM     19  C   UNL A   1      34.106  25.688  25.208  1.00  0.00     0.012 A 
ATOM     20  C   UNL A   1      33.209  27.877  23.715  1.00  0.00     0.001 A 
ATOM     21  C   UNL A   1      33.856  26.910  25.836  1.00  0.00     0.001 A 
ATOM     22  C   UNL A   1      33.402  28.000  25.092  1.00  0.00     0.000 A 
ENDBRANCH  15  17
ENDBRANCH  11  15
ENDBRANCH   6   7
ENDBRANCH   3   5
ENDBRANCH   2   3
ENDBRANCH   1   2
BRANCH   1  23
ATOM     23  C   UNL A   1      42.329  22.860  25.734  1.00  0.00     0.275 C 
BRANCH  23  24
ATOM     24  O   UNL A   1      42.716  23.960  26.581  1.00  0.00    -0.458 OA
BRANCH  24  25
ATOM     25  C   UNL A   1      42.346  25.182  26.126  1.00  0.00     0.338 C 
ATOM     26  O   UNL A   1      42.282  25.540  24.961  1.00  0.00    -0.246 OA
BRANCH  25  27
ATOM     27  C   UNL A   1      41.900  26.037  27.245  1.00  0.00     0.060 A 
ATOM     28  C   UNL A   1      42.631  27.202  27.495  1.00  0.00     0.016 A 
ATOM     29  C   UNL A   1      40.839  25.679  28.082  1.00  0.00     0.016 A 
ATOM     30  C   UNL A   1      42.310  28.010  28.583  1.00  0.00     0.010 A 
ATOM     31  C   UNL A   1      40.519  26.492  29.180  1.00  0.00     0.010 A 
ATOM     32  C   UNL A   1      41.261  27.656  29.444  1.00  0.00    -0.014 A 
BRANCH  32  33
ATOM     33  C   UNL A   1      40.983  28.514  30.624  1.00  0.00     0.031 A 
ATOM     34  C   UNL A   1      41.847  28.425  31.851  1.00  0.00     0.074 A 
ATOM     35  C   UNL A   1      39.993  29.424  30.563  1.00  0.00     0.049 A 
ATOM     36  N   UNL A   1      41.827  29.165  32.931  1.00  0.00    -0.248 NA
ATOM     37  C   UNL A   1      42.871  27.369  31.865  1.00  0.00     0.031 C 
ATOM     38  C   UNL A   1      39.086  29.607  29.430  1.00  0.00     0.029 A 
ATOM     39  N   UNL A   1      39.599  30.379  31.467  1.00  0.00    -0.354 N 
ATOM     40  C   UNL A   1      42.833  28.670  33.752  1.00  0.00     0.074 A 
ATOM     41  C   UNL A   1      43.423  27.545  33.058  1.00  0.00     0.031 C 
ATOM     42  C   UNL A   1      38.251  30.625  29.699  1.00  0.00     0.029 A 
ATOM     43  C   UNL A   1      38.554  31.156  31.025  1.00  0.00     0.049 A 
ATOM     44  H   UNL A   1      40.024  30.497  32.347  1.00  0.00     0.167 HD
ATOM     45  C   UNL A   1      43.235  29.120  34.967  1.00  0.00     0.037 A 
ATOM     46  C   UNL A   1      37.916  32.183  31.620  1.00  0.00     0.037 A 
ATOM     47  C   UNL A   1      42.644  30.238  35.658  1.00  0.00     0.049 A 
ATOM     48  C   UNL A   1      38.374  32.655  32.973  1.00  0.00     0.074 A 
ATOM     49  C   UNL A   1      43.000  30.781  36.882  1.00  0.00     0.029 A 
ATOM     50  N   UNL A   1      41.571  30.983  35.192  1.00  0.00    -0.354 N 
ATOM     51  N   UNL A   1      39.354  32.201  33.717  1.00  0.00    -0.248 NA
ATOM     52  C   UNL A   1      37.645  33.787  33.561  1.00  0.00     0.031 C 
ATOM     53  C   UNL A   1      42.119  31.830  37.172  1.00  0.00     0.029 A 
ATOM     54  C   UNL A   1      41.241  31.969  36.110  1.00  0.00     0.049 A 
ATOM     55  H   UNL A   1      41.111  30.835  34.335  1.00  0.00     0.167 HD
ATOM     56  C   UNL A   1      39.368  33.001  34.855  1.00  0.00     0.074 A 
ATOM     57  C   UNL A   1      38.313  33.980  34.689  1.00  0.00     0.031 C 
ATOM     58  C   UNL A   1      40.180  32.929  35.940  1.00  0.00     0.037 A 
BRANCH  45  59
ATOM     59  C   UNL A   1      44.367  28.389  35.634  1.00  0.00     0.058 A 
ATOM     60  C   UNL A   1      44.132  27.336  36.533  1.00  0.00     0.135 A 
ATOM     61  C   UNL A   1      45.700  28.721  35.348  1.00  0.00     0.135 A 
ATOM     62  F   UNL A   1      42.876  26.986  36.852  1.00  0.00    -0.206 F 
ATOM     63  C   UNL A   1      45.181  26.656  37.145  1.00  0.00     0.059 A 
ATOM     64  C   UNL A   1      46.764  28.040  35.932  1.00  0.00     0.059 A 
ATOM     65  F   UNL A   1      45.979  29.720  34.495  1.00  0.00    -0.206 F 
ATOM     66  C   UNL A   1      46.494  27.018  36.840  1.00  0.00     0.060 A 
BRANCH  66  67
ATOM     67  S   UNL A   1      47.845  26.130  37.646  1.00  0.00     0.124 S 
ATOM     68  O   UNL A   1      48.912  27.125  37.603  1.00  0.00    -0.237 OA
ATOM     69  O   UNL A   1      47.293  25.849  38.967  1.00  0.00    -0.237 OA
ATOM     70  O   UNL A   1      48.040  24.963  36.791  1.00  0.00    -0.744 OA
ENDBRANCH  66  67
ENDBRANCH  45  59
BRANCH  46  71
ATOM     71  C   UNL A   1      36.783  32.847  30.927  1.00  0.00     0.058 A 
ATOM     72  C   UNL A   1      35.454  32.566  31.277  1.00  0.00     0.135 A 
ATOM     73  C   UNL A   1      37.008  33.784  29.907  1.00  0.00     0.135 A 
ATOM     74  F   UNL A   1      35.189  31.670  32.242  1.00  0.00    -0.206 F 
ATOM     75  C   UNL A   1      34.385  33.178  30.631  1.00  0.00     0.059 A 
ATOM     76  C   UNL A   1      35.957  34.427  29.262  1.00  0.00     0.059 A 
ATOM     77  F   UNL A   1      38.262  34.094  29.545  1.00  0.00    -0.206 F 
ATOM     78  C   UNL A   1      34.649  34.110  29.624  1.00  0.00     0.060 A 
BRANCH  78  79
ATOM     79  S   UNL A   1      33.259  34.943  28.825  1.00  0.00     0.124 S 
ATOM     80  O   UNL A   1      32.474  35.372  29.977  1.00  0.00    -0.237 OA
ATOM     81  O   UNL A   1      33.924  36.003  28.074  1.00  0.00    -0.237 OA
ATOM     82  O   UNL A   1      32.663  33.889  28.011  1.00  0.00    -0.744 OA
ENDBRANCH  78  79
ENDBRANCH  46  71
BRANCH  58  83
ATOM     83  C   UNL A   1      39.959  33.951  37.022  1.00  0.00     0.058 A 
ATOM     84  C   UNL A   1      39.194  33.660  38.163  1.00  0.00     0.135 A 
ATOM     85  C   UNL A   1      40.514  35.236  36.916  1.00  0.00     0.135 A 
ATOM     86  F   UNL A   1      38.638  32.448  38.312  1.00  0.00    -0.206 F 
ATOM     87  C   UNL A   1      38.950  34.621  39.139  1.00  0.00     0.059 A 
ATOM     88  C   UNL A   1      40.304  36.205  37.893  1.00  0.00     0.059 A 
ATOM     89  F   UNL A   1      41.265  35.562  35.851  1.00  0.00    -0.206 F 
ATOM     90  C   UNL A   1      39.503  35.895  38.989  1.00  0.00     0.060 A 
BRANCH  90  91
ATOM     91  S   UNL A   1      39.170  37.143  40.252  1.00  0.00     0.124 S 
ATOM     92  O   UNL A   1      40.516  37.441  40.730  1.00  0.00    -0.237 OA
ATOM     93  O   UNL A   1      38.519  38.203  39.487  1.00  0.00    -0.237 OA
ATOM     94  O   UNL A   1      38.307  36.443  41.198  1.00  0.00    -0.744 OA
ENDBRANCH  90  91
ENDBRANCH  58  83
ENDBRANCH  32  33
ENDBRANCH  25  27
ENDBRANCH  24  25
ENDBRANCH  23  24
ENDBRANCH   1  23
TORSDOF 18
ENDMDL
