MODEL 1
REMARK VINA RESULT:     -10.4      0.000      0.000
REMARK SMILES O=C(OCCOC(=O)[C@H]1CC[C@H](CNS(=O)(=O)C[C@H]2CCCO2)O1)c1ccc(-c2c3nc(c(-c4c(F)cc(S(=O)(=O)[O-])cc4F)c4ccc([nH]4)c(-c4c(F)cc(S(=O)(=O)[O-])cc4F)c4nc(c(-c5c(F)cc(S(=O)(=O)[O-])cc5F)c5ccc2[nH]5)C=C4)C=C3)cc1
REMARK SMILES IDX 5 1 4 2 3 3 2 4 1 5 25 6 26 7 90 8 27 9 89 10 28 11 29 12
REMARK SMILES IDX 30 13 83 14 31 15 88 16 82 17 84 18 32 19 87 20 81 21 80 22
REMARK SMILES IDX 33 24 67 25 46 26 66 27 47 28 50 29 65 30 85 31 48 32 49 33
REMARK SMILES IDX 64 35 86 36 51 37 34 38 35 39 44 40 36 41 37 42 43 43 45 44
REMARK SMILES IDX 38 45 39 46 40 47 41 48 42 49 68 50 69 51 78 52 70 53 71 54
REMARK SMILES IDX 77 55 79 56 72 57 73 58 74 59 75 60 76 61 52 62 53 63 62 64
REMARK SMILES IDX 54 65 55 66 61 67 63 68 56 69 57 70 58 71 59 72 60 73 6 74
REMARK SMILES IDX 7 75 8 76 9 77 10 78 24 79 11 80 12 81 13 82 14 83 15 85
REMARK SMILES IDX 16 86 17 87 18 88 19 89 20 90 23 91 21 92 22 93
REMARK H PARENT 84 23 50 34 14 84
REMARK Flexibility Score: inf
ROOT
ATOM      1  C   UNL A   1      40.730  21.952  26.268  1.00  0.00     0.274 C 
ENDROOT
BRANCH   1   2
ATOM      2  C   UNL A   1      41.704  22.817  27.077  1.00  0.00     0.275 C 
BRANCH   2   3
ATOM      3  O   UNL A   1      42.317  23.880  26.320  1.00  0.00    -0.458 OA
BRANCH   3   4
ATOM      4  C   UNL A   1      42.000  25.196  26.236  1.00  0.00     0.338 C 
ATOM      5  O   UNL A   1      42.062  25.743  25.136  1.00  0.00    -0.246 OA
BRANCH   4   6
ATOM      6  C   UNL A   1      41.720  26.063  27.428  1.00  0.00     0.060 A 
ATOM      7  C   UNL A   1      42.543  27.087  27.901  1.00  0.00     0.016 A 
ATOM      8  C   UNL A   1      40.500  25.842  28.103  1.00  0.00     0.016 A 
ATOM      9  C   UNL A   1      42.134  27.921  28.940  1.00  0.00     0.010 A 
ATOM     10  C   UNL A   1      40.087  26.669  29.160  1.00  0.00     0.010 A 
ATOM     11  C   UNL A   1      40.903  27.725  29.570  1.00  0.00    -0.014 A 
BRANCH  11  12
ATOM     12  C   UNL A   1      40.591  28.585  30.732  1.00  0.00     0.031 A 
ATOM     13  C   UNL A   1      41.433  28.440  31.961  1.00  0.00     0.074 A 
ATOM     14  C   UNL A   1      39.693  29.582  30.614  1.00  0.00     0.049 A 
ATOM     15  N   UNL A   1      41.479  29.200  33.019  1.00  0.00    -0.248 NA
ATOM     16  C   UNL A   1      42.378  27.311  31.980  1.00  0.00     0.031 C 
ATOM     17  C   UNL A   1      38.882  29.842  29.425  1.00  0.00     0.029 A 
ATOM     18  N   UNL A   1      39.332  30.580  31.482  1.00  0.00    -0.354 N 
ATOM     19  C   UNL A   1      42.488  28.671  33.812  1.00  0.00     0.074 A 
ATOM     20  C   UNL A   1      42.989  27.492  33.142  1.00  0.00     0.031 C 
ATOM     21  C   UNL A   1      38.106  30.918  29.642  1.00  0.00     0.029 A 
ATOM     22  C   UNL A   1      38.364  31.425  30.986  1.00  0.00     0.049 A 
ATOM     23  H   UNL A   1      39.728  30.682  32.378  1.00  0.00     0.167 HD
ATOM     24  C   UNL A   1      42.969  29.146  34.983  1.00  0.00     0.037 A 
ATOM     25  C   UNL A   1      37.760  32.484  31.557  1.00  0.00     0.037 A 
ATOM     26  C   UNL A   1      42.423  30.293  35.657  1.00  0.00     0.049 A 
ATOM     27  C   UNL A   1      38.231  32.917  32.922  1.00  0.00     0.074 A 
ATOM     28  C   UNL A   1      42.781  30.823  36.883  1.00  0.00     0.029 A 
ATOM     29  N   UNL A   1      41.388  31.077  35.166  1.00  0.00    -0.354 N 
ATOM     30  N   UNL A   1      39.198  32.415  33.657  1.00  0.00    -0.248 NA
ATOM     31  C   UNL A   1      37.552  34.069  33.529  1.00  0.00     0.031 C 
ATOM     32  C   UNL A   1      41.929  31.899  37.153  1.00  0.00     0.029 A 
ATOM     33  C   UNL A   1      41.080  32.077  36.071  1.00  0.00     0.049 A 
ATOM     34  H   UNL A   1      40.939  30.942  34.299  1.00  0.00     0.167 HD
ATOM     35  C   UNL A   1      39.257  33.203  34.801  1.00  0.00     0.074 A 
ATOM     36  C   UNL A   1      38.248  34.232  34.645  1.00  0.00     0.031 C 
ATOM     37  C   UNL A   1      40.068  33.090  35.883  1.00  0.00     0.037 A 
BRANCH  24  38
ATOM     38  C   UNL A   1      44.116  28.403  35.602  1.00  0.00     0.058 A 
ATOM     39  C   UNL A   1      43.903  27.356  36.515  1.00  0.00     0.135 A 
ATOM     40  C   UNL A   1      45.441  28.742  35.291  1.00  0.00     0.135 A 
ATOM     41  F   UNL A   1      42.655  27.013  36.874  1.00  0.00    -0.206 F 
ATOM     42  C   UNL A   1      44.964  26.685  37.111  1.00  0.00     0.059 A 
ATOM     43  C   UNL A   1      46.519  28.067  35.857  1.00  0.00     0.059 A 
ATOM     44  F   UNL A   1      45.699  29.746  34.438  1.00  0.00    -0.206 F 
ATOM     45  C   UNL A   1      46.269  27.047  36.774  1.00  0.00     0.060 A 
BRANCH  45  46
ATOM     46  S   UNL A   1      47.636  26.158  37.550  1.00  0.00     0.124 S 
ATOM     47  O   UNL A   1      46.962  25.508  38.670  1.00  0.00    -0.237 OA
ATOM     48  O   UNL A   1      48.078  25.273  36.477  1.00  0.00    -0.237 OA
ATOM     49  O   UNL A   1      48.571  27.219  37.911  1.00  0.00    -0.744 OA
ENDBRANCH  45  46
ENDBRANCH  24  38
BRANCH  25  50
ATOM     50  C   UNL A   1      36.641  33.189  30.867  1.00  0.00     0.058 A 
ATOM     51  C   UNL A   1      35.302  33.014  31.249  1.00  0.00     0.135 A 
ATOM     52  C   UNL A   1      36.895  34.031  29.771  1.00  0.00     0.135 A 
ATOM     53  F   UNL A   1      34.998  32.220  32.287  1.00  0.00    -0.206 F 
ATOM     54  C   UNL A   1      34.256  33.614  30.550  1.00  0.00     0.059 A 
ATOM     55  C   UNL A   1      35.870  34.666  29.075  1.00  0.00     0.059 A 
ATOM     56  F   UNL A   1      38.157  34.252  29.371  1.00  0.00    -0.206 F 
ATOM     57  C   UNL A   1      34.552  34.436  29.460  1.00  0.00     0.060 A 
BRANCH  57  58
ATOM     58  S   UNL A   1      33.190  35.218  28.566  1.00  0.00     0.124 S 
ATOM     59  O   UNL A   1      33.907  36.044  27.601  1.00  0.00    -0.237 OA
ATOM     60  O   UNL A   1      32.482  34.065  28.020  1.00  0.00    -0.237 OA
ATOM     61  O   UNL A   1      32.475  35.944  29.612  1.00  0.00    -0.744 OA
ENDBRANCH  57  58
ENDBRANCH  25  50
BRANCH  37  62
ATOM     62  C   UNL A   1      39.911  34.122  36.965  1.00  0.00     0.058 A 
ATOM     63  C   UNL A   1      39.021  33.941  38.035  1.00  0.00     0.135 A 
ATOM     64  C   UNL A   1      40.692  35.289  36.950  1.00  0.00     0.135 A 
ATOM     65  F   UNL A   1      38.249  32.844  38.095  1.00  0.00    -0.206 F 
ATOM     66  C   UNL A   1      38.882  34.899  39.032  1.00  0.00     0.059 A 
ATOM     67  C   UNL A   1      40.595  36.244  37.955  1.00  0.00     0.059 A 
ATOM     68  F   UNL A   1      41.570  35.503  35.956  1.00  0.00    -0.206 F 
ATOM     69  C   UNL A   1      39.674  36.048  38.983  1.00  0.00     0.060 A 
BRANCH  69  70
ATOM     70  S   UNL A   1      39.495  37.278  40.291  1.00  0.00     0.124 S 
ATOM     71  O   UNL A   1      40.886  37.619  40.565  1.00  0.00    -0.237 OA
ATOM     72  O   UNL A   1      38.703  38.315  39.638  1.00  0.00    -0.237 OA
ATOM     73  O   UNL A   1      38.807  36.547  41.351  1.00  0.00    -0.744 OA
ENDBRANCH  69  70
ENDBRANCH  37  62
ENDBRANCH  11  12
ENDBRANCH   4   6
ENDBRANCH   3   4
ENDBRANCH   2   3
ENDBRANCH   1   2
BRANCH   1  74
ATOM     74  O   UNL A   1      39.359  22.230  26.579  1.00  0.00    -0.460 OA
BRANCH  74  75
ATOM     75  C   UNL A   1      38.431  21.577  25.816  1.00  0.00     0.335 C 
ATOM     76  O   UNL A   1      38.612  20.498  25.265  1.00  0.00    -0.249 OA
BRANCH  75  77
ATOM     77  C   UNL A   1      37.122  22.375  25.786  1.00  0.00     0.228 C 
ATOM     78  C   UNL A   1      37.270  23.700  25.074  1.00  0.00     0.047 C 
ATOM     79  O   UNL A   1      36.080  21.654  25.113  1.00  0.00    -0.362 OA
ATOM     80  C   UNL A   1      36.887  23.345  23.664  1.00  0.00     0.037 C 
ATOM     81  C   UNL A   1      35.792  22.301  23.860  1.00  0.00     0.134 C 
BRANCH  81  82
ATOM     82  C   UNL A   1      34.357  22.867  23.917  1.00  0.00     0.130 C 
BRANCH  82  83
ATOM     83  N   UNL A   1      33.547  22.132  24.910  1.00  0.00    -0.213 NA
ATOM     84  H   UNL A   1      32.960  22.816  25.388  1.00  0.00     0.141 HD
BRANCH  83  85
ATOM     85  S   UNL A   1      32.543  20.913  24.368  1.00  0.00     0.214 S 
ATOM     86  O   UNL A   1      31.473  20.783  25.326  1.00  0.00    -0.212 OA
ATOM     87  O   UNL A   1      32.254  21.241  22.985  1.00  0.00    -0.212 OA
BRANCH  85  88
ATOM     88  C   UNL A   1      33.501  19.420  24.389  1.00  0.00     0.185 C 
BRANCH  88  89
ATOM     89  C   UNL A   1      32.801  18.080  24.223  1.00  0.00     0.134 C 
ATOM     90  C   UNL A   1      33.481  16.879  23.580  1.00  0.00     0.035 C 
ATOM     91  O   UNL A   1      32.309  17.656  25.511  1.00  0.00    -0.377 OA
ATOM     92  C   UNL A   1      33.619  15.876  24.702  1.00  0.00     0.031 C 
ATOM     93  C   UNL A   1      32.495  16.245  25.639  1.00  0.00     0.160 C 
ENDBRANCH  88  89
ENDBRANCH  85  88
ENDBRANCH  83  85
ENDBRANCH  82  83
ENDBRANCH  81  82
ENDBRANCH  75  77
ENDBRANCH  74  75
ENDBRANCH   1  74
TORSDOF 19
ENDMDL
MODEL 2
REMARK VINA RESULT:     -10.4      3.527      9.593
REMARK SMILES O=C(OCCOC(=O)[C@H]1CC[C@H](CNS(=O)(=O)C[C@H]2CCCO2)O1)c1ccc(-c2c3nc(c(-c4c(F)cc(S(=O)(=O)[O-])cc4F)c4ccc([nH]4)c(-c4c(F)cc(S(=O)(=O)[O-])cc4F)c4nc(c(-c5c(F)cc(S(=O)(=O)[O-])cc5F)c5ccc2[nH]5)C=C4)C=C3)cc1
REMARK SMILES IDX 5 1 4 2 3 3 2 4 1 5 25 6 26 7 90 8 27 9 89 10 28 11 29 12
REMARK SMILES IDX 30 13 83 14 31 15 88 16 82 17 84 18 32 19 87 20 81 21 80 22
REMARK SMILES IDX 33 24 67 25 46 26 66 27 47 28 50 29 65 30 85 31 48 32 49 33
REMARK SMILES IDX 64 35 86 36 51 37 34 38 35 39 44 40 36 41 37 42 43 43 45 44
REMARK SMILES IDX 38 45 39 46 40 47 41 48 42 49 68 50 69 51 78 52 70 53 71 54
REMARK SMILES IDX 77 55 79 56 72 57 73 58 74 59 75 60 76 61 52 62 53 63 62 64
REMARK SMILES IDX 54 65 55 66 61 67 63 68 56 69 57 70 58 71 59 72 60 73 6 74
REMARK SMILES IDX 7 75 8 76 9 77 10 78 24 79 11 80 12 81 13 82 14 83 15 85
REMARK SMILES IDX 16 86 17 87 18 88 19 89 20 90 23 91 21 92 22 93
REMARK H PARENT 84 23 50 34 14 84
REMARK Flexibility Score: inf
ROOT
ATOM      1  C   UNL A   1      31.577  29.810  25.305  1.00  0.00     0.274 C 
ENDROOT
BRANCH   1   2
ATOM      2  C   UNL A   1      32.200  29.141  26.535  1.00  0.00     0.275 C 
BRANCH   2   3
ATOM      3  O   UNL A   1      33.604  29.416  26.711  1.00  0.00    -0.458 OA
BRANCH   3   4
ATOM      4  C   UNL A   1      34.233  30.291  27.535  1.00  0.00     0.338 C 
ATOM      5  O   UNL A   1      33.733  31.403  27.698  1.00  0.00    -0.246 OA
BRANCH   4   6
ATOM      6  C   UNL A   1      35.579  30.038  28.146  1.00  0.00     0.060 A 
ATOM      7  C   UNL A   1      35.812  29.626  29.459  1.00  0.00     0.016 A 
ATOM      8  C   UNL A   1      36.700  30.200  27.304  1.00  0.00     0.016 A 
ATOM      9  C   UNL A   1      37.094  29.294  29.896  1.00  0.00     0.010 A 
ATOM     10  C   UNL A   1      37.996  29.882  27.740  1.00  0.00     0.010 A 
ATOM     11  C   UNL A   1      38.191  29.410  29.040  1.00  0.00    -0.014 A 
BRANCH  11  12
ATOM     12  C   UNL A   1      39.529  29.141  29.611  1.00  0.00     0.031 A 
ATOM     13  C   UNL A   1      39.945  29.915  30.823  1.00  0.00     0.074 A 
ATOM     14  C   UNL A   1      40.264  28.109  29.155  1.00  0.00     0.049 A 
ATOM     15  N   UNL A   1      40.969  29.725  31.607  1.00  0.00    -0.248 NA
ATOM     16  C   UNL A   1      39.065  31.024  31.229  1.00  0.00     0.031 C 
ATOM     17  C   UNL A   1      39.898  27.255  28.025  1.00  0.00     0.029 A 
ATOM     18  N   UNL A   1      41.450  27.580  29.596  1.00  0.00    -0.354 N 
ATOM     19  C   UNL A   1      40.836  30.660  32.625  1.00  0.00     0.074 A 
ATOM     20  C   UNL A   1      39.665  31.454  32.329  1.00  0.00     0.031 C 
ATOM     21  C   UNL A   1      40.845  26.318  27.851  1.00  0.00     0.029 A 
ATOM     22  C   UNL A   1      41.887  26.505  28.856  1.00  0.00     0.049 A 
ATOM     23  H   UNL A   1      41.942  27.937  30.371  1.00  0.00     0.167 HD
ATOM     24  C   UNL A   1      41.610  30.820  33.721  1.00  0.00     0.037 A 
ATOM     25  C   UNL A   1      43.003  25.761  28.981  1.00  0.00     0.037 A 
ATOM     26  C   UNL A   1      42.799  30.051  33.971  1.00  0.00     0.049 A 
ATOM     27  C   UNL A   1      43.917  26.044  30.146  1.00  0.00     0.074 A 
ATOM     28  C   UNL A   1      43.702  30.174  35.011  1.00  0.00     0.029 A 
ATOM     29  N   UNL A   1      43.259  29.024  33.158  1.00  0.00    -0.354 N 
ATOM     30  N   UNL A   1      43.771  26.925  31.110  1.00  0.00    -0.248 NA
ATOM     31  C   UNL A   1      45.131  25.227  30.256  1.00  0.00     0.031 C 
ATOM     32  C   UNL A   1      44.734  29.253  34.798  1.00  0.00     0.029 A 
ATOM     33  C   UNL A   1      44.444  28.515  33.660  1.00  0.00     0.049 A 
ATOM     34  H   UNL A   1      42.808  28.704  32.342  1.00  0.00     0.167 HD
ATOM     35  C   UNL A   1      44.863  26.751  31.954  1.00  0.00     0.074 A 
ATOM     36  C   UNL A   1      45.643  25.662  31.400  1.00  0.00     0.031 C 
ATOM     37  C   UNL A   1      45.195  27.426  33.083  1.00  0.00     0.037 A 
BRANCH  24  38
ATOM     38  C   UNL A   1      41.198  31.880  34.700  1.00  0.00     0.058 A 
ATOM     39  C   UNL A   1      40.399  31.577  35.816  1.00  0.00     0.135 A 
ATOM     40  C   UNL A   1      41.594  33.214  34.520  1.00  0.00     0.135 A 
ATOM     41  F   UNL A   1      39.964  30.322  36.017  1.00  0.00    -0.206 F 
ATOM     42  C   UNL A   1      39.993  32.563  36.708  1.00  0.00     0.059 A 
ATOM     43  C   UNL A   1      41.219  34.213  35.413  1.00  0.00     0.059 A 
ATOM     44  F   UNL A   1      42.342  33.559  33.460  1.00  0.00    -0.206 F 
ATOM     45  C   UNL A   1      40.410  33.879  36.499  1.00  0.00     0.060 A 
BRANCH  45  46
ATOM     46  S   UNL A   1      39.881  35.144  37.672  1.00  0.00     0.124 S 
ATOM     47  O   UNL A   1      40.971  35.116  38.643  1.00  0.00    -0.237 OA
ATOM     48  O   UNL A   1      39.812  36.335  36.832  1.00  0.00    -0.237 OA
ATOM     49  O   UNL A   1      38.598  34.645  38.156  1.00  0.00    -0.744 OA
ENDBRANCH  45  46
ENDBRANCH  24  38
BRANCH  25  50
ATOM     50  C   UNL A   1      43.333  24.705  27.980  1.00  0.00     0.058 A 
ATOM     51  C   UNL A   1      42.923  23.373  28.139  1.00  0.00     0.135 A 
ATOM     52  C   UNL A   1      44.114  25.009  26.851  1.00  0.00     0.135 A 
ATOM     53  F   UNL A   1      42.177  23.022  29.199  1.00  0.00    -0.206 F 
ATOM     54  C   UNL A   1      43.302  22.376  27.242  1.00  0.00     0.059 A 
ATOM     55  C   UNL A   1      44.480  24.037  25.924  1.00  0.00     0.059 A 
ATOM     56  F   UNL A   1      44.521  26.269  26.636  1.00  0.00    -0.206 F 
ATOM     57  C   UNL A   1      44.085  22.719  26.138  1.00  0.00     0.060 A 
BRANCH  57  58
ATOM     58  S   UNL A   1      44.564  21.423  24.974  1.00  0.00     0.124 S 
ATOM     59  O   UNL A   1      44.439  22.113  23.696  1.00  0.00    -0.237 OA
ATOM     60  O   UNL A   1      45.923  21.114  25.404  1.00  0.00    -0.237 OA
ATOM     61  O   UNL A   1      43.583  20.371  25.223  1.00  0.00    -0.744 OA
ENDBRANCH  57  58
ENDBRANCH  25  50
BRANCH  37  62
ATOM     62  C   UNL A   1      46.440  26.985  33.802  1.00  0.00     0.058 A 
ATOM     63  C   UNL A   1      47.692  27.557  33.531  1.00  0.00     0.135 A 
ATOM     64  C   UNL A   1      46.369  26.003  34.804  1.00  0.00     0.135 A 
ATOM     65  F   UNL A   1      47.815  28.497  32.580  1.00  0.00    -0.206 F 
ATOM     66  C   UNL A   1      48.837  27.144  34.200  1.00  0.00     0.059 A 
ATOM     67  C   UNL A   1      47.495  25.601  35.511  1.00  0.00     0.059 A 
ATOM     68  F   UNL A   1      45.191  25.435  35.113  1.00  0.00    -0.206 F 
ATOM     69  C   UNL A   1      48.729  26.165  35.190  1.00  0.00     0.060 A 
BRANCH  69  70
ATOM     70  S   UNL A   1      50.221  25.648  36.062  1.00  0.00     0.124 S 
ATOM     71  O   UNL A   1      49.879  24.283  36.445  1.00  0.00    -0.237 OA
ATOM     72  O   UNL A   1      51.246  25.781  35.031  1.00  0.00    -0.237 OA
ATOM     73  O   UNL A   1      50.319  26.603  37.162  1.00  0.00    -0.744 OA
ENDBRANCH  69  70
ENDBRANCH  37  62
ENDBRANCH  11  12
ENDBRANCH   4   6
ENDBRANCH   3   4
ENDBRANCH   2   3
ENDBRANCH   1   2
BRANCH   1  74
ATOM     74  O   UNL A   1      30.895  28.877  24.457  1.00  0.00    -0.460 OA
BRANCH  74  75
ATOM     75  C   UNL A   1      31.584  28.463  23.351  1.00  0.00     0.335 C 
ATOM     76  O   UNL A   1      32.546  29.047  22.867  1.00  0.00    -0.249 OA
BRANCH  75  77
ATOM     77  C   UNL A   1      30.999  27.144  22.832  1.00  0.00     0.228 C 
ATOM     78  C   UNL A   1      31.988  26.362  21.999  1.00  0.00     0.047 C 
ATOM     79  O   UNL A   1      30.591  26.289  23.909  1.00  0.00    -0.362 OA
ATOM     80  C   UNL A   1      32.633  25.474  23.027  1.00  0.00     0.037 C 
ATOM     81  C   UNL A   1      31.482  25.160  23.977  1.00  0.00     0.134 C 
BRANCH  81  82
ATOM     82  C   UNL A   1      30.685  23.883  23.634  1.00  0.00     0.130 C 
BRANCH  82  83
ATOM     83  N   UNL A   1      31.539  22.912  22.921  1.00  0.00    -0.213 NA
ATOM     84  H   UNL A   1      32.198  23.447  22.355  1.00  0.00     0.141 HD
BRANCH  83  85
ATOM     85  S   UNL A   1      32.432  21.828  23.824  1.00  0.00     0.214 S 
ATOM     86  O   UNL A   1      33.805  22.267  23.782  1.00  0.00    -0.212 OA
ATOM     87  O   UNL A   1      31.735  21.720  25.092  1.00  0.00    -0.212 OA
BRANCH  85  88
ATOM     88  C   UNL A   1      32.316  20.263  22.998  1.00  0.00     0.185 C 
BRANCH  88  89
ATOM     89  C   UNL A   1      32.603  18.986  23.773  1.00  0.00     0.134 C 
ATOM     90  C   UNL A   1      32.574  17.611  23.118  1.00  0.00     0.035 C 
ATOM     91  O   UNL A   1      33.882  19.123  24.427  1.00  0.00    -0.377 OA
ATOM     92  C   UNL A   1      34.008  17.136  23.171  1.00  0.00     0.031 C 
ATOM     93  C   UNL A   1      34.576  17.876  24.358  1.00  0.00     0.160 C 
ENDBRANCH  88  89
ENDBRANCH  85  88
ENDBRANCH  83  85
ENDBRANCH  82  83
ENDBRANCH  81  82
ENDBRANCH  75  77
ENDBRANCH  74  75
ENDBRANCH   1  74
TORSDOF 19
ENDMDL
MODEL 3
REMARK VINA RESULT:     -10.3      6.512     12.178
REMARK SMILES O=C(OCCOC(=O)[C@H]1CC[C@H](CNS(=O)(=O)C[C@H]2CCCO2)O1)c1ccc(-c2c3nc(c(-c4c(F)cc(S(=O)(=O)[O-])cc4F)c4ccc([nH]4)c(-c4c(F)cc(S(=O)(=O)[O-])cc4F)c4nc(c(-c5c(F)cc(S(=O)(=O)[O-])cc5F)c5ccc2[nH]5)C=C4)C=C3)cc1
REMARK SMILES IDX 5 1 4 2 3 3 2 4 1 5 25 6 26 7 90 8 27 9 89 10 28 11 29 12
REMARK SMILES IDX 30 13 83 14 31 15 88 16 82 17 84 18 32 19 87 20 81 21 80 22
REMARK SMILES IDX 33 24 67 25 46 26 66 27 47 28 50 29 65 30 85 31 48 32 49 33
REMARK SMILES IDX 64 35 86 36 51 37 34 38 35 39 44 40 36 41 37 42 43 43 45 44
REMARK SMILES IDX 38 45 39 46 40 47 41 48 42 49 68 50 69 51 78 52 70 53 71 54
REMARK SMILES IDX 77 55 79 56 72 57 73 58 74 59 75 60 76 61 52 62 53 63 62 64
REMARK SMILES IDX 54 65 55 66 61 67 63 68 56 69 57 70 58 71 59 72 60 73 6 74
REMARK SMILES IDX 7 75 8 76 9 77 10 78 24 79 11 80 12 81 13 82 14 83 15 85
REMARK SMILES IDX 16 86 17 87 18 88 19 89 20 90 23 91 21 92 22 93
REMARK H PARENT 84 23 50 34 14 84
REMARK Flexibility Score: inf
ROOT
ATOM      1  C   UNL A   1      35.118  32.143  28.368  1.00  0.00     0.274 C 
ENDROOT
BRANCH   1   2
ATOM      2  C   UNL A   1      35.145  32.270  29.895  1.00  0.00     0.275 C 
BRANCH   2   3
ATOM      3  O   UNL A   1      35.910  31.244  30.559  1.00  0.00    -0.458 OA
BRANCH   3   4
ATOM      4  C   UNL A   1      37.097  31.314  31.210  1.00  0.00     0.338 C 
ATOM      5  O   UNL A   1      37.132  31.874  32.305  1.00  0.00    -0.246 OA
BRANCH   4   6
ATOM      6  C   UNL A   1      38.402  30.878  30.612  1.00  0.00     0.060 A 
ATOM      7  C   UNL A   1      39.576  30.617  31.322  1.00  0.00     0.016 A 
ATOM      8  C   UNL A   1      38.427  30.683  29.214  1.00  0.00     0.016 A 
ATOM      9  C   UNL A   1      40.702  30.093  30.688  1.00  0.00     0.010 A 
ATOM     10  C   UNL A   1      39.562  30.169  28.567  1.00  0.00     0.010 A 
ATOM     11  C   UNL A   1      40.701  29.857  29.312  1.00  0.00    -0.014 A 
BRANCH  11  12
ATOM     12  C   UNL A   1      41.968  29.402  28.701  1.00  0.00     0.031 A 
ATOM     13  C   UNL A   1      43.102  30.376  28.623  1.00  0.00     0.074 A 
ATOM     14  C   UNL A   1      42.142  28.102  28.392  1.00  0.00     0.049 A 
ATOM     15  N   UNL A   1      44.350  30.161  28.313  1.00  0.00    -0.248 NA
ATOM     16  C   UNL A   1      42.795  31.771  28.981  1.00  0.00     0.031 C 
ATOM     17  C   UNL A   1      41.113  27.069  28.508  1.00  0.00     0.029 A 
ATOM     18  N   UNL A   1      43.245  27.418  27.950  1.00  0.00    -0.354 N 
ATOM     19  C   UNL A   1      44.990  31.381  28.483  1.00  0.00     0.074 A 
ATOM     20  C   UNL A   1      43.983  32.346  28.865  1.00  0.00     0.031 C 
ATOM     21  C   UNL A   1      41.626  25.885  28.134  1.00  0.00     0.029 A 
ATOM     22  C   UNL A   1      43.021  26.075  27.748  1.00  0.00     0.049 A 
ATOM     23  H   UNL A   1      44.116  27.849  27.791  1.00  0.00     0.167 HD
ATOM     24  C   UNL A   1      46.307  31.661  28.356  1.00  0.00     0.037 A 
ATOM     25  C   UNL A   1      43.852  25.113  27.303  1.00  0.00     0.037 A 
ATOM     26  C   UNL A   1      47.284  30.698  27.926  1.00  0.00     0.049 A 
ATOM     27  C   UNL A   1      45.291  25.483  27.047  1.00  0.00     0.074 A 
ATOM     28  C   UNL A   1      48.633  30.885  27.691  1.00  0.00     0.029 A 
ATOM     29  N   UNL A   1      47.009  29.365  27.651  1.00  0.00    -0.354 N 
ATOM     30  N   UNL A   1      45.887  26.640  27.225  1.00  0.00    -0.248 NA
ATOM     31  C   UNL A   1      46.176  24.420  26.554  1.00  0.00     0.031 C 
ATOM     32  C   UNL A   1      49.163  29.676  27.227  1.00  0.00     0.029 A 
ATOM     33  C   UNL A   1      48.158  28.720  27.230  1.00  0.00     0.049 A 
ATOM     34  H   UNL A   1      46.125  28.940  27.742  1.00  0.00     0.167 HD
ATOM     35  C   UNL A   1      47.221  26.439  26.887  1.00  0.00     0.074 A 
ATOM     36  C   UNL A   1      47.347  25.041  26.524  1.00  0.00     0.031 C 
ATOM     37  C   UNL A   1      48.250  27.324  26.876  1.00  0.00     0.037 A 
BRANCH  24  38
ATOM     38  C   UNL A   1      46.739  33.065  28.659  1.00  0.00     0.058 A 
ATOM     39  C   UNL A   1      47.142  33.445  29.951  1.00  0.00     0.135 A 
ATOM     40  C   UNL A   1      46.742  34.047  27.657  1.00  0.00     0.135 A 
ATOM     41  F   UNL A   1      47.125  32.553  30.955  1.00  0.00    -0.206 F 
ATOM     42  C   UNL A   1      47.516  34.752  30.241  1.00  0.00     0.059 A 
ATOM     43  C   UNL A   1      47.136  35.356  27.918  1.00  0.00     0.059 A 
ATOM     44  F   UNL A   1      46.349  33.740  26.411  1.00  0.00    -0.206 F 
ATOM     45  C   UNL A   1      47.511  35.701  29.216  1.00  0.00     0.060 A 
BRANCH  45  46
ATOM     46  S   UNL A   1      48.009  37.391  29.608  1.00  0.00     0.124 S 
ATOM     47  O   UNL A   1      48.610  37.818  28.349  1.00  0.00    -0.237 OA
ATOM     48  O   UNL A   1      46.735  38.018  29.947  1.00  0.00    -0.237 OA
ATOM     49  O   UNL A   1      48.938  37.223  30.721  1.00  0.00    -0.744 OA
ENDBRANCH  45  46
ENDBRANCH  24  38
BRANCH  25  50
ATOM     50  C   UNL A   1      43.354  23.730  27.048  1.00  0.00     0.058 A 
ATOM     51  C   UNL A   1      42.866  23.334  25.793  1.00  0.00     0.135 A 
ATOM     52  C   UNL A   1      43.318  22.781  28.083  1.00  0.00     0.135 A 
ATOM     53  F   UNL A   1      42.872  24.198  24.767  1.00  0.00    -0.206 F 
ATOM     54  C   UNL A   1      42.328  22.065  25.583  1.00  0.00     0.059 A 
ATOM     55  C   UNL A   1      42.815  21.498  27.891  1.00  0.00     0.059 A 
ATOM     56  F   UNL A   1      43.788  23.096  29.300  1.00  0.00    -0.206 F 
ATOM     57  C   UNL A   1      42.304  21.155  26.642  1.00  0.00     0.060 A 
BRANCH  57  58
ATOM     58  S   UNL A   1      41.615  19.508  26.358  1.00  0.00     0.124 S 
ATOM     59  O   UNL A   1      40.204  19.811  26.147  1.00  0.00    -0.237 OA
ATOM     60  O   UNL A   1      42.358  19.066  25.182  1.00  0.00    -0.237 OA
ATOM     61  O   UNL A   1      41.932  18.795  27.592  1.00  0.00    -0.744 OA
ENDBRANCH  57  58
ENDBRANCH  25  50
BRANCH  37  62
ATOM     62  C   UNL A   1      49.602  26.795  26.484  1.00  0.00     0.058 A 
ATOM     63  C   UNL A   1      50.447  26.166  27.411  1.00  0.00     0.135 A 
ATOM     64  C   UNL A   1      50.039  26.887  25.152  1.00  0.00     0.135 A 
ATOM     65  F   UNL A   1      50.078  26.056  28.697  1.00  0.00    -0.206 F 
ATOM     66  C   UNL A   1      51.694  25.680  27.040  1.00  0.00     0.059 A 
ATOM     67  C   UNL A   1      51.267  26.376  24.752  1.00  0.00     0.059 A 
ATOM     68  F   UNL A   1      49.261  27.467  24.223  1.00  0.00    -0.206 F 
ATOM     69  C   UNL A   1      52.096  25.789  25.707  1.00  0.00     0.060 A 
BRANCH  69  70
ATOM     70  S   UNL A   1      53.712  25.141  25.236  1.00  0.00     0.124 S 
ATOM     71  O   UNL A   1      54.567  25.698  26.279  1.00  0.00    -0.237 OA
ATOM     72  O   UNL A   1      53.498  23.699  25.293  1.00  0.00    -0.237 OA
ATOM     73  O   UNL A   1      53.919  25.686  23.897  1.00  0.00    -0.744 OA
ENDBRANCH  69  70
ENDBRANCH  37  62
ENDBRANCH  11  12
ENDBRANCH   4   6
ENDBRANCH   3   4
ENDBRANCH   2   3
ENDBRANCH   1   2
BRANCH   1  74
ATOM     74  O   UNL A   1      33.947  31.465  27.893  1.00  0.00    -0.460 OA
BRANCH  74  75
ATOM     75  C   UNL A   1      34.138  30.185  27.450  1.00  0.00     0.335 C 
ATOM     76  O   UNL A   1      35.230  29.682  27.216  1.00  0.00    -0.249 OA
BRANCH  75  77
ATOM     77  C   UNL A   1      32.789  29.466  27.329  1.00  0.00     0.228 C 
ATOM     78  C   UNL A   1      31.953  29.997  26.188  1.00  0.00     0.047 C 
ATOM     79  O   UNL A   1      32.961  28.060  27.102  1.00  0.00    -0.362 OA
ATOM     80  C   UNL A   1      32.347  29.086  25.058  1.00  0.00     0.037 C 
ATOM     81  C   UNL A   1      32.558  27.747  25.757  1.00  0.00     0.134 C 
BRANCH  81  82
ATOM     82  C   UNL A   1      31.310  26.840  25.815  1.00  0.00     0.130 C 
BRANCH  82  83
ATOM     83  N   UNL A   1      31.495  25.764  26.811  1.00  0.00    -0.213 NA
ATOM     84  H   UNL A   1      30.981  26.037  27.649  1.00  0.00     0.141 HD
BRANCH  83  85
ATOM     85  S   UNL A   1      31.002  24.220  26.410  1.00  0.00     0.214 S 
ATOM     86  O   UNL A   1      29.804  23.944  27.165  1.00  0.00    -0.212 OA
ATOM     87  O   UNL A   1      30.979  24.189  24.961  1.00  0.00    -0.212 OA
BRANCH  85  88
ATOM     88  C   UNL A   1      32.280  23.120  26.964  1.00  0.00     0.185 C 
BRANCH  88  89
ATOM     89  C   UNL A   1      33.668  23.220  26.351  1.00  0.00     0.134 C 
ATOM     90  C   UNL A   1      34.048  22.489  25.071  1.00  0.00     0.035 C 
ATOM     91  O   UNL A   1      33.986  24.614  26.160  1.00  0.00    -0.377 OA
ATOM     92  C   UNL A   1      34.287  23.588  24.063  1.00  0.00     0.031 C 
ATOM     93  C   UNL A   1      34.680  24.767  24.920  1.00  0.00     0.160 C 
ENDBRANCH  88  89
ENDBRANCH  85  88
ENDBRANCH  83  85
ENDBRANCH  82  83
ENDBRANCH  81  82
ENDBRANCH  75  77
ENDBRANCH  74  75
ENDBRANCH   1  74
TORSDOF 19
ENDMDL
