MODEL 1
REMARK VINA RESULT:     -11.9      0.000      0.000
REMARK SMILES O=C(Cc1ccccc1-c1ccn(C(F)F)c(=O)c1)OCCOC(=O)c1ccc(-c2c3nc(c(-c4c(F)cc(S(=O)(=O)[O-])cc4F)c4ccc([nH]4)c(-c4c(F)cc(S(=O)(=O)[O-])cc4F)c4nc(c(-c5c(F)cc(S(=O)(=O)[O-])cc5F)c5ccc2[nH]5)C=C4)C=C3)cc1
REMARK SMILES IDX 21 1 20 2 2 3 1 4 3 5 4 6 5 7 9 8 6 9 8 10 7 11 10 12 11 13
REMARK SMILES IDX 19 14 12 15 17 16 13 17 18 18 14 19 15 20 16 21 22 22 23 23
REMARK SMILES IDX 24 24 25 25 26 26 27 27 91 28 28 29 90 30 29 31 30 32 31 33
REMARK SMILES IDX 84 34 32 35 89 36 83 37 85 38 33 39 88 40 82 41 81 42 34 44
REMARK SMILES IDX 68 45 47 46 67 47 48 48 51 49 66 50 86 51 49 52 50 53 65 55
REMARK SMILES IDX 87 56 52 57 35 58 36 59 45 60 37 61 38 62 44 63 46 64 39 65
REMARK SMILES IDX 40 66 41 67 42 68 43 69 69 70 70 71 79 72 71 73 72 74 78 75
REMARK SMILES IDX 80 76 73 77 74 78 75 79 76 80 77 81 53 82 54 83 63 84 55 85
REMARK SMILES IDX 56 86 62 87 64 88 57 89 58 90 59 91 60 92 61 93
REMARK H PARENT 85 43 51 54
REMARK Flexibility Score: inf
ROOT
ATOM      1  C   UNL A   1      38.296  23.103  26.068  1.00  0.00     0.274 C 
ENDROOT
BRANCH   1   2
ATOM      2  O   UNL A   1      37.387  22.116  25.535  1.00  0.00    -0.462 OA
BRANCH   2   3
ATOM      3  C   UNL A   1      36.044  22.227  25.423  1.00  0.00     0.310 C 
ATOM      4  O   UNL A   1      35.367  22.440  26.428  1.00  0.00    -0.252 OA
BRANCH   3   5
ATOM      5  C   UNL A   1      35.390  22.080  24.074  1.00  0.00     0.158 C 
BRANCH   5   6
ATOM      6  C   UNL A   1      34.054  22.754  23.814  1.00  0.00    -0.029 A 
ATOM      7  C   UNL A   1      34.109  24.136  23.530  1.00  0.00     0.005 A 
ATOM      8  C   UNL A   1      32.799  22.105  23.752  1.00  0.00    -0.014 A 
ATOM      9  C   UNL A   1      32.956  24.866  23.248  1.00  0.00     0.000 A 
ATOM     10  C   UNL A   1      31.643  22.858  23.486  1.00  0.00     0.009 A 
ATOM     11  C   UNL A   1      31.722  24.229  23.239  1.00  0.00     0.001 A 
BRANCH   8  12
ATOM     12  C   UNL A   1      32.633  20.654  23.962  1.00  0.00    -0.011 A 
ATOM     13  C   UNL A   1      32.769  20.037  25.267  1.00  0.00     0.027 A 
ATOM     14  C   UNL A   1      32.435  19.872  22.887  1.00  0.00     0.080 A 
ATOM     15  C   UNL A   1      32.948  18.715  25.368  1.00  0.00     0.095 A 
ATOM     16  C   UNL A   1      32.466  18.386  23.017  1.00  0.00     0.255 A 
ATOM     17  N   UNL A   1      32.876  17.904  24.250  1.00  0.00    -0.258 N 
ATOM     18  O   UNL A   1      32.158  17.703  22.045  1.00  0.00    -0.269 OA
BRANCH  17  19
ATOM     19  C   UNL A   1      33.126  16.492  24.377  1.00  0.00     0.451 C 
ATOM     20  F   UNL A   1      34.418  16.269  24.725  1.00  0.00    -0.185 F 
ATOM     21  F   UNL A   1      32.339  15.897  25.304  1.00  0.00    -0.185 F 
ENDBRANCH  17  19
ENDBRANCH   8  12
ENDBRANCH   5   6
ENDBRANCH   3   5
ENDBRANCH   2   3
ENDBRANCH   1   2
BRANCH   1  22
ATOM     22  C   UNL A   1      39.558  22.397  26.558  1.00  0.00     0.275 C 
BRANCH  22  23
ATOM     23  O   UNL A   1      40.152  23.212  27.577  1.00  0.00    -0.458 OA
BRANCH  23  24
ATOM     24  C   UNL A   1      41.055  24.124  27.144  1.00  0.00     0.338 C 
ATOM     25  O   UNL A   1      41.762  24.043  26.157  1.00  0.00    -0.246 OA
BRANCH  24  26
ATOM     26  C   UNL A   1      40.871  25.349  27.951  1.00  0.00     0.060 A 
ATOM     27  C   UNL A   1      41.888  26.313  27.949  1.00  0.00     0.016 A 
ATOM     28  C   UNL A   1      39.684  25.570  28.658  1.00  0.00     0.016 A 
ATOM     29  C   UNL A   1      41.736  27.483  28.694  1.00  0.00     0.010 A 
ATOM     30  C   UNL A   1      39.530  26.737  29.396  1.00  0.00     0.010 A 
ATOM     31  C   UNL A   1      40.572  27.677  29.448  1.00  0.00    -0.014 A 
BRANCH  31  32
ATOM     32  C   UNL A   1      40.501  28.734  30.478  1.00  0.00     0.031 A 
ATOM     33  C   UNL A   1      41.389  28.590  31.682  1.00  0.00     0.074 A 
ATOM     34  C   UNL A   1      39.618  29.742  30.379  1.00  0.00     0.049 A 
ATOM     35  N   UNL A   1      41.423  29.299  32.776  1.00  0.00    -0.248 NA
ATOM     36  C   UNL A   1      42.353  27.475  31.651  1.00  0.00     0.031 C 
ATOM     37  C   UNL A   1      38.712  29.972  29.255  1.00  0.00     0.029 A 
ATOM     38  N   UNL A   1      39.324  30.749  31.263  1.00  0.00    -0.354 N 
ATOM     39  C   UNL A   1      42.406  28.715  33.567  1.00  0.00     0.074 A 
ATOM     40  C   UNL A   1      42.915  27.571  32.846  1.00  0.00     0.031 C 
ATOM     41  C   UNL A   1      37.944  31.042  29.528  1.00  0.00     0.029 A 
ATOM     42  C   UNL A   1      38.288  31.553  30.853  1.00  0.00     0.049 A 
ATOM     43  H   UNL A   1      39.808  30.882  32.109  1.00  0.00     0.167 HD
ATOM     44  C   UNL A   1      42.850  29.106  34.785  1.00  0.00     0.037 A 
ATOM     45  C   UNL A   1      37.681  32.572  31.493  1.00  0.00     0.037 A 
ATOM     46  C   UNL A   1      42.330  30.241  35.494  1.00  0.00     0.049 A 
ATOM     47  C   UNL A   1      38.167  32.968  32.863  1.00  0.00     0.074 A 
ATOM     48  C   UNL A   1      42.722  30.745  36.721  1.00  0.00     0.029 A 
ATOM     49  N   UNL A   1      41.296  31.048  35.038  1.00  0.00    -0.354 N 
ATOM     50  N   UNL A   1      39.126  32.437  33.585  1.00  0.00    -0.248 NA
ATOM     51  C   UNL A   1      37.491  34.105  33.506  1.00  0.00     0.031 C 
ATOM     52  C   UNL A   1      41.898  31.835  37.025  1.00  0.00     0.029 A 
ATOM     53  C   UNL A   1      41.023  32.035  35.968  1.00  0.00     0.049 A 
ATOM     54  H   UNL A   1      40.827  30.933  34.181  1.00  0.00     0.167 HD
ATOM     55  C   UNL A   1      39.189  33.192  34.752  1.00  0.00     0.074 A 
ATOM     56  C   UNL A   1      38.175  34.220  34.637  1.00  0.00     0.031 C 
ATOM     57  C   UNL A   1      40.012  33.053  35.821  1.00  0.00     0.037 A 
BRANCH  44  58
ATOM     58  C   UNL A   1      43.938  28.286  35.416  1.00  0.00     0.058 A 
ATOM     59  C   UNL A   1      43.647  27.250  36.320  1.00  0.00     0.135 A 
ATOM     60  C   UNL A   1      45.286  28.535  35.116  1.00  0.00     0.135 A 
ATOM     61  F   UNL A   1      42.375  26.987  36.659  1.00  0.00    -0.206 F 
ATOM     62  C   UNL A   1      44.656  26.511  36.927  1.00  0.00     0.059 A 
ATOM     63  C   UNL A   1      46.310  27.791  35.692  1.00  0.00     0.059 A 
ATOM     64  F   UNL A   1      45.618  29.519  34.266  1.00  0.00    -0.206 F 
ATOM     65  C   UNL A   1      45.986  26.791  36.609  1.00  0.00     0.060 A 
BRANCH  65  66
ATOM     66  S   UNL A   1      47.286  25.827  37.407  1.00  0.00     0.124 S 
ATOM     67  O   UNL A   1      47.262  26.373  38.761  1.00  0.00    -0.237 OA
ATOM     68  O   UNL A   1      46.793  24.461  37.268  1.00  0.00    -0.237 OA
ATOM     69  O   UNL A   1      48.475  26.145  36.624  1.00  0.00    -0.744 OA
ENDBRANCH  65  66
ENDBRANCH  44  58
BRANCH  45  70
ATOM     70  C   UNL A   1      36.552  33.292  30.845  1.00  0.00     0.058 A 
ATOM     71  C   UNL A   1      36.776  34.169  29.774  1.00  0.00     0.135 A 
ATOM     72  C   UNL A   1      35.230  33.116  31.281  1.00  0.00     0.135 A 
ATOM     73  F   UNL A   1      38.024  34.375  29.327  1.00  0.00    -0.206 F 
ATOM     74  C   UNL A   1      35.732  34.859  29.166  1.00  0.00     0.059 A 
ATOM     75  C   UNL A   1      34.166  33.779  30.676  1.00  0.00     0.059 A 
ATOM     76  F   UNL A   1      34.960  32.278  32.294  1.00  0.00    -0.206 F 
ATOM     77  C   UNL A   1      34.429  34.657  29.625  1.00  0.00     0.060 A 
BRANCH  77  78
ATOM     78  S   UNL A   1      33.075  35.521  28.799  1.00  0.00     0.124 S 
ATOM     79  O   UNL A   1      33.795  36.523  28.022  1.00  0.00    -0.237 OA
ATOM     80  O   UNL A   1      32.447  34.448  28.033  1.00  0.00    -0.237 OA
ATOM     81  O   UNL A   1      32.280  36.034  29.910  1.00  0.00    -0.744 OA
ENDBRANCH  77  78
ENDBRANCH  45  70
BRANCH  57  82
ATOM     82  C   UNL A   1      39.876  34.053  36.934  1.00  0.00     0.058 A 
ATOM     83  C   UNL A   1      40.472  35.321  36.862  1.00  0.00     0.135 A 
ATOM     84  C   UNL A   1      39.082  33.761  38.055  1.00  0.00     0.135 A 
ATOM     85  F   UNL A   1      41.243  35.647  35.813  1.00  0.00    -0.206 F 
ATOM     86  C   UNL A   1      40.300  36.260  37.873  1.00  0.00     0.059 A 
ATOM     87  C   UNL A   1      38.877  34.694  39.065  1.00  0.00     0.059 A 
ATOM     88  F   UNL A   1      38.480  32.566  38.164  1.00  0.00    -0.206 F 
ATOM     89  C   UNL A   1      39.499  35.938  38.970  1.00  0.00     0.060 A 
BRANCH  89  90
ATOM     90  S   UNL A   1      39.249  37.180  40.256  1.00  0.00     0.124 S 
ATOM     91  O   UNL A   1      38.477  36.431  41.241  1.00  0.00    -0.237 OA
ATOM     92  O   UNL A   1      40.618  37.511  40.642  1.00  0.00    -0.237 OA
ATOM     93  O   UNL A   1      38.526  38.243  39.565  1.00  0.00    -0.744 OA
ENDBRANCH  89  90
ENDBRANCH  57  82
ENDBRANCH  31  32
ENDBRANCH  24  26
ENDBRANCH  23  24
ENDBRANCH  22  23
ENDBRANCH   1  22
TORSDOF 17
ENDMDL
MODEL 2
REMARK VINA RESULT:     -11.8      5.952     12.987
REMARK SMILES O=C(Cc1ccccc1-c1ccn(C(F)F)c(=O)c1)OCCOC(=O)c1ccc(-c2c3nc(c(-c4c(F)cc(S(=O)(=O)[O-])cc4F)c4ccc([nH]4)c(-c4c(F)cc(S(=O)(=O)[O-])cc4F)c4nc(c(-c5c(F)cc(S(=O)(=O)[O-])cc5F)c5ccc2[nH]5)C=C4)C=C3)cc1
REMARK SMILES IDX 21 1 20 2 2 3 1 4 3 5 4 6 5 7 9 8 6 9 8 10 7 11 10 12 11 13
REMARK SMILES IDX 19 14 12 15 17 16 13 17 18 18 14 19 15 20 16 21 22 22 23 23
REMARK SMILES IDX 24 24 25 25 26 26 27 27 91 28 28 29 90 30 29 31 30 32 31 33
REMARK SMILES IDX 84 34 32 35 89 36 83 37 85 38 33 39 88 40 82 41 81 42 34 44
REMARK SMILES IDX 68 45 47 46 67 47 48 48 51 49 66 50 86 51 49 52 50 53 65 55
REMARK SMILES IDX 87 56 52 57 35 58 36 59 45 60 37 61 38 62 44 63 46 64 39 65
REMARK SMILES IDX 40 66 41 67 42 68 43 69 69 70 70 71 79 72 71 73 72 74 78 75
REMARK SMILES IDX 80 76 73 77 74 78 75 79 76 80 77 81 53 82 54 83 63 84 55 85
REMARK SMILES IDX 56 86 62 87 64 88 57 89 58 90 59 91 60 92 61 93
REMARK H PARENT 85 43 51 54
REMARK Flexibility Score: inf
ROOT
ATOM      1  C   UNL A   1      34.847  33.472  29.757  1.00  0.00     0.274 C 
ENDROOT
BRANCH   1   2
ATOM      2  O   UNL A   1      36.249  33.794  29.629  1.00  0.00    -0.462 OA
BRANCH   2   3
ATOM      3  C   UNL A   1      37.235  33.479  30.498  1.00  0.00     0.310 C 
ATOM      4  O   UNL A   1      38.276  34.136  30.500  1.00  0.00    -0.252 OA
BRANCH   3   5
ATOM      5  C   UNL A   1      37.057  32.323  31.447  1.00  0.00     0.158 C 
BRANCH   5   6
ATOM      6  C   UNL A   1      37.525  32.458  32.886  1.00  0.00    -0.029 A 
ATOM      7  C   UNL A   1      38.767  31.857  33.186  1.00  0.00     0.005 A 
ATOM      8  C   UNL A   1      36.871  33.194  33.901  1.00  0.00    -0.014 A 
ATOM      9  C   UNL A   1      39.320  31.931  34.463  1.00  0.00     0.000 A 
ATOM     10  C   UNL A   1      37.432  33.243  35.189  1.00  0.00     0.009 A 
ATOM     11  C   UNL A   1      38.646  32.613  35.468  1.00  0.00     0.001 A 
BRANCH   8  12
ATOM     12  C   UNL A   1      35.606  33.919  33.681  1.00  0.00    -0.011 A 
ATOM     13  C   UNL A   1      34.335  33.239  33.535  1.00  0.00     0.027 A 
ATOM     14  C   UNL A   1      35.655  35.254  33.525  1.00  0.00     0.080 A 
ATOM     15  C   UNL A   1      33.287  33.883  33.008  1.00  0.00     0.095 A 
ATOM     16  C   UNL A   1      34.442  36.010  33.098  1.00  0.00     0.255 A 
ATOM     17  N   UNL A   1      33.358  35.233  32.719  1.00  0.00    -0.258 N 
ATOM     18  O   UNL A   1      34.485  37.236  33.086  1.00  0.00    -0.269 OA
BRANCH  17  19
ATOM     19  C   UNL A   1      32.235  35.891  32.104  1.00  0.00     0.451 C 
ATOM     20  F   UNL A   1      32.159  35.565  30.789  1.00  0.00    -0.185 F 
ATOM     21  F   UNL A   1      31.053  35.568  32.679  1.00  0.00    -0.185 F 
ENDBRANCH  17  19
ENDBRANCH   8  12
ENDBRANCH   5   6
ENDBRANCH   3   5
ENDBRANCH   2   3
ENDBRANCH   1   2
BRANCH   1  22
ATOM     22  C   UNL A   1      34.247  33.321  28.361  1.00  0.00     0.275 C 
BRANCH  22  23
ATOM     23  O   UNL A   1      35.016  32.339  27.655  1.00  0.00    -0.458 OA
BRANCH  23  24
ATOM     24  C   UNL A   1      34.761  31.049  27.981  1.00  0.00     0.338 C 
ATOM     25  O   UNL A   1      33.689  30.475  27.916  1.00  0.00    -0.246 OA
BRANCH  24  26
ATOM     26  C   UNL A   1      36.060  30.383  28.212  1.00  0.00     0.060 A 
ATOM     27  C   UNL A   1      36.270  29.722  29.429  1.00  0.00     0.016 A 
ATOM     28  C   UNL A   1      37.043  30.365  27.216  1.00  0.00     0.016 A 
ATOM     29  C   UNL A   1      37.483  29.078  29.670  1.00  0.00     0.010 A 
ATOM     30  C   UNL A   1      38.250  29.719  27.453  1.00  0.00     0.010 A 
ATOM     31  C   UNL A   1      38.489  29.109  28.695  1.00  0.00    -0.014 A 
BRANCH  31  32
ATOM     32  C   UNL A   1      39.875  28.716  29.020  1.00  0.00     0.031 A 
ATOM     33  C   UNL A   1      40.777  29.772  29.596  1.00  0.00     0.074 A 
ATOM     34  C   UNL A   1      40.334  27.486  28.736  1.00  0.00     0.049 A 
ATOM     35  N   UNL A   1      42.058  29.724  29.842  1.00  0.00    -0.248 NA
ATOM     36  C   UNL A   1      40.147  31.065  29.915  1.00  0.00     0.031 C 
ATOM     37  C   UNL A   1      39.542  26.392  28.175  1.00  0.00     0.029 A 
ATOM     38  N   UNL A   1      41.595  26.963  28.858  1.00  0.00    -0.354 N 
ATOM     39  C   UNL A   1      42.389  30.979  30.338  1.00  0.00     0.074 A 
ATOM     40  C   UNL A   1      41.185  31.779  30.321  1.00  0.00     0.031 C 
ATOM     41  C   UNL A   1      40.345  25.331  27.980  1.00  0.00     0.029 A 
ATOM     42  C   UNL A   1      41.707  25.680  28.378  1.00  0.00     0.049 A 
ATOM     43  H   UNL A   1      42.349  27.459  29.251  1.00  0.00     0.167 HD
ATOM     44  C   UNL A   1      43.590  31.421  30.778  1.00  0.00     0.037 A 
ATOM     45  C   UNL A   1      42.795  24.894  28.259  1.00  0.00     0.037 A 
ATOM     46  C   UNL A   1      44.780  30.617  30.783  1.00  0.00     0.049 A 
ATOM     47  C   UNL A   1      44.130  25.420  28.721  1.00  0.00     0.074 A 
ATOM     48  C   UNL A   1      46.045  30.952  31.229  1.00  0.00     0.029 A 
ATOM     49  N   UNL A   1      44.851  29.314  30.310  1.00  0.00    -0.354 N 
ATOM     50  N   UNL A   1      44.425  26.594  29.230  1.00  0.00    -0.248 NA
ATOM     51  C   UNL A   1      45.281  24.513  28.597  1.00  0.00     0.031 C 
ATOM     52  C   UNL A   1      46.892  29.864  30.991  1.00  0.00     0.029 A 
ATOM     53  C   UNL A   1      46.143  28.836  30.437  1.00  0.00     0.049 A 
ATOM     54  H   UNL A   1      44.094  28.806  29.940  1.00  0.00     0.167 HD
ATOM     55  C   UNL A   1      45.787  26.556  29.513  1.00  0.00     0.074 A 
ATOM     56  C   UNL A   1      46.255  25.241  29.125  1.00  0.00     0.031 C 
ATOM     57  C   UNL A   1      46.578  27.517  30.051  1.00  0.00     0.037 A 
BRANCH  44  58
ATOM     58  C   UNL A   1      43.663  32.837  31.272  1.00  0.00     0.058 A 
ATOM     59  C   UNL A   1      44.015  33.896  30.418  1.00  0.00     0.135 A 
ATOM     60  C   UNL A   1      43.378  33.142  32.612  1.00  0.00     0.135 A 
ATOM     61  F   UNL A   1      44.320  33.655  29.133  1.00  0.00    -0.206 F 
ATOM     62  C   UNL A   1      44.111  35.203  30.883  1.00  0.00     0.059 A 
ATOM     63  C   UNL A   1      43.443  34.446  33.093  1.00  0.00     0.059 A 
ATOM     64  F   UNL A   1      43.046  32.165  33.471  1.00  0.00    -0.206 F 
ATOM     65  C   UNL A   1      43.827  35.467  32.224  1.00  0.00     0.060 A 
BRANCH  65  66
ATOM     66  S   UNL A   1      43.960  37.167  32.815  1.00  0.00     0.124 S 
ATOM     67  O   UNL A   1      45.353  37.216  33.248  1.00  0.00    -0.237 OA
ATOM     68  O   UNL A   1      43.641  37.941  31.621  1.00  0.00    -0.237 OA
ATOM     69  O   UNL A   1      42.969  37.234  33.885  1.00  0.00    -0.744 OA
ENDBRANCH  65  66
ENDBRANCH  44  58
BRANCH  45  70
ATOM     70  C   UNL A   1      42.669  23.530  27.683  1.00  0.00     0.058 A 
ATOM     71  C   UNL A   1      42.434  22.419  28.506  1.00  0.00     0.135 A 
ATOM     72  C   UNL A   1      42.778  23.308  26.302  1.00  0.00     0.135 A 
ATOM     73  F   UNL A   1      42.331  22.580  29.834  1.00  0.00    -0.206 F 
ATOM     74  C   UNL A   1      42.327  21.134  27.985  1.00  0.00     0.059 A 
ATOM     75  C   UNL A   1      42.653  22.034  25.753  1.00  0.00     0.059 A 
ATOM     76  F   UNL A   1      42.990  24.339  25.468  1.00  0.00    -0.206 F 
ATOM     77  C   UNL A   1      42.437  20.952  26.605  1.00  0.00     0.060 A 
BRANCH  77  78
ATOM     78  S   UNL A   1      42.249  19.286  25.931  1.00  0.00     0.124 S 
ATOM     79  O   UNL A   1      42.765  18.468  27.022  1.00  0.00    -0.237 OA
ATOM     80  O   UNL A   1      40.810  19.209  25.699  1.00  0.00    -0.237 OA
ATOM     81  O   UNL A   1      43.069  19.320  24.724  1.00  0.00    -0.744 OA
ENDBRANCH  77  78
ENDBRANCH  45  70
BRANCH  57  82
ATOM     82  C   UNL A   1      48.022  27.174  30.283  1.00  0.00     0.058 A 
ATOM     83  C   UNL A   1      49.011  27.459  29.328  1.00  0.00     0.135 A 
ATOM     84  C   UNL A   1      48.430  26.615  31.505  1.00  0.00     0.135 A 
ATOM     85  F   UNL A   1      48.672  27.989  28.143  1.00  0.00    -0.206 F 
ATOM     86  C   UNL A   1      50.352  27.184  29.570  1.00  0.00     0.059 A 
ATOM     87  C   UNL A   1      49.768  26.356  31.778  1.00  0.00     0.059 A 
ATOM     88  F   UNL A   1      47.524  26.337  32.456  1.00  0.00    -0.206 F 
ATOM     89  C   UNL A   1      50.722  26.634  30.799  1.00  0.00     0.060 A 
BRANCH  89  90
ATOM     90  S   UNL A   1      52.470  26.320  31.118  1.00  0.00     0.124 S 
ATOM     91  O   UNL A   1      52.415  25.050  31.832  1.00  0.00    -0.237 OA
ATOM     92  O   UNL A   1      53.030  26.267  29.771  1.00  0.00    -0.237 OA
ATOM     93  O   UNL A   1      52.882  27.473  31.915  1.00  0.00    -0.744 OA
ENDBRANCH  89  90
ENDBRANCH  57  82
ENDBRANCH  31  32
ENDBRANCH  24  26
ENDBRANCH  23  24
ENDBRANCH  22  23
ENDBRANCH   1  22
TORSDOF 17
ENDMDL
MODEL 3
REMARK VINA RESULT:     -11.8      5.450     10.892
REMARK SMILES O=C(Cc1ccccc1-c1ccn(C(F)F)c(=O)c1)OCCOC(=O)c1ccc(-c2c3nc(c(-c4c(F)cc(S(=O)(=O)[O-])cc4F)c4ccc([nH]4)c(-c4c(F)cc(S(=O)(=O)[O-])cc4F)c4nc(c(-c5c(F)cc(S(=O)(=O)[O-])cc5F)c5ccc2[nH]5)C=C4)C=C3)cc1
REMARK SMILES IDX 21 1 20 2 2 3 1 4 3 5 4 6 5 7 9 8 6 9 8 10 7 11 10 12 11 13
REMARK SMILES IDX 19 14 12 15 17 16 13 17 18 18 14 19 15 20 16 21 22 22 23 23
REMARK SMILES IDX 24 24 25 25 26 26 27 27 91 28 28 29 90 30 29 31 30 32 31 33
REMARK SMILES IDX 84 34 32 35 89 36 83 37 85 38 33 39 88 40 82 41 81 42 34 44
REMARK SMILES IDX 68 45 47 46 67 47 48 48 51 49 66 50 86 51 49 52 50 53 65 55
REMARK SMILES IDX 87 56 52 57 35 58 36 59 45 60 37 61 38 62 44 63 46 64 39 65
REMARK SMILES IDX 40 66 41 67 42 68 43 69 69 70 70 71 79 72 71 73 72 74 78 75
REMARK SMILES IDX 80 76 73 77 74 78 75 79 76 80 77 81 53 82 54 83 63 84 55 85
REMARK SMILES IDX 56 86 62 87 64 88 57 89 58 90 59 91 60 92 61 93
REMARK H PARENT 85 43 51 54
REMARK Flexibility Score: inf
ROOT
ATOM      1  C   UNL A   1      32.113  29.736  26.325  1.00  0.00     0.274 C 
ENDROOT
BRANCH   1   2
ATOM      2  O   UNL A   1      32.473  29.900  24.937  1.00  0.00    -0.462 OA
BRANCH   2   3
ATOM      3  C   UNL A   1      32.877  28.931  24.084  1.00  0.00     0.310 C 
ATOM      4  O   UNL A   1      33.914  28.311  24.317  1.00  0.00    -0.252 OA
BRANCH   3   5
ATOM      5  C   UNL A   1      32.062  28.627  22.854  1.00  0.00     0.158 C 
BRANCH   5   6
ATOM      6  C   UNL A   1      30.550  28.544  22.962  1.00  0.00    -0.029 A 
ATOM      7  C   UNL A   1      29.833  29.598  22.355  1.00  0.00     0.005 A 
ATOM      8  C   UNL A   1      29.820  27.476  23.533  1.00  0.00    -0.014 A 
ATOM      9  C   UNL A   1      28.440  29.626  22.361  1.00  0.00     0.000 A 
ATOM     10  C   UNL A   1      28.416  27.528  23.548  1.00  0.00     0.009 A 
ATOM     11  C   UNL A   1      27.732  28.598  22.969  1.00  0.00     0.001 A 
BRANCH   8  12
ATOM     12  C   UNL A   1      30.463  26.291  24.131  1.00  0.00    -0.011 A 
ATOM     13  C   UNL A   1      31.442  25.494  23.418  1.00  0.00     0.027 A 
ATOM     14  C   UNL A   1      30.058  25.891  25.349  1.00  0.00     0.080 A 
ATOM     15  C   UNL A   1      31.744  24.263  23.846  1.00  0.00     0.095 A 
ATOM     16  C   UNL A   1      30.523  24.590  25.912  1.00  0.00     0.255 A 
ATOM     17  N   UNL A   1      31.233  23.783  25.037  1.00  0.00    -0.258 N 
ATOM     18  O   UNL A   1      30.237  24.314  27.072  1.00  0.00    -0.269 OA
BRANCH  17  19
ATOM     19  C   UNL A   1      31.530  22.435  25.448  1.00  0.00     0.451 C 
ATOM     20  F   UNL A   1      31.827  21.666  24.371  1.00  0.00    -0.185 F 
ATOM     21  F   UNL A   1      32.573  22.362  26.309  1.00  0.00    -0.185 F 
ENDBRANCH  17  19
ENDBRANCH   8  12
ENDBRANCH   5   6
ENDBRANCH   3   5
ENDBRANCH   2   3
ENDBRANCH   1   2
BRANCH   1  22
ATOM     22  C   UNL A   1      32.832  30.802  27.150  1.00  0.00     0.275 C 
BRANCH  22  23
ATOM     23  O   UNL A   1      33.934  30.174  27.817  1.00  0.00    -0.458 OA
BRANCH  23  24
ATOM     24  C   UNL A   1      34.722  30.999  28.548  1.00  0.00     0.338 C 
ATOM     25  O   UNL A   1      34.372  31.983  29.174  1.00  0.00    -0.246 OA
BRANCH  24  26
ATOM     26  C   UNL A   1      36.054  30.365  28.652  1.00  0.00     0.060 A 
ATOM     27  C   UNL A   1      36.445  29.820  29.882  1.00  0.00     0.016 A 
ATOM     28  C   UNL A   1      36.887  30.261  27.532  1.00  0.00     0.016 A 
ATOM     29  C   UNL A   1      37.692  29.208  30.005  1.00  0.00     0.010 A 
ATOM     30  C   UNL A   1      38.128  29.647  27.653  1.00  0.00     0.010 A 
ATOM     31  C   UNL A   1      38.550  29.155  28.899  1.00  0.00    -0.014 A 
BRANCH  31  32
ATOM     32  C   UNL A   1      39.975  28.803  29.058  1.00  0.00     0.031 A 
ATOM     33  C   UNL A   1      40.916  29.896  29.480  1.00  0.00     0.074 A 
ATOM     34  C   UNL A   1      40.425  27.572  28.759  1.00  0.00     0.049 A 
ATOM     35  N   UNL A   1      42.219  29.883  29.563  1.00  0.00    -0.248 NA
ATOM     36  C   UNL A   1      40.300  31.187  29.833  1.00  0.00     0.031 C 
ATOM     37  C   UNL A   1      39.596  26.444  28.340  1.00  0.00     0.029 A 
ATOM     38  N   UNL A   1      41.704  27.080  28.737  1.00  0.00    -0.354 N 
ATOM     39  C   UNL A   1      42.579  31.161  29.972  1.00  0.00     0.074 A 
ATOM     40  C   UNL A   1      41.363  31.936  30.081  1.00  0.00     0.031 C 
ATOM     41  C   UNL A   1      40.393  25.392  28.079  1.00  0.00     0.029 A 
ATOM     42  C   UNL A   1      41.785  25.783  28.289  1.00  0.00     0.049 A 
ATOM     43  H   UNL A   1      42.489  27.605  29.015  1.00  0.00     0.167 HD
ATOM     44  C   UNL A   1      43.814  31.643  30.241  1.00  0.00     0.037 A 
ATOM     45  C   UNL A   1      42.869  25.015  28.059  1.00  0.00     0.037 A 
ATOM     46  C   UNL A   1      45.015  30.864  30.122  1.00  0.00     0.049 A 
ATOM     47  C   UNL A   1      44.238  25.584  28.331  1.00  0.00     0.074 A 
ATOM     48  C   UNL A   1      46.318  31.240  30.392  1.00  0.00     0.029 A 
ATOM     49  N   UNL A   1      45.058  29.546  29.687  1.00  0.00    -0.354 N 
ATOM     50  N   UNL A   1      44.567  26.781  28.759  1.00  0.00    -0.248 NA
ATOM     51  C   UNL A   1      45.386  24.696  28.093  1.00  0.00     0.031 C 
ATOM     52  C   UNL A   1      47.154  30.161  30.085  1.00  0.00     0.029 A 
ATOM     53  C   UNL A   1      46.367  29.100  29.664  1.00  0.00     0.049 A 
ATOM     54  H   UNL A   1      44.273  29.010  29.432  1.00  0.00     0.167 HD
ATOM     55  C   UNL A   1      45.953  26.781  28.869  1.00  0.00     0.074 A 
ATOM     56  C   UNL A   1      46.401  25.463  28.468  1.00  0.00     0.031 C 
ATOM     57  C   UNL A   1      46.783  27.777  29.270  1.00  0.00     0.037 A 
BRANCH  44  58
ATOM     58  C   UNL A   1      43.914  33.077  30.674  1.00  0.00     0.058 A 
ATOM     59  C   UNL A   1      44.075  34.117  29.744  1.00  0.00     0.135 A 
ATOM     60  C   UNL A   1      43.848  33.419  32.034  1.00  0.00     0.135 A 
ATOM     61  F   UNL A   1      44.169  33.842  28.433  1.00  0.00    -0.206 F 
ATOM     62  C   UNL A   1      44.198  35.442  30.148  1.00  0.00     0.059 A 
ATOM     63  C   UNL A   1      43.942  34.740  32.459  1.00  0.00     0.059 A 
ATOM     64  F   UNL A   1      43.704  32.462  32.964  1.00  0.00    -0.206 F 
ATOM     65  C   UNL A   1      44.133  35.742  31.509  1.00  0.00     0.060 A 
BRANCH  65  66
ATOM     66  S   UNL A   1      44.298  37.466  32.021  1.00  0.00     0.124 S 
ATOM     67  O   UNL A   1      45.732  37.556  32.278  1.00  0.00    -0.237 OA
ATOM     68  O   UNL A   1      43.819  38.188  30.847  1.00  0.00    -0.237 OA
ATOM     69  O   UNL A   1      43.443  37.553  33.200  1.00  0.00    -0.744 OA
ENDBRANCH  65  66
ENDBRANCH  44  58
BRANCH  45  70
ATOM     70  C   UNL A   1      42.705  23.629  27.550  1.00  0.00     0.058 A 
ATOM     71  C   UNL A   1      42.793  23.349  26.179  1.00  0.00     0.135 A 
ATOM     72  C   UNL A   1      42.461  22.556  28.422  1.00  0.00     0.135 A 
ATOM     73  F   UNL A   1      43.016  24.343  25.306  1.00  0.00    -0.206 F 
ATOM     74  C   UNL A   1      42.629  22.058  25.685  1.00  0.00     0.059 A 
ATOM     75  C   UNL A   1      42.315  21.252  27.955  1.00  0.00     0.059 A 
ATOM     76  F   UNL A   1      42.382  22.767  29.745  1.00  0.00    -0.206 F 
ATOM     77  C   UNL A   1      42.391  21.016  26.583  1.00  0.00     0.060 A 
BRANCH  77  78
ATOM     78  S   UNL A   1      42.226  19.337  25.938  1.00  0.00     0.124 S 
ATOM     79  O   UNL A   1      43.084  19.389  24.760  1.00  0.00    -0.237 OA
ATOM     80  O   UNL A   1      42.717  18.530  27.051  1.00  0.00    -0.237 OA
ATOM     81  O   UNL A   1      40.795  19.220  25.673  1.00  0.00    -0.744 OA
ENDBRANCH  77  78
ENDBRANCH  45  70
BRANCH  57  82
ATOM     82  C   UNL A   1      48.252  27.471  29.328  1.00  0.00     0.058 A 
ATOM     83  C   UNL A   1      49.103  27.729  28.242  1.00  0.00     0.135 A 
ATOM     84  C   UNL A   1      48.826  26.977  30.511  1.00  0.00     0.135 A 
ATOM     85  F   UNL A   1      48.602  28.197  27.088  1.00  0.00    -0.206 F 
ATOM     86  C   UNL A   1      50.470  27.491  28.320  1.00  0.00     0.059 A 
ATOM     87  C   UNL A   1      50.195  26.756  30.619  1.00  0.00     0.059 A 
ATOM     88  F   UNL A   1      48.057  26.728  31.582  1.00  0.00    -0.206 F 
ATOM     89  C   UNL A   1      51.008  27.006  29.514  1.00  0.00     0.060 A 
BRANCH  89  90
ATOM     90  S   UNL A   1      52.790  26.739  29.618  1.00  0.00     0.124 S 
ATOM     91  O   UNL A   1      52.896  25.934  30.829  1.00  0.00    -0.237 OA
ATOM     92  O   UNL A   1      53.076  26.044  28.367  1.00  0.00    -0.237 OA
ATOM     93  O   UNL A   1      53.330  28.092  29.713  1.00  0.00    -0.744 OA
ENDBRANCH  89  90
ENDBRANCH  57  82
ENDBRANCH  31  32
ENDBRANCH  24  26
ENDBRANCH  23  24
ENDBRANCH  22  23
ENDBRANCH   1  22
TORSDOF 17
ENDMDL
