MODEL 1
REMARK VINA RESULT:     -11.4      0.000      0.000
REMARK SMILES C[C@@H](C(=O)OCCOC(=O)c1ccc(-c2c3nc(c(-c4c(F)cc(S(=O)(=O)[O-])cc4F)c4ccc([nH]4)c(-c4c(F)cc(S(=O)(=O)[O-])cc4F)c4nc(c(-c5c(F)cc(S(=O)(=O)[O-])cc5F)c5ccc2[nH]5)C=C4)C=C3)cc1)c1ccc(O[C@H]2CCCC2=O)cc1F
REMARK SMILES IDX 6 1 5 2 3 3 4 4 2 5 1 6 77 7 78 8 89 9 79 10 88 11 90 12
REMARK SMILES IDX 80 13 81 14 82 15 83 16 86 17 84 18 85 19 87 20 7 21 8 22
REMARK SMILES IDX 9 23 10 24 11 25 12 26 76 27 13 28 75 29 14 30 15 31 16 32
REMARK SMILES IDX 69 33 17 34 74 35 68 36 70 37 18 38 73 39 67 40 66 41 19 43
REMARK SMILES IDX 53 44 32 45 52 46 33 47 36 48 51 49 71 50 34 51 35 52 50 54
REMARK SMILES IDX 72 55 37 56 20 57 21 58 30 59 22 60 23 61 29 62 31 63 24 64
REMARK SMILES IDX 25 65 26 66 27 67 28 68 54 69 55 70 64 71 56 72 57 73 63 74
REMARK SMILES IDX 65 75 58 76 59 77 60 78 61 79 62 80 38 81 39 82 48 83 40 84
REMARK SMILES IDX 41 85 47 86 49 87 42 88 43 89 44 90 45 91 46 92
REMARK H PARENT 70 42 36 53
REMARK Flexibility Score: inf
ROOT
ATOM      1  C   UNL A   1      43.913  23.198  24.809  1.00  0.00     0.274 C 
ENDROOT
BRANCH   1   2
ATOM      2  O   UNL A   1      42.549  22.745  24.996  1.00  0.00    -0.462 OA
BRANCH   2   3
ATOM      3  C   UNL A   1      42.242  22.019  26.113  1.00  0.00     0.313 C 
ATOM      4  O   UNL A   1      42.739  20.927  26.370  1.00  0.00    -0.252 OA
BRANCH   3   5
ATOM      5  C   UNL A   1      41.162  22.680  26.993  1.00  0.00     0.129 C 
ATOM      6  C   UNL A   1      41.247  22.212  28.451  1.00  0.00     0.025 C 
BRANCH   5   7
ATOM      7  C   UNL A   1      39.742  22.623  26.412  1.00  0.00     0.002 A 
ATOM      8  C   UNL A   1      39.266  21.466  25.756  1.00  0.00     0.011 A 
ATOM      9  C   UNL A   1      38.838  23.690  26.527  1.00  0.00     0.130 A 
ATOM     10  C   UNL A   1      37.908  21.337  25.373  1.00  0.00     0.047 A 
ATOM     11  C   UNL A   1      37.511  23.591  26.095  1.00  0.00     0.086 A 
ATOM     12  F   UNL A   1      39.176  24.795  27.203  1.00  0.00    -0.207 F 
ATOM     13  C   UNL A   1      37.014  22.372  25.636  1.00  0.00     0.123 A 
BRANCH  13  14
ATOM     14  O   UNL A   1      35.659  22.294  25.539  1.00  0.00    -0.483 OA
BRANCH  14  15
ATOM     15  C   UNL A   1      35.070  21.657  24.395  1.00  0.00     0.239 C 
ATOM     16  C   UNL A   1      34.072  19.917  24.690  1.00  0.00     0.054 C 
ATOM     17  C   UNL A   1      33.925  22.830  23.195  1.00  0.00     0.173 C 
ATOM     18  C   UNL A   1      32.183  20.044  23.811  1.00  0.00     0.012 C 
ATOM     19  C   UNL A   1      32.096  21.863  22.843  1.00  0.00     0.080 C 
ATOM     20  O   UNL A   1      34.361  23.827  22.623  1.00  0.00    -0.296 OA
ENDBRANCH  14  15
ENDBRANCH  13  14
ENDBRANCH   5   7
ENDBRANCH   3   5
ENDBRANCH   2   3
ENDBRANCH   1   2
BRANCH   1  21
ATOM     21  C   UNL A   1      44.037  24.708  25.065  1.00  0.00     0.275 C 
BRANCH  21  22
ATOM     22  O   UNL A   1      42.726  25.305  25.141  1.00  0.00    -0.458 OA
BRANCH  22  23
ATOM     23  C   UNL A   1      42.673  26.654  25.328  1.00  0.00     0.338 C 
ATOM     24  O   UNL A   1      42.733  27.514  24.468  1.00  0.00    -0.246 OA
BRANCH  23  25
ATOM     25  C   UNL A   1      42.243  26.932  26.719  1.00  0.00     0.060 A 
ATOM     26  C   UNL A   1      42.538  28.197  27.128  1.00  0.00     0.016 A 
ATOM     27  C   UNL A   1      41.865  26.014  27.702  1.00  0.00     0.016 A 
ATOM     28  C   UNL A   1      42.646  28.451  28.482  1.00  0.00     0.010 A 
ATOM     29  C   UNL A   1      41.703  26.422  29.077  1.00  0.00     0.010 A 
ATOM     30  C   UNL A   1      42.097  27.703  29.532  1.00  0.00    -0.014 A 
BRANCH  30  31
ATOM     31  C   UNL A   1      41.790  28.347  31.176  1.00  0.00     0.031 A 
ATOM     32  C   UNL A   1      40.456  29.524  30.675  1.00  0.00     0.074 A 
ATOM     33  C   UNL A   1      42.621  28.215  32.862  1.00  0.00     0.049 A 
ATOM     34  N   UNL A   1      40.224  30.675  31.285  1.00  0.00    -0.248 NA
ATOM     35  C   UNL A   1      39.511  29.317  29.565  1.00  0.00     0.031 C 
ATOM     36  C   UNL A   1      44.039  27.485  33.447  1.00  0.00     0.029 A 
ATOM     37  N   UNL A   1      42.430  28.873  34.220  1.00  0.00    -0.354 N 
ATOM     38  C   UNL A   1      39.052  31.203  30.841  1.00  0.00     0.074 A 
ATOM     39  C   UNL A   1      38.744  30.418  29.654  1.00  0.00     0.031 C 
ATOM     40  C   UNL A   1      44.283  27.714  34.727  1.00  0.00     0.029 A 
ATOM     41  C   UNL A   1      43.427  28.763  35.151  1.00  0.00     0.049 A 
ATOM     42  H   UNL A   1      41.605  29.368  34.425  1.00  0.00     0.167 HD
ATOM     43  C   UNL A   1      38.326  32.173  31.464  1.00  0.00     0.037 A 
ATOM     44  C   UNL A   1      43.709  29.576  36.180  1.00  0.00     0.037 A 
ATOM     45  C   UNL A   1      38.596  32.753  32.798  1.00  0.00     0.049 A 
ATOM     46  C   UNL A   1      42.820  30.739  36.445  1.00  0.00     0.074 A 
ATOM     47  C   UNL A   1      37.854  33.744  33.430  1.00  0.00     0.029 A 
ATOM     48  N   UNL A   1      39.573  32.371  33.744  1.00  0.00    -0.354 N 
ATOM     49  N   UNL A   1      41.867  31.235  35.691  1.00  0.00    -0.248 NA
ATOM     50  C   UNL A   1      43.025  31.412  37.722  1.00  0.00     0.031 C 
ATOM     51  C   UNL A   1      38.416  34.024  34.679  1.00  0.00     0.029 A 
ATOM     52  C   UNL A   1      39.486  33.169  34.903  1.00  0.00     0.049 A 
ATOM     53  H   UNL A   1      40.226  31.647  33.612  1.00  0.00     0.167 HD
ATOM     54  C   UNL A   1      41.313  32.276  36.423  1.00  0.00     0.074 A 
ATOM     55  C   UNL A   1      42.051  32.306  37.685  1.00  0.00     0.031 C 
ATOM     56  C   UNL A   1      40.299  33.129  36.119  1.00  0.00     0.037 A 
BRANCH  43  57
ATOM     57  C   UNL A   1      37.145  32.716  30.700  1.00  0.00     0.058 A 
ATOM     58  C   UNL A   1      37.260  33.724  29.733  1.00  0.00     0.135 A 
ATOM     59  C   UNL A   1      35.864  32.175  30.922  1.00  0.00     0.135 A 
ATOM     60  F   UNL A   1      38.456  34.270  29.460  1.00  0.00    -0.206 F 
ATOM     61  C   UNL A   1      36.143  34.224  29.066  1.00  0.00     0.059 A 
ATOM     62  C   UNL A   1      34.740  32.632  30.240  1.00  0.00     0.059 A 
ATOM     63  F   UNL A   1      35.692  31.182  31.810  1.00  0.00    -0.206 F 
ATOM     64  C   UNL A   1      34.885  33.681  29.338  1.00  0.00     0.060 A 
BRANCH  64  65
ATOM     65  S   UNL A   1      33.437  34.406  28.541  1.00  0.00     0.124 S 
ATOM     66  O   UNL A   1      32.919  33.266  27.793  1.00  0.00    -0.237 OA
ATOM     67  O   UNL A   1      32.633  34.835  29.681  1.00  0.00    -0.237 OA
ATOM     68  O   UNL A   1      33.995  35.484  27.729  1.00  0.00    -0.744 OA
ENDBRANCH  64  65
ENDBRANCH  43  57
BRANCH  44  69
ATOM     69  C   UNL A   1      44.922  29.262  36.967  1.00  0.00     0.058 A 
ATOM     70  C   UNL A   1      45.987  30.168  36.970  1.00  0.00     0.135 A 
ATOM     71  C   UNL A   1      44.903  28.241  37.936  1.00  0.00     0.135 A 
ATOM     72  F   UNL A   1      46.011  31.176  36.085  1.00  0.00    -0.206 F 
ATOM     73  C   UNL A   1      46.988  30.092  37.926  1.00  0.00     0.059 A 
ATOM     74  C   UNL A   1      45.876  28.168  38.923  1.00  0.00     0.059 A 
ATOM     75  F   UNL A   1      43.853  27.406  38.014  1.00  0.00    -0.206 F 
ATOM     76  C   UNL A   1      46.912  29.102  38.910  1.00  0.00     0.060 A 
BRANCH  76  77
ATOM     77  S   UNL A   1      48.153  29.108  40.219  1.00  0.00     0.124 S 
ATOM     78  O   UNL A   1      47.840  27.867  40.917  1.00  0.00    -0.237 OA
ATOM     79  O   UNL A   1      49.398  29.120  39.457  1.00  0.00    -0.237 OA
ATOM     80  O   UNL A   1      47.863  30.337  40.951  1.00  0.00    -0.744 OA
ENDBRANCH  76  77
ENDBRANCH  44  69
BRANCH  56  81
ATOM     81  C   UNL A   1      39.973  34.115  37.236  1.00  0.00     0.058 A 
ATOM     82  C   UNL A   1      40.631  35.357  37.351  1.00  0.00     0.135 A 
ATOM     83  C   UNL A   1      39.068  33.772  38.255  1.00  0.00     0.135 A 
ATOM     84  F   UNL A   1      41.544  35.723  36.437  1.00  0.00    -0.206 F 
ATOM     85  C   UNL A   1      40.440  36.190  38.452  1.00  0.00     0.059 A 
ATOM     86  C   UNL A   1      38.830  34.611  39.345  1.00  0.00     0.059 A 
ATOM     87  F   UNL A   1      38.419  32.598  38.214  1.00  0.00    -0.206 F 
ATOM     88  C   UNL A   1      39.536  35.809  39.444  1.00  0.00     0.060 A 
BRANCH  88  89
ATOM     89  S   UNL A   1      39.291  36.907  40.860  1.00  0.00     0.124 S 
ATOM     90  O   UNL A   1      38.627  36.024  41.813  1.00  0.00    -0.237 OA
ATOM     91  O   UNL A   1      40.659  37.288  41.197  1.00  0.00    -0.237 OA
ATOM     92  O   UNL A   1      38.463  37.981  40.320  1.00  0.00    -0.744 OA
ENDBRANCH  88  89
ENDBRANCH  56  81
ENDBRANCH  30  31
ENDBRANCH  23  25
ENDBRANCH  22  23
ENDBRANCH  21  22
ENDBRANCH   1  21
TORSDOF 17
ENDMDL
MODEL 2
REMARK VINA RESULT:     -11.2      6.546     12.834
REMARK SMILES C[C@@H](C(=O)OCCOC(=O)c1ccc(-c2c3nc(c(-c4c(F)cc(S(=O)(=O)[O-])cc4F)c4ccc([nH]4)c(-c4c(F)cc(S(=O)(=O)[O-])cc4F)c4nc(c(-c5c(F)cc(S(=O)(=O)[O-])cc5F)c5ccc2[nH]5)C=C4)C=C3)cc1)c1ccc(O[C@H]2CCCC2=O)cc1F
REMARK SMILES IDX 6 1 5 2 3 3 4 4 2 5 1 6 77 7 78 8 89 9 79 10 88 11 90 12
REMARK SMILES IDX 80 13 81 14 82 15 83 16 86 17 84 18 85 19 87 20 7 21 8 22
REMARK SMILES IDX 9 23 10 24 11 25 12 26 76 27 13 28 75 29 14 30 15 31 16 32
REMARK SMILES IDX 69 33 17 34 74 35 68 36 70 37 18 38 73 39 67 40 66 41 19 43
REMARK SMILES IDX 53 44 32 45 52 46 33 47 36 48 51 49 71 50 34 51 35 52 50 54
REMARK SMILES IDX 72 55 37 56 20 57 21 58 30 59 22 60 23 61 29 62 31 63 24 64
REMARK SMILES IDX 25 65 26 66 27 67 28 68 54 69 55 70 64 71 56 72 57 73 63 74
REMARK SMILES IDX 65 75 58 76 59 77 60 78 61 79 62 80 38 81 39 82 48 83 40 84
REMARK SMILES IDX 41 85 47 86 49 87 42 88 43 89 44 90 45 91 46 92
REMARK H PARENT 70 42 36 53
REMARK Flexibility Score: inf
ROOT
ATOM      1  C   UNL A   1      37.052  32.425  31.111  1.00  0.00     0.274 C 
ENDROOT
BRANCH   1   2
ATOM      2  O   UNL A   1      36.289  33.639  30.902  1.00  0.00    -0.462 OA
BRANCH   2   3
ATOM      3  C   UNL A   1      35.079  33.557  30.271  1.00  0.00     0.313 C 
ATOM      4  O   UNL A   1      34.004  33.546  30.863  1.00  0.00    -0.252 OA
BRANCH   3   5
ATOM      5  C   UNL A   1      35.197  33.420  28.739  1.00  0.00     0.129 C 
ATOM      6  C   UNL A   1      34.522  34.586  28.007  1.00  0.00     0.025 C 
BRANCH   5   7
ATOM      7  C   UNL A   1      34.807  32.041  28.189  1.00  0.00     0.002 A 
ATOM      8  C   UNL A   1      33.460  31.721  27.906  1.00  0.00     0.011 A 
ATOM      9  C   UNL A   1      35.755  31.047  27.908  1.00  0.00     0.130 A 
ATOM     10  C   UNL A   1      33.108  30.524  27.237  1.00  0.00     0.047 A 
ATOM     11  C   UNL A   1      35.405  29.835  27.302  1.00  0.00     0.086 A 
ATOM     12  F   UNL A   1      37.062  31.291  28.069  1.00  0.00    -0.207 F 
ATOM     13  C   UNL A   1      34.103  29.629  26.851  1.00  0.00     0.123 A 
BRANCH  13  14
ATOM     14  O   UNL A   1      33.938  28.572  26.010  1.00  0.00    -0.483 OA
BRANCH  14  15
ATOM     15  C   UNL A   1      33.267  27.394  26.483  1.00  0.00     0.239 C 
ATOM     16  C   UNL A   1      31.258  27.487  26.739  1.00  0.00     0.054 C 
ATOM     17  C   UNL A   1      33.686  25.661  25.508  1.00  0.00     0.173 C 
ATOM     18  C   UNL A   1      30.359  25.877  25.761  1.00  0.00     0.012 C 
ATOM     19  C   UNL A   1      31.883  24.708  25.010  1.00  0.00     0.080 C 
ATOM     20  O   UNL A   1      34.819  25.190  25.439  1.00  0.00    -0.296 OA
ENDBRANCH  14  15
ENDBRANCH  13  14
ENDBRANCH   5   7
ENDBRANCH   3   5
ENDBRANCH   2   3
ENDBRANCH   1   2
BRANCH   1  21
ATOM     21  C   UNL A   1      36.459  31.586  32.254  1.00  0.00     0.275 C 
BRANCH  21  22
ATOM     22  O   UNL A   1      36.288  30.219  31.824  1.00  0.00    -0.458 OA
BRANCH  22  23
ATOM     23  C   UNL A   1      37.187  29.308  32.292  1.00  0.00     0.338 C 
ATOM     24  O   UNL A   1      37.035  28.548  33.232  1.00  0.00    -0.246 OA
BRANCH  23  25
ATOM     25  C   UNL A   1      38.290  29.169  31.312  1.00  0.00     0.060 A 
ATOM     26  C   UNL A   1      39.515  29.435  31.843  1.00  0.00     0.016 A 
ATOM     27  C   UNL A   1      38.198  29.096  29.919  1.00  0.00     0.016 A 
ATOM     28  C   UNL A   1      40.540  29.812  30.996  1.00  0.00     0.010 A 
ATOM     29  C   UNL A   1      39.374  29.203  29.090  1.00  0.00     0.010 A 
ATOM     30  C   UNL A   1      40.634  29.572  29.618  1.00  0.00    -0.014 A 
BRANCH  30  31
ATOM     31  C   UNL A   1      42.172  29.575  28.698  1.00  0.00     0.031 A 
ATOM     32  C   UNL A   1      42.222  27.753  28.401  1.00  0.00     0.074 A 
ATOM     33  C   UNL A   1      43.529  30.830  28.328  1.00  0.00     0.049 A 
ATOM     34  N   UNL A   1      43.342  27.055  28.297  1.00  0.00    -0.248 NA
ATOM     35  C   UNL A   1      41.045  26.883  28.243  1.00  0.00     0.031 C 
ATOM     36  C   UNL A   1      43.844  32.431  28.800  1.00  0.00     0.029 A 
ATOM     37  N   UNL A   1      44.894  30.785  27.659  1.00  0.00    -0.354 N 
ATOM     38  C   UNL A   1      43.063  25.799  27.857  1.00  0.00     0.074 A 
ATOM     39  C   UNL A   1      41.618  25.689  28.012  1.00  0.00     0.031 C 
ATOM     40  C   UNL A   1      44.988  32.919  28.347  1.00  0.00     0.029 A 
ATOM     41  C   UNL A   1      45.753  31.835  27.844  1.00  0.00     0.049 A 
ATOM     42  H   UNL A   1      45.155  30.016  27.104  1.00  0.00     0.167 HD
ATOM     43  C   UNL A   1      43.955  24.926  27.312  1.00  0.00     0.037 A 
ATOM     44  C   UNL A   1      47.092  31.848  27.768  1.00  0.00     0.037 A 
ATOM     45  C   UNL A   1      45.367  25.210  26.974  1.00  0.00     0.049 A 
ATOM     46  C   UNL A   1      47.805  30.605  27.371  1.00  0.00     0.074 A 
ATOM     47  C   UNL A   1      46.276  24.317  26.419  1.00  0.00     0.029 A 
ATOM     48  N   UNL A   1      46.060  26.440  27.038  1.00  0.00    -0.354 N 
ATOM     49  N   UNL A   1      47.331  29.385  27.257  1.00  0.00    -0.248 NA
ATOM     50  C   UNL A   1      49.218  30.763  27.049  1.00  0.00     0.031 C 
ATOM     51  C   UNL A   1      47.508  24.953  26.239  1.00  0.00     0.029 A 
ATOM     52  C   UNL A   1      47.393  26.286  26.609  1.00  0.00     0.049 A 
ATOM     53  H   UNL A   1      45.664  27.288  27.341  1.00  0.00     0.167 HD
ATOM     54  C   UNL A   1      48.391  28.613  26.805  1.00  0.00     0.074 A 
ATOM     55  C   UNL A   1      49.517  29.534  26.660  1.00  0.00     0.031 C 
ATOM     56  C   UNL A   1      48.460  27.284  26.521  1.00  0.00     0.037 A 
BRANCH  43  57
ATOM     57  C   UNL A   1      43.448  23.530  27.051  1.00  0.00     0.058 A 
ATOM     58  C   UNL A   1      43.174  22.614  28.076  1.00  0.00     0.135 A 
ATOM     59  C   UNL A   1      43.195  23.118  25.728  1.00  0.00     0.135 A 
ATOM     60  F   UNL A   1      43.375  22.951  29.359  1.00  0.00    -0.206 F 
ATOM     61  C   UNL A   1      42.734  21.321  27.798  1.00  0.00     0.059 A 
ATOM     62  C   UNL A   1      42.720  21.845  25.430  1.00  0.00     0.059 A 
ATOM     63  F   UNL A   1      43.405  23.960  24.704  1.00  0.00    -0.206 F 
ATOM     64  C   UNL A   1      42.525  20.941  26.470  1.00  0.00     0.060 A 
BRANCH  64  65
ATOM     65  S   UNL A   1      42.053  19.235  26.120  1.00  0.00     0.124 S 
ATOM     66  O   UNL A   1      40.635  19.386  25.810  1.00  0.00    -0.237 OA
ATOM     67  O   UNL A   1      42.916  18.895  24.993  1.00  0.00    -0.237 OA
ATOM     68  O   UNL A   1      42.348  18.534  27.367  1.00  0.00    -0.744 OA
ENDBRANCH  64  65
ENDBRANCH  43  57
BRANCH  44  69
ATOM     69  C   UNL A   1      47.769  33.116  28.122  1.00  0.00     0.058 A 
ATOM     70  C   UNL A   1      48.371  33.240  29.378  1.00  0.00     0.135 A 
ATOM     71  C   UNL A   1      48.078  34.064  27.129  1.00  0.00     0.135 A 
ATOM     72  F   UNL A   1      48.126  32.328  30.331  1.00  0.00    -0.206 F 
ATOM     73  C   UNL A   1      49.283  34.251  29.637  1.00  0.00     0.059 A 
ATOM     74  C   UNL A   1      49.015  35.063  27.356  1.00  0.00     0.059 A 
ATOM     75  F   UNL A   1      47.584  33.925  25.888  1.00  0.00    -0.206 F 
ATOM     76  C   UNL A   1      49.613  35.145  28.614  1.00  0.00     0.060 A 
BRANCH  76  77
ATOM     77  S   UNL A   1      50.900  36.366  28.935  1.00  0.00     0.124 S 
ATOM     78  O   UNL A   1      51.248  36.059  30.317  1.00  0.00    -0.237 OA
ATOM     79  O   UNL A   1      51.902  36.024  27.930  1.00  0.00    -0.237 OA
ATOM     80  O   UNL A   1      50.218  37.639  28.721  1.00  0.00    -0.744 OA
ENDBRANCH  76  77
ENDBRANCH  44  69
BRANCH  56  81
ATOM     81  C   UNL A   1      49.823  26.838  26.004  1.00  0.00     0.058 A 
ATOM     82  C   UNL A   1      50.819  26.333  26.864  1.00  0.00     0.135 A 
ATOM     83  C   UNL A   1      50.170  27.011  24.653  1.00  0.00     0.135 A 
ATOM     84  F   UNL A   1      50.568  26.189  28.175  1.00  0.00    -0.206 F 
ATOM     85  C   UNL A   1      52.111  26.066  26.415  1.00  0.00     0.059 A 
ATOM     86  C   UNL A   1      51.446  26.710  24.174  1.00  0.00     0.059 A 
ATOM     87  F   UNL A   1      49.274  27.502  23.783  1.00  0.00    -0.206 F 
ATOM     88  C   UNL A   1      52.416  26.256  25.066  1.00  0.00     0.060 A 
BRANCH  88  89
ATOM     89  S   UNL A   1      54.093  25.893  24.498  1.00  0.00     0.124 S 
ATOM     90  O   UNL A   1      54.173  24.451  24.702  1.00  0.00    -0.237 OA
ATOM     91  O   UNL A   1      54.051  26.334  23.107  1.00  0.00    -0.237 OA
ATOM     92  O   UNL A   1      54.934  26.698  25.379  1.00  0.00    -0.744 OA
ENDBRANCH  88  89
ENDBRANCH  56  81
ENDBRANCH  30  31
ENDBRANCH  23  25
ENDBRANCH  22  23
ENDBRANCH  21  22
ENDBRANCH   1  21
TORSDOF 17
ENDMDL
MODEL 3
REMARK VINA RESULT:     -11.0      3.310     10.028
REMARK SMILES C[C@@H](C(=O)OCCOC(=O)c1ccc(-c2c3nc(c(-c4c(F)cc(S(=O)(=O)[O-])cc4F)c4ccc([nH]4)c(-c4c(F)cc(S(=O)(=O)[O-])cc4F)c4nc(c(-c5c(F)cc(S(=O)(=O)[O-])cc5F)c5ccc2[nH]5)C=C4)C=C3)cc1)c1ccc(O[C@H]2CCCC2=O)cc1F
REMARK SMILES IDX 6 1 5 2 3 3 4 4 2 5 1 6 77 7 78 8 89 9 79 10 88 11 90 12
REMARK SMILES IDX 80 13 81 14 82 15 83 16 86 17 84 18 85 19 87 20 7 21 8 22
REMARK SMILES IDX 9 23 10 24 11 25 12 26 76 27 13 28 75 29 14 30 15 31 16 32
REMARK SMILES IDX 69 33 17 34 74 35 68 36 70 37 18 38 73 39 67 40 66 41 19 43
REMARK SMILES IDX 53 44 32 45 52 46 33 47 36 48 51 49 71 50 34 51 35 52 50 54
REMARK SMILES IDX 72 55 37 56 20 57 21 58 30 59 22 60 23 61 29 62 31 63 24 64
REMARK SMILES IDX 25 65 26 66 27 67 28 68 54 69 55 70 64 71 56 72 57 73 63 74
REMARK SMILES IDX 65 75 58 76 59 77 60 78 61 79 62 80 38 81 39 82 48 83 40 84
REMARK SMILES IDX 41 85 47 86 49 87 42 88 43 89 44 90 45 91 46 92
REMARK H PARENT 70 42 36 53
REMARK Flexibility Score: inf
ROOT
ATOM      1  C   UNL A   1      42.213  19.011  26.128  1.00  0.00     0.274 C 
ENDROOT
BRANCH   1   2
ATOM      2  O   UNL A   1      43.050  19.648  25.132  1.00  0.00    -0.462 OA
BRANCH   2   3
ATOM      3  C   UNL A   1      44.350  19.243  25.005  1.00  0.00     0.313 C 
ATOM      4  O   UNL A   1      44.742  18.118  25.299  1.00  0.00    -0.252 OA
BRANCH   3   5
ATOM      5  C   UNL A   1      45.292  20.360  24.510  1.00  0.00     0.129 C 
ATOM      6  C   UNL A   1      46.768  19.970  24.656  1.00  0.00     0.025 C 
BRANCH   5   7
ATOM      7  C   UNL A   1      44.968  21.757  25.056  1.00  0.00     0.002 A 
ATOM      8  C   UNL A   1      45.245  22.099  26.400  1.00  0.00     0.011 A 
ATOM      9  C   UNL A   1      44.420  22.770  24.257  1.00  0.00     0.130 A 
ATOM     10  C   UNL A   1      45.116  23.429  26.867  1.00  0.00     0.047 A 
ATOM     11  C   UNL A   1      44.233  24.073  24.731  1.00  0.00     0.086 A 
ATOM     12  F   UNL A   1      44.201  22.562  22.952  1.00  0.00    -0.207 F 
ATOM     13  C   UNL A   1      44.700  24.432  25.994  1.00  0.00     0.123 A 
BRANCH  13  14
ATOM     14  O   UNL A   1      44.756  25.770  26.237  1.00  0.00    -0.483 OA
BRANCH  14  15
ATOM     15  C   UNL A   1      46.032  26.400  26.418  1.00  0.00     0.239 C 
ATOM     16  C   UNL A   1      46.756  26.548  28.307  1.00  0.00     0.054 C 
ATOM     17  C   UNL A   1      47.543  25.742  25.228  1.00  0.00     0.173 C 
ATOM     18  C   UNL A   1      48.707  25.809  28.361  1.00  0.00     0.012 C 
ATOM     19  C   UNL A   1      49.218  25.328  26.422  1.00  0.00     0.080 C 
ATOM     20  O   UNL A   1      47.501  25.802  24.002  1.00  0.00    -0.296 OA
ENDBRANCH  14  15
ENDBRANCH  13  14
ENDBRANCH   5   7
ENDBRANCH   3   5
ENDBRANCH   2   3
ENDBRANCH   1   2
BRANCH   1  21
ATOM     21  C   UNL A   1      40.810  19.636  26.158  1.00  0.00     0.275 C 
BRANCH  21  22
ATOM     22  O   UNL A   1      40.902  21.063  25.969  1.00  0.00    -0.458 OA
BRANCH  22  23
ATOM     23  C   UNL A   1      39.754  21.781  26.126  1.00  0.00     0.338 C 
ATOM     24  O   UNL A   1      38.622  21.419  25.856  1.00  0.00    -0.246 OA
BRANCH  23  25
ATOM     25  C   UNL A   1      40.043  22.982  26.946  1.00  0.00     0.060 A 
ATOM     26  C   UNL A   1      39.213  24.027  26.676  1.00  0.00     0.016 A 
ATOM     27  C   UNL A   1      41.187  23.251  27.702  1.00  0.00     0.016 A 
ATOM     28  C   UNL A   1      39.635  25.308  26.980  1.00  0.00     0.010 A 
ATOM     29  C   UNL A   1      41.422  24.565  28.251  1.00  0.00     0.010 A 
ATOM     30  C   UNL A   1      40.623  25.680  27.901  1.00  0.00    -0.014 A 
BRANCH  30  31
ATOM     31  C   UNL A   1      40.741  27.303  28.651  1.00  0.00     0.031 A 
ATOM     32  C   UNL A   1      42.196  26.915  29.721  1.00  0.00     0.074 A 
ATOM     33  C   UNL A   1      39.683  28.862  28.684  1.00  0.00     0.049 A 
ATOM     34  N   UNL A   1      42.409  27.474  30.903  1.00  0.00    -0.248 NA
ATOM     35  C   UNL A   1      43.269  25.964  29.388  1.00  0.00     0.031 C 
ATOM     36  C   UNL A   1      38.159  29.292  28.068  1.00  0.00     0.029 A 
ATOM     37  N   UNL A   1      39.726  30.187  29.430  1.00  0.00    -0.354 N 
ATOM     38  C   UNL A   1      43.659  27.163  31.339  1.00  0.00     0.074 A 
ATOM     39  C   UNL A   1      44.080  26.084  30.455  1.00  0.00     0.031 C 
ATOM     40  C   UNL A   1      37.758  30.508  28.402  1.00  0.00     0.029 A 
ATOM     41  C   UNL A   1      38.608  30.975  29.438  1.00  0.00     0.049 A 
ATOM     42  H   UNL A   1      40.543  30.471  29.899  1.00  0.00     0.167 HD
ATOM     43  C   UNL A   1      44.349  27.814  32.317  1.00  0.00     0.037 A 
ATOM     44  C   UNL A   1      38.236  31.899  30.337  1.00  0.00     0.037 A 
ATOM     45  C   UNL A   1      43.935  29.056  33.006  1.00  0.00     0.049 A 
ATOM     46  C   UNL A   1      39.147  32.206  31.473  1.00  0.00     0.074 A 
ATOM     47  C   UNL A   1      44.640  29.717  34.005  1.00  0.00     0.029 A 
ATOM     48  N   UNL A   1      42.818  29.880  32.743  1.00  0.00    -0.354 N 
ATOM     49  N   UNL A   1      40.221  31.561  31.865  1.00  0.00    -0.248 NA
ATOM     50  C   UNL A   1      38.810  33.395  32.247  1.00  0.00     0.031 C 
ATOM     51  C   UNL A   1      43.931  30.855  34.403  1.00  0.00     0.029 A 
ATOM     52  C   UNL A   1      42.794  30.984  33.620  1.00  0.00     0.049 A 
ATOM     53  H   UNL A   1      42.149  29.708  32.043  1.00  0.00     0.167 HD
ATOM     54  C   UNL A   1      40.729  32.291  32.929  1.00  0.00     0.074 A 
ATOM     55  C   UNL A   1      39.831  33.434  33.089  1.00  0.00     0.031 C 
ATOM     56  C   UNL A   1      41.823  32.075  33.709  1.00  0.00     0.037 A 
BRANCH  43  57
ATOM     57  C   UNL A   1      45.652  27.187  32.745  1.00  0.00     0.058 A 
ATOM     58  C   UNL A   1      46.882  27.504  32.153  1.00  0.00     0.135 A 
ATOM     59  C   UNL A   1      45.664  26.266  33.811  1.00  0.00     0.135 A 
ATOM     60  F   UNL A   1      46.943  28.387  31.144  1.00  0.00    -0.206 F 
ATOM     61  C   UNL A   1      48.064  26.883  32.553  1.00  0.00     0.059 A 
ATOM     62  C   UNL A   1      46.837  25.663  34.253  1.00  0.00     0.059 A 
ATOM     63  F   UNL A   1      44.523  25.946  34.443  1.00  0.00    -0.206 F 
ATOM     64  C   UNL A   1      48.028  25.952  33.594  1.00  0.00     0.060 A 
BRANCH  64  65
ATOM     65  S   UNL A   1      49.548  25.084  34.033  1.00  0.00     0.124 S 
ATOM     66  O   UNL A   1      50.335  25.245  32.815  1.00  0.00    -0.237 OA
ATOM     67  O   UNL A   1      50.014  25.835  35.194  1.00  0.00    -0.237 OA
ATOM     68  O   UNL A   1      49.098  23.722  34.310  1.00  0.00    -0.744 OA
ENDBRANCH  64  65
ENDBRANCH  43  57
BRANCH  44  69
ATOM     69  C   UNL A   1      36.913  32.529  30.140  1.00  0.00     0.058 A 
ATOM     70  C   UNL A   1      35.877  32.233  31.033  1.00  0.00     0.135 A 
ATOM     71  C   UNL A   1      36.764  33.630  29.278  1.00  0.00     0.135 A 
ATOM     72  F   UNL A   1      36.007  31.214  31.895  1.00  0.00    -0.206 F 
ATOM     73  C   UNL A   1      34.741  33.025  31.098  1.00  0.00     0.059 A 
ATOM     74  C   UNL A   1      35.651  34.456  29.350  1.00  0.00     0.059 A 
ATOM     75  F   UNL A   1      37.774  33.992  28.468  1.00  0.00    -0.206 F 
ATOM     76  C   UNL A   1      34.647  34.145  30.267  1.00  0.00     0.060 A 
BRANCH  76  77
ATOM     77  S   UNL A   1      33.222  35.233  30.466  1.00  0.00     0.124 S 
ATOM     78  O   UNL A   1      33.843  36.546  30.333  1.00  0.00    -0.237 OA
ATOM     79  O   UNL A   1      32.364  34.814  29.363  1.00  0.00    -0.237 OA
ATOM     80  O   UNL A   1      32.727  34.899  31.798  1.00  0.00    -0.744 OA
ENDBRANCH  76  77
ENDBRANCH  44  69
BRANCH  56  81
ATOM     81  C   UNL A   1      42.050  33.158  34.758  1.00  0.00     0.058 A 
ATOM     82  C   UNL A   1      42.895  34.261  34.521  1.00  0.00     0.135 A 
ATOM     83  C   UNL A   1      41.497  33.038  36.045  1.00  0.00     0.135 A 
ATOM     84  F   UNL A   1      43.494  34.408  33.328  1.00  0.00    -0.206 F 
ATOM     85  C   UNL A   1      43.218  35.169  35.528  1.00  0.00     0.059 A 
ATOM     86  C   UNL A   1      41.775  33.960  37.056  1.00  0.00     0.059 A 
ATOM     87  F   UNL A   1      40.697  32.004  36.342  1.00  0.00    -0.206 F 
ATOM     88  C   UNL A   1      42.652  35.010  36.794  1.00  0.00     0.060 A 
BRANCH  88  89
ATOM     89  S   UNL A   1      43.072  36.204  38.086  1.00  0.00     0.124 S 
ATOM     90  O   UNL A   1      41.945  36.062  39.002  1.00  0.00    -0.237 OA
ATOM     91  O   UNL A   1      44.350  35.696  38.573  1.00  0.00    -0.237 OA
ATOM     92  O   UNL A   1      43.140  37.473  37.369  1.00  0.00    -0.744 OA
ENDBRANCH  88  89
ENDBRANCH  56  81
ENDBRANCH  30  31
ENDBRANCH  23  25
ENDBRANCH  22  23
ENDBRANCH  21  22
ENDBRANCH   1  21
TORSDOF 17
ENDMDL
