MODEL 1
REMARK VINA RESULT:     -11.7      0.000      0.000
REMARK SMILES O=C(OCCOC(=O)[C@@H]1CCCC[C@@H]1C(=O)Nc1cc(C(F)(F)F)cc(C(F)(F)F)c1)c1ccc(-c2c3nc(c(-c4c(F)cc(S(=O)(=O)[O-])cc4F)c4ccc([nH]4)c(-c4c(F)cc(S(=O)(=O)[O-])cc4F)c4nc(c(-c5c(F)cc(S(=O)(=O)[O-])cc5F)c5ccc2[nH]5)C=C4)C=C3)cc1
REMARK SMILES IDX 4 1 3 2 2 3 1 4 32 5 33 6 97 7 34 8 96 9 35 10 36 11 37 12
REMARK SMILES IDX 90 13 38 14 95 15 89 16 91 17 39 18 94 19 88 20 87 21 40 23
REMARK SMILES IDX 74 24 53 25 73 26 54 27 57 28 72 29 92 30 55 31 56 32 71 34
REMARK SMILES IDX 93 35 58 36 41 37 42 38 51 39 43 40 44 41 50 42 52 43 45 44
REMARK SMILES IDX 46 45 47 46 48 47 49 48 75 49 76 50 85 51 77 52 78 53 84 54
REMARK SMILES IDX 86 55 79 56 80 57 81 58 82 59 83 60 59 61 60 62 69 63 61 64
REMARK SMILES IDX 62 65 68 66 70 67 63 68 64 69 65 70 66 71 67 72 5 73 6 74
REMARK SMILES IDX 7 75 8 76 9 77 10 78 14 79 11 80 13 81 12 82 15 83 16 84
REMARK SMILES IDX 17 85 18 87 19 88 31 89 20 90 26 91 25 92 21 93 22 94 23 95
REMARK SMILES IDX 24 96 27 97 28 98 29 99 30 100
REMARK H PARENT 91 22 57 33 17 86
REMARK Flexibility Score: inf
ROOT
ATOM      1  C   UNL A   1      33.612  28.429  26.563  1.00  0.00     0.275 C 
ENDROOT
BRANCH   1   2
ATOM      2  O   UNL A   1      33.901  29.831  26.729  1.00  0.00    -0.458 OA
BRANCH   2   3
ATOM      3  C   UNL A   1      34.497  30.442  27.784  1.00  0.00     0.338 C 
ATOM      4  O   UNL A   1      33.983  31.463  28.241  1.00  0.00    -0.246 OA
BRANCH   3   5
ATOM      5  C   UNL A   1      35.872  30.077  28.264  1.00  0.00     0.060 A 
ATOM      6  C   UNL A   1      36.229  29.663  29.552  1.00  0.00     0.016 A 
ATOM      7  C   UNL A   1      36.888  30.119  27.291  1.00  0.00     0.016 A 
ATOM      8  C   UNL A   1      37.528  29.218  29.843  1.00  0.00     0.010 A 
ATOM      9  C   UNL A   1      38.178  29.655  27.572  1.00  0.00     0.010 A 
ATOM     10  C   UNL A   1      38.509  29.189  28.854  1.00  0.00    -0.014 A 
BRANCH  10  11
ATOM     11  C   UNL A   1      39.912  28.801  29.155  1.00  0.00     0.031 A 
ATOM     12  C   UNL A   1      40.862  29.890  29.563  1.00  0.00     0.074 A 
ATOM     13  C   UNL A   1      40.352  27.530  29.025  1.00  0.00     0.049 A 
ATOM     14  N   UNL A   1      42.142  29.817  29.801  1.00  0.00    -0.248 NA
ATOM     15  C   UNL A   1      40.287  31.234  29.761  1.00  0.00     0.031 C 
ATOM     16  C   UNL A   1      39.519  26.365  28.742  1.00  0.00     0.029 A 
ATOM     17  N   UNL A   1      41.623  27.009  29.056  1.00  0.00    -0.354 N 
ATOM     18  C   UNL A   1      42.511  31.084  30.230  1.00  0.00     0.074 A 
ATOM     19  C   UNL A   1      41.348  31.933  30.130  1.00  0.00     0.031 C 
ATOM     20  C   UNL A   1      40.301  25.305  28.467  1.00  0.00     0.029 A 
ATOM     21  C   UNL A   1      41.695  25.703  28.613  1.00  0.00     0.049 A 
ATOM     22  H   UNL A   1      42.408  27.518  29.364  1.00  0.00     0.167 HD
ATOM     23  C   UNL A   1      43.705  31.482  30.723  1.00  0.00     0.037 A 
ATOM     24  C   UNL A   1      42.766  24.930  28.340  1.00  0.00     0.037 A 
ATOM     25  C   UNL A   1      44.851  30.624  30.813  1.00  0.00     0.049 A 
ATOM     26  C   UNL A   1      44.131  25.467  28.684  1.00  0.00     0.074 A 
ATOM     27  C   UNL A   1      46.085  30.890  31.374  1.00  0.00     0.029 A 
ATOM     28  N   UNL A   1      44.908  29.336  30.300  1.00  0.00    -0.354 N 
ATOM     29  N   UNL A   1      44.442  26.626  29.214  1.00  0.00    -0.248 NA
ATOM     30  C   UNL A   1      45.284  24.589  28.440  1.00  0.00     0.031 C 
ATOM     31  C   UNL A   1      46.911  29.784  31.145  1.00  0.00     0.029 A 
ATOM     32  C   UNL A   1      46.175  28.814  30.479  1.00  0.00     0.049 A 
ATOM     33  H   UNL A   1      44.157  28.864  29.873  1.00  0.00     0.167 HD
ATOM     34  C   UNL A   1      45.813  26.588  29.436  1.00  0.00     0.074 A 
ATOM     35  C   UNL A   1      46.277  25.303  28.955  1.00  0.00     0.031 C 
ATOM     36  C   UNL A   1      46.609  27.521  30.012  1.00  0.00     0.037 A 
BRANCH  23  37
ATOM     37  C   UNL A   1      43.810  32.890  31.224  1.00  0.00     0.058 A 
ATOM     38  C   UNL A   1      43.442  33.222  32.538  1.00  0.00     0.135 A 
ATOM     39  C   UNL A   1      44.312  33.907  30.401  1.00  0.00     0.135 A 
ATOM     40  F   UNL A   1      42.930  32.288  33.355  1.00  0.00    -0.206 F 
ATOM     41  C   UNL A   1      43.561  34.521  33.017  1.00  0.00     0.059 A 
ATOM     42  C   UNL A   1      44.458  35.211  30.866  1.00  0.00     0.059 A 
ATOM     43  F   UNL A   1      44.661  33.640  29.134  1.00  0.00    -0.206 F 
ATOM     44  C   UNL A   1      44.075  35.508  32.174  1.00  0.00     0.060 A 
BRANCH  44  45
ATOM     45  S   UNL A   1      44.254  37.181  32.825  1.00  0.00     0.124 S 
ATOM     46  O   UNL A   1      43.993  37.987  31.637  1.00  0.00    -0.237 OA
ATOM     47  O   UNL A   1      43.225  37.224  33.859  1.00  0.00    -0.237 OA
ATOM     48  O   UNL A   1      45.630  37.210  33.313  1.00  0.00    -0.744 OA
ENDBRANCH  44  45
ENDBRANCH  23  37
BRANCH  24  49
ATOM     49  C   UNL A   1      42.619  23.593  27.691  1.00  0.00     0.058 A 
ATOM     50  C   UNL A   1      42.440  22.416  28.431  1.00  0.00     0.135 A 
ATOM     51  C   UNL A   1      42.742  23.464  26.299  1.00  0.00     0.135 A 
ATOM     52  F   UNL A   1      42.324  22.478  29.766  1.00  0.00    -0.206 F 
ATOM     53  C   UNL A   1      42.431  21.162  27.821  1.00  0.00     0.059 A 
ATOM     54  C   UNL A   1      42.724  22.225  25.662  1.00  0.00     0.059 A 
ATOM     55  F   UNL A   1      42.892  24.556  25.537  1.00  0.00    -0.206 F 
ATOM     56  C   UNL A   1      42.585  21.076  26.436  1.00  0.00     0.060 A 
BRANCH  56  57
ATOM     57  S   UNL A   1      42.595  19.445  25.657  1.00  0.00     0.124 S 
ATOM     58  O   UNL A   1      41.186  19.265  25.329  1.00  0.00    -0.237 OA
ATOM     59  O   UNL A   1      43.493  19.655  24.526  1.00  0.00    -0.237 OA
ATOM     60  O   UNL A   1      43.116  18.574  26.707  1.00  0.00    -0.744 OA
ENDBRANCH  56  57
ENDBRANCH  24  49
BRANCH  36  61
ATOM     61  C   UNL A   1      48.053  27.171  30.211  1.00  0.00     0.058 A 
ATOM     62  C   UNL A   1      49.030  27.520  29.267  1.00  0.00     0.135 A 
ATOM     63  C   UNL A   1      48.472  26.555  31.401  1.00  0.00     0.135 A 
ATOM     64  F   UNL A   1      48.675  28.099  28.109  1.00  0.00    -0.206 F 
ATOM     65  C   UNL A   1      50.377  27.268  29.496  1.00  0.00     0.059 A 
ATOM     66  C   UNL A   1      49.817  26.318  31.663  1.00  0.00     0.059 A 
ATOM     67  F   UNL A   1      47.573  26.208  32.336  1.00  0.00    -0.206 F 
ATOM     68  C   UNL A   1      50.761  26.675  30.701  1.00  0.00     0.060 A 
BRANCH  68  69
ATOM     69  S   UNL A   1      52.518  26.421  31.018  1.00  0.00     0.124 S 
ATOM     70  O   UNL A   1      52.505  25.164  31.758  1.00  0.00    -0.237 OA
ATOM     71  O   UNL A   1      53.074  26.358  29.669  1.00  0.00    -0.237 OA
ATOM     72  O   UNL A   1      52.898  27.601  31.789  1.00  0.00    -0.744 OA
ENDBRANCH  68  69
ENDBRANCH  36  61
ENDBRANCH  10  11
ENDBRANCH   3   5
ENDBRANCH   2   3
ENDBRANCH   1   2
BRANCH   1  73
ATOM     73  C   UNL A   1      33.467  28.015  25.094  1.00  0.00     0.274 C 
BRANCH  73  74
ATOM     74  O   UNL A   1      33.116  26.632  24.979  1.00  0.00    -0.462 OA
BRANCH  74  75
ATOM     75  C   UNL A   1      31.834  26.297  25.317  1.00  0.00     0.309 C 
ATOM     76  O   UNL A   1      30.825  26.924  25.004  1.00  0.00    -0.252 OA
BRANCH  75  77
ATOM     77  C   UNL A   1      31.839  24.931  25.968  1.00  0.00     0.111 C 
ATOM     78  C   UNL A   1      33.238  24.413  26.282  1.00  0.00     0.016 C 
ATOM     79  C   UNL A   1      30.936  23.869  25.342  1.00  0.00     0.093 C 
ATOM     80  C   UNL A   1      33.142  23.323  27.342  1.00  0.00     0.001 C 
ATOM     81  C   UNL A   1      30.874  22.662  26.285  1.00  0.00     0.014 C 
ATOM     82  C   UNL A   1      32.183  22.213  26.943  1.00  0.00     0.001 C 
BRANCH  79  83
ATOM     83  C   UNL A   1      31.099  23.753  23.818  1.00  0.00     0.228 C 
ATOM     84  O   UNL A   1      30.377  24.471  23.109  1.00  0.00    -0.274 OA
ATOM     85  N   UNL A   1      32.065  23.059  23.162  1.00  0.00    -0.326 N 
ATOM     86  H   UNL A   1      32.118  23.252  22.199  1.00  0.00     0.169 HD
BRANCH  85  87
ATOM     87  C   UNL A   1      32.992  22.125  23.611  1.00  0.00     0.042 A 
ATOM     88  C   UNL A   1      34.282  22.579  23.878  1.00  0.00     0.039 A 
ATOM     89  C   UNL A   1      32.664  20.784  23.809  1.00  0.00     0.039 A 
ATOM     90  C   UNL A   1      35.212  21.737  24.503  1.00  0.00     0.058 A 
ATOM     91  C   UNL A   1      33.562  19.932  24.476  1.00  0.00     0.058 A 
ATOM     92  C   UNL A   1      34.842  20.417  24.803  1.00  0.00     0.026 A 
BRANCH  90  93
ATOM     93  C   UNL A   1      36.538  22.301  24.945  1.00  0.00     0.416 C 
ATOM     94  F   UNL A   1      36.430  23.107  26.037  1.00  0.00    -0.166 F 
ATOM     95  F   UNL A   1      37.421  21.321  25.293  1.00  0.00    -0.166 F 
ATOM     96  F   UNL A   1      37.165  23.040  23.991  1.00  0.00    -0.166 F 
ENDBRANCH  90  93
BRANCH  91  97
ATOM     97  C   UNL A   1      33.098  18.585  24.988  1.00  0.00     0.416 C 
ATOM     98  F   UNL A   1      34.053  17.626  24.928  1.00  0.00    -0.166 F 
ATOM     99  F   UNL A   1      32.695  18.639  26.292  1.00  0.00    -0.166 F 
ATOM    100  F   UNL A   1      32.015  18.122  24.306  1.00  0.00    -0.166 F 
ENDBRANCH  91  97
ENDBRANCH  85  87
ENDBRANCH  79  83
ENDBRANCH  75  77
ENDBRANCH  74  75
ENDBRANCH  73  74
ENDBRANCH   1  73
TORSDOF 18
ENDMDL
MODEL 2
REMARK VINA RESULT:     -11.6      2.545      3.274
REMARK SMILES O=C(OCCOC(=O)[C@@H]1CCCC[C@@H]1C(=O)Nc1cc(C(F)(F)F)cc(C(F)(F)F)c1)c1ccc(-c2c3nc(c(-c4c(F)cc(S(=O)(=O)[O-])cc4F)c4ccc([nH]4)c(-c4c(F)cc(S(=O)(=O)[O-])cc4F)c4nc(c(-c5c(F)cc(S(=O)(=O)[O-])cc5F)c5ccc2[nH]5)C=C4)C=C3)cc1
REMARK SMILES IDX 4 1 3 2 2 3 1 4 32 5 33 6 97 7 34 8 96 9 35 10 36 11 37 12
REMARK SMILES IDX 90 13 38 14 95 15 89 16 91 17 39 18 94 19 88 20 87 21 40 23
REMARK SMILES IDX 74 24 53 25 73 26 54 27 57 28 72 29 92 30 55 31 56 32 71 34
REMARK SMILES IDX 93 35 58 36 41 37 42 38 51 39 43 40 44 41 50 42 52 43 45 44
REMARK SMILES IDX 46 45 47 46 48 47 49 48 75 49 76 50 85 51 77 52 78 53 84 54
REMARK SMILES IDX 86 55 79 56 80 57 81 58 82 59 83 60 59 61 60 62 69 63 61 64
REMARK SMILES IDX 62 65 68 66 70 67 63 68 64 69 65 70 66 71 67 72 5 73 6 74
REMARK SMILES IDX 7 75 8 76 9 77 10 78 14 79 11 80 13 81 12 82 15 83 16 84
REMARK SMILES IDX 17 85 18 87 19 88 31 89 20 90 26 91 25 92 21 93 22 94 23 95
REMARK SMILES IDX 24 96 27 97 28 98 29 99 30 100
REMARK H PARENT 91 22 57 33 17 86
REMARK Flexibility Score: inf
ROOT
ATOM      1  C   UNL A   1      32.072  30.098  25.947  1.00  0.00     0.275 C 
ENDROOT
BRANCH   1   2
ATOM      2  O   UNL A   1      33.431  29.885  26.374  1.00  0.00    -0.458 OA
BRANCH   2   3
ATOM      3  C   UNL A   1      34.145  30.600  27.281  1.00  0.00     0.338 C 
ATOM      4  O   UNL A   1      33.792  31.751  27.534  1.00  0.00    -0.246 OA
BRANCH   3   5
ATOM      5  C   UNL A   1      35.476  30.146  27.806  1.00  0.00     0.060 A 
ATOM      6  C   UNL A   1      36.695  30.152  27.120  1.00  0.00     0.016 A 
ATOM      7  C   UNL A   1      35.487  29.712  29.145  1.00  0.00     0.016 A 
ATOM      8  C   UNL A   1      37.899  29.827  27.766  1.00  0.00     0.010 A 
ATOM      9  C   UNL A   1      36.688  29.409  29.798  1.00  0.00     0.010 A 
ATOM     10  C   UNL A   1      37.911  29.474  29.113  1.00  0.00    -0.014 A 
BRANCH  10  11
ATOM     11  C   UNL A   1      39.159  29.047  29.799  1.00  0.00     0.031 A 
ATOM     12  C   UNL A   1      39.708  29.945  30.870  1.00  0.00     0.074 A 
ATOM     13  C   UNL A   1      39.821  27.921  29.453  1.00  0.00     0.049 A 
ATOM     14  N   UNL A   1      40.813  29.829  31.552  1.00  0.00    -0.248 NA
ATOM     15  C   UNL A   1      38.886  31.111  31.244  1.00  0.00     0.031 C 
ATOM     16  C   UNL A   1      39.349  26.910  28.512  1.00  0.00     0.029 A 
ATOM     17  N   UNL A   1      41.065  27.460  29.811  1.00  0.00    -0.354 N 
ATOM     18  C   UNL A   1      40.790  30.868  32.472  1.00  0.00     0.074 A 
ATOM     19  C   UNL A   1      39.614  31.662  32.202  1.00  0.00     0.031 C 
ATOM     20  C   UNL A   1      40.341  26.042  28.242  1.00  0.00     0.029 A 
ATOM     21  C   UNL A   1      41.505  26.402  29.040  1.00  0.00     0.049 A 
ATOM     22  H   UNL A   1      41.594  27.848  30.546  1.00  0.00     0.167 HD
ATOM     23  C   UNL A   1      41.646  31.099  33.491  1.00  0.00     0.037 A 
ATOM     24  C   UNL A   1      42.716  25.810  28.977  1.00  0.00     0.037 A 
ATOM     25  C   UNL A   1      42.811  30.300  33.743  1.00  0.00     0.049 A 
ATOM     26  C   UNL A   1      43.760  26.229  29.979  1.00  0.00     0.074 A 
ATOM     27  C   UNL A   1      43.703  30.384  34.795  1.00  0.00     0.029 A 
ATOM     28  N   UNL A   1      43.259  29.283  32.912  1.00  0.00    -0.354 N 
ATOM     29  N   UNL A   1      43.665  27.130  30.928  1.00  0.00    -0.248 NA
ATOM     30  C   UNL A   1      45.053  25.531  29.940  1.00  0.00     0.031 C 
ATOM     31  C   UNL A   1      44.727  29.458  34.568  1.00  0.00     0.029 A 
ATOM     32  C   UNL A   1      44.447  28.769  33.396  1.00  0.00     0.049 A 
ATOM     33  H   UNL A   1      42.799  28.974  32.099  1.00  0.00     0.167 HD
ATOM     34  C   UNL A   1      44.854  27.055  31.644  1.00  0.00     0.074 A 
ATOM     35  C   UNL A   1      45.665  26.042  31.000  1.00  0.00     0.031 C 
ATOM     36  C   UNL A   1      45.227  27.743  32.750  1.00  0.00     0.037 A 
BRANCH  23  37
ATOM     37  C   UNL A   1      41.332  32.236  34.414  1.00  0.00     0.058 A 
ATOM     38  C   UNL A   1      41.832  33.526  34.175  1.00  0.00     0.135 A 
ATOM     39  C   UNL A   1      40.501  32.046  35.528  1.00  0.00     0.135 A 
ATOM     40  F   UNL A   1      42.654  33.751  33.137  1.00  0.00    -0.206 F 
ATOM     41  C   UNL A   1      41.524  34.590  35.013  1.00  0.00     0.059 A 
ATOM     42  C   UNL A   1      40.164  33.101  36.369  1.00  0.00     0.059 A 
ATOM     43  F   UNL A   1      40.014  30.828  35.807  1.00  0.00    -0.206 F 
ATOM     44  C   UNL A   1      40.685  34.368  36.107  1.00  0.00     0.060 A 
BRANCH  44  45
ATOM     45  S   UNL A   1      40.269  35.770  37.164  1.00  0.00     0.124 S 
ATOM     46  O   UNL A   1      39.280  35.177  38.059  1.00  0.00    -0.237 OA
ATOM     47  O   UNL A   1      41.557  36.095  37.769  1.00  0.00    -0.237 OA
ATOM     48  O   UNL A   1      39.752  36.762  36.226  1.00  0.00    -0.744 OA
ENDBRANCH  44  45
ENDBRANCH  23  37
BRANCH  24  49
ATOM     49  C   UNL A   1      43.033  24.791  27.933  1.00  0.00     0.058 A 
ATOM     50  C   UNL A   1      42.863  23.417  28.151  1.00  0.00     0.135 A 
ATOM     51  C   UNL A   1      43.600  25.182  26.709  1.00  0.00     0.135 A 
ATOM     52  F   UNL A   1      42.333  22.984  29.305  1.00  0.00    -0.206 F 
ATOM     53  C   UNL A   1      43.281  22.470  27.216  1.00  0.00     0.059 A 
ATOM     54  C   UNL A   1      44.014  24.258  25.753  1.00  0.00     0.059 A 
ATOM     55  F   UNL A   1      43.764  26.483  26.436  1.00  0.00    -0.206 F 
ATOM     56  C   UNL A   1      43.866  22.901  26.024  1.00  0.00     0.060 A 
BRANCH  56  57
ATOM     57  S   UNL A   1      44.425  21.666  24.828  1.00  0.00     0.124 S 
ATOM     58  O   UNL A   1      44.202  22.356  23.563  1.00  0.00    -0.237 OA
ATOM     59  O   UNL A   1      45.819  21.478  25.217  1.00  0.00    -0.237 OA
ATOM     60  O   UNL A   1      43.551  20.526  25.088  1.00  0.00    -0.744 OA
ENDBRANCH  56  57
ENDBRANCH  24  49
BRANCH  36  61
ATOM     61  C   UNL A   1      46.542  27.389  33.374  1.00  0.00     0.058 A 
ATOM     62  C   UNL A   1      47.716  28.090  33.064  1.00  0.00     0.135 A 
ATOM     63  C   UNL A   1      46.609  26.389  34.359  1.00  0.00     0.135 A 
ATOM     64  F   UNL A   1      47.703  29.045  32.120  1.00  0.00    -0.206 F 
ATOM     65  C   UNL A   1      48.915  27.813  33.709  1.00  0.00     0.059 A 
ATOM     66  C   UNL A   1      47.791  26.113  35.036  1.00  0.00     0.059 A 
ATOM     67  F   UNL A   1      45.510  25.694  34.694  1.00  0.00    -0.206 F 
ATOM     68  C   UNL A   1      48.940  26.828  34.700  1.00  0.00     0.060 A 
BRANCH  68  69
ATOM     69  S   UNL A   1      50.485  26.528  35.581  1.00  0.00     0.124 S 
ATOM     70  O   UNL A   1      51.461  26.612  34.500  1.00  0.00    -0.237 OA
ATOM     71  O   UNL A   1      50.512  27.622  36.547  1.00  0.00    -0.237 OA
ATOM     72  O   UNL A   1      50.296  25.199  36.155  1.00  0.00    -0.744 OA
ENDBRANCH  68  69
ENDBRANCH  36  61
ENDBRANCH  10  11
ENDBRANCH   3   5
ENDBRANCH   2   3
ENDBRANCH   1   2
BRANCH   1  73
ATOM     73  C   UNL A   1      31.568  29.018  24.985  1.00  0.00     0.274 C 
BRANCH  73  74
ATOM     74  O   UNL A   1      32.268  29.069  23.737  1.00  0.00    -0.462 OA
BRANCH  74  75
ATOM     75  C   UNL A   1      33.042  27.986  23.426  1.00  0.00     0.309 C 
ATOM     76  O   UNL A   1      34.043  28.001  22.715  1.00  0.00    -0.252 OA
BRANCH  75  77
ATOM     77  C   UNL A   1      32.586  26.804  24.255  1.00  0.00     0.111 C 
ATOM     78  C   UNL A   1      33.716  26.125  25.020  1.00  0.00     0.016 C 
ATOM     79  C   UNL A   1      31.645  25.811  23.573  1.00  0.00     0.093 C 
ATOM     80  C   UNL A   1      33.126  25.312  26.166  1.00  0.00     0.001 C 
ATOM     81  C   UNL A   1      31.090  24.856  24.636  1.00  0.00     0.014 C 
ATOM     82  C   UNL A   1      32.069  24.330  25.692  1.00  0.00     0.001 C 
BRANCH  79  83
ATOM     83  C   UNL A   1      32.139  25.355  22.191  1.00  0.00     0.228 C 
ATOM     84  O   UNL A   1      31.789  26.027  21.208  1.00  0.00    -0.274 OA
ATOM     85  N   UNL A   1      33.052  24.380  21.944  1.00  0.00    -0.326 N 
ATOM     86  H   UNL A   1      33.377  24.357  21.015  1.00  0.00     0.169 HD
BRANCH  85  87
ATOM     87  C   UNL A   1      33.608  23.410  22.769  1.00  0.00     0.042 A 
ATOM     88  C   UNL A   1      34.852  23.686  23.335  1.00  0.00     0.039 A 
ATOM     89  C   UNL A   1      32.961  22.207  23.049  1.00  0.00     0.039 A 
ATOM     90  C   UNL A   1      35.385  22.839  24.316  1.00  0.00     0.058 A 
ATOM     91  C   UNL A   1      33.452  21.364  24.061  1.00  0.00     0.058 A 
ATOM     92  C   UNL A   1      34.676  21.682  24.676  1.00  0.00     0.026 A 
BRANCH  90  93
ATOM     93  C   UNL A   1      36.640  23.249  25.042  1.00  0.00     0.416 C 
ATOM     94  F   UNL A   1      37.214  22.221  25.725  1.00  0.00    -0.166 F 
ATOM     95  F   UNL A   1      37.600  23.708  24.188  1.00  0.00    -0.166 F 
ATOM     96  F   UNL A   1      36.448  24.245  25.950  1.00  0.00    -0.166 F 
ENDBRANCH  90  93
BRANCH  91  97
ATOM     97  C   UNL A   1      32.593  20.237  24.599  1.00  0.00     0.416 C 
ATOM     98  F   UNL A   1      32.178  19.372  23.644  1.00  0.00    -0.166 F 
ATOM     99  F   UNL A   1      33.250  19.488  25.532  1.00  0.00    -0.166 F 
ATOM    100  F   UNL A   1      31.484  20.699  25.239  1.00  0.00    -0.166 F 
ENDBRANCH  91  97
ENDBRANCH  85  87
ENDBRANCH  79  83
ENDBRANCH  75  77
ENDBRANCH  74  75
ENDBRANCH  73  74
ENDBRANCH   1  73
TORSDOF 18
ENDMDL
MODEL 3
REMARK VINA RESULT:     -11.5      2.181      2.959
REMARK SMILES O=C(OCCOC(=O)[C@@H]1CCCC[C@@H]1C(=O)Nc1cc(C(F)(F)F)cc(C(F)(F)F)c1)c1ccc(-c2c3nc(c(-c4c(F)cc(S(=O)(=O)[O-])cc4F)c4ccc([nH]4)c(-c4c(F)cc(S(=O)(=O)[O-])cc4F)c4nc(c(-c5c(F)cc(S(=O)(=O)[O-])cc5F)c5ccc2[nH]5)C=C4)C=C3)cc1
REMARK SMILES IDX 4 1 3 2 2 3 1 4 32 5 33 6 97 7 34 8 96 9 35 10 36 11 37 12
REMARK SMILES IDX 90 13 38 14 95 15 89 16 91 17 39 18 94 19 88 20 87 21 40 23
REMARK SMILES IDX 74 24 53 25 73 26 54 27 57 28 72 29 92 30 55 31 56 32 71 34
REMARK SMILES IDX 93 35 58 36 41 37 42 38 51 39 43 40 44 41 50 42 52 43 45 44
REMARK SMILES IDX 46 45 47 46 48 47 49 48 75 49 76 50 85 51 77 52 78 53 84 54
REMARK SMILES IDX 86 55 79 56 80 57 81 58 82 59 83 60 59 61 60 62 69 63 61 64
REMARK SMILES IDX 62 65 68 66 70 67 63 68 64 69 65 70 66 71 67 72 5 73 6 74
REMARK SMILES IDX 7 75 8 76 9 77 10 78 14 79 11 80 13 81 12 82 15 83 16 84
REMARK SMILES IDX 17 85 18 87 19 88 31 89 20 90 26 91 25 92 21 93 22 94 23 95
REMARK SMILES IDX 24 96 27 97 28 98 29 99 30 100
REMARK H PARENT 91 22 57 33 17 86
REMARK Flexibility Score: inf
ROOT
ATOM      1  C   UNL A   1      32.065  29.329  26.884  1.00  0.00     0.275 C 
ENDROOT
BRANCH   1   2
ATOM      2  O   UNL A   1      33.406  29.797  26.644  1.00  0.00    -0.458 OA
BRANCH   2   3
ATOM      3  C   UNL A   1      34.182  30.565  27.451  1.00  0.00     0.338 C 
ATOM      4  O   UNL A   1      33.861  31.740  27.631  1.00  0.00    -0.246 OA
BRANCH   3   5
ATOM      5  C   UNL A   1      35.532  30.126  27.936  1.00  0.00     0.060 A 
ATOM      6  C   UNL A   1      36.727  30.128  27.209  1.00  0.00     0.016 A 
ATOM      7  C   UNL A   1      35.592  29.712  29.280  1.00  0.00     0.016 A 
ATOM      8  C   UNL A   1      37.955  29.820  27.817  1.00  0.00     0.010 A 
ATOM      9  C   UNL A   1      36.816  29.425  29.896  1.00  0.00     0.010 A 
ATOM     10  C   UNL A   1      38.015  29.487  29.169  1.00  0.00    -0.014 A 
BRANCH  10  11
ATOM     11  C   UNL A   1      39.288  29.076  29.817  1.00  0.00     0.031 A 
ATOM     12  C   UNL A   1      39.876  30.000  30.844  1.00  0.00     0.074 A 
ATOM     13  C   UNL A   1      39.937  27.942  29.474  1.00  0.00     0.049 A 
ATOM     14  N   UNL A   1      41.006  29.901  31.487  1.00  0.00    -0.248 NA
ATOM     15  C   UNL A   1      39.067  31.175  31.221  1.00  0.00     0.031 C 
ATOM     16  C   UNL A   1      39.430  26.908  28.576  1.00  0.00     0.029 A 
ATOM     17  N   UNL A   1      41.195  27.490  29.796  1.00  0.00    -0.354 N 
ATOM     18  C   UNL A   1      41.017  30.962  32.381  1.00  0.00     0.074 A 
ATOM     19  C   UNL A   1      39.831  31.750  32.136  1.00  0.00     0.031 C 
ATOM     20  C   UNL A   1      40.413  26.034  28.290  1.00  0.00     0.029 A 
ATOM     21  C   UNL A   1      41.606  26.414  29.035  1.00  0.00     0.049 A 
ATOM     22  H   UNL A   1      41.750  27.896  30.501  1.00  0.00     0.167 HD
ATOM     23  C   UNL A   1      41.911  31.218  33.361  1.00  0.00     0.037 A 
ATOM     24  C   UNL A   1      42.814  25.820  28.941  1.00  0.00     0.037 A 
ATOM     25  C   UNL A   1      43.085  30.425  33.589  1.00  0.00     0.049 A 
ATOM     26  C   UNL A   1      43.895  26.263  29.893  1.00  0.00     0.074 A 
ATOM     27  C   UNL A   1      44.015  30.535  34.604  1.00  0.00     0.029 A 
ATOM     28  N   UNL A   1      43.502  29.388  32.767  1.00  0.00    -0.354 N 
ATOM     29  N   UNL A   1      43.835  27.187  30.822  1.00  0.00    -0.248 NA
ATOM     30  C   UNL A   1      45.186  25.564  29.822  1.00  0.00     0.031 C 
ATOM     31  C   UNL A   1      45.031  29.604  34.361  1.00  0.00     0.029 A 
ATOM     32  C   UNL A   1      44.708  28.886  33.218  1.00  0.00     0.049 A 
ATOM     33  H   UNL A   1      43.012  29.059  31.979  1.00  0.00     0.167 HD
ATOM     34  C   UNL A   1      45.050  27.130  31.494  1.00  0.00     0.074 A 
ATOM     35  C   UNL A   1      45.836  26.101  30.846  1.00  0.00     0.031 C 
ATOM     36  C   UNL A   1      45.463  27.845  32.569  1.00  0.00     0.037 A 
BRANCH  23  37
ATOM     37  C   UNL A   1      41.631  32.377  34.268  1.00  0.00     0.058 A 
ATOM     38  C   UNL A   1      42.125  33.659  33.981  1.00  0.00     0.135 A 
ATOM     39  C   UNL A   1      40.837  32.216  35.412  1.00  0.00     0.135 A 
ATOM     40  F   UNL A   1      42.912  33.858  32.911  1.00  0.00    -0.206 F 
ATOM     41  C   UNL A   1      41.849  34.744  34.804  1.00  0.00     0.059 A 
ATOM     42  C   UNL A   1      40.532  33.292  36.240  1.00  0.00     0.059 A 
ATOM     43  F   UNL A   1      40.357  31.006  35.736  1.00  0.00    -0.206 F 
ATOM     44  C   UNL A   1      41.046  34.551  35.930  1.00  0.00     0.060 A 
BRANCH  44  45
ATOM     45  S   UNL A   1      40.669  35.978  36.968  1.00  0.00     0.124 S 
ATOM     46  O   UNL A   1      40.012  35.345  38.107  1.00  0.00    -0.237 OA
ATOM     47  O   UNL A   1      41.995  36.531  37.227  1.00  0.00    -0.237 OA
ATOM     48  O   UNL A   1      39.807  36.796  36.121  1.00  0.00    -0.744 OA
ENDBRANCH  44  45
ENDBRANCH  23  37
BRANCH  24  49
ATOM     49  C   UNL A   1      43.092  24.776  27.911  1.00  0.00     0.058 A 
ATOM     50  C   UNL A   1      42.888  23.410  28.154  1.00  0.00     0.135 A 
ATOM     51  C   UNL A   1      43.657  25.130  26.676  1.00  0.00     0.135 A 
ATOM     52  F   UNL A   1      42.358  23.011  29.320  1.00  0.00    -0.206 F 
ATOM     53  C   UNL A   1      43.270  22.437  27.231  1.00  0.00     0.059 A 
ATOM     54  C   UNL A   1      44.036  24.180  25.731  1.00  0.00     0.059 A 
ATOM     55  F   UNL A   1      43.853  26.422  26.379  1.00  0.00    -0.206 F 
ATOM     56  C   UNL A   1      43.853  22.832  26.026  1.00  0.00     0.060 A 
BRANCH  56  57
ATOM     57  S   UNL A   1      44.367  21.563  24.845  1.00  0.00     0.124 S 
ATOM     58  O   UNL A   1      43.422  20.491  25.133  1.00  0.00    -0.237 OA
ATOM     59  O   UNL A   1      44.189  22.247  23.568  1.00  0.00    -0.237 OA
ATOM     60  O   UNL A   1      45.754  21.299  25.217  1.00  0.00    -0.744 OA
ENDBRANCH  56  57
ENDBRANCH  24  49
BRANCH  36  61
ATOM     61  C   UNL A   1      46.802  27.505  33.151  1.00  0.00     0.058 A 
ATOM     62  C   UNL A   1      46.954  26.480  34.096  1.00  0.00     0.135 A 
ATOM     63  C   UNL A   1      47.957  28.159  32.692  1.00  0.00     0.135 A 
ATOM     64  F   UNL A   1      45.877  25.836  34.573  1.00  0.00    -0.206 F 
ATOM     65  C   UNL A   1      48.208  26.114  34.568  1.00  0.00     0.059 A 
ATOM     66  C   UNL A   1      49.224  27.791  33.131  1.00  0.00     0.059 A 
ATOM     67  F   UNL A   1      47.862  29.143  31.784  1.00  0.00    -0.206 F 
ATOM     68  C   UNL A   1      49.337  26.770  34.073  1.00  0.00     0.060 A 
BRANCH  68  69
ATOM     69  S   UNL A   1      50.965  26.235  34.639  1.00  0.00     0.124 S 
ATOM     70  O   UNL A   1      50.851  26.423  36.081  1.00  0.00    -0.237 OA
ATOM     71  O   UNL A   1      51.016  24.850  34.180  1.00  0.00    -0.237 OA
ATOM     72  O   UNL A   1      51.878  27.147  33.956  1.00  0.00    -0.744 OA
ENDBRANCH  68  69
ENDBRANCH  36  61
ENDBRANCH  10  11
ENDBRANCH   3   5
ENDBRANCH   2   3
ENDBRANCH   1   2
BRANCH   1  73
ATOM     73  C   UNL A   1      31.967  27.802  26.971  1.00  0.00     0.274 C 
BRANCH  73  74
ATOM     74  O   UNL A   1      31.362  27.255  25.795  1.00  0.00    -0.462 OA
BRANCH  74  75
ATOM     75  C   UNL A   1      32.104  26.347  25.092  1.00  0.00     0.309 C 
ATOM     76  O   UNL A   1      32.801  26.597  24.113  1.00  0.00    -0.252 OA
BRANCH  75  77
ATOM     77  C   UNL A   1      32.087  25.026  25.829  1.00  0.00     0.111 C 
ATOM     78  C   UNL A   1      33.476  24.441  26.063  1.00  0.00     0.016 C 
ATOM     79  C   UNL A   1      31.075  23.986  25.351  1.00  0.00     0.093 C 
ATOM     80  C   UNL A   1      33.408  23.426  27.198  1.00  0.00     0.001 C 
ATOM     81  C   UNL A   1      31.024  22.845  26.374  1.00  0.00     0.014 C 
ATOM     82  C   UNL A   1      32.357  22.356  26.952  1.00  0.00     0.001 C 
BRANCH  79  83
ATOM     83  C   UNL A   1      31.101  23.766  23.830  1.00  0.00     0.228 C 
ATOM     84  O   UNL A   1      30.348  24.469  23.137  1.00  0.00    -0.274 OA
ATOM     85  N   UNL A   1      31.979  22.990  23.143  1.00  0.00    -0.326 N 
ATOM     86  H   UNL A   1      31.956  23.119  22.168  1.00  0.00     0.169 HD
BRANCH  85  87
ATOM     87  C   UNL A   1      32.905  22.047  23.574  1.00  0.00     0.042 A 
ATOM     88  C   UNL A   1      34.216  22.477  23.768  1.00  0.00     0.039 A 
ATOM     89  C   UNL A   1      32.557  20.720  23.825  1.00  0.00     0.039 A 
ATOM     90  C   UNL A   1      35.156  21.630  24.373  1.00  0.00     0.058 A 
ATOM     91  C   UNL A   1      33.466  19.865  24.473  1.00  0.00     0.058 A 
ATOM     92  C   UNL A   1      34.770  20.328  24.726  1.00  0.00     0.026 A 
BRANCH  90  93
ATOM     93  C   UNL A   1      36.513  22.174  24.736  1.00  0.00     0.416 C 
ATOM     94  F   UNL A   1      37.425  21.195  24.983  1.00  0.00    -0.166 F 
ATOM     95  F   UNL A   1      37.045  22.934  23.736  1.00  0.00    -0.166 F 
ATOM     96  F   UNL A   1      36.507  22.971  25.840  1.00  0.00    -0.166 F 
ENDBRANCH  90  93
BRANCH  91  97
ATOM     97  C   UNL A   1      32.997  18.543  25.044  1.00  0.00     0.416 C 
ATOM     98  F   UNL A   1      31.877  18.065  24.450  1.00  0.00    -0.166 F 
ATOM     99  F   UNL A   1      33.940  17.563  24.921  1.00  0.00    -0.166 F 
ATOM    100  F   UNL A   1      32.746  18.622  26.379  1.00  0.00    -0.166 F 
ENDBRANCH  91  97
ENDBRANCH  85  87
ENDBRANCH  79  83
ENDBRANCH  75  77
ENDBRANCH  74  75
ENDBRANCH  73  74
ENDBRANCH   1  73
TORSDOF 18
ENDMDL
