MODEL 1
REMARK VINA RESULT:     -10.2      0.000      0.000
REMARK SMILES CN(C)C(=O)C[NH+]1CCN(c2cc(C(=O)OCCOC(=O)c3ccc(-c4c5nc(c(-c6c(F)cc(S(=O)(=O)[O-])cc6F)c6ccc([nH]6)c(-c6c(F)cc(S(=O)(=O)[O-])cc6F)c6nc(c(-c7c(F)cc(S(=O)(=O)[O-])cc7F)c7ccc4[nH]7)C=C6)C=C5)cc3)c3cc(NC(=O)c4cccc(Cl)c4)ccc3n2)CC1
REMARK SMILES IDX 17 1 16 2 14 3 15 4 13 5 11 6 12 7 104 8 103 9 88 10 102 11
REMARK SMILES IDX 89 12 101 13 90 14 10 15 7 16 8 17 106 18 9 20 105 21 6 22
REMARK SMILES IDX 4 23 1 24 2 25 3 26 5 27 91 28 92 29 93 31 94 32 95 33
REMARK SMILES IDX 100 34 96 35 98 36 97 37 99 38 18 39 19 40 20 41 21 42 22 43
REMARK SMILES IDX 23 44 87 45 24 46 86 47 25 48 26 49 27 50 80 51 28 52 85 53
REMARK SMILES IDX 79 54 81 55 29 56 84 57 78 58 77 59 30 61 64 62 43 63 63 64
REMARK SMILES IDX 44 65 47 66 62 67 82 68 45 69 46 70 61 72 83 73 48 74 31 75
REMARK SMILES IDX 32 76 41 77 33 78 34 79 40 80 42 81 35 82 36 83 37 84 38 85
REMARK SMILES IDX 39 86 65 87 66 88 75 89 67 90 68 91 74 92 76 93 69 94 70 95
REMARK SMILES IDX 71 96 72 97 73 98 49 99 50 100 59 101 51 102 52 103 58 104
REMARK SMILES IDX 60 105 53 106 54 107 55 108 56 109 57 110
REMARK H PARENT 7 19 91 30 81 60 47 71
REMARK Flexibility Score: inf
ROOT
ATOM      1  C   UNL A   1      41.771  21.824  26.907  1.00  0.00     0.275 C 
ENDROOT
BRANCH   1   2
ATOM      2  O   UNL A   1      42.484  22.507  27.965  1.00  0.00    -0.458 OA
BRANCH   2   3
ATOM      3  C   UNL A   1      43.745  22.878  27.639  1.00  0.00     0.339 C 
ATOM      4  O   UNL A   1      44.347  22.529  26.633  1.00  0.00    -0.246 OA
BRANCH   3   5
ATOM      5  C   UNL A   1      44.300  23.911  28.549  1.00  0.00     0.073 A 
ATOM      6  C   UNL A   1      44.576  24.557  30.840  1.00  0.00     0.130 A 
ATOM      7  C   UNL A   1      44.168  23.623  29.912  1.00  0.00     0.063 A 
ATOM      8  N   UNL A   1      44.961  25.782  30.470  1.00  0.00    -0.231 NA
ATOM      9  C   UNL A   1      45.062  26.078  29.176  1.00  0.00     0.074 A 
ATOM     10  C   UNL A   1      44.815  25.161  28.138  1.00  0.00     0.017 A 
ATOM     11  C   UNL A   1      45.439  27.370  28.876  1.00  0.00     0.031 A 
ATOM     12  C   UNL A   1      45.076  25.576  26.804  1.00  0.00     0.037 A 
ATOM     13  C   UNL A   1      45.611  27.787  27.560  1.00  0.00     0.028 A 
ATOM     14  C   UNL A   1      45.446  26.889  26.506  1.00  0.00     0.042 A 
BRANCH   6  15
ATOM     15  N   UNL A   1      44.738  24.251  32.160  1.00  0.00    -0.345 N 
ATOM     16  N   UNL A   1      45.050  23.786  35.018  1.00  0.00    -0.324 N 
ATOM     17  C   UNL A   1      45.390  25.074  34.377  1.00  0.00     0.284 C 
ATOM     18  C   UNL A   1      43.970  23.149  34.229  1.00  0.00     0.284 C 
ATOM     19  H   UNL A   1      44.739  23.976  35.970  1.00  0.00     0.348 HD
ATOM     20  C   UNL A   1      45.780  24.961  32.887  1.00  0.00     0.179 C 
ATOM     21  C   UNL A   1      44.243  22.997  32.710  1.00  0.00     0.179 C 
BRANCH  16  22
ATOM     22  C   UNL A   1      46.210  22.876  35.165  1.00  0.00     0.363 C 
BRANCH  22  23
ATOM     23  C   UNL A   1      46.015  21.889  36.327  1.00  0.00     0.277 C 
ATOM     24  C   UNL A   1      46.059  19.616  37.199  1.00  0.00     0.146 C 
ATOM     25  N   UNL A   1      46.279  20.544  36.109  1.00  0.00    -0.344 N 
ATOM     26  C   UNL A   1      46.689  19.947  34.862  1.00  0.00     0.146 C 
ATOM     27  O   UNL A   1      45.638  22.308  37.425  1.00  0.00    -0.268 OA
ENDBRANCH  22  23
ENDBRANCH  16  22
ENDBRANCH   6  15
BRANCH  14  28
ATOM     28  N   UNL A   1      45.692  27.413  25.226  1.00  0.00    -0.322 N 
ATOM     29  C   UNL A   1      46.811  27.594  24.457  1.00  0.00     0.255 C 
ATOM     30  H   UNL A   1      44.870  27.719  24.777  1.00  0.00     0.170 HD
ATOM     31  O   UNL A   1      46.720  28.202  23.390  1.00  0.00    -0.269 OA
BRANCH  29  32
ATOM     32  C   UNL A   1      48.130  27.088  24.838  1.00  0.00     0.041 A 
ATOM     33  C   UNL A   1      49.217  27.381  24.006  1.00  0.00     0.014 A 
ATOM     34  C   UNL A   1      48.280  26.260  25.953  1.00  0.00     0.034 A 
ATOM     35  C   UNL A   1      50.474  26.862  24.305  1.00  0.00     0.002 A 
ATOM     36  C   UNL A   1      49.541  25.752  26.245  1.00  0.00     0.041 A 
ATOM     37  C   UNL A   1      50.634  26.041  25.421  1.00  0.00     0.020 A 
ATOM     38  Cl  UNL A   1      49.763  24.780  27.646  1.00  0.00    -0.084 Cl
ENDBRANCH  29  32
ENDBRANCH  14  28
ENDBRANCH   3   5
ENDBRANCH   2   3
ENDBRANCH   1   2
BRANCH   1  39
ATOM     39  C   UNL A   1      40.920  22.821  26.109  1.00  0.00     0.275 C 
BRANCH  39  40
ATOM     40  O   UNL A   1      40.489  23.876  26.986  1.00  0.00    -0.458 OA
BRANCH  40  41
ATOM     41  C   UNL A   1      40.716  25.115  26.498  1.00  0.00     0.338 C 
ATOM     42  O   UNL A   1      40.588  25.498  25.345  1.00  0.00    -0.246 OA
BRANCH  41  43
ATOM     43  C   UNL A   1      40.798  26.017  27.653  1.00  0.00     0.060 A 
ATOM     44  C   UNL A   1      39.813  25.871  28.626  1.00  0.00     0.016 A 
ATOM     45  C   UNL A   1      41.817  26.952  27.805  1.00  0.00     0.016 A 
ATOM     46  C   UNL A   1      39.791  26.714  29.727  1.00  0.00     0.010 A 
ATOM     47  C   UNL A   1      41.816  27.775  28.935  1.00  0.00     0.010 A 
ATOM     48  C   UNL A   1      40.776  27.699  29.880  1.00  0.00    -0.014 A 
BRANCH  48  49
ATOM     49  C   UNL A   1      40.638  28.719  30.956  1.00  0.00     0.031 A 
ATOM     50  C   UNL A   1      41.519  28.613  32.186  1.00  0.00     0.074 A 
ATOM     51  C   UNL A   1      39.826  29.783  30.779  1.00  0.00     0.049 A 
ATOM     52  N   UNL A   1      41.614  29.423  33.207  1.00  0.00    -0.248 NA
ATOM     53  C   UNL A   1      42.477  27.489  32.238  1.00  0.00     0.031 C 
ATOM     54  C   UNL A   1      38.971  30.012  29.609  1.00  0.00     0.029 A 
ATOM     55  N   UNL A   1      39.580  30.871  31.579  1.00  0.00    -0.354 N 
ATOM     56  C   UNL A   1      42.650  28.928  33.998  1.00  0.00     0.074 A 
ATOM     57  C   UNL A   1      43.130  27.724  33.367  1.00  0.00     0.031 C 
ATOM     58  C   UNL A   1      38.285  31.153  29.777  1.00  0.00     0.029 A 
ATOM     59  C   UNL A   1      38.597  31.702  31.091  1.00  0.00     0.049 A 
ATOM     60  H   UNL A   1      40.060  31.040  32.422  1.00  0.00     0.167 HD
ATOM     61  C   UNL A   1      43.183  29.461  35.124  1.00  0.00     0.037 A 
ATOM     62  C   UNL A   1      37.971  32.751  31.663  1.00  0.00     0.037 A 
ATOM     63  C   UNL A   1      42.672  30.650  35.750  1.00  0.00     0.049 A 
ATOM     64  C   UNL A   1      38.415  33.179  33.035  1.00  0.00     0.074 A 
ATOM     65  C   UNL A   1      43.098  31.259  36.916  1.00  0.00     0.029 A 
ATOM     66  N   UNL A   1      41.598  31.394  35.277  1.00  0.00    -0.354 N 
ATOM     67  N   UNL A   1      39.398  32.703  33.765  1.00  0.00    -0.248 NA
ATOM     68  C   UNL A   1      37.669  34.274  33.667  1.00  0.00     0.031 C 
ATOM     69  C   UNL A   1      42.231  32.322  37.189  1.00  0.00     0.029 A 
ATOM     70  C   UNL A   1      41.306  32.419  36.160  1.00  0.00     0.049 A 
ATOM     71  H   UNL A   1      41.115  31.218  34.437  1.00  0.00     0.167 HD
ATOM     72  C   UNL A   1      39.406  33.459  34.932  1.00  0.00     0.074 A 
ATOM     73  C   UNL A   1      38.333  34.427  34.804  1.00  0.00     0.031 C 
ATOM     74  C   UNL A   1      40.227  33.366  36.009  1.00  0.00     0.037 A 
BRANCH  61  75
ATOM     75  C   UNL A   1      44.341  28.742  35.768  1.00  0.00     0.058 A 
ATOM     76  C   UNL A   1      44.162  27.754  36.750  1.00  0.00     0.135 A 
ATOM     77  C   UNL A   1      45.660  29.025  35.379  1.00  0.00     0.135 A 
ATOM     78  F   UNL A   1      42.936  27.421  37.166  1.00  0.00    -0.206 F 
ATOM     79  C   UNL A   1      45.234  27.102  37.349  1.00  0.00     0.059 A 
ATOM     80  C   UNL A   1      46.751  28.366  35.944  1.00  0.00     0.059 A 
ATOM     81  F   UNL A   1      45.898  29.956  34.444  1.00  0.00    -0.206 F 
ATOM     82  C   UNL A   1      46.528  27.416  36.941  1.00  0.00     0.060 A 
BRANCH  82  83
ATOM     83  S   UNL A   1      47.903  26.567  37.740  1.00  0.00     0.124 S 
ATOM     84  O   UNL A   1      47.662  25.183  37.339  1.00  0.00    -0.237 OA
ATOM     85  O   UNL A   1      49.063  27.208  37.129  1.00  0.00    -0.237 OA
ATOM     86  O   UNL A   1      47.703  26.853  39.157  1.00  0.00    -0.744 OA
ENDBRANCH  82  83
ENDBRANCH  61  75
BRANCH  62  87
ATOM     87  C   UNL A   1      36.811  33.395  30.982  1.00  0.00     0.058 A 
ATOM     88  C   UNL A   1      36.977  34.292  29.918  1.00  0.00     0.135 A 
ATOM     89  C   UNL A   1      35.495  33.111  31.391  1.00  0.00     0.135 A 
ATOM     90  F   UNL A   1      38.208  34.611  29.495  1.00  0.00    -0.206 F 
ATOM     91  C   UNL A   1      35.885  34.888  29.288  1.00  0.00     0.059 A 
ATOM     92  C   UNL A   1      34.389  33.668  30.758  1.00  0.00     0.059 A 
ATOM     93  F   UNL A   1      35.274  32.259  32.404  1.00  0.00    -0.206 F 
ATOM     94  C   UNL A   1      34.594  34.563  29.711  1.00  0.00     0.060 A 
BRANCH  94  95
ATOM     95  S   UNL A   1      33.183  35.296  28.852  1.00  0.00     0.124 S 
ATOM     96  O   UNL A   1      33.833  36.300  28.019  1.00  0.00    -0.237 OA
ATOM     97  O   UNL A   1      32.624  34.145  28.150  1.00  0.00    -0.237 OA
ATOM     98  O   UNL A   1      32.360  35.816  29.941  1.00  0.00    -0.744 OA
ENDBRANCH  94  95
ENDBRANCH  62  87
BRANCH  74  99
ATOM     99  C   UNL A   1      40.012  34.354  37.120  1.00  0.00     0.058 A 
ATOM    100  C   UNL A   1      40.549  35.651  37.067  1.00  0.00     0.135 A 
ATOM    101  C   UNL A   1      39.214  34.018  38.225  1.00  0.00     0.135 A 
ATOM    102  F   UNL A   1      41.328  36.018  36.037  1.00  0.00    -0.206 F 
ATOM    103  C   UNL A   1      40.318  36.571  38.083  1.00  0.00     0.059 A 
ATOM    104  C   UNL A   1      38.942  34.934  39.235  1.00  0.00     0.059 A 
ATOM    105  F   UNL A   1      38.670  32.794  38.319  1.00  0.00    -0.206 F 
ATOM    106  C   UNL A   1      39.508  36.206  39.160  1.00  0.00     0.060 A 
BRANCH 106 107
ATOM    107  S   UNL A   1      39.182  37.426  40.447  1.00  0.00     0.124 S 
ATOM    108  O   UNL A   1      38.746  36.578  41.552  1.00  0.00    -0.237 OA
ATOM    109  O   UNL A   1      40.486  38.060  40.611  1.00  0.00    -0.237 OA
ATOM    110  O   UNL A   1      38.149  38.273  39.860  1.00  0.00    -0.744 OA
ENDBRANCH 106 107
ENDBRANCH  74  99
ENDBRANCH  48  49
ENDBRANCH  41  43
ENDBRANCH  40  41
ENDBRANCH  39  40
ENDBRANCH   1  39
TORSDOF 19
ENDMDL
MODEL 2
REMARK VINA RESULT:     -10.2      6.117     13.920
REMARK SMILES CN(C)C(=O)C[NH+]1CCN(c2cc(C(=O)OCCOC(=O)c3ccc(-c4c5nc(c(-c6c(F)cc(S(=O)(=O)[O-])cc6F)c6ccc([nH]6)c(-c6c(F)cc(S(=O)(=O)[O-])cc6F)c6nc(c(-c7c(F)cc(S(=O)(=O)[O-])cc7F)c7ccc4[nH]7)C=C6)C=C5)cc3)c3cc(NC(=O)c4cccc(Cl)c4)ccc3n2)CC1
REMARK SMILES IDX 17 1 16 2 14 3 15 4 13 5 11 6 12 7 104 8 103 9 88 10 102 11
REMARK SMILES IDX 89 12 101 13 90 14 10 15 7 16 8 17 106 18 9 20 105 21 6 22
REMARK SMILES IDX 4 23 1 24 2 25 3 26 5 27 91 28 92 29 93 31 94 32 95 33
REMARK SMILES IDX 100 34 96 35 98 36 97 37 99 38 18 39 19 40 20 41 21 42 22 43
REMARK SMILES IDX 23 44 87 45 24 46 86 47 25 48 26 49 27 50 80 51 28 52 85 53
REMARK SMILES IDX 79 54 81 55 29 56 84 57 78 58 77 59 30 61 64 62 43 63 63 64
REMARK SMILES IDX 44 65 47 66 62 67 82 68 45 69 46 70 61 72 83 73 48 74 31 75
REMARK SMILES IDX 32 76 41 77 33 78 34 79 40 80 42 81 35 82 36 83 37 84 38 85
REMARK SMILES IDX 39 86 65 87 66 88 75 89 67 90 68 91 74 92 76 93 69 94 70 95
REMARK SMILES IDX 71 96 72 97 73 98 49 99 50 100 59 101 51 102 52 103 58 104
REMARK SMILES IDX 60 105 53 106 54 107 55 108 56 109 57 110
REMARK H PARENT 7 19 91 30 81 60 47 71
REMARK Flexibility Score: inf
ROOT
ATOM      1  C   UNL A   1      36.787  32.877  31.385  1.00  0.00     0.275 C 
ENDROOT
BRANCH   1   2
ATOM      2  O   UNL A   1      37.426  33.952  30.657  1.00  0.00    -0.458 OA
BRANCH   2   3
ATOM      3  C   UNL A   1      38.341  33.543  29.746  1.00  0.00     0.339 C 
ATOM      4  O   UNL A   1      38.083  33.021  28.671  1.00  0.00    -0.246 OA
BRANCH   3   5
ATOM      5  C   UNL A   1      39.727  33.942  30.096  1.00  0.00     0.073 A 
ATOM      6  C   UNL A   1      41.603  35.282  29.442  1.00  0.00     0.130 A 
ATOM      7  C   UNL A   1      40.291  34.905  29.252  1.00  0.00     0.063 A 
ATOM      8  N   UNL A   1      42.388  34.649  30.320  1.00  0.00    -0.231 NA
ATOM      9  C   UNL A   1      41.869  33.710  31.109  1.00  0.00     0.074 A 
ATOM     10  C   UNL A   1      40.511  33.344  31.109  1.00  0.00     0.017 A 
ATOM     11  C   UNL A   1      42.749  33.086  31.968  1.00  0.00     0.031 A 
ATOM     12  C   UNL A   1      40.071  32.411  32.086  1.00  0.00     0.037 A 
ATOM     13  C   UNL A   1      42.318  32.113  32.864  1.00  0.00     0.028 A 
ATOM     14  C   UNL A   1      40.968  31.773  32.945  1.00  0.00     0.042 A 
BRANCH   6  15
ATOM     15  N   UNL A   1      42.135  36.392  28.854  1.00  0.00    -0.345 N 
ATOM     16  N   UNL A   1      43.094  38.804  27.534  1.00  0.00    -0.324 N 
ATOM     17  C   UNL A   1      41.949  38.019  27.028  1.00  0.00     0.284 C 
ATOM     18  C   UNL A   1      43.158  38.631  29.005  1.00  0.00     0.284 C 
ATOM     19  H   UNL A   1      42.943  39.783  27.291  1.00  0.00     0.348 HD
ATOM     20  C   UNL A   1      41.982  36.523  27.413  1.00  0.00     0.179 C 
ATOM     21  C   UNL A   1      43.178  37.166  29.512  1.00  0.00     0.179 C 
BRANCH  16  22
ATOM     22  C   UNL A   1      44.384  38.444  26.899  1.00  0.00     0.363 C 
BRANCH  22  23
ATOM     23  C   UNL A   1      44.996  39.632  26.141  1.00  0.00     0.277 C 
ATOM     24  C   UNL A   1      46.859  40.637  24.936  1.00  0.00     0.146 C 
ATOM     25  N   UNL A   1      46.276  39.500  25.619  1.00  0.00    -0.344 N 
ATOM     26  C   UNL A   1      47.135  38.349  25.748  1.00  0.00     0.146 C 
ATOM     27  O   UNL A   1      44.343  40.671  26.005  1.00  0.00    -0.268 OA
ENDBRANCH  22  23
ENDBRANCH  16  22
ENDBRANCH   6  15
BRANCH  14  28
ATOM     28  N   UNL A   1      40.647  30.812  33.918  1.00  0.00    -0.322 N 
ATOM     29  C   UNL A   1      39.898  30.815  35.065  1.00  0.00     0.255 C 
ATOM     30  H   UNL A   1      41.053  29.934  33.732  1.00  0.00     0.170 HD
ATOM     31  O   UNL A   1      39.897  29.820  35.790  1.00  0.00    -0.269 OA
BRANCH  29  32
ATOM     32  C   UNL A   1      39.077  31.955  35.478  1.00  0.00     0.041 A 
ATOM     33  C   UNL A   1      37.788  32.069  34.943  1.00  0.00     0.014 A 
ATOM     34  C   UNL A   1      39.602  32.945  36.311  1.00  0.00     0.034 A 
ATOM     35  C   UNL A   1      37.004  33.175  35.265  1.00  0.00     0.002 A 
ATOM     36  C   UNL A   1      38.808  34.041  36.630  1.00  0.00     0.041 A 
ATOM     37  C   UNL A   1      37.518  34.164  36.104  1.00  0.00     0.020 A 
ATOM     38  Cl  UNL A   1      39.409  35.243  37.703  1.00  0.00    -0.084 Cl
ENDBRANCH  29  32
ENDBRANCH  14  28
ENDBRANCH   3   5
ENDBRANCH   2   3
ENDBRANCH   1   2
BRANCH   1  39
ATOM     39  C   UNL A   1      35.889  32.059  30.448  1.00  0.00     0.275 C 
BRANCH  39  40
ATOM     40  O   UNL A   1      36.209  30.664  30.591  1.00  0.00    -0.458 OA
BRANCH  40  41
ATOM     41  C   UNL A   1      36.340  30.013  29.414  1.00  0.00     0.338 C 
ATOM     42  O   UNL A   1      35.504  29.887  28.534  1.00  0.00    -0.246 OA
BRANCH  41  43
ATOM     43  C   UNL A   1      37.777  29.789  29.213  1.00  0.00     0.060 A 
ATOM     44  C   UNL A   1      38.218  29.725  27.894  1.00  0.00     0.016 A 
ATOM     45  C   UNL A   1      38.675  29.678  30.270  1.00  0.00     0.016 A 
ATOM     46  C   UNL A   1      39.552  29.470  27.616  1.00  0.00     0.010 A 
ATOM     47  C   UNL A   1      40.026  29.459  29.989  1.00  0.00     0.010 A 
ATOM     48  C   UNL A   1      40.469  29.302  28.662  1.00  0.00    -0.014 A 
BRANCH  48  49
ATOM     49  C   UNL A   1      41.853  28.841  28.363  1.00  0.00     0.031 A 
ATOM     50  C   UNL A   1      42.983  29.853  28.370  1.00  0.00     0.074 A 
ATOM     51  C   UNL A   1      42.108  27.525  28.206  1.00  0.00     0.049 A 
ATOM     52  N   UNL A   1      44.265  29.662  28.204  1.00  0.00    -0.248 NA
ATOM     53  C   UNL A   1      42.635  31.254  28.683  1.00  0.00     0.031 C 
ATOM     54  C   UNL A   1      41.102  26.457  28.232  1.00  0.00     0.029 A 
ATOM     55  N   UNL A   1      43.286  26.854  27.990  1.00  0.00    -0.354 N 
ATOM     56  C   UNL A   1      44.871  30.898  28.420  1.00  0.00     0.074 A 
ATOM     57  C   UNL A   1      43.819  31.848  28.688  1.00  0.00     0.031 C 
ATOM     58  C   UNL A   1      41.702  25.275  28.022  1.00  0.00     0.029 A 
ATOM     59  C   UNL A   1      43.121  25.504  27.779  1.00  0.00     0.049 A 
ATOM     60  H   UNL A   1      44.166  27.297  27.986  1.00  0.00     0.167 HD
ATOM     61  C   UNL A   1      46.192  31.201  28.441  1.00  0.00     0.037 A 
ATOM     62  C   UNL A   1      44.001  24.566  27.373  1.00  0.00     0.037 A 
ATOM     63  C   UNL A   1      47.223  30.243  28.145  1.00  0.00     0.049 A 
ATOM     64  C   UNL A   1      45.432  24.980  27.159  1.00  0.00     0.074 A 
ATOM     65  C   UNL A   1      48.590  30.441  28.089  1.00  0.00     0.029 A 
ATOM     66  N   UNL A   1      46.997  28.911  27.824  1.00  0.00    -0.354 N 
ATOM     67  N   UNL A   1      45.987  26.151  27.372  1.00  0.00    -0.248 NA
ATOM     68  C   UNL A   1      46.352  23.959  26.645  1.00  0.00     0.031 C 
ATOM     69  C   UNL A   1      49.181  29.251  27.656  1.00  0.00     0.029 A 
ATOM     70  C   UNL A   1      48.192  28.289  27.507  1.00  0.00     0.049 A 
ATOM     71  H   UNL A   1      46.115  28.472  27.823  1.00  0.00     0.167 HD
ATOM     72  C   UNL A   1      47.330  26.001  27.044  1.00  0.00     0.074 A 
ATOM     73  C   UNL A   1      47.500  24.622  26.625  1.00  0.00     0.031 C 
ATOM     74  C   UNL A   1      48.331  26.915  27.088  1.00  0.00     0.037 A 
BRANCH  61  75
ATOM     75  C   UNL A   1      46.588  32.624  28.747  1.00  0.00     0.058 A 
ATOM     76  C   UNL A   1      46.766  33.090  30.059  1.00  0.00     0.135 A 
ATOM     77  C   UNL A   1      46.821  33.536  27.706  1.00  0.00     0.135 A 
ATOM     78  F   UNL A   1      46.574  32.278  31.103  1.00  0.00    -0.206 F 
ATOM     79  C   UNL A   1      47.121  34.406  30.335  1.00  0.00     0.059 A 
ATOM     80  C   UNL A   1      47.204  34.853  27.955  1.00  0.00     0.059 A 
ATOM     81  F   UNL A   1      46.670  33.151  26.430  1.00  0.00    -0.206 F 
ATOM     82  C   UNL A   1      47.336  35.283  29.275  1.00  0.00     0.060 A 
BRANCH  82  83
ATOM     83  S   UNL A   1      47.783  36.988  29.657  1.00  0.00     0.124 S 
ATOM     84  O   UNL A   1      46.542  37.691  29.343  1.00  0.00    -0.237 OA
ATOM     85  O   UNL A   1      48.123  36.910  31.074  1.00  0.00    -0.237 OA
ATOM     86  O   UNL A   1      48.900  37.256  28.758  1.00  0.00    -0.744 OA
ENDBRANCH  82  83
ENDBRANCH  61  75
BRANCH  62  87
ATOM     87  C   UNL A   1      43.533  23.185  27.058  1.00  0.00     0.058 A 
ATOM     88  C   UNL A   1      43.390  22.730  25.740  1.00  0.00     0.135 A 
ATOM     89  C   UNL A   1      43.222  22.283  28.092  1.00  0.00     0.135 A 
ATOM     90  F   UNL A   1      43.658  23.551  24.714  1.00  0.00    -0.206 F 
ATOM     91  C   UNL A   1      42.953  21.437  25.457  1.00  0.00     0.059 A 
ATOM     92  C   UNL A   1      42.815  20.978  27.835  1.00  0.00     0.059 A 
ATOM     93  F   UNL A   1      43.342  22.662  29.374  1.00  0.00    -0.206 F 
ATOM     94  C   UNL A   1      42.675  20.566  26.512  1.00  0.00     0.060 A 
BRANCH  94  95
ATOM     95  S   UNL A   1      42.163  18.874  26.138  1.00  0.00     0.124 S 
ATOM     96  O   UNL A   1      43.111  18.503  25.094  1.00  0.00    -0.237 OA
ATOM     97  O   UNL A   1      42.338  18.211  27.426  1.00  0.00    -0.237 OA
ATOM     98  O   UNL A   1      40.777  19.030  25.704  1.00  0.00    -0.744 OA
ENDBRANCH  94  95
ENDBRANCH  62  87
BRANCH  74  99
ATOM     99  C   UNL A   1      49.705  26.445  26.700  1.00  0.00     0.058 A 
ATOM    100  C   UNL A   1      50.628  25.996  27.657  1.00  0.00     0.135 A 
ATOM    101  C   UNL A   1      50.081  26.393  25.348  1.00  0.00     0.135 A 
ATOM    102  F   UNL A   1      50.321  26.035  28.963  1.00  0.00    -0.206 F 
ATOM    103  C   UNL A   1      51.885  25.530  27.287  1.00  0.00     0.059 A 
ATOM    104  C   UNL A   1      51.319  25.900  24.953  1.00  0.00     0.059 A 
ATOM    105  F   UNL A   1      49.231  26.803  24.393  1.00  0.00    -0.206 F 
ATOM    106  C   UNL A   1      52.219  25.480  25.933  1.00  0.00     0.060 A 
BRANCH 106 107
ATOM    107  S   UNL A   1      53.836  24.832  25.466  1.00  0.00     0.124 S 
ATOM    108  O   UNL A   1      54.575  24.957  26.719  1.00  0.00    -0.237 OA
ATOM    109  O   UNL A   1      53.517  23.469  25.052  1.00  0.00    -0.237 OA
ATOM    110  O   UNL A   1      54.264  25.724  24.393  1.00  0.00    -0.744 OA
ENDBRANCH 106 107
ENDBRANCH  74  99
ENDBRANCH  48  49
ENDBRANCH  41  43
ENDBRANCH  40  41
ENDBRANCH  39  40
ENDBRANCH   1  39
TORSDOF 19
ENDMDL
MODEL 3
REMARK VINA RESULT:     -10.1      5.749     13.641
REMARK SMILES CN(C)C(=O)C[NH+]1CCN(c2cc(C(=O)OCCOC(=O)c3ccc(-c4c5nc(c(-c6c(F)cc(S(=O)(=O)[O-])cc6F)c6ccc([nH]6)c(-c6c(F)cc(S(=O)(=O)[O-])cc6F)c6nc(c(-c7c(F)cc(S(=O)(=O)[O-])cc7F)c7ccc4[nH]7)C=C6)C=C5)cc3)c3cc(NC(=O)c4cccc(Cl)c4)ccc3n2)CC1
REMARK SMILES IDX 17 1 16 2 14 3 15 4 13 5 11 6 12 7 104 8 103 9 88 10 102 11
REMARK SMILES IDX 89 12 101 13 90 14 10 15 7 16 8 17 106 18 9 20 105 21 6 22
REMARK SMILES IDX 4 23 1 24 2 25 3 26 5 27 91 28 92 29 93 31 94 32 95 33
REMARK SMILES IDX 100 34 96 35 98 36 97 37 99 38 18 39 19 40 20 41 21 42 22 43
REMARK SMILES IDX 23 44 87 45 24 46 86 47 25 48 26 49 27 50 80 51 28 52 85 53
REMARK SMILES IDX 79 54 81 55 29 56 84 57 78 58 77 59 30 61 64 62 43 63 63 64
REMARK SMILES IDX 44 65 47 66 62 67 82 68 45 69 46 70 61 72 83 73 48 74 31 75
REMARK SMILES IDX 32 76 41 77 33 78 34 79 40 80 42 81 35 82 36 83 37 84 38 85
REMARK SMILES IDX 39 86 65 87 66 88 75 89 67 90 68 91 74 92 76 93 69 94 70 95
REMARK SMILES IDX 71 96 72 97 73 98 49 99 50 100 59 101 51 102 52 103 58 104
REMARK SMILES IDX 60 105 53 106 54 107 55 108 56 109 57 110
REMARK H PARENT 7 19 91 30 81 60 47 71
REMARK Flexibility Score: inf
ROOT
ATOM      1  C   UNL A   1      37.190  31.962  34.091  1.00  0.00     0.275 C 
ENDROOT
BRANCH   1   2
ATOM      2  O   UNL A   1      36.779  33.244  34.623  1.00  0.00    -0.458 OA
BRANCH   2   3
ATOM      3  C   UNL A   1      36.865  34.268  33.741  1.00  0.00     0.339 C 
ATOM      4  O   UNL A   1      36.076  35.197  33.658  1.00  0.00    -0.246 OA
BRANCH   3   5
ATOM      5  C   UNL A   1      38.130  34.259  32.963  1.00  0.00     0.073 A 
ATOM      6  C   UNL A   1      40.488  34.671  33.057  1.00  0.00     0.130 A 
ATOM      7  C   UNL A   1      39.276  34.571  33.704  1.00  0.00     0.063 A 
ATOM      8  N   UNL A   1      40.572  34.617  31.724  1.00  0.00    -0.231 NA
ATOM      9  C   UNL A   1      39.483  34.349  31.006  1.00  0.00     0.074 A 
ATOM     10  C   UNL A   1      38.219  34.082  31.564  1.00  0.00     0.017 A 
ATOM     11  C   UNL A   1      39.646  34.336  29.637  1.00  0.00     0.031 A 
ATOM     12  C   UNL A   1      37.171  33.695  30.687  1.00  0.00     0.037 A 
ATOM     13  C   UNL A   1      38.589  34.037  28.785  1.00  0.00     0.028 A 
ATOM     14  C   UNL A   1      37.338  33.696  29.300  1.00  0.00     0.042 A 
BRANCH   6  15
ATOM     15  N   UNL A   1      41.674  34.697  33.731  1.00  0.00    -0.345 N 
ATOM     16  N   UNL A   1      44.171  34.568  35.226  1.00  0.00    -0.324 N 
ATOM     17  C   UNL A   1      42.963  33.813  35.622  1.00  0.00     0.284 C 
ATOM     18  C   UNL A   1      44.140  34.747  33.755  1.00  0.00     0.284 C 
ATOM     19  H   UNL A   1      44.990  34.031  35.508  1.00  0.00     0.348 HD
ATOM     20  C   UNL A   1      41.633  34.453  35.165  1.00  0.00     0.179 C 
ATOM     21  C   UNL A   1      42.842  35.367  33.176  1.00  0.00     0.179 C 
BRANCH  16  22
ATOM     22  C   UNL A   1      44.306  35.871  35.918  1.00  0.00     0.363 C 
BRANCH  22  23
ATOM     23  C   UNL A   1      45.467  35.863  36.924  1.00  0.00     0.277 C 
ATOM     24  C   UNL A   1      47.665  36.646  37.621  1.00  0.00     0.146 C 
ATOM     25  N   UNL A   1      46.560  36.686  36.687  1.00  0.00    -0.344 N 
ATOM     26  C   UNL A   1      46.747  37.544  35.543  1.00  0.00     0.146 C 
ATOM     27  O   UNL A   1      45.406  35.136  37.920  1.00  0.00    -0.268 OA
ENDBRANCH  22  23
ENDBRANCH  16  22
ENDBRANCH   6  15
BRANCH  14  28
ATOM     28  N   UNL A   1      36.362  33.367  28.345  1.00  0.00    -0.322 N 
ATOM     29  C   UNL A   1      35.061  33.735  28.131  1.00  0.00     0.255 C 
ATOM     30  H   UNL A   1      36.690  32.725  27.673  1.00  0.00     0.170 HD
ATOM     31  O   UNL A   1      34.409  33.173  27.250  1.00  0.00    -0.269 OA
BRANCH  29  32
ATOM     32  C   UNL A   1      34.392  34.785  28.902  1.00  0.00     0.041 A 
ATOM     33  C   UNL A   1      34.226  36.040  28.304  1.00  0.00     0.014 A 
ATOM     34  C   UNL A   1      34.013  34.562  30.227  1.00  0.00     0.034 A 
ATOM     35  C   UNL A   1      33.652  37.080  29.032  1.00  0.00     0.002 A 
ATOM     36  C   UNL A   1      33.435  35.607  30.942  1.00  0.00     0.041 A 
ATOM     37  C   UNL A   1      33.263  36.863  30.354  1.00  0.00     0.020 A 
ATOM     38  Cl  UNL A   1      32.904  35.340  32.556  1.00  0.00    -0.084 Cl
ENDBRANCH  29  32
ENDBRANCH  14  28
ENDBRANCH   3   5
ENDBRANCH   2   3
ENDBRANCH   1   2
BRANCH   1  39
ATOM     39  C   UNL A   1      36.196  31.487  33.022  1.00  0.00     0.275 C 
BRANCH  39  40
ATOM     40  O   UNL A   1      36.724  30.315  32.378  1.00  0.00    -0.458 OA
BRANCH  40  41
ATOM     41  C   UNL A   1      36.674  30.367  31.029  1.00  0.00     0.338 C 
ATOM     42  O   UNL A   1      35.755  30.767  30.331  1.00  0.00    -0.246 OA
BRANCH  41  43
ATOM     43  C   UNL A   1      38.050  30.198  30.547  1.00  0.00     0.060 A 
ATOM     44  C   UNL A   1      38.222  30.129  29.167  1.00  0.00     0.016 A 
ATOM     45  C   UNL A   1      39.144  30.140  31.405  1.00  0.00     0.016 A 
ATOM     46  C   UNL A   1      39.484  29.923  28.631  1.00  0.00     0.010 A 
ATOM     47  C   UNL A   1      40.421  29.971  30.861  1.00  0.00     0.010 A 
ATOM     48  C   UNL A   1      40.597  29.810  29.475  1.00  0.00    -0.014 A 
BRANCH  48  49
ATOM     49  C   UNL A   1      41.912  29.401  28.909  1.00  0.00     0.031 A 
ATOM     50  C   UNL A   1      42.998  30.445  28.742  1.00  0.00     0.074 A 
ATOM     51  C   UNL A   1      42.166  28.098  28.662  1.00  0.00     0.049 A 
ATOM     52  N   UNL A   1      44.232  30.298  28.335  1.00  0.00    -0.248 NA
ATOM     53  C   UNL A   1      42.681  31.826  29.163  1.00  0.00     0.031 C 
ATOM     54  C   UNL A   1      41.208  26.999  28.837  1.00  0.00     0.029 A 
ATOM     55  N   UNL A   1      43.299  27.470  28.210  1.00  0.00    -0.354 N 
ATOM     56  C   UNL A   1      44.838  31.545  28.478  1.00  0.00     0.074 A 
ATOM     57  C   UNL A   1      43.831  32.455  28.969  1.00  0.00     0.031 C 
ATOM     58  C   UNL A   1      41.788  25.843  28.478  1.00  0.00     0.029 A 
ATOM     59  C   UNL A   1      43.131  26.122  27.986  1.00  0.00     0.049 A 
ATOM     60  H   UNL A   1      44.152  27.939  28.058  1.00  0.00     0.167 HD
ATOM     61  C   UNL A   1      46.131  31.887  28.265  1.00  0.00     0.037 A 
ATOM     62  C   UNL A   1      43.943  25.223  27.392  1.00  0.00     0.037 A 
ATOM     63  C   UNL A   1      47.113  30.971  27.752  1.00  0.00     0.049 A 
ATOM     64  C   UNL A   1      45.298  25.687  26.932  1.00  0.00     0.074 A 
ATOM     65  C   UNL A   1      48.440  31.212  27.451  1.00  0.00     0.029 A 
ATOM     66  N   UNL A   1      46.863  29.642  27.432  1.00  0.00    -0.354 N 
ATOM     67  N   UNL A   1      45.855  26.867  27.079  1.00  0.00    -0.248 NA
ATOM     68  C   UNL A   1      46.132  24.710  26.222  1.00  0.00     0.031 C 
ATOM     69  C   UNL A   1      48.970  30.053  26.875  1.00  0.00     0.029 A 
ATOM     70  C   UNL A   1      47.994  29.067  26.878  1.00  0.00     0.049 A 
ATOM     71  H   UNL A   1      46.008  29.177  27.578  1.00  0.00     0.167 HD
ATOM     72  C   UNL A   1      47.116  26.768  26.504  1.00  0.00     0.074 A 
ATOM     73  C   UNL A   1      47.240  25.408  26.013  1.00  0.00     0.031 C 
ATOM     74  C   UNL A   1      48.086  27.710  26.394  1.00  0.00     0.037 A 
BRANCH  61  75
ATOM     75  C   UNL A   1      46.543  33.312  28.542  1.00  0.00     0.058 A 
ATOM     76  C   UNL A   1      46.462  34.321  27.569  1.00  0.00     0.135 A 
ATOM     77  C   UNL A   1      47.003  33.685  29.814  1.00  0.00     0.135 A 
ATOM     78  F   UNL A   1      46.023  34.046  26.337  1.00  0.00    -0.206 F 
ATOM     79  C   UNL A   1      46.853  35.630  27.827  1.00  0.00     0.059 A 
ATOM     80  C   UNL A   1      47.376  34.996  30.106  1.00  0.00     0.059 A 
ATOM     81  F   UNL A   1      47.100  32.767  30.788  1.00  0.00    -0.206 F 
ATOM     82  C   UNL A   1      47.312  35.959  29.100  1.00  0.00     0.060 A 
BRANCH  82  83
ATOM     83  S   UNL A   1      47.825  37.660  29.407  1.00  0.00     0.124 S 
ATOM     84  O   UNL A   1      47.232  37.910  30.718  1.00  0.00    -0.237 OA
ATOM     85  O   UNL A   1      49.280  37.556  29.382  1.00  0.00    -0.237 OA
ATOM     86  O   UNL A   1      47.230  38.401  28.299  1.00  0.00    -0.744 OA
ENDBRANCH  82  83
ENDBRANCH  61  75
BRANCH  62  87
ATOM     87  C   UNL A   1      43.458  23.839  27.121  1.00  0.00     0.058 A 
ATOM     88  C   UNL A   1      43.420  22.855  28.118  1.00  0.00     0.135 A 
ATOM     89  C   UNL A   1      43.012  23.477  25.836  1.00  0.00     0.135 A 
ATOM     90  F   UNL A   1      43.846  23.138  29.357  1.00  0.00    -0.206 F 
ATOM     91  C   UNL A   1      42.964  21.564  27.854  1.00  0.00     0.059 A 
ATOM     92  C   UNL A   1      42.524  22.206  25.556  1.00  0.00     0.059 A 
ATOM     93  F   UNL A   1      43.024  24.378  24.842  1.00  0.00    -0.206 F 
ATOM     94  C   UNL A   1      42.511  21.252  26.570  1.00  0.00     0.060 A 
BRANCH  94  95
ATOM     95  S   UNL A   1      41.869  19.593  26.249  1.00  0.00     0.124 S 
ATOM     96  O   UNL A   1      42.285  18.879  27.450  1.00  0.00    -0.237 OA
ATOM     97  O   UNL A   1      40.437  19.842  26.117  1.00  0.00    -0.237 OA
ATOM     98  O   UNL A   1      42.547  19.203  25.016  1.00  0.00    -0.744 OA
ENDBRANCH  94  95
ENDBRANCH  62  87
BRANCH  74  99
ATOM     99  C   UNL A   1      49.375  27.294  25.742  1.00  0.00     0.058 A 
ATOM    100  C   UNL A   1      49.569  27.406  24.356  1.00  0.00     0.135 A 
ATOM    101  C   UNL A   1      50.447  26.830  26.522  1.00  0.00     0.135 A 
ATOM    102  F   UNL A   1      48.573  27.833  23.566  1.00  0.00    -0.206 F 
ATOM    103  C   UNL A   1      50.777  27.050  23.765  1.00  0.00     0.059 A 
ATOM    104  C   UNL A   1      51.673  26.502  25.956  1.00  0.00     0.059 A 
ATOM    105  F   UNL A   1      50.314  26.714  27.853  1.00  0.00    -0.206 F 
ATOM    106  C   UNL A   1      51.825  26.606  24.573  1.00  0.00     0.060 A 
BRANCH 106 107
ATOM    107  S   UNL A   1      53.398  26.192  23.795  1.00  0.00     0.124 S 
ATOM    108  O   UNL A   1      53.797  25.009  24.551  1.00  0.00    -0.237 OA
ATOM    109  O   UNL A   1      53.007  25.957  22.409  1.00  0.00    -0.237 OA
ATOM    110  O   UNL A   1      54.212  27.383  24.018  1.00  0.00    -0.744 OA
ENDBRANCH 106 107
ENDBRANCH  74  99
ENDBRANCH  48  49
ENDBRANCH  41  43
ENDBRANCH  40  41
ENDBRANCH  39  40
ENDBRANCH   1  39
TORSDOF 19
ENDMDL
