MODEL 1
REMARK VINA RESULT:     -11.8      0.000      0.000
REMARK SMILES CC1CCN(C(=O)Nc2nccnc2C(=O)OCCOC(=O)c2ccc(-c3c4nc(c(-c5c(F)cc(S(=O)(=O)[O-])cc5F)c5ccc([nH]5)c(-c5c(F)cc(S(=O)(=O)[O-])cc5F)c5nc(c(-c6c(F)cc(S(=O)(=O)[O-])cc6F)c6ccc3[nH]6)C=C5)C=C4)cc2)CC1
REMARK SMILES IDX 19 1 18 2 17 3 15 4 16 5 14 6 9 7 10 8 11 9 13 10 12 11 8 12
REMARK SMILES IDX 1 13 2 14 3 15 90 16 4 17 89 18 5 19 6 20 7 21 20 23 21 24
REMARK SMILES IDX 22 25 23 26 24 27 88 28 25 29 87 30 26 31 27 32 28 33 81 34
REMARK SMILES IDX 29 35 86 36 80 37 82 38 30 39 85 40 79 41 78 42 31 44 65 45
REMARK SMILES IDX 44 46 64 47 45 48 48 49 63 50 83 51 46 52 47 53 62 55 84 56
REMARK SMILES IDX 49 57 32 58 33 59 42 60 34 61 35 62 41 63 43 64 36 65 37 66
REMARK SMILES IDX 38 67 39 68 40 69 66 70 67 71 76 72 68 73 69 74 75 75 77 76
REMARK SMILES IDX 70 77 71 78 72 79 73 80 74 81 50 82 51 83 60 84 52 85 53 86
REMARK SMILES IDX 59 87 61 88 54 89 55 90 56 91 57 92 58 93
REMARK H PARENT 8 22 82 43 48 54
REMARK Flexibility Score: inf
ROOT
ATOM      1  C   UNL A   1      34.795  30.845  28.028  1.00  0.00     0.275 C 
ENDROOT
BRANCH   1   2
ATOM      2  C   UNL A   1      33.400  30.552  27.462  1.00  0.00     0.275 C 
BRANCH   2   3
ATOM      3  O   UNL A   1      33.374  29.331  26.691  1.00  0.00    -0.457 OA
BRANCH   3   4
ATOM      4  C   UNL A   1      32.274  28.545  26.857  1.00  0.00     0.360 C 
ATOM      5  O   UNL A   1      31.804  28.250  27.942  1.00  0.00    -0.244 OA
BRANCH   4   6
ATOM      6  C   UNL A   1      31.662  28.117  25.552  1.00  0.00     0.191 A 
ATOM      7  C   UNL A   1      31.045  26.879  25.307  1.00  0.00     0.167 A 
ATOM      8  N   UNL A   1      30.498  26.629  24.090  1.00  0.00    -0.235 NA
ATOM      9  C   UNL A   1      30.676  27.556  23.118  1.00  0.00     0.133 A 
ATOM     10  N   UNL A   1      31.809  29.059  24.564  1.00  0.00    -0.244 NA
ATOM     11  C   UNL A   1      31.332  28.743  23.346  1.00  0.00     0.132 A 
BRANCH   7  12
ATOM     12  N   UNL A   1      30.940  25.904  26.308  1.00  0.00    -0.290 N 
ATOM     13  C   UNL A   1      35.346  22.959  23.125  1.00  0.00     0.008 C 
ATOM     14  C   UNL A   1      34.972  23.506  24.503  1.00  0.00    -0.011 C 
ATOM     15  C   UNL A   1      33.985  22.555  25.204  1.00  0.00     0.025 C 
ATOM     16  C   UNL A   1      34.387  24.924  24.382  1.00  0.00     0.025 C 
ATOM     17  C   UNL A   1      33.413  23.152  26.488  1.00  0.00     0.121 C 
ATOM     18  C   UNL A   1      33.873  25.415  25.736  1.00  0.00     0.121 C 
ATOM     19  N   UNL A   1      32.865  24.482  26.233  1.00  0.00    -0.324 N 
ATOM     20  C   UNL A   1      31.568  24.743  26.578  1.00  0.00     0.323 C 
ATOM     21  O   UNL A   1      30.911  23.935  27.251  1.00  0.00    -0.248 OA
ATOM     22  H   UNL A   1      30.241  26.118  26.970  1.00  0.00     0.173 HD
ENDBRANCH   7  12
ENDBRANCH   4   6
ENDBRANCH   3   4
ENDBRANCH   2   3
ENDBRANCH   1   2
BRANCH   1  23
ATOM     23  O   UNL A   1      35.454  29.661  28.518  1.00  0.00    -0.458 OA
BRANCH  23  24
ATOM     24  C   UNL A   1      36.202  29.852  29.630  1.00  0.00     0.338 C 
ATOM     25  O   UNL A   1      35.784  29.986  30.771  1.00  0.00    -0.246 OA
BRANCH  24  26
ATOM     26  C   UNL A   1      37.640  29.725  29.331  1.00  0.00     0.060 A 
ATOM     27  C   UNL A   1      37.999  29.704  27.981  1.00  0.00     0.016 A 
ATOM     28  C   UNL A   1      38.608  29.528  30.319  1.00  0.00     0.016 A 
ATOM     29  C   UNL A   1      39.314  29.458  27.607  1.00  0.00     0.010 A 
ATOM     30  C   UNL A   1      39.938  29.285  29.939  1.00  0.00     0.010 A 
ATOM     31  C   UNL A   1      40.294  29.224  28.579  1.00  0.00    -0.014 A 
BRANCH  31  32
ATOM     32  C   UNL A   1      41.653  28.831  28.127  1.00  0.00     0.031 A 
ATOM     33  C   UNL A   1      42.773  29.834  28.161  1.00  0.00     0.074 A 
ATOM     34  C   UNL A   1      41.908  27.551  27.793  1.00  0.00     0.049 A 
ATOM     35  N   UNL A   1      44.039  29.674  27.869  1.00  0.00    -0.248 NA
ATOM     36  C   UNL A   1      42.423  31.199  28.583  1.00  0.00     0.031 C 
ATOM     37  C   UNL A   1      40.918  26.474  27.773  1.00  0.00     0.029 A 
ATOM     38  N   UNL A   1      43.081  26.933  27.439  1.00  0.00    -0.354 N 
ATOM     39  C   UNL A   1      44.632  30.919  28.048  1.00  0.00     0.074 A 
ATOM     40  C   UNL A   1      43.582  31.829  28.455  1.00  0.00     0.031 C 
ATOM     41  C   UNL A   1      41.532  25.321  27.461  1.00  0.00     0.029 A 
ATOM     42  C   UNL A   1      42.949  25.584  27.219  1.00  0.00     0.049 A 
ATOM     43  H   UNL A   1      43.937  27.412  27.350  1.00  0.00     0.167 HD
ATOM     44  C   UNL A   1      45.932  31.271  27.893  1.00  0.00     0.037 A 
ATOM     45  C   UNL A   1      43.863  24.661  26.862  1.00  0.00     0.037 A 
ATOM     46  C   UNL A   1      46.978  30.360  27.507  1.00  0.00     0.049 A 
ATOM     47  C   UNL A   1      45.295  25.081  26.665  1.00  0.00     0.074 A 
ATOM     48  C   UNL A   1      48.326  30.619  27.328  1.00  0.00     0.029 A 
ATOM     49  N   UNL A   1      46.794  29.010  27.241  1.00  0.00    -0.354 N 
ATOM     50  N   UNL A   1      45.837  26.265  26.825  1.00  0.00    -0.248 NA
ATOM     51  C   UNL A   1      46.238  24.039  26.238  1.00  0.00     0.031 C 
ATOM     52  C   UNL A   1      48.950  29.434  26.917  1.00  0.00     0.029 A 
ATOM     53  C   UNL A   1      48.000  28.426  26.886  1.00  0.00     0.049 A 
ATOM     54  H   UNL A   1      45.934  28.536  27.296  1.00  0.00     0.167 HD
ATOM     55  C   UNL A   1      47.189  26.105  26.542  1.00  0.00     0.074 A 
ATOM     56  C   UNL A   1      47.383  24.708  26.210  1.00  0.00     0.031 C 
ATOM     57  C   UNL A   1      48.180  27.032  26.559  1.00  0.00     0.037 A 
BRANCH  44  58
ATOM     58  C   UNL A   1      46.277  32.721  28.098  1.00  0.00     0.058 A 
ATOM     59  C   UNL A   1      46.166  33.668  27.066  1.00  0.00     0.135 A 
ATOM     60  C   UNL A   1      46.748  33.166  29.344  1.00  0.00     0.135 A 
ATOM     61  F   UNL A   1      45.735  33.294  25.850  1.00  0.00    -0.206 F 
ATOM     62  C   UNL A   1      46.556  34.991  27.248  1.00  0.00     0.059 A 
ATOM     63  C   UNL A   1      47.119  34.491  29.556  1.00  0.00     0.059 A 
ATOM     64  F   UNL A   1      46.870  32.306  30.367  1.00  0.00    -0.206 F 
ATOM     65  C   UNL A   1      47.044  35.390  28.493  1.00  0.00     0.060 A 
BRANCH  65  66
ATOM     66  S   UNL A   1      47.595  37.096  28.704  1.00  0.00     0.124 S 
ATOM     67  O   UNL A   1      48.338  37.315  27.466  1.00  0.00    -0.237 OA
ATOM     68  O   UNL A   1      46.336  37.823  28.823  1.00  0.00    -0.237 OA
ATOM     69  O   UNL A   1      48.403  37.044  29.919  1.00  0.00    -0.744 OA
ENDBRANCH  65  66
ENDBRANCH  44  58
BRANCH  45  70
ATOM     70  C   UNL A   1      43.451  23.243  26.685  1.00  0.00     0.058 A 
ATOM     71  C   UNL A   1      43.360  22.670  25.409  1.00  0.00     0.135 A 
ATOM     72  C   UNL A   1      43.171  22.426  27.792  1.00  0.00     0.135 A 
ATOM     73  F   UNL A   1      43.606  23.414  24.320  1.00  0.00    -0.206 F 
ATOM     74  C   UNL A   1      43.005  21.337  25.234  1.00  0.00     0.059 A 
ATOM     75  C   UNL A   1      42.838  21.084  27.644  1.00  0.00     0.059 A 
ATOM     76  F   UNL A   1      43.252  22.926  29.035  1.00  0.00    -0.206 F 
ATOM     77  C   UNL A   1      42.754  20.549  26.359  1.00  0.00     0.060 A 
BRANCH  77  78
ATOM     78  S   UNL A   1      42.370  18.800  26.125  1.00  0.00     0.124 S 
ATOM     79  O   UNL A   1      43.301  18.434  25.064  1.00  0.00    -0.237 OA
ATOM     80  O   UNL A   1      42.654  18.244  27.444  1.00  0.00    -0.237 OA
ATOM     81  O   UNL A   1      40.959  18.813  25.751  1.00  0.00    -0.744 OA
ENDBRANCH  77  78
ENDBRANCH  45  70
BRANCH  57  82
ATOM     82  C   UNL A   1      49.571  26.554  26.248  1.00  0.00     0.058 A 
ATOM     83  C   UNL A   1      50.150  26.729  24.981  1.00  0.00     0.135 A 
ATOM     84  C   UNL A   1      50.344  25.929  27.240  1.00  0.00     0.135 A 
ATOM     85  F   UNL A   1      49.452  27.316  23.996  1.00  0.00    -0.206 F 
ATOM     86  C   UNL A   1      51.432  26.270  24.697  1.00  0.00     0.059 A 
ATOM     87  C   UNL A   1      51.638  25.484  26.986  1.00  0.00     0.059 A 
ATOM     88  F   UNL A   1      49.844  25.747  28.472  1.00  0.00    -0.206 F 
ATOM     89  C   UNL A   1      52.168  25.643  25.706  1.00  0.00     0.060 A 
BRANCH  89  90
ATOM     90  S   UNL A   1      53.833  25.055  25.332  1.00  0.00     0.124 S 
ATOM     91  O   UNL A   1      54.602  25.638  26.427  1.00  0.00    -0.237 OA
ATOM     92  O   UNL A   1      53.671  23.605  25.373  1.00  0.00    -0.237 OA
ATOM     93  O   UNL A   1      54.099  25.612  24.009  1.00  0.00    -0.744 OA
ENDBRANCH  89  90
ENDBRANCH  57  82
ENDBRANCH  31  32
ENDBRANCH  24  26
ENDBRANCH  23  24
ENDBRANCH   1  23
TORSDOF 15
ENDMDL
MODEL 2
REMARK VINA RESULT:     -11.7      7.050     12.430
REMARK SMILES CC1CCN(C(=O)Nc2nccnc2C(=O)OCCOC(=O)c2ccc(-c3c4nc(c(-c5c(F)cc(S(=O)(=O)[O-])cc5F)c5ccc([nH]5)c(-c5c(F)cc(S(=O)(=O)[O-])cc5F)c5nc(c(-c6c(F)cc(S(=O)(=O)[O-])cc6F)c6ccc3[nH]6)C=C5)C=C4)cc2)CC1
REMARK SMILES IDX 19 1 18 2 17 3 15 4 16 5 14 6 9 7 10 8 11 9 13 10 12 11 8 12
REMARK SMILES IDX 1 13 2 14 3 15 90 16 4 17 89 18 5 19 6 20 7 21 20 23 21 24
REMARK SMILES IDX 22 25 23 26 24 27 88 28 25 29 87 30 26 31 27 32 28 33 81 34
REMARK SMILES IDX 29 35 86 36 80 37 82 38 30 39 85 40 79 41 78 42 31 44 65 45
REMARK SMILES IDX 44 46 64 47 45 48 48 49 63 50 83 51 46 52 47 53 62 55 84 56
REMARK SMILES IDX 49 57 32 58 33 59 42 60 34 61 35 62 41 63 43 64 36 65 37 66
REMARK SMILES IDX 38 67 39 68 40 69 66 70 67 71 76 72 68 73 69 74 75 75 77 76
REMARK SMILES IDX 70 77 71 78 72 79 73 80 74 81 50 82 51 83 60 84 52 85 53 86
REMARK SMILES IDX 59 87 61 88 54 89 55 90 56 91 57 92 58 93
REMARK H PARENT 8 22 82 43 48 54
REMARK Flexibility Score: inf
ROOT
ATOM      1  C   UNL A   1      39.399  22.855  25.981  1.00  0.00     0.275 C 
ENDROOT
BRANCH   1   2
ATOM      2  C   UNL A   1      38.109  22.050  25.785  1.00  0.00     0.275 C 
BRANCH   2   3
ATOM      3  O   UNL A   1      36.990  22.896  25.443  1.00  0.00    -0.457 OA
BRANCH   3   4
ATOM      4  C   UNL A   1      36.360  22.604  24.270  1.00  0.00     0.360 C 
ATOM      5  O   UNL A   1      36.906  22.619  23.180  1.00  0.00    -0.244 OA
BRANCH   4   6
ATOM      6  C   UNL A   1      34.923  22.208  24.464  1.00  0.00     0.191 A 
ATOM      7  C   UNL A   1      33.828  22.735  23.759  1.00  0.00     0.167 A 
ATOM      8  N   UNL A   1      32.579  22.264  24.007  1.00  0.00    -0.235 NA
ATOM      9  C   UNL A   1      32.430  21.376  25.019  1.00  0.00     0.133 A 
ATOM     10  N   UNL A   1      34.759  21.286  25.469  1.00  0.00    -0.244 NA
ATOM     11  C   UNL A   1      33.498  20.906  25.746  1.00  0.00     0.132 A 
BRANCH   7  12
ATOM     12  N   UNL A   1      33.999  23.710  22.767  1.00  0.00    -0.290 N 
ATOM     13  C   UNL A   1      31.514  27.564  26.914  1.00  0.00     0.008 C 
ATOM     14  C   UNL A   1      32.723  27.336  26.006  1.00  0.00    -0.011 C 
ATOM     15  C   UNL A   1      32.371  27.695  24.551  1.00  0.00     0.025 C 
ATOM     16  C   UNL A   1      33.218  25.883  26.117  1.00  0.00     0.025 C 
ATOM     17  C   UNL A   1      33.468  27.288  23.569  1.00  0.00     0.121 C 
ATOM     18  C   UNL A   1      34.328  25.612  25.101  1.00  0.00     0.121 C 
ATOM     19  N   UNL A   1      33.826  25.883  23.757  1.00  0.00    -0.324 N 
ATOM     20  C   UNL A   1      33.774  25.036  22.686  1.00  0.00     0.323 C 
ATOM     21  O   UNL A   1      33.598  25.468  21.537  1.00  0.00    -0.248 OA
ATOM     22  H   UNL A   1      34.369  23.338  21.933  1.00  0.00     0.173 HD
ENDBRANCH   7  12
ENDBRANCH   4   6
ENDBRANCH   3   4
ENDBRANCH   2   3
ENDBRANCH   1   2
BRANCH   1  23
ATOM     23  O   UNL A   1      39.166  24.133  26.604  1.00  0.00    -0.458 OA
BRANCH  23  24
ATOM     24  C   UNL A   1      40.169  25.029  26.446  1.00  0.00     0.338 C 
ATOM     25  O   UNL A   1      40.816  25.220  25.427  1.00  0.00    -0.246 OA
BRANCH  24  26
ATOM     26  C   UNL A   1      40.303  25.890  27.635  1.00  0.00     0.060 A 
ATOM     27  C   UNL A   1      39.361  25.708  28.650  1.00  0.00     0.016 A 
ATOM     28  C   UNL A   1      41.246  26.917  27.728  1.00  0.00     0.016 A 
ATOM     29  C   UNL A   1      39.333  26.561  29.746  1.00  0.00     0.010 A 
ATOM     30  C   UNL A   1      41.220  27.776  28.839  1.00  0.00     0.010 A 
ATOM     31  C   UNL A   1      40.246  27.617  29.842  1.00  0.00    -0.014 A 
BRANCH  31  32
ATOM     32  C   UNL A   1      40.090  28.582  30.961  1.00  0.00     0.031 A 
ATOM     33  C   UNL A   1      41.033  28.532  32.132  1.00  0.00     0.074 A 
ATOM     34  C   UNL A   1      39.177  29.569  30.875  1.00  0.00     0.049 A 
ATOM     35  N   UNL A   1      41.103  29.320  33.174  1.00  0.00    -0.248 NA
ATOM     36  C   UNL A   1      42.031  27.452  32.127  1.00  0.00     0.031 C 
ATOM     37  C   UNL A   1      38.242  29.756  29.766  1.00  0.00     0.029 A 
ATOM     38  N   UNL A   1      38.909  30.618  31.719  1.00  0.00    -0.354 N 
ATOM     39  C   UNL A   1      42.135  28.820  33.961  1.00  0.00     0.074 A 
ATOM     40  C   UNL A   1      42.648  27.648  33.284  1.00  0.00     0.031 C 
ATOM     41  C   UNL A   1      37.529  30.873  29.979  1.00  0.00     0.029 A 
ATOM     42  C   UNL A   1      37.925  31.459  31.258  1.00  0.00     0.049 A 
ATOM     43  H   UNL A   1      39.377  30.754  32.575  1.00  0.00     0.167 HD
ATOM     44  C   UNL A   1      42.614  29.296  35.136  1.00  0.00     0.037 A 
ATOM     45  C   UNL A   1      37.401  32.574  31.802  1.00  0.00     0.037 A 
ATOM     46  C   UNL A   1      42.115  30.474  35.798  1.00  0.00     0.049 A 
ATOM     47  C   UNL A   1      37.928  33.066  33.123  1.00  0.00     0.074 A 
ATOM     48  C   UNL A   1      42.536  31.040  36.989  1.00  0.00     0.029 A 
ATOM     49  N   UNL A   1      41.080  31.270  35.325  1.00  0.00    -0.354 N 
ATOM     50  N   UNL A   1      38.894  32.575  33.861  1.00  0.00    -0.248 NA
ATOM     51  C   UNL A   1      37.290  34.265  33.684  1.00  0.00     0.031 C 
ATOM     52  C   UNL A   1      41.733  32.156  37.254  1.00  0.00     0.029 A 
ATOM     53  C   UNL A   1      40.841  32.313  36.206  1.00  0.00     0.049 A 
ATOM     54  H   UNL A   1      40.588  31.116  34.487  1.00  0.00     0.167 HD
ATOM     55  C   UNL A   1      38.998  33.418  34.962  1.00  0.00     0.074 A 
ATOM     56  C   UNL A   1      38.001  34.455  34.788  1.00  0.00     0.031 C 
ATOM     57  C   UNL A   1      39.845  33.340  36.020  1.00  0.00     0.037 A 
BRANCH  44  58
ATOM     58  C   UNL A   1      43.709  28.505  35.799  1.00  0.00     0.058 A 
ATOM     59  C   UNL A   1      45.068  28.763  35.555  1.00  0.00     0.135 A 
ATOM     60  C   UNL A   1      43.391  27.456  36.677  1.00  0.00     0.135 A 
ATOM     61  F   UNL A   1      45.429  29.744  34.713  1.00  0.00    -0.206 F 
ATOM     62  C   UNL A   1      46.069  27.978  36.119  1.00  0.00     0.059 A 
ATOM     63  C   UNL A   1      44.377  26.675  37.272  1.00  0.00     0.059 A 
ATOM     64  F   UNL A   1      42.108  27.168  36.950  1.00  0.00    -0.206 F 
ATOM     65  C   UNL A   1      45.713  26.928  36.966  1.00  0.00     0.060 A 
BRANCH  65  66
ATOM     66  S   UNL A   1      47.016  25.883  37.651  1.00  0.00     0.124 S 
ATOM     67  O   UNL A   1      47.700  26.820  38.539  1.00  0.00    -0.237 OA
ATOM     68  O   UNL A   1      46.259  24.824  38.311  1.00  0.00    -0.237 OA
ATOM     69  O   UNL A   1      47.773  25.469  36.474  1.00  0.00    -0.744 OA
ENDBRANCH  65  66
ENDBRANCH  44  58
BRANCH  45  70
ATOM     70  C   UNL A   1      36.327  33.310  31.085  1.00  0.00     0.058 A 
ATOM     71  C   UNL A   1      35.004  33.290  31.547  1.00  0.00     0.135 A 
ATOM     72  C   UNL A   1      36.609  34.073  29.940  1.00  0.00     0.135 A 
ATOM     73  F   UNL A   1      34.682  32.566  32.630  1.00  0.00    -0.206 F 
ATOM     74  C   UNL A   1      33.996  34.000  30.902  1.00  0.00     0.059 A 
ATOM     75  C   UNL A   1      35.624  34.810  29.292  1.00  0.00     0.059 A 
ATOM     76  F   UNL A   1      37.862  34.130  29.463  1.00  0.00    -0.206 F 
ATOM     77  C   UNL A   1      34.318  34.764  29.779  1.00  0.00     0.060 A 
BRANCH  77  78
ATOM     78  S   UNL A   1      33.020  35.743  28.994  1.00  0.00     0.124 S 
ATOM     79  O   UNL A   1      33.795  36.790  28.339  1.00  0.00    -0.237 OA
ATOM     80  O   UNL A   1      32.391  34.767  28.110  1.00  0.00    -0.237 OA
ATOM     81  O   UNL A   1      32.198  36.175  30.120  1.00  0.00    -0.744 OA
ENDBRANCH  77  78
ENDBRANCH  45  70
BRANCH  57  82
ATOM     82  C   UNL A   1      39.756  34.431  37.051  1.00  0.00     0.058 A 
ATOM     83  C   UNL A   1      39.003  34.282  38.226  1.00  0.00     0.135 A 
ATOM     84  C   UNL A   1      40.451  35.638  36.867  1.00  0.00     0.135 A 
ATOM     85  F   UNL A   1      38.316  33.150  38.447  1.00  0.00    -0.206 F 
ATOM     86  C   UNL A   1      38.914  35.302  39.167  1.00  0.00     0.059 A 
ATOM     87  C   UNL A   1      40.396  36.662  37.807  1.00  0.00     0.059 A 
ATOM     88  F   UNL A   1      41.196  35.829  35.767  1.00  0.00    -0.206 F 
ATOM     89  C   UNL A   1      39.611  36.493  38.947  1.00  0.00     0.060 A 
BRANCH  89  90
ATOM     90  S   UNL A   1      39.495  37.810  40.175  1.00  0.00     0.124 S 
ATOM     91  O   UNL A   1      38.388  38.603  39.650  1.00  0.00    -0.237 OA
ATOM     92  O   UNL A   1      39.220  37.072  41.404  1.00  0.00    -0.237 OA
ATOM     93  O   UNL A   1      40.808  38.446  40.114  1.00  0.00    -0.744 OA
ENDBRANCH  89  90
ENDBRANCH  57  82
ENDBRANCH  31  32
ENDBRANCH  24  26
ENDBRANCH  23  24
ENDBRANCH   1  23
TORSDOF 15
ENDMDL
MODEL 3
REMARK VINA RESULT:     -11.5      2.375      8.687
REMARK SMILES CC1CCN(C(=O)Nc2nccnc2C(=O)OCCOC(=O)c2ccc(-c3c4nc(c(-c5c(F)cc(S(=O)(=O)[O-])cc5F)c5ccc([nH]5)c(-c5c(F)cc(S(=O)(=O)[O-])cc5F)c5nc(c(-c6c(F)cc(S(=O)(=O)[O-])cc6F)c6ccc3[nH]6)C=C5)C=C4)cc2)CC1
REMARK SMILES IDX 19 1 18 2 17 3 15 4 16 5 14 6 9 7 10 8 11 9 13 10 12 11 8 12
REMARK SMILES IDX 1 13 2 14 3 15 90 16 4 17 89 18 5 19 6 20 7 21 20 23 21 24
REMARK SMILES IDX 22 25 23 26 24 27 88 28 25 29 87 30 26 31 27 32 28 33 81 34
REMARK SMILES IDX 29 35 86 36 80 37 82 38 30 39 85 40 79 41 78 42 31 44 65 45
REMARK SMILES IDX 44 46 64 47 45 48 48 49 63 50 83 51 46 52 47 53 62 55 84 56
REMARK SMILES IDX 49 57 32 58 33 59 42 60 34 61 35 62 41 63 43 64 36 65 37 66
REMARK SMILES IDX 38 67 39 68 40 69 66 70 67 71 76 72 68 73 69 74 75 75 77 76
REMARK SMILES IDX 70 77 71 78 72 79 73 80 74 81 50 82 51 83 60 84 52 85 53 86
REMARK SMILES IDX 59 87 61 88 54 89 55 90 56 91 57 92 58 93
REMARK H PARENT 8 22 82 43 48 54
REMARK Flexibility Score: inf
ROOT
ATOM      1  C   UNL A   1      33.511  29.970  26.540  1.00  0.00     0.275 C 
ENDROOT
BRANCH   1   2
ATOM      2  C   UNL A   1      31.979  29.965  26.626  1.00  0.00     0.275 C 
BRANCH   2   3
ATOM      3  O   UNL A   1      31.387  29.059  25.670  1.00  0.00    -0.457 OA
BRANCH   3   4
ATOM      4  C   UNL A   1      31.389  27.742  26.018  1.00  0.00     0.360 C 
ATOM      5  O   UNL A   1      31.377  27.340  27.169  1.00  0.00    -0.244 OA
BRANCH   4   6
ATOM      6  C   UNL A   1      31.355  26.824  24.828  1.00  0.00     0.191 A 
ATOM      7  C   UNL A   1      31.389  25.420  24.877  1.00  0.00     0.167 A 
ATOM      8  N   UNL A   1      31.317  24.705  23.725  1.00  0.00    -0.235 NA
ATOM      9  C   UNL A   1      31.331  25.390  22.557  1.00  0.00     0.133 A 
ATOM     10  N   UNL A   1      31.341  27.505  23.635  1.00  0.00    -0.244 NA
ATOM     11  C   UNL A   1      31.357  26.764  22.512  1.00  0.00     0.132 A 
BRANCH   7  12
ATOM     12  N   UNL A   1      31.451  24.734  26.097  1.00  0.00    -0.290 N 
ATOM     13  C   UNL A   1      36.689  22.343  23.846  1.00  0.00     0.008 C 
ATOM     14  C   UNL A   1      36.083  23.099  25.028  1.00  0.00    -0.011 C 
ATOM     15  C   UNL A   1      35.311  22.130  25.942  1.00  0.00     0.025 C 
ATOM     16  C   UNL A   1      35.174  24.239  24.534  1.00  0.00     0.025 C 
ATOM     17  C   UNL A   1      34.509  22.857  27.019  1.00  0.00     0.121 C 
ATOM     18  C   UNL A   1      34.450  24.900  25.707  1.00  0.00     0.121 C 
ATOM     19  N   UNL A   1      33.669  23.891  26.418  1.00  0.00    -0.324 N 
ATOM     20  C   UNL A   1      32.326  23.882  26.668  1.00  0.00     0.323 C 
ATOM     21  O   UNL A   1      31.839  23.125  27.521  1.00  0.00    -0.248 OA
ATOM     22  H   UNL A   1      30.672  24.916  26.671  1.00  0.00     0.173 HD
ENDBRANCH   7  12
ENDBRANCH   4   6
ENDBRANCH   3   4
ENDBRANCH   2   3
ENDBRANCH   1   2
BRANCH   1  23
ATOM     23  O   UNL A   1      34.137  29.531  27.761  1.00  0.00    -0.458 OA
BRANCH  23  24
ATOM     24  C   UNL A   1      34.976  30.434  28.320  1.00  0.00     0.338 C 
ATOM     25  O   UNL A   1      34.659  31.496  28.836  1.00  0.00    -0.246 OA
BRANCH  24  26
ATOM     26  C   UNL A   1      36.354  29.913  28.381  1.00  0.00     0.060 A 
ATOM     27  C   UNL A   1      36.786  29.431  29.618  1.00  0.00     0.016 A 
ATOM     28  C   UNL A   1      37.240  29.980  27.303  1.00  0.00     0.016 A 
ATOM     29  C   UNL A   1      38.108  29.041  29.798  1.00  0.00     0.010 A 
ATOM     30  C   UNL A   1      38.574  29.580  27.484  1.00  0.00     0.010 A 
ATOM     31  C   UNL A   1      39.021  29.132  28.741  1.00  0.00    -0.014 A 
BRANCH  31  32
ATOM     32  C   UNL A   1      40.450  28.834  29.019  1.00  0.00     0.031 A 
ATOM     33  C   UNL A   1      41.033  27.509  28.610  1.00  0.00     0.074 A 
ATOM     34  C   UNL A   1      41.249  29.789  29.535  1.00  0.00     0.049 A 
ATOM     35  N   UNL A   1      42.265  27.080  28.706  1.00  0.00    -0.248 NA
ATOM     36  C   UNL A   1      40.105  26.538  28.010  1.00  0.00     0.031 C 
ATOM     37  C   UNL A   1      40.814  31.131  29.922  1.00  0.00     0.029 A 
ATOM     38  N   UNL A   1      42.597  29.787  29.791  1.00  0.00    -0.354 N 
ATOM     39  C   UNL A   1      42.259  25.784  28.202  1.00  0.00     0.074 A 
ATOM     40  C   UNL A   1      40.894  25.490  27.820  1.00  0.00     0.031 C 
ATOM     41  C   UNL A   1      41.880  31.835  30.331  1.00  0.00     0.029 A 
ATOM     42  C   UNL A   1      43.067  30.984  30.276  1.00  0.00     0.049 A 
ATOM     43  H   UNL A   1      43.173  29.002  29.643  1.00  0.00     0.167 HD
ATOM     44  C   UNL A   1      43.294  24.920  28.066  1.00  0.00     0.037 A 
ATOM     45  C   UNL A   1      44.311  31.354  30.636  1.00  0.00     0.037 A 
ATOM     46  C   UNL A   1      44.655  25.222  28.428  1.00  0.00     0.049 A 
ATOM     47  C   UNL A   1      45.440  30.368  30.504  1.00  0.00     0.074 A 
ATOM     48  C   UNL A   1      45.776  24.416  28.325  1.00  0.00     0.029 A 
ATOM     49  N   UNL A   1      45.082  26.428  28.967  1.00  0.00    -0.354 N 
ATOM     50  N   UNL A   1      45.414  29.142  30.039  1.00  0.00    -0.248 NA
ATOM     51  C   UNL A   1      46.766  30.817  30.949  1.00  0.00     0.031 C 
ATOM     52  C   UNL A   1      46.873  25.121  28.834  1.00  0.00     0.029 A 
ATOM     53  C   UNL A   1      46.446  26.384  29.212  1.00  0.00     0.049 A 
ATOM     54  H   UNL A   1      44.502  27.202  29.148  1.00  0.00     0.167 HD
ATOM     55  C   UNL A   1      46.724  28.681  30.112  1.00  0.00     0.074 A 
ATOM     56  C   UNL A   1      47.518  29.764  30.657  1.00  0.00     0.031 C 
ATOM     57  C   UNL A   1      47.224  27.470  29.755  1.00  0.00     0.037 A 
BRANCH  44  58
ATOM     58  C   UNL A   1      42.975  23.547  27.541  1.00  0.00     0.058 A 
ATOM     59  C   UNL A   1      42.511  22.518  28.377  1.00  0.00     0.135 A 
ATOM     60  C   UNL A   1      43.158  23.250  26.181  1.00  0.00     0.135 A 
ATOM     61  F   UNL A   1      42.333  22.742  29.690  1.00  0.00    -0.206 F 
ATOM     62  C   UNL A   1      42.288  21.233  27.894  1.00  0.00     0.059 A 
ATOM     63  C   UNL A   1      42.915  21.977  25.670  1.00  0.00     0.059 A 
ATOM     64  F   UNL A   1      43.595  24.196  25.335  1.00  0.00    -0.206 F 
ATOM     65  C   UNL A   1      42.505  20.969  26.540  1.00  0.00     0.060 A 
BRANCH  65  66
ATOM     66  S   UNL A   1      42.262  19.287  25.933  1.00  0.00     0.124 S 
ATOM     67  O   UNL A   1      40.815  19.256  25.739  1.00  0.00    -0.237 OA
ATOM     68  O   UNL A   1      43.064  19.272  24.713  1.00  0.00    -0.237 OA
ATOM     69  O   UNL A   1      42.767  18.456  27.022  1.00  0.00    -0.744 OA
ENDBRANCH  65  66
ENDBRANCH  44  58
BRANCH  45  70
ATOM     70  C   UNL A   1      44.554  32.733  31.138  1.00  0.00     0.058 A 
ATOM     71  C   UNL A   1      44.456  33.032  32.504  1.00  0.00     0.135 A 
ATOM     72  C   UNL A   1      44.919  33.769  30.265  1.00  0.00     0.135 A 
ATOM     73  F   UNL A   1      44.098  32.077  33.377  1.00  0.00    -0.206 F 
ATOM     74  C   UNL A   1      44.711  34.311  32.989  1.00  0.00     0.059 A 
ATOM     75  C   UNL A   1      45.203  35.049  30.728  1.00  0.00     0.059 A 
ATOM     76  F   UNL A   1      45.034  33.531  28.949  1.00  0.00    -0.206 F 
ATOM     77  C   UNL A   1      45.092  35.312  32.094  1.00  0.00     0.060 A 
BRANCH  77  78
ATOM     78  S   UNL A   1      45.496  36.948  32.742  1.00  0.00     0.124 S 
ATOM     79  O   UNL A   1      44.240  37.662  32.542  1.00  0.00    -0.237 OA
ATOM     80  O   UNL A   1      45.847  36.651  34.127  1.00  0.00    -0.237 OA
ATOM     81  O   UNL A   1      46.609  37.377  31.900  1.00  0.00    -0.744 OA
ENDBRANCH  77  78
ENDBRANCH  45  70
BRANCH  57  82
ATOM     82  C   UNL A   1      48.707  27.269  29.907  1.00  0.00     0.058 A 
ATOM     83  C   UNL A   1      49.610  27.608  28.888  1.00  0.00     0.135 A 
ATOM     84  C   UNL A   1      49.232  26.747  31.100  1.00  0.00     0.135 A 
ATOM     85  F   UNL A   1      49.159  28.106  27.726  1.00  0.00    -0.206 F 
ATOM     86  C   UNL A   1      50.979  27.404  29.032  1.00  0.00     0.059 A 
ATOM     87  C   UNL A   1      50.599  26.558  31.275  1.00  0.00     0.059 A 
ATOM     88  F   UNL A   1      48.414  26.417  32.112  1.00  0.00    -0.206 F 
ATOM     89  C   UNL A   1      51.464  26.873  30.228  1.00  0.00     0.060 A 
BRANCH  89  90
ATOM     90  S   UNL A   1      53.242  26.617  30.410  1.00  0.00     0.124 S 
ATOM     91  O   UNL A   1      53.679  27.923  30.890  1.00  0.00    -0.237 OA
ATOM     92  O   UNL A   1      53.306  25.530  31.382  1.00  0.00    -0.237 OA
ATOM     93  O   UNL A   1      53.673  26.266  29.060  1.00  0.00    -0.744 OA
ENDBRANCH  89  90
ENDBRANCH  57  82
ENDBRANCH  31  32
ENDBRANCH  24  26
ENDBRANCH  23  24
ENDBRANCH   1  23
TORSDOF 15
ENDMDL
