MODEL 1
REMARK VINA RESULT:     -11.4      0.000      0.000
REMARK SMILES NC(=O)c1cc(NC(=O)/C=C\C(=O)OCCOC(=O)c2ccc(-c3c4nc(c(-c5c(F)cc(S(=O)(=O)[O-])cc5F)c5ccc([nH]5)c(-c5c(F)cc(S(=O)(=O)[O-])cc5F)c5nc(c(-c6c(F)cc(S(=O)(=O)[O-])cc6F)c6ccc3[nH]6)C=C5)C=C4)cc2)ccc1N1CCOCC1
REMARK SMILES IDX 15 1 14 2 12 3 13 4 11 5 10 6 8 7 7 8 9 10 6 11 4 12 5 13
REMARK SMILES IDX 88 14 87 15 86 16 2 17 1 18 3 21 89 22 90 23 94 24 91 25
REMARK SMILES IDX 93 26 92 27 16 28 17 29 18 30 19 31 20 32 21 33 85 34 22 35
REMARK SMILES IDX 84 36 23 37 24 38 25 39 78 40 26 41 83 42 77 43 79 44 27 45
REMARK SMILES IDX 82 46 76 47 75 48 28 50 62 51 41 52 61 53 42 54 45 55 60 56
REMARK SMILES IDX 80 57 43 58 44 59 59 61 81 62 46 63 29 64 30 65 39 66 31 67
REMARK SMILES IDX 32 68 38 69 40 70 33 71 34 72 35 73 36 74 37 75 63 76 64 77
REMARK SMILES IDX 73 78 65 79 66 80 72 81 74 82 67 83 68 84 69 85 70 86 71 87
REMARK SMILES IDX 47 88 48 89 57 90 49 91 50 92 56 93 58 94 51 95 52 96 53 97
REMARK SMILES IDX 54 98 55 99
REMARK H PARENT 7 9 1 19 1 20 79 49 45 60
REMARK Flexibility Score: inf
ROOT
ATOM      1  C   UNL A   1      32.266  30.398  25.961  1.00  0.00     0.275 C 
ENDROOT
BRANCH   1   2
ATOM      2  O   UNL A   1      31.707  29.076  25.830  1.00  0.00    -0.459 OA
BRANCH   2   3
ATOM      3  C   UNL A   1      32.592  28.142  25.422  1.00  0.00     0.331 C 
ATOM      4  O   UNL A   1      32.940  27.161  26.060  1.00  0.00    -0.247 OA
BRANCH   3   5
ATOM      5  C   UNL A   1      33.124  28.379  24.081  1.00  0.00     0.099 C 
ATOM      6  C   UNL A   1      32.390  28.534  22.970  1.00  0.00     0.079 C 
BRANCH   6   7
ATOM      7  C   UNL A   1      30.937  28.310  22.783  1.00  0.00     0.248 C 
ATOM      8  N   UNL A   1      30.350  27.079  22.801  1.00  0.00    -0.322 N 
ATOM      9  H   UNL A   1      29.412  27.081  22.499  1.00  0.00     0.170 HD
ATOM     10  O   UNL A   1      30.239  29.300  22.557  1.00  0.00    -0.270 OA
BRANCH   8  11
ATOM     11  C   UNL A   1      30.828  25.813  23.169  1.00  0.00     0.042 A 
ATOM     12  C   UNL A   1      31.222  24.097  24.829  1.00  0.00     0.064 A 
ATOM     13  C   UNL A   1      30.434  25.150  24.321  1.00  0.00     0.042 A 
ATOM     14  C   UNL A   1      32.392  23.663  24.161  1.00  0.00     0.050 A 
ATOM     15  C   UNL A   1      32.617  24.209  22.886  1.00  0.00     0.029 A 
ATOM     16  C   UNL A   1      31.835  25.258  22.382  1.00  0.00     0.028 A 
BRANCH  12  17
ATOM     17  C   UNL A   1      30.865  23.723  26.219  1.00  0.00     0.250 C 
ATOM     18  N   UNL A   1      30.165  22.568  26.368  1.00  0.00    -0.366 N 
ATOM     19  H   UNL A   1      29.899  22.265  27.267  1.00  0.00     0.159 HD
ATOM     20  H   UNL A   1      29.923  22.033  25.577  1.00  0.00     0.159 HD
ATOM     21  O   UNL A   1      31.281  24.354  27.182  1.00  0.00    -0.269 OA
ENDBRANCH  12  17
BRANCH  14  22
ATOM     22  N   UNL A   1      33.342  22.835  24.738  1.00  0.00    -0.366 N 
ATOM     23  C   UNL A   1      33.287  21.377  24.536  1.00  0.00     0.145 C 
ATOM     24  C   UNL A   1      34.658  23.359  25.142  1.00  0.00     0.145 C 
ATOM     25  C   UNL A   1      33.919  20.654  25.741  1.00  0.00     0.181 C 
ATOM     26  C   UNL A   1      35.196  22.540  26.326  1.00  0.00     0.181 C 
ATOM     27  O   UNL A   1      35.247  21.142  26.012  1.00  0.00    -0.378 OA
ENDBRANCH  14  22
ENDBRANCH   8  11
ENDBRANCH   6   7
ENDBRANCH   3   5
ENDBRANCH   2   3
ENDBRANCH   1   2
BRANCH   1  28
ATOM     28  C   UNL A   1      32.874  30.758  27.326  1.00  0.00     0.275 C 
BRANCH  28  29
ATOM     29  O   UNL A   1      34.261  31.133  27.270  1.00  0.00    -0.458 OA
BRANCH  29  30
ATOM     30  C   UNL A   1      34.847  31.338  28.481  1.00  0.00     0.338 C 
ATOM     31  O   UNL A   1      34.370  31.946  29.421  1.00  0.00    -0.246 OA
BRANCH  30  32
ATOM     32  C   UNL A   1      36.101  30.556  28.569  1.00  0.00     0.060 A 
ATOM     33  C   UNL A   1      36.526  30.128  29.835  1.00  0.00     0.016 A 
ATOM     34  C   UNL A   1      36.867  30.274  27.438  1.00  0.00     0.016 A 
ATOM     35  C   UNL A   1      37.724  29.428  29.980  1.00  0.00     0.010 A 
ATOM     36  C   UNL A   1      38.076  29.586  27.583  1.00  0.00     0.010 A 
ATOM     37  C   UNL A   1      38.521  29.187  28.857  1.00  0.00    -0.014 A 
BRANCH  37  38
ATOM     38  C   UNL A   1      39.940  28.802  29.037  1.00  0.00     0.031 A 
ATOM     39  C   UNL A   1      40.869  29.872  29.542  1.00  0.00     0.074 A 
ATOM     40  C   UNL A   1      40.396  27.569  28.755  1.00  0.00     0.049 A 
ATOM     41  N   UNL A   1      42.166  29.848  29.682  1.00  0.00    -0.248 NA
ATOM     42  C   UNL A   1      40.243  31.151  29.924  1.00  0.00     0.031 C 
ATOM     43  C   UNL A   1      39.581  26.449  28.299  1.00  0.00     0.029 A 
ATOM     44  N   UNL A   1      41.668  27.057  28.798  1.00  0.00    -0.354 N 
ATOM     45  C   UNL A   1      42.512  31.108  30.152  1.00  0.00     0.074 A 
ATOM     46  C   UNL A   1      41.297  31.884  30.246  1.00  0.00     0.031 C 
ATOM     47  C   UNL A   1      40.370  25.380  28.096  1.00  0.00     0.029 A 
ATOM     48  C   UNL A   1      41.756  25.757  28.354  1.00  0.00     0.049 A 
ATOM     49  H   UNL A   1      42.446  27.571  29.116  1.00  0.00     0.167 HD
ATOM     50  C   UNL A   1      43.737  31.577  30.476  1.00  0.00     0.037 A 
ATOM     51  C   UNL A   1      42.838  24.979  28.145  1.00  0.00     0.037 A 
ATOM     52  C   UNL A   1      44.939  30.798  30.360  1.00  0.00     0.049 A 
ATOM     53  C   UNL A   1      44.204  25.546  28.445  1.00  0.00     0.074 A 
ATOM     54  C   UNL A   1      46.236  31.168  30.659  1.00  0.00     0.029 A 
ATOM     55  N   UNL A   1      44.988  29.490  29.895  1.00  0.00    -0.354 N 
ATOM     56  N   UNL A   1      44.520  26.736  28.901  1.00  0.00    -0.248 NA
ATOM     57  C   UNL A   1      45.358  24.670  28.202  1.00  0.00     0.031 C 
ATOM     58  C   UNL A   1      47.078  30.103  30.321  1.00  0.00     0.029 A 
ATOM     59  C   UNL A   1      46.298  29.045  29.877  1.00  0.00     0.049 A 
ATOM     60  H   UNL A   1      44.207  28.959  29.620  1.00  0.00     0.167 HD
ATOM     61  C   UNL A   1      45.904  26.739  29.035  1.00  0.00     0.074 A 
ATOM     62  C   UNL A   1      46.363  25.430  28.614  1.00  0.00     0.031 C 
ATOM     63  C   UNL A   1      46.723  27.729  29.470  1.00  0.00     0.037 A 
BRANCH  50  64
ATOM     64  C   UNL A   1      43.831  33.002  30.941  1.00  0.00     0.058 A 
ATOM     65  C   UNL A   1      43.998  34.067  30.041  1.00  0.00     0.135 A 
ATOM     66  C   UNL A   1      43.760  33.307  32.309  1.00  0.00     0.135 A 
ATOM     67  F   UNL A   1      44.105  33.829  28.723  1.00  0.00    -0.206 F 
ATOM     68  C   UNL A   1      44.117  35.381  30.482  1.00  0.00     0.059 A 
ATOM     69  C   UNL A   1      43.844  34.617  32.772  1.00  0.00     0.059 A 
ATOM     70  F   UNL A   1      43.616  32.327  33.214  1.00  0.00    -0.206 F 
ATOM     71  C   UNL A   1      44.036  35.645  31.850  1.00  0.00     0.060 A 
BRANCH  71  72
ATOM     72  S   UNL A   1      44.184  37.356  32.406  1.00  0.00     0.124 S 
ATOM     73  O   UNL A   1      43.229  37.388  33.509  1.00  0.00    -0.237 OA
ATOM     74  O   UNL A   1      45.591  37.438  32.784  1.00  0.00    -0.237 OA
ATOM     75  O   UNL A   1      43.807  38.131  31.229  1.00  0.00    -0.744 OA
ENDBRANCH  71  72
ENDBRANCH  50  64
BRANCH  51  76
ATOM     76  C   UNL A   1      42.681  23.599  27.606  1.00  0.00     0.058 A 
ATOM     77  C   UNL A   1      42.471  22.504  28.458  1.00  0.00     0.135 A 
ATOM     78  C   UNL A   1      42.746  23.341  26.226  1.00  0.00     0.135 A 
ATOM     79  F   UNL A   1      42.414  22.690  29.786  1.00  0.00    -0.206 F 
ATOM     80  C   UNL A   1      42.346  21.206  27.967  1.00  0.00     0.059 A 
ATOM     81  C   UNL A   1      42.597  22.057  25.709  1.00  0.00     0.059 A 
ATOM     82  F   UNL A   1      42.937  24.351  25.362  1.00  0.00    -0.206 F 
ATOM     83  C   UNL A   1      42.408  20.994  26.589  1.00  0.00     0.060 A 
BRANCH  83  84
ATOM     84  S   UNL A   1      42.205  19.312  25.960  1.00  0.00     0.124 S 
ATOM     85  O   UNL A   1      40.767  19.255  25.729  1.00  0.00    -0.237 OA
ATOM     86  O   UNL A   1      43.045  19.329  24.767  1.00  0.00    -0.237 OA
ATOM     87  O   UNL A   1      42.701  18.482  27.055  1.00  0.00    -0.744 OA
ENDBRANCH  83  84
ENDBRANCH  51  76
BRANCH  63  88
ATOM     88  C   UNL A   1      48.193  27.424  29.570  1.00  0.00     0.058 A 
ATOM     89  C   UNL A   1      49.092  27.747  28.543  1.00  0.00     0.135 A 
ATOM     90  C   UNL A   1      48.716  26.872  30.752  1.00  0.00     0.135 A 
ATOM     91  F   UNL A   1      48.643  28.272  27.391  1.00  0.00    -0.206 F 
ATOM     92  C   UNL A   1      50.456  27.514  28.675  1.00  0.00     0.059 A 
ATOM     93  C   UNL A   1      50.080  26.661  30.918  1.00  0.00     0.059 A 
ATOM     94  F   UNL A   1      47.900  26.559  31.771  1.00  0.00    -0.206 F 
ATOM     95  C   UNL A   1      50.941  26.976  29.870  1.00  0.00     0.060 A 
BRANCH  95  96
ATOM     96  S   UNL A   1      52.720  26.726  30.046  1.00  0.00     0.124 S 
ATOM     97  O   UNL A   1      52.773  25.744  31.123  1.00  0.00    -0.237 OA
ATOM     98  O   UNL A   1      53.098  26.238  28.723  1.00  0.00    -0.237 OA
ATOM     99  O   UNL A   1      53.219  28.056  30.383  1.00  0.00    -0.744 OA
ENDBRANCH  95  96
ENDBRANCH  63  88
ENDBRANCH  37  38
ENDBRANCH  30  32
ENDBRANCH  29  30
ENDBRANCH  28  29
ENDBRANCH   1  28
TORSDOF 18
ENDMDL
MODEL 2
REMARK VINA RESULT:     -11.3      4.999     10.623
REMARK SMILES NC(=O)c1cc(NC(=O)/C=C\C(=O)OCCOC(=O)c2ccc(-c3c4nc(c(-c5c(F)cc(S(=O)(=O)[O-])cc5F)c5ccc([nH]5)c(-c5c(F)cc(S(=O)(=O)[O-])cc5F)c5nc(c(-c6c(F)cc(S(=O)(=O)[O-])cc6F)c6ccc3[nH]6)C=C5)C=C4)cc2)ccc1N1CCOCC1
REMARK SMILES IDX 15 1 14 2 12 3 13 4 11 5 10 6 8 7 7 8 9 10 6 11 4 12 5 13
REMARK SMILES IDX 88 14 87 15 86 16 2 17 1 18 3 21 89 22 90 23 94 24 91 25
REMARK SMILES IDX 93 26 92 27 16 28 17 29 18 30 19 31 20 32 21 33 85 34 22 35
REMARK SMILES IDX 84 36 23 37 24 38 25 39 78 40 26 41 83 42 77 43 79 44 27 45
REMARK SMILES IDX 82 46 76 47 75 48 28 50 62 51 41 52 61 53 42 54 45 55 60 56
REMARK SMILES IDX 80 57 43 58 44 59 59 61 81 62 46 63 29 64 30 65 39 66 31 67
REMARK SMILES IDX 32 68 38 69 40 70 33 71 34 72 35 73 36 74 37 75 63 76 64 77
REMARK SMILES IDX 73 78 65 79 66 80 72 81 74 82 67 83 68 84 69 85 70 86 71 87
REMARK SMILES IDX 47 88 48 89 57 90 49 91 50 92 56 93 58 94 51 95 52 96 53 97
REMARK SMILES IDX 54 98 55 99
REMARK H PARENT 7 9 1 19 1 20 79 49 45 60
REMARK Flexibility Score: inf
ROOT
ATOM      1  C   UNL A   1      37.941  22.597  25.708  1.00  0.00     0.275 C 
ENDROOT
BRANCH   1   2
ATOM      2  O   UNL A   1      37.173  22.451  24.497  1.00  0.00    -0.459 OA
BRANCH   2   3
ATOM      3  C   UNL A   1      36.017  23.147  24.491  1.00  0.00     0.331 C 
ATOM      4  O   UNL A   1      35.643  23.902  23.608  1.00  0.00    -0.247 OA
BRANCH   3   5
ATOM      5  C   UNL A   1      35.180  22.911  25.667  1.00  0.00     0.099 C 
ATOM      6  C   UNL A   1      34.261  21.942  25.784  1.00  0.00     0.079 C 
BRANCH   6   7
ATOM      7  C   UNL A   1      33.732  21.037  24.736  1.00  0.00     0.248 C 
ATOM      8  N   UNL A   1      32.724  21.371  23.881  1.00  0.00    -0.322 N 
ATOM      9  H   UNL A   1      32.376  20.613  23.358  1.00  0.00     0.170 HD
ATOM     10  O   UNL A   1      34.214  19.904  24.675  1.00  0.00    -0.270 OA
BRANCH   8  11
ATOM     11  C   UNL A   1      32.091  22.592  23.604  1.00  0.00     0.042 A 
ATOM     12  C   UNL A   1      32.036  24.753  22.517  1.00  0.00     0.064 A 
ATOM     13  C   UNL A   1      32.411  23.394  22.520  1.00  0.00     0.042 A 
ATOM     14  C   UNL A   1      31.291  25.314  23.581  1.00  0.00     0.050 A 
ATOM     15  C   UNL A   1      30.795  24.410  24.536  1.00  0.00     0.029 A 
ATOM     16  C   UNL A   1      31.171  23.060  24.541  1.00  0.00     0.028 A 
BRANCH  12  17
ATOM     17  C   UNL A   1      32.731  25.545  21.473  1.00  0.00     0.250 C 
ATOM     18  N   UNL A   1      32.045  25.747  20.318  1.00  0.00    -0.366 N 
ATOM     19  H   UNL A   1      32.453  26.266  19.587  1.00  0.00     0.159 HD
ATOM     20  H   UNL A   1      31.139  25.374  20.211  1.00  0.00     0.159 HD
ATOM     21  O   UNL A   1      33.808  26.086  21.687  1.00  0.00    -0.269 OA
ENDBRANCH  12  17
BRANCH  14  22
ATOM     22  N   UNL A   1      31.129  26.679  23.768  1.00  0.00    -0.366 N 
ATOM     23  C   UNL A   1      30.184  27.442  22.935  1.00  0.00     0.145 C 
ATOM     24  C   UNL A   1      31.486  27.316  25.047  1.00  0.00     0.145 C 
ATOM     25  C   UNL A   1      30.655  28.904  22.810  1.00  0.00     0.181 C 
ATOM     26  C   UNL A   1      31.906  28.772  24.797  1.00  0.00     0.181 C 
ATOM     27  O   UNL A   1      30.882  29.497  24.102  1.00  0.00    -0.378 OA
ENDBRANCH  14  22
ENDBRANCH   8  11
ENDBRANCH   6   7
ENDBRANCH   3   5
ENDBRANCH   2   3
ENDBRANCH   1   2
BRANCH   1  28
ATOM     28  C   UNL A   1      38.370  24.024  26.084  1.00  0.00     0.275 C 
BRANCH  28  29
ATOM     29  O   UNL A   1      39.644  24.097  26.749  1.00  0.00    -0.458 OA
BRANCH  29  30
ATOM     30  C   UNL A   1      40.391  25.189  26.433  1.00  0.00     0.338 C 
ATOM     31  O   UNL A   1      40.751  25.521  25.319  1.00  0.00    -0.246 OA
BRANCH  30  32
ATOM     32  C   UNL A   1      40.565  26.040  27.632  1.00  0.00     0.060 A 
ATOM     33  C   UNL A   1      39.619  25.935  28.662  1.00  0.00     0.016 A 
ATOM     34  C   UNL A   1      41.617  26.952  27.735  1.00  0.00     0.016 A 
ATOM     35  C   UNL A   1      39.709  26.747  29.792  1.00  0.00     0.010 A 
ATOM     36  C   UNL A   1      41.700  27.777  28.860  1.00  0.00     0.010 A 
ATOM     37  C   UNL A   1      40.731  27.697  29.877  1.00  0.00    -0.014 A 
BRANCH  37  38
ATOM     38  C   UNL A   1      40.621  28.803  30.857  1.00  0.00     0.031 A 
ATOM     39  C   UNL A   1      41.540  28.742  32.047  1.00  0.00     0.074 A 
ATOM     40  C   UNL A   1      39.743  29.811  30.714  1.00  0.00     0.049 A 
ATOM     41  N   UNL A   1      41.580  29.504  33.104  1.00  0.00    -0.248 NA
ATOM     42  C   UNL A   1      42.537  27.656  32.044  1.00  0.00     0.031 C 
ATOM     43  C   UNL A   1      38.836  29.990  29.586  1.00  0.00     0.029 A 
ATOM     44  N   UNL A   1      39.459  30.871  31.538  1.00  0.00    -0.354 N 
ATOM     45  C   UNL A   1      42.593  28.982  33.899  1.00  0.00     0.074 A 
ATOM     46  C   UNL A   1      43.122  27.823  33.219  1.00  0.00     0.031 C 
ATOM     47  C   UNL A   1      38.089  31.090  29.787  1.00  0.00     0.029 A 
ATOM     48  C   UNL A   1      38.426  31.660  31.088  1.00  0.00     0.049 A 
ATOM     49  H   UNL A   1      39.948  31.048  32.375  1.00  0.00     0.167 HD
ATOM     50  C   UNL A   1      43.041  29.432  35.092  1.00  0.00     0.037 A 
ATOM     51  C   UNL A   1      37.802  32.700  31.679  1.00  0.00     0.037 A 
ATOM     52  C   UNL A   1      42.491  30.576  35.764  1.00  0.00     0.049 A 
ATOM     53  C   UNL A   1      38.271  33.142  33.043  1.00  0.00     0.074 A 
ATOM     54  C   UNL A   1      42.865  31.125  36.976  1.00  0.00     0.029 A 
ATOM     55  N   UNL A   1      41.438  31.343  35.281  1.00  0.00    -0.354 N 
ATOM     56  N   UNL A   1      39.238  32.649  33.782  1.00  0.00    -0.248 NA
ATOM     57  C   UNL A   1      37.565  34.275  33.657  1.00  0.00     0.031 C 
ATOM     58  C   UNL A   1      42.000  32.189  37.254  1.00  0.00     0.029 A 
ATOM     59  C   UNL A   1      41.133  32.347  36.183  1.00  0.00     0.049 A 
ATOM     60  H   UNL A   1      40.979  31.194  34.423  1.00  0.00     0.167 HD
ATOM     61  C   UNL A   1      39.282  33.435  34.929  1.00  0.00     0.074 A 
ATOM     62  C   UNL A   1      38.246  34.437  34.783  1.00  0.00     0.031 C 
ATOM     63  C   UNL A   1      40.106  33.342  36.003  1.00  0.00     0.037 A 
BRANCH  50  64
ATOM     64  C   UNL A   1      44.145  28.656  35.753  1.00  0.00     0.058 A 
ATOM     65  C   UNL A   1      45.499  28.947  35.520  1.00  0.00     0.135 A 
ATOM     66  C   UNL A   1      43.843  27.601  36.628  1.00  0.00     0.135 A 
ATOM     67  F   UNL A   1      45.844  29.925  34.667  1.00  0.00    -0.206 F 
ATOM     68  C   UNL A   1      46.515  28.202  36.111  1.00  0.00     0.059 A 
ATOM     69  C   UNL A   1      44.842  26.863  37.256  1.00  0.00     0.059 A 
ATOM     70  F   UNL A   1      42.566  27.270  36.875  1.00  0.00    -0.206 F 
ATOM     71  C   UNL A   1      46.175  27.164  36.980  1.00  0.00     0.060 A 
BRANCH  71  72
ATOM     72  S   UNL A   1      47.505  26.213  37.744  1.00  0.00     0.124 S 
ATOM     73  O   UNL A   1      46.926  24.873  37.773  1.00  0.00    -0.237 OA
ATOM     74  O   UNL A   1      48.604  26.408  36.805  1.00  0.00    -0.237 OA
ATOM     75  O   UNL A   1      47.675  26.850  39.046  1.00  0.00    -0.744 OA
ENDBRANCH  71  72
ENDBRANCH  50  64
BRANCH  51  76
ATOM     76  C   UNL A   1      36.660  33.378  31.003  1.00  0.00     0.058 A 
ATOM     77  C   UNL A   1      35.340  33.187  31.437  1.00  0.00     0.135 A 
ATOM     78  C   UNL A   1      36.863  34.227  29.902  1.00  0.00     0.135 A 
ATOM     79  F   UNL A   1      35.087  32.374  32.475  1.00  0.00    -0.206 F 
ATOM     80  C   UNL A   1      34.262  33.796  30.798  1.00  0.00     0.059 A 
ATOM     81  C   UNL A   1      35.805  34.870  29.264  1.00  0.00     0.059 A 
ATOM     82  F   UNL A   1      38.105  34.455  29.448  1.00  0.00    -0.206 F 
ATOM     83  C   UNL A   1      34.507  34.639  29.713  1.00  0.00     0.060 A 
BRANCH  83  84
ATOM     84  S   UNL A   1      33.105  35.457  28.917  1.00  0.00     0.124 S 
ATOM     85  O   UNL A   1      33.774  36.479  28.120  1.00  0.00    -0.237 OA
ATOM     86  O   UNL A   1      32.497  34.360  28.170  1.00  0.00    -0.237 OA
ATOM     87  O   UNL A   1      32.319  35.951  30.045  1.00  0.00    -0.744 OA
ENDBRANCH  83  84
ENDBRANCH  51  76
BRANCH  63  88
ATOM     88  C   UNL A   1      39.964  34.381  37.082  1.00  0.00     0.058 A 
ATOM     89  C   UNL A   1      40.580  35.638  36.989  1.00  0.00     0.135 A 
ATOM     90  C   UNL A   1      39.132  34.135  38.186  1.00  0.00     0.135 A 
ATOM     91  F   UNL A   1      41.389  35.922  35.956  1.00  0.00    -0.206 F 
ATOM     92  C   UNL A   1      40.390  36.610  37.966  1.00  0.00     0.059 A 
ATOM     93  C   UNL A   1      38.903  35.104  39.157  1.00  0.00     0.059 A 
ATOM     94  F   UNL A   1      38.509  32.953  38.314  1.00  0.00    -0.206 F 
ATOM     95  C   UNL A   1      39.545  36.335  39.043  1.00  0.00     0.060 A 
BRANCH  95  96
ATOM     96  S   UNL A   1      39.270  37.623  40.277  1.00  0.00     0.124 S 
ATOM     97  O   UNL A   1      38.244  38.435  39.630  1.00  0.00    -0.237 OA
ATOM     98  O   UNL A   1      38.831  36.854  41.438  1.00  0.00    -0.237 OA
ATOM     99  O   UNL A   1      40.580  38.253  40.409  1.00  0.00    -0.744 OA
ENDBRANCH  95  96
ENDBRANCH  63  88
ENDBRANCH  37  38
ENDBRANCH  30  32
ENDBRANCH  29  30
ENDBRANCH  28  29
ENDBRANCH   1  28
TORSDOF 18
ENDMDL
MODEL 3
REMARK VINA RESULT:     -11.0      4.830      9.601
REMARK SMILES NC(=O)c1cc(NC(=O)/C=C\C(=O)OCCOC(=O)c2ccc(-c3c4nc(c(-c5c(F)cc(S(=O)(=O)[O-])cc5F)c5ccc([nH]5)c(-c5c(F)cc(S(=O)(=O)[O-])cc5F)c5nc(c(-c6c(F)cc(S(=O)(=O)[O-])cc6F)c6ccc3[nH]6)C=C5)C=C4)cc2)ccc1N1CCOCC1
REMARK SMILES IDX 15 1 14 2 12 3 13 4 11 5 10 6 8 7 7 8 9 10 6 11 4 12 5 13
REMARK SMILES IDX 88 14 87 15 86 16 2 17 1 18 3 21 89 22 90 23 94 24 91 25
REMARK SMILES IDX 93 26 92 27 16 28 17 29 18 30 19 31 20 32 21 33 85 34 22 35
REMARK SMILES IDX 84 36 23 37 24 38 25 39 78 40 26 41 83 42 77 43 79 44 27 45
REMARK SMILES IDX 82 46 76 47 75 48 28 50 62 51 41 52 61 53 42 54 45 55 60 56
REMARK SMILES IDX 80 57 43 58 44 59 59 61 81 62 46 63 29 64 30 65 39 66 31 67
REMARK SMILES IDX 32 68 38 69 40 70 33 71 34 72 35 73 36 74 37 75 63 76 64 77
REMARK SMILES IDX 73 78 65 79 66 80 72 81 74 82 67 83 68 84 69 85 70 86 71 87
REMARK SMILES IDX 47 88 48 89 57 90 49 91 50 92 56 93 58 94 51 95 52 96 53 97
REMARK SMILES IDX 54 98 55 99
REMARK H PARENT 7 9 1 19 1 20 79 49 45 60
REMARK Flexibility Score: inf
ROOT
ATOM      1  C   UNL A   1      33.359  30.392  27.095  1.00  0.00     0.275 C 
ENDROOT
BRANCH   1   2
ATOM      2  O   UNL A   1      33.785  29.048  27.392  1.00  0.00    -0.459 OA
BRANCH   2   3
ATOM      3  C   UNL A   1      33.139  28.097  26.686  1.00  0.00     0.331 C 
ATOM      4  O   UNL A   1      32.199  27.427  27.084  1.00  0.00    -0.247 OA
BRANCH   3   5
ATOM      5  C   UNL A   1      33.649  27.922  25.327  1.00  0.00     0.099 C 
ATOM      6  C   UNL A   1      32.938  28.085  24.202  1.00  0.00     0.079 C 
BRANCH   6   7
ATOM      7  C   UNL A   1      31.476  28.272  24.052  1.00  0.00     0.248 C 
ATOM      8  N   UNL A   1      30.594  27.249  23.862  1.00  0.00    -0.322 N 
ATOM      9  H   UNL A   1      29.688  27.545  23.615  1.00  0.00     0.170 HD
ATOM     10  O   UNL A   1      31.052  29.430  24.061  1.00  0.00    -0.270 OA
BRANCH   8  11
ATOM     11  C   UNL A   1      30.735  25.857  23.951  1.00  0.00     0.042 A 
ATOM     12  C   UNL A   1      30.911  23.823  25.251  1.00  0.00     0.064 A 
ATOM     13  C   UNL A   1      30.391  25.121  25.074  1.00  0.00     0.042 A 
ATOM     14  C   UNL A   1      31.747  23.226  24.277  1.00  0.00     0.050 A 
ATOM     15  C   UNL A   1      31.875  23.917  23.060  1.00  0.00     0.029 A 
ATOM     16  C   UNL A   1      31.360  25.209  22.887  1.00  0.00     0.028 A 
BRANCH  12  17
ATOM     17  C   UNL A   1      30.733  23.308  26.630  1.00  0.00     0.250 C 
ATOM     18  N   UNL A   1      29.677  22.476  26.828  1.00  0.00    -0.366 N 
ATOM     19  H   UNL A   1      29.507  22.101  27.722  1.00  0.00     0.159 HD
ATOM     20  H   UNL A   1      29.082  22.248  26.076  1.00  0.00     0.159 HD
ATOM     21  O   UNL A   1      31.559  23.524  27.508  1.00  0.00    -0.269 OA
ENDBRANCH  12  17
BRANCH  14  22
ATOM     22  N   UNL A   1      32.500  22.085  24.509  1.00  0.00    -0.366 N 
ATOM     23  C   UNL A   1      32.256  20.856  23.734  1.00  0.00     0.145 C 
ATOM     24  C   UNL A   1      33.828  22.169  25.141  1.00  0.00     0.145 C 
ATOM     25  C   UNL A   1      32.644  19.621  24.570  1.00  0.00     0.181 C 
ATOM     26  C   UNL A   1      34.112  20.873  25.915  1.00  0.00     0.181 C 
ATOM     27  O   UNL A   1      33.992  19.723  25.066  1.00  0.00    -0.378 OA
ENDBRANCH  14  22
ENDBRANCH   8  11
ENDBRANCH   6   7
ENDBRANCH   3   5
ENDBRANCH   2   3
ENDBRANCH   1   2
BRANCH   1  28
ATOM     28  C   UNL A   1      34.041  31.522  27.883  1.00  0.00     0.275 C 
BRANCH  28  29
ATOM     29  O   UNL A   1      33.762  32.840  27.379  1.00  0.00    -0.458 OA
BRANCH  29  30
ATOM     30  C   UNL A   1      33.643  33.803  28.333  1.00  0.00     0.338 C 
ATOM     31  O   UNL A   1      32.730  34.598  28.447  1.00  0.00    -0.246 OA
BRANCH  30  32
ATOM     32  C   UNL A   1      34.712  33.639  29.345  1.00  0.00     0.060 A 
ATOM     33  C   UNL A   1      35.997  34.107  29.032  1.00  0.00     0.016 A 
ATOM     34  C   UNL A   1      34.471  33.007  30.565  1.00  0.00     0.016 A 
ATOM     35  C   UNL A   1      37.050  33.935  29.931  1.00  0.00     0.010 A 
ATOM     36  C   UNL A   1      35.530  32.821  31.460  1.00  0.00     0.010 A 
ATOM     37  C   UNL A   1      36.826  33.258  31.133  1.00  0.00    -0.014 A 
BRANCH  37  38
ATOM     38  C   UNL A   1      37.979  32.735  31.903  1.00  0.00     0.031 A 
ATOM     39  C   UNL A   1      38.698  31.551  31.318  1.00  0.00     0.074 A 
ATOM     40  C   UNL A   1      38.369  33.271  33.072  1.00  0.00     0.049 A 
ATOM     41  N   UNL A   1      39.656  30.826  31.827  1.00  0.00    -0.248 NA
ATOM     42  C   UNL A   1      38.257  31.117  29.980  1.00  0.00     0.031 C 
ATOM     43  C   UNL A   1      37.772  34.439  33.710  1.00  0.00     0.029 A 
ATOM     44  N   UNL A   1      39.358  32.888  33.944  1.00  0.00    -0.354 N 
ATOM     45  C   UNL A   1      39.922  29.844  30.882  1.00  0.00     0.074 A 
ATOM     46  C   UNL A   1      39.006  30.044  29.782  1.00  0.00     0.031 C 
ATOM     47  C   UNL A   1      38.399  34.679  34.875  1.00  0.00     0.029 A 
ATOM     48  C   UNL A   1      39.405  33.644  35.093  1.00  0.00     0.049 A 
ATOM     49  H   UNL A   1      39.975  32.141  33.764  1.00  0.00     0.167 HD
ATOM     50  C   UNL A   1      40.848  28.862  30.928  1.00  0.00     0.037 A 
ATOM     51  C   UNL A   1      40.151  33.490  36.206  1.00  0.00     0.037 A 
ATOM     52  C   UNL A   1      41.739  28.665  32.038  1.00  0.00     0.049 A 
ATOM     53  C   UNL A   1      41.130  32.343  36.268  1.00  0.00     0.074 A 
ATOM     54  C   UNL A   1      42.719  27.704  32.195  1.00  0.00     0.029 A 
ATOM     55  N   UNL A   1      41.749  29.444  33.187  1.00  0.00    -0.354 N 
ATOM     56  N   UNL A   1      41.382  31.426  35.363  1.00  0.00    -0.248 NA
ATOM     57  C   UNL A   1      41.922  32.207  37.497  1.00  0.00     0.031 C 
ATOM     58  C   UNL A   1      43.282  27.865  33.465  1.00  0.00     0.029 A 
ATOM     59  C   UNL A   1      42.703  28.970  34.070  1.00  0.00     0.049 A 
ATOM     60  H   UNL A   1      41.164  30.220  33.349  1.00  0.00     0.167 HD
ATOM     61  C   UNL A   1      42.387  30.627  35.897  1.00  0.00     0.074 A 
ATOM     62  C   UNL A   1      42.698  31.173  37.203  1.00  0.00     0.031 C 
ATOM     63  C   UNL A   1      43.002  29.545  35.358  1.00  0.00     0.037 A 
BRANCH  50  64
ATOM     64  C   UNL A   1      40.905  27.910  29.766  1.00  0.00     0.058 A 
ATOM     65  C   UNL A   1      41.932  27.967  28.811  1.00  0.00     0.135 A 
ATOM     66  C   UNL A   1      39.913  26.930  29.604  1.00  0.00     0.135 A 
ATOM     67  F   UNL A   1      42.889  28.906  28.900  1.00  0.00    -0.206 F 
ATOM     68  C   UNL A   1      41.960  27.103  27.720  1.00  0.00     0.059 A 
ATOM     69  C   UNL A   1      39.938  26.035  28.539  1.00  0.00     0.059 A 
ATOM     70  F   UNL A   1      38.900  26.841  30.480  1.00  0.00    -0.206 F 
ATOM     71  C   UNL A   1      40.959  26.139  27.596  1.00  0.00     0.060 A 
BRANCH  71  72
ATOM     72  S   UNL A   1      41.013  25.021  26.180  1.00  0.00     0.124 S 
ATOM     73  O   UNL A   1      39.687  24.414  26.236  1.00  0.00    -0.237 OA
ATOM     74  O   UNL A   1      41.244  25.939  25.069  1.00  0.00    -0.237 OA
ATOM     75  O   UNL A   1      42.124  24.128  26.493  1.00  0.00    -0.744 OA
ENDBRANCH  71  72
ENDBRANCH  50  64
BRANCH  51  76
ATOM     76  C   UNL A   1      39.990  34.424  37.357  1.00  0.00     0.058 A 
ATOM     77  C   UNL A   1      39.110  34.135  38.411  1.00  0.00     0.135 A 
ATOM     78  C   UNL A   1      40.707  35.630  37.425  1.00  0.00     0.135 A 
ATOM     79  F   UNL A   1      38.388  33.003  38.390  1.00  0.00    -0.206 F 
ATOM     80  C   UNL A   1      38.933  35.011  39.480  1.00  0.00     0.059 A 
ATOM     81  C   UNL A   1      40.569  36.509  38.496  1.00  0.00     0.059 A 
ATOM     82  F   UNL A   1      41.570  35.955  36.450  1.00  0.00    -0.206 F 
ATOM     83  C   UNL A   1      39.671  36.195  39.514  1.00  0.00     0.060 A 
BRANCH  83  84
ATOM     84  S   UNL A   1      39.464  37.305  40.926  1.00  0.00     0.124 S 
ATOM     85  O   UNL A   1      38.541  38.297  40.387  1.00  0.00    -0.237 OA
ATOM     86  O   UNL A   1      38.918  36.409  41.940  1.00  0.00    -0.237 OA
ATOM     87  O   UNL A   1      40.821  37.779  41.182  1.00  0.00    -0.744 OA
ENDBRANCH  83  84
ENDBRANCH  51  76
BRANCH  63  88
ATOM     88  C   UNL A   1      44.113  28.908  36.149  1.00  0.00     0.058 A 
ATOM     89  C   UNL A   1      45.416  29.427  36.152  1.00  0.00     0.135 A 
ATOM     90  C   UNL A   1      43.841  27.807  36.977  1.00  0.00     0.135 A 
ATOM     91  F   UNL A   1      45.729  30.476  35.374  1.00  0.00    -0.206 F 
ATOM     92  C   UNL A   1      46.417  28.863  36.936  1.00  0.00     0.059 A 
ATOM     93  C   UNL A   1      44.818  27.248  37.793  1.00  0.00     0.059 A 
ATOM     94  F   UNL A   1      42.606  27.281  37.021  1.00  0.00    -0.206 F 
ATOM     95  C   UNL A   1      46.106  27.777  37.757  1.00  0.00     0.060 A 
BRANCH  95  96
ATOM     96  S   UNL A   1      47.404  27.088  38.806  1.00  0.00     0.124 S 
ATOM     97  O   UNL A   1      46.870  25.763  39.100  1.00  0.00    -0.237 OA
ATOM     98  O   UNL A   1      48.567  27.121  37.924  1.00  0.00    -0.237 OA
ATOM     99  O   UNL A   1      47.454  28.010  39.936  1.00  0.00    -0.744 OA
ENDBRANCH  95  96
ENDBRANCH  63  88
ENDBRANCH  37  38
ENDBRANCH  30  32
ENDBRANCH  29  30
ENDBRANCH  28  29
ENDBRANCH   1  28
TORSDOF 18
ENDMDL
