MODEL 1
REMARK VINA RESULT:     -10.4      0.000      0.000
REMARK SMILES COc1cccc([C@@]([NH3+])(C(=O)OCCOC(=O)c2ccc(-c3c4nc(c(-c5c(F)cc(S(=O)(=O)[O-])cc5F)c5ccc([nH]5)c(-c5c(F)cc(S(=O)(=O)[O-])cc5F)c5nc(c(-c6c(F)cc(S(=O)(=O)[O-])cc6F)c6ccc3[nH]6)C=C5)C=C4)cc2)C(F)(F)F)c1
REMARK SMILES IDX 14 1 13 2 12 3 10 4 11 5 8 6 7 7 3 8 4 9 88 10 5 11 6 12
REMARK SMILES IDX 2 13 1 14 9 15 84 19 85 20 86 21 87 22 15 23 16 24 17 25
REMARK SMILES IDX 18 26 19 27 83 28 20 29 82 30 21 31 22 32 23 33 76 34 24 35
REMARK SMILES IDX 81 36 75 37 77 38 25 39 80 40 74 41 73 42 26 44 60 45 39 46
REMARK SMILES IDX 59 47 40 48 43 49 58 50 78 51 41 52 42 53 57 55 79 56 44 57
REMARK SMILES IDX 27 58 28 59 37 60 29 61 30 62 36 63 38 64 31 65 32 66 33 67
REMARK SMILES IDX 34 68 35 69 61 70 62 71 71 72 63 73 64 74 70 75 72 76 65 77
REMARK SMILES IDX 66 78 67 79 68 80 69 81 45 82 46 83 55 84 47 85 48 86 54 87
REMARK SMILES IDX 56 88 49 89 50 90 51 91 52 92 53 93
REMARK H PARENT 9 16 9 17 9 18 77 43 43 54
REMARK Flexibility Score: inf
ROOT
ATOM      1  C   UNL A   1      34.253  30.105  27.571  1.00  0.00     0.275 C 
ENDROOT
BRANCH   1   2
ATOM      2  C   UNL A   1      33.335  31.296  27.332  1.00  0.00     0.274 C 
BRANCH   2   3
ATOM      3  O   UNL A   1      33.438  32.239  28.420  1.00  0.00    -0.457 OA
BRANCH   3   4
ATOM      4  C   UNL A   1      33.063  33.527  28.168  1.00  0.00     0.383 C 
ATOM      5  O   UNL A   1      32.109  33.816  27.451  1.00  0.00    -0.244 OA
BRANCH   4   6
ATOM      6  C   UNL A   1      34.056  34.580  28.726  1.00  0.00     0.314 C 
BRANCH   6   7
ATOM      7  C   UNL A   1      35.162  33.975  29.626  1.00  0.00     0.037 A 
ATOM      8  C   UNL A   1      35.949  32.946  31.708  1.00  0.00     0.119 A 
ATOM      9  C   UNL A   1      37.257  32.972  31.229  1.00  0.00     0.046 A 
ATOM     10  C   UNL A   1      34.911  33.441  30.910  1.00  0.00     0.057 A 
ATOM     11  C   UNL A   1      37.532  33.466  29.959  1.00  0.00     0.004 A 
ATOM     12  C   UNL A   1      36.497  33.964  29.169  1.00  0.00     0.011 A 
BRANCH   8  13
ATOM     13  O   UNL A   1      35.819  32.450  32.976  1.00  0.00    -0.497 OA
ATOM     14  C   UNL A   1      36.364  33.229  34.035  1.00  0.00     0.278 C 
ENDBRANCH   8  13
ENDBRANCH   6   7
BRANCH   6  15
ATOM     15  N   UNL A   1      34.724  35.225  27.514  1.00  0.00    -0.332 N 
ATOM     16  H   UNL A   1      34.202  34.988  26.671  1.00  0.00     0.346 HD
ATOM     17  H   UNL A   1      35.680  34.880  27.430  1.00  0.00     0.346 HD
ATOM     18  H   UNL A   1      34.737  36.239  27.633  1.00  0.00     0.346 HD
ENDBRANCH   6  15
BRANCH   6  19
ATOM     19  C   UNL A   1      33.151  35.618  29.463  1.00  0.00     0.460 C 
ATOM     20  F   UNL A   1      33.838  36.641  30.006  1.00  0.00    -0.164 F 
ATOM     21  F   UNL A   1      32.252  36.159  28.594  1.00  0.00    -0.164 F 
ATOM     22  F   UNL A   1      32.407  35.049  30.442  1.00  0.00    -0.164 F 
ENDBRANCH   6  19
ENDBRANCH   4   6
ENDBRANCH   3   4
ENDBRANCH   2   3
ENDBRANCH   1   2
BRANCH   1  23
ATOM     23  O   UNL A   1      35.553  30.598  27.927  1.00  0.00    -0.458 OA
BRANCH  23  24
ATOM     24  C   UNL A   1      36.070  30.123  29.080  1.00  0.00     0.338 C 
ATOM     25  O   UNL A   1      35.478  29.886  30.121  1.00  0.00    -0.246 OA
BRANCH  24  26
ATOM     26  C   UNL A   1      37.513  29.902  28.898  1.00  0.00     0.060 A 
ATOM     27  C   UNL A   1      38.036  29.783  27.612  1.00  0.00     0.016 A 
ATOM     28  C   UNL A   1      38.330  29.711  30.011  1.00  0.00     0.016 A 
ATOM     29  C   UNL A   1      39.357  29.378  27.431  1.00  0.00     0.010 A 
ATOM     30  C   UNL A   1      39.681  29.403  29.826  1.00  0.00     0.010 A 
ATOM     31  C   UNL A   1      40.201  29.194  28.535  1.00  0.00    -0.014 A 
BRANCH  31  32
ATOM     32  C   UNL A   1      41.606  28.732  28.352  1.00  0.00     0.031 A 
ATOM     33  C   UNL A   1      42.743  29.708  28.515  1.00  0.00     0.074 A 
ATOM     34  C   UNL A   1      41.875  27.448  28.048  1.00  0.00     0.049 A 
ATOM     35  N   UNL A   1      44.005  29.568  28.199  1.00  0.00    -0.248 NA
ATOM     36  C   UNL A   1      42.414  31.020  29.095  1.00  0.00     0.031 C 
ATOM     37  C   UNL A   1      40.882  26.381  27.903  1.00  0.00     0.029 A 
ATOM     38  N   UNL A   1      43.072  26.816  27.810  1.00  0.00    -0.354 N 
ATOM     39  C   UNL A   1      44.605  30.792  28.473  1.00  0.00     0.074 A 
ATOM     40  C   UNL A   1      43.571  31.660  28.995  1.00  0.00     0.031 C 
ATOM     41  C   UNL A   1      41.511  25.224  27.646  1.00  0.00     0.029 A 
ATOM     42  C   UNL A   1      42.942  25.478  27.522  1.00  0.00     0.049 A 
ATOM     43  H   UNL A   1      43.940  27.278  27.844  1.00  0.00     0.167 HD
ATOM     44  C   UNL A   1      45.897  31.159  28.299  1.00  0.00     0.037 A 
ATOM     45  C   UNL A   1      43.861  24.565  27.158  1.00  0.00     0.037 A 
ATOM     46  C   UNL A   1      46.936  30.273  27.844  1.00  0.00     0.049 A 
ATOM     47  C   UNL A   1      45.292  24.988  26.983  1.00  0.00     0.074 A 
ATOM     48  C   UNL A   1      48.276  30.550  27.635  1.00  0.00     0.029 A 
ATOM     49  N   UNL A   1      46.757  28.929  27.556  1.00  0.00    -0.354 N 
ATOM     50  N   UNL A   1      45.824  26.174  27.157  1.00  0.00    -0.248 NA
ATOM     51  C   UNL A   1      46.239  23.959  26.534  1.00  0.00     0.031 C 
ATOM     52  C   UNL A   1      48.904  29.375  27.205  1.00  0.00     0.029 A 
ATOM     53  C   UNL A   1      47.961  28.362  27.172  1.00  0.00     0.049 A 
ATOM     54  H   UNL A   1      45.899  28.448  27.615  1.00  0.00     0.167 HD
ATOM     55  C   UNL A   1      47.169  26.035  26.833  1.00  0.00     0.074 A 
ATOM     56  C   UNL A   1      47.373  24.645  26.477  1.00  0.00     0.031 C 
ATOM     57  C   UNL A   1      48.143  26.977  26.818  1.00  0.00     0.037 A 
BRANCH  44  58
ATOM     58  C   UNL A   1      46.252  32.594  28.566  1.00  0.00     0.058 A 
ATOM     59  C   UNL A   1      46.699  33.029  29.822  1.00  0.00     0.135 A 
ATOM     60  C   UNL A   1      46.162  33.545  27.536  1.00  0.00     0.135 A 
ATOM     61  F   UNL A   1      46.782  32.165  30.846  1.00  0.00    -0.206 F 
ATOM     62  C   UNL A   1      47.023  34.362  30.055  1.00  0.00     0.059 A 
ATOM     63  C   UNL A   1      46.501  34.878  27.740  1.00  0.00     0.059 A 
ATOM     64  F   UNL A   1      45.738  33.180  26.315  1.00  0.00    -0.206 F 
ATOM     65  C   UNL A   1      46.916  35.281  29.008  1.00  0.00     0.060 A 
BRANCH  65  66
ATOM     66  S   UNL A   1      47.336  37.010  29.319  1.00  0.00     0.124 S 
ATOM     67  O   UNL A   1      47.988  36.919  30.621  1.00  0.00    -0.237 OA
ATOM     68  O   UNL A   1      48.211  37.330  28.194  1.00  0.00    -0.237 OA
ATOM     69  O   UNL A   1      46.039  37.679  29.308  1.00  0.00    -0.744 OA
ENDBRANCH  65  66
ENDBRANCH  44  58
BRANCH  45  70
ATOM     70  C   UNL A   1      43.442  23.164  26.893  1.00  0.00     0.058 A 
ATOM     71  C   UNL A   1      43.400  22.661  25.585  1.00  0.00     0.135 A 
ATOM     72  C   UNL A   1      43.114  22.293  27.944  1.00  0.00     0.135 A 
ATOM     73  F   UNL A   1      43.694  23.461  24.549  1.00  0.00    -0.206 F 
ATOM     74  C   UNL A   1      43.053  21.339  25.326  1.00  0.00     0.059 A 
ATOM     75  C   UNL A   1      42.785  20.962  27.712  1.00  0.00     0.059 A 
ATOM     76  F   UNL A   1      43.150  22.726  29.213  1.00  0.00    -0.206 F 
ATOM     77  C   UNL A   1      42.751  20.495  26.397  1.00  0.00     0.060 A 
BRANCH  77  78
ATOM     78  S   UNL A   1      42.383  18.757  26.069  1.00  0.00     0.124 S 
ATOM     79  O   UNL A   1      40.977  18.825  25.688  1.00  0.00    -0.237 OA
ATOM     80  O   UNL A   1      43.320  18.434  24.997  1.00  0.00    -0.237 OA
ATOM     81  O   UNL A   1      42.663  18.113  27.349  1.00  0.00    -0.744 OA
ENDBRANCH  77  78
ENDBRANCH  45  70
BRANCH  57  82
ATOM     82  C   UNL A   1      49.515  26.532  26.411  1.00  0.00     0.058 A 
ATOM     83  C   UNL A   1      50.343  25.826  27.296  1.00  0.00     0.135 A 
ATOM     84  C   UNL A   1      49.995  26.785  25.117  1.00  0.00     0.135 A 
ATOM     85  F   UNL A   1      49.930  25.568  28.547  1.00  0.00    -0.206 F 
ATOM     86  C   UNL A   1      51.612  25.400  26.918  1.00  0.00     0.059 A 
ATOM     87  C   UNL A   1      51.254  26.353  24.711  1.00  0.00     0.059 A 
ATOM     88  F   UNL A   1      49.236  27.451  24.232  1.00  0.00    -0.206 F 
ATOM     89  C   UNL A   1      52.060  25.672  25.624  1.00  0.00     0.060 A 
BRANCH  89  90
ATOM     90  S   UNL A   1      53.698  25.096  25.130  1.00  0.00     0.124 S 
ATOM     91  O   UNL A   1      53.592  23.661  25.378  1.00  0.00    -0.237 OA
ATOM     92  O   UNL A   1      53.764  25.493  23.726  1.00  0.00    -0.237 OA
ATOM     93  O   UNL A   1      54.595  25.824  26.023  1.00  0.00    -0.744 OA
ENDBRANCH  89  90
ENDBRANCH  57  82
ENDBRANCH  31  32
ENDBRANCH  24  26
ENDBRANCH  23  24
ENDBRANCH   1  23
TORSDOF 18
ENDMDL
MODEL 2
REMARK VINA RESULT:     -10.3      6.826     13.184
REMARK SMILES COc1cccc([C@@]([NH3+])(C(=O)OCCOC(=O)c2ccc(-c3c4nc(c(-c5c(F)cc(S(=O)(=O)[O-])cc5F)c5ccc([nH]5)c(-c5c(F)cc(S(=O)(=O)[O-])cc5F)c5nc(c(-c6c(F)cc(S(=O)(=O)[O-])cc6F)c6ccc3[nH]6)C=C5)C=C4)cc2)C(F)(F)F)c1
REMARK SMILES IDX 14 1 13 2 12 3 10 4 11 5 8 6 7 7 3 8 4 9 88 10 5 11 6 12
REMARK SMILES IDX 2 13 1 14 9 15 84 19 85 20 86 21 87 22 15 23 16 24 17 25
REMARK SMILES IDX 18 26 19 27 83 28 20 29 82 30 21 31 22 32 23 33 76 34 24 35
REMARK SMILES IDX 81 36 75 37 77 38 25 39 80 40 74 41 73 42 26 44 60 45 39 46
REMARK SMILES IDX 59 47 40 48 43 49 58 50 78 51 41 52 42 53 57 55 79 56 44 57
REMARK SMILES IDX 27 58 28 59 37 60 29 61 30 62 36 63 38 64 31 65 32 66 33 67
REMARK SMILES IDX 34 68 35 69 61 70 62 71 71 72 63 73 64 74 70 75 72 76 65 77
REMARK SMILES IDX 66 78 67 79 68 80 69 81 45 82 46 83 55 84 47 85 48 86 54 87
REMARK SMILES IDX 56 88 49 89 50 90 51 91 52 92 53 93
REMARK H PARENT 9 16 9 17 9 18 77 43 43 54
REMARK Flexibility Score: inf
ROOT
ATOM      1  C   UNL A   1      38.858  22.593  25.955  1.00  0.00     0.275 C 
ENDROOT
BRANCH   1   2
ATOM      2  C   UNL A   1      37.652  23.331  25.391  1.00  0.00     0.274 C 
BRANCH   2   3
ATOM      3  O   UNL A   1      36.456  22.972  26.115  1.00  0.00    -0.457 OA
BRANCH   3   4
ATOM      4  C   UNL A   1      35.690  21.967  25.597  1.00  0.00     0.383 C 
ATOM      5  O   UNL A   1      36.162  20.908  25.196  1.00  0.00    -0.244 OA
BRANCH   4   6
ATOM      6  C   UNL A   1      34.203  22.361  25.405  1.00  0.00     0.314 C 
BRANCH   6   7
ATOM      7  C   UNL A   1      34.006  23.798  24.860  1.00  0.00     0.037 A 
ATOM      8  C   UNL A   1      33.801  25.419  23.032  1.00  0.00     0.119 A 
ATOM      9  C   UNL A   1      33.731  26.458  23.958  1.00  0.00     0.046 A 
ATOM     10  C   UNL A   1      33.934  24.100  23.482  1.00  0.00     0.057 A 
ATOM     11  C   UNL A   1      33.772  26.189  25.322  1.00  0.00     0.004 A 
ATOM     12  C   UNL A   1      33.910  24.875  25.766  1.00  0.00     0.011 A 
BRANCH   8  13
ATOM     13  O   UNL A   1      33.766  25.821  21.725  1.00  0.00    -0.497 OA
ATOM     14  C   UNL A   1      32.524  25.689  21.041  1.00  0.00     0.278 C 
ENDBRANCH   8  13
ENDBRANCH   6   7
BRANCH   6  15
ATOM     15  N   UNL A   1      33.626  21.380  24.387  1.00  0.00    -0.332 N 
ATOM     16  H   UNL A   1      32.648  21.196  24.609  1.00  0.00     0.346 HD
ATOM     17  H   UNL A   1      34.152  20.507  24.422  1.00  0.00     0.346 HD
ATOM     18  H   UNL A   1      33.694  21.781  23.452  1.00  0.00     0.346 HD
ENDBRANCH   6  15
BRANCH   6  19
ATOM     19  C   UNL A   1      33.553  22.132  26.807  1.00  0.00     0.460 C 
ATOM     20  F   UNL A   1      34.123  22.855  27.790  1.00  0.00    -0.164 F 
ATOM     21  F   UNL A   1      32.235  22.472  26.776  1.00  0.00    -0.164 F 
ATOM     22  F   UNL A   1      33.580  20.829  27.179  1.00  0.00    -0.164 F 
ENDBRANCH   6  19
ENDBRANCH   4   6
ENDBRANCH   3   4
ENDBRANCH   2   3
ENDBRANCH   1   2
BRANCH   1  23
ATOM     23  O   UNL A   1      39.335  23.313  27.100  1.00  0.00    -0.458 OA
BRANCH  23  24
ATOM     24  C   UNL A   1      40.402  24.114  26.892  1.00  0.00     0.338 C 
ATOM     25  O   UNL A   1      41.339  23.924  26.132  1.00  0.00    -0.246 OA
BRANCH  24  26
ATOM     26  C   UNL A   1      40.269  25.313  27.733  1.00  0.00     0.060 A 
ATOM     27  C   UNL A   1      41.182  26.357  27.596  1.00  0.00     0.016 A 
ATOM     28  C   UNL A   1      39.296  25.355  28.729  1.00  0.00     0.016 A 
ATOM     29  C   UNL A   1      41.187  27.403  28.516  1.00  0.00     0.010 A 
ATOM     30  C   UNL A   1      39.240  26.456  29.589  1.00  0.00     0.010 A 
ATOM     31  C   UNL A   1      40.209  27.474  29.518  1.00  0.00    -0.014 A 
BRANCH  31  32
ATOM     32  C   UNL A   1      40.226  28.573  30.524  1.00  0.00     0.031 A 
ATOM     33  C   UNL A   1      41.252  28.564  31.628  1.00  0.00     0.074 A 
ATOM     34  C   UNL A   1      39.337  29.583  30.455  1.00  0.00     0.049 A 
ATOM     35  N   UNL A   1      41.310  29.298  32.710  1.00  0.00    -0.248 NA
ATOM     36  C   UNL A   1      42.349  27.590  31.508  1.00  0.00     0.031 C 
ATOM     37  C   UNL A   1      38.316  29.750  29.418  1.00  0.00     0.029 A 
ATOM     38  N   UNL A   1      39.152  30.670  31.275  1.00  0.00    -0.354 N 
ATOM     39  C   UNL A   1      42.402  28.828  33.431  1.00  0.00     0.074 A 
ATOM     40  C   UNL A   1      42.988  27.756  32.658  1.00  0.00     0.031 C 
ATOM     41  C   UNL A   1      37.644  30.890  29.639  1.00  0.00     0.029 A 
ATOM     42  C   UNL A   1      38.124  31.492  30.877  1.00  0.00     0.049 A 
ATOM     43  H   UNL A   1      39.704  30.843  32.071  1.00  0.00     0.167 HD
ATOM     44  C   UNL A   1      42.867  29.251  34.631  1.00  0.00     0.037 A 
ATOM     45  C   UNL A   1      37.598  32.585  31.461  1.00  0.00     0.037 A 
ATOM     46  C   UNL A   1      42.323  30.363  35.365  1.00  0.00     0.049 A 
ATOM     47  C   UNL A   1      38.137  33.046  32.786  1.00  0.00     0.074 A 
ATOM     48  C   UNL A   1      42.725  30.867  36.590  1.00  0.00     0.029 A 
ATOM     49  N   UNL A   1      41.277  31.161  34.928  1.00  0.00    -0.354 N 
ATOM     50  N   UNL A   1      39.111  32.532  33.498  1.00  0.00    -0.248 NA
ATOM     51  C   UNL A   1      37.488  34.213  33.398  1.00  0.00     0.031 C 
ATOM     52  C   UNL A   1      41.911  31.963  36.901  1.00  0.00     0.029 A 
ATOM     53  C   UNL A   1      41.020  32.156  35.857  1.00  0.00     0.049 A 
ATOM     54  H   UNL A   1      40.789  31.038  34.082  1.00  0.00     0.167 HD
ATOM     55  C   UNL A   1      39.188  33.310  34.648  1.00  0.00     0.074 A 
ATOM     56  C   UNL A   1      38.179  34.343  34.523  1.00  0.00     0.031 C 
ATOM     57  C   UNL A   1      40.010  33.173  35.717  1.00  0.00     0.037 A 
BRANCH  44  58
ATOM     58  C   UNL A   1      44.002  28.480  35.244  1.00  0.00     0.058 A 
ATOM     59  C   UNL A   1      45.342  28.831  35.029  1.00  0.00     0.135 A 
ATOM     60  C   UNL A   1      43.736  27.382  36.079  1.00  0.00     0.135 A 
ATOM     61  F   UNL A   1      45.650  29.859  34.222  1.00  0.00    -0.206 F 
ATOM     62  C   UNL A   1      46.383  28.107  35.603  1.00  0.00     0.059 A 
ATOM     63  C   UNL A   1      44.760  26.657  36.680  1.00  0.00     0.059 A 
ATOM     64  F   UNL A   1      42.470  27.003  36.316  1.00  0.00    -0.206 F 
ATOM     65  C   UNL A   1      46.081  27.018  36.423  1.00  0.00     0.060 A 
BRANCH  65  66
ATOM     66  S   UNL A   1      47.437  26.081  37.162  1.00  0.00     0.124 S 
ATOM     67  O   UNL A   1      46.777  24.818  37.478  1.00  0.00    -0.237 OA
ATOM     68  O   UNL A   1      48.415  26.031  36.079  1.00  0.00    -0.237 OA
ATOM     69  O   UNL A   1      47.823  26.895  38.311  1.00  0.00    -0.744 OA
ENDBRANCH  65  66
ENDBRANCH  44  58
BRANCH  45  70
ATOM     70  C   UNL A   1      36.466  33.294  30.810  1.00  0.00     0.058 A 
ATOM     71  C   UNL A   1      35.162  33.182  31.314  1.00  0.00     0.135 A 
ATOM     72  C   UNL A   1      36.672  34.126  29.699  1.00  0.00     0.135 A 
ATOM     73  F   UNL A   1      34.916  32.388  32.367  1.00  0.00    -0.206 F 
ATOM     74  C   UNL A   1      34.100  33.874  30.742  1.00  0.00     0.059 A 
ATOM     75  C   UNL A   1      35.631  34.845  29.123  1.00  0.00     0.059 A 
ATOM     76  F   UNL A   1      37.904  34.273  29.188  1.00  0.00    -0.206 F 
ATOM     77  C   UNL A   1      34.345  34.709  29.649  1.00  0.00     0.060 A 
BRANCH  77  78
ATOM     78  S   UNL A   1      32.984  35.674  28.958  1.00  0.00     0.124 S 
ATOM     79  O   UNL A   1      33.699  36.776  28.325  1.00  0.00    -0.237 OA
ATOM     80  O   UNL A   1      32.350  34.721  28.053  1.00  0.00    -0.237 OA
ATOM     81  O   UNL A   1      32.196  36.023  30.137  1.00  0.00    -0.744 OA
ENDBRANCH  77  78
ENDBRANCH  45  70
BRANCH  57  82
ATOM     82  C   UNL A   1      39.855  34.167  36.828  1.00  0.00     0.058 A 
ATOM     83  C   UNL A   1      40.455  35.434  36.758  1.00  0.00     0.135 A 
ATOM     84  C   UNL A   1      39.078  33.865  37.955  1.00  0.00     0.135 A 
ATOM     85  F   UNL A   1      41.215  35.765  35.702  1.00  0.00    -0.206 F 
ATOM     86  C   UNL A   1      40.303  36.364  37.782  1.00  0.00     0.059 A 
ATOM     87  C   UNL A   1      38.898  34.786  38.982  1.00  0.00     0.059 A 
ATOM     88  F   UNL A   1      38.479  32.668  38.063  1.00  0.00    -0.206 F 
ATOM     89  C   UNL A   1      39.526  36.029  38.891  1.00  0.00     0.060 A 
BRANCH  89  90
ATOM     90  S   UNL A   1      39.312  37.249  40.206  1.00  0.00     0.124 S 
ATOM     91  O   UNL A   1      38.569  36.481  41.200  1.00  0.00    -0.237 OA
ATOM     92  O   UNL A   1      40.690  37.578  40.560  1.00  0.00    -0.237 OA
ATOM     93  O   UNL A   1      38.567  38.320  39.552  1.00  0.00    -0.744 OA
ENDBRANCH  89  90
ENDBRANCH  57  82
ENDBRANCH  31  32
ENDBRANCH  24  26
ENDBRANCH  23  24
ENDBRANCH   1  23
TORSDOF 18
ENDMDL
MODEL 3
REMARK VINA RESULT:     -10.3      3.511      4.998
REMARK SMILES COc1cccc([C@@]([NH3+])(C(=O)OCCOC(=O)c2ccc(-c3c4nc(c(-c5c(F)cc(S(=O)(=O)[O-])cc5F)c5ccc([nH]5)c(-c5c(F)cc(S(=O)(=O)[O-])cc5F)c5nc(c(-c6c(F)cc(S(=O)(=O)[O-])cc6F)c6ccc3[nH]6)C=C5)C=C4)cc2)C(F)(F)F)c1
REMARK SMILES IDX 14 1 13 2 12 3 10 4 11 5 8 6 7 7 3 8 4 9 88 10 5 11 6 12
REMARK SMILES IDX 2 13 1 14 9 15 84 19 85 20 86 21 87 22 15 23 16 24 17 25
REMARK SMILES IDX 18 26 19 27 83 28 20 29 82 30 21 31 22 32 23 33 76 34 24 35
REMARK SMILES IDX 81 36 75 37 77 38 25 39 80 40 74 41 73 42 26 44 60 45 39 46
REMARK SMILES IDX 59 47 40 48 43 49 58 50 78 51 41 52 42 53 57 55 79 56 44 57
REMARK SMILES IDX 27 58 28 59 37 60 29 61 30 62 36 63 38 64 31 65 32 66 33 67
REMARK SMILES IDX 34 68 35 69 61 70 62 71 71 72 63 73 64 74 70 75 72 76 65 77
REMARK SMILES IDX 66 78 67 79 68 80 69 81 45 82 46 83 55 84 47 85 48 86 54 87
REMARK SMILES IDX 56 88 49 89 50 90 51 91 52 92 53 93
REMARK H PARENT 9 16 9 17 9 18 77 43 43 54
REMARK Flexibility Score: inf
ROOT
ATOM      1  C   UNL A   1      33.197  30.819  26.844  1.00  0.00     0.275 C 
ENDROOT
BRANCH   1   2
ATOM      2  C   UNL A   1      31.791  30.238  26.919  1.00  0.00     0.274 C 
BRANCH   2   3
ATOM      3  O   UNL A   1      31.591  29.265  25.871  1.00  0.00    -0.457 OA
BRANCH   3   4
ATOM      4  C   UNL A   1      31.547  27.951  26.239  1.00  0.00     0.383 C 
ATOM      5  O   UNL A   1      31.209  27.584  27.360  1.00  0.00    -0.244 OA
BRANCH   4   6
ATOM      6  C   UNL A   1      32.128  26.991  25.169  1.00  0.00     0.314 C 
BRANCH   6   7
ATOM      7  C   UNL A   1      31.766  25.504  25.407  1.00  0.00     0.037 A 
ATOM      8  C   UNL A   1      31.805  23.443  26.735  1.00  0.00     0.119 A 
ATOM      9  C   UNL A   1      31.137  22.769  25.715  1.00  0.00     0.046 A 
ATOM     10  C   UNL A   1      32.113  24.800  26.582  1.00  0.00     0.057 A 
ATOM     11  C   UNL A   1      30.758  23.442  24.558  1.00  0.00     0.004 A 
ATOM     12  C   UNL A   1      31.072  24.791  24.407  1.00  0.00     0.011 A 
BRANCH   8  13
ATOM     13  O   UNL A   1      32.134  22.663  27.810  1.00  0.00    -0.497 OA
ATOM     14  C   UNL A   1      33.431  22.078  27.813  1.00  0.00     0.278 C 
ENDBRANCH   8  13
ENDBRANCH   6   7
BRANCH   6  15
ATOM     15  N   UNL A   1      31.527  27.422  23.833  1.00  0.00    -0.332 N 
ATOM     16  H   UNL A   1      31.606  28.434  23.735  1.00  0.00     0.346 HD
ATOM     17  H   UNL A   1      30.543  27.153  23.801  1.00  0.00     0.346 HD
ATOM     18  H   UNL A   1      32.029  26.965  23.071  1.00  0.00     0.346 HD
ENDBRANCH   6  15
BRANCH   6  19
ATOM     19  C   UNL A   1      33.664  27.269  25.187  1.00  0.00     0.460 C 
ATOM     20  F   UNL A   1      34.010  28.425  24.588  1.00  0.00    -0.164 F 
ATOM     21  F   UNL A   1      34.115  27.336  26.471  1.00  0.00    -0.164 F 
ATOM     22  F   UNL A   1      34.375  26.271  24.609  1.00  0.00    -0.164 F 
ENDBRANCH   6  19
ENDBRANCH   4   6
ENDBRANCH   3   4
ENDBRANCH   2   3
ENDBRANCH   1   2
BRANCH   1  23
ATOM     23  O   UNL A   1      34.063  30.016  27.660  1.00  0.00    -0.458 OA
BRANCH  23  24
ATOM     24  C   UNL A   1      34.801  30.684  28.572  1.00  0.00     0.338 C 
ATOM     25  O   UNL A   1      34.446  31.607  29.287  1.00  0.00    -0.246 OA
BRANCH  24  26
ATOM     26  C   UNL A   1      36.155  30.109  28.600  1.00  0.00     0.060 A 
ATOM     27  C   UNL A   1      36.685  29.652  29.805  1.00  0.00     0.016 A 
ATOM     28  C   UNL A   1      36.936  30.119  27.446  1.00  0.00     0.016 A 
ATOM     29  C   UNL A   1      38.029  29.292  29.884  1.00  0.00     0.010 A 
ATOM     30  C   UNL A   1      38.255  29.661  27.507  1.00  0.00     0.010 A 
ATOM     31  C   UNL A   1      38.830  29.280  28.733  1.00  0.00    -0.014 A 
BRANCH  31  32
ATOM     32  C   UNL A   1      40.274  28.925  28.814  1.00  0.00     0.031 A 
ATOM     33  C   UNL A   1      41.274  29.951  29.285  1.00  0.00     0.074 A 
ATOM     34  C   UNL A   1      40.701  27.692  28.476  1.00  0.00     0.049 A 
ATOM     35  N   UNL A   1      42.581  29.918  29.231  1.00  0.00    -0.248 NA
ATOM     36  C   UNL A   1      40.731  31.182  29.881  1.00  0.00     0.031 C 
ATOM     37  C   UNL A   1      39.846  26.584  28.047  1.00  0.00     0.029 A 
ATOM     38  N   UNL A   1      41.967  27.160  28.448  1.00  0.00    -0.354 N 
ATOM     39  C   UNL A   1      43.013  31.147  29.717  1.00  0.00     0.074 A 
ATOM     40  C   UNL A   1      41.829  31.899  30.075  1.00  0.00     0.031 C 
ATOM     41  C   UNL A   1      40.604  25.496  27.840  1.00  0.00     0.029 A 
ATOM     42  C   UNL A   1      42.005  25.849  28.038  1.00  0.00     0.049 A 
ATOM     43  H   UNL A   1      42.771  27.670  28.697  1.00  0.00     0.167 HD
ATOM     44  C   UNL A   1      44.280  31.607  29.845  1.00  0.00     0.037 A 
ATOM     45  C   UNL A   1      43.049  25.030  27.807  1.00  0.00     0.037 A 
ATOM     46  C   UNL A   1      45.457  30.832  29.552  1.00  0.00     0.049 A 
ATOM     47  C   UNL A   1      44.447  25.556  27.968  1.00  0.00     0.074 A 
ATOM     48  C   UNL A   1      46.786  31.210  29.650  1.00  0.00     0.029 A 
ATOM     49  N   UNL A   1      45.447  29.511  29.132  1.00  0.00    -0.354 N 
ATOM     50  N   UNL A   1      44.837  26.752  28.339  1.00  0.00    -0.248 NA
ATOM     51  C   UNL A   1      45.545  24.632  27.651  1.00  0.00     0.031 C 
ATOM     52  C   UNL A   1      47.579  30.120  29.273  1.00  0.00     0.029 A 
ATOM     53  C   UNL A   1      46.745  29.057  28.967  1.00  0.00     0.049 A 
ATOM     54  H   UNL A   1      44.637  28.975  28.973  1.00  0.00     0.167 HD
ATOM     55  C   UNL A   1      46.226  26.726  28.294  1.00  0.00     0.074 A 
ATOM     56  C   UNL A   1      46.608  25.390  27.884  1.00  0.00     0.031 C 
ATOM     57  C   UNL A   1      47.105  27.724  28.555  1.00  0.00     0.037 A 
BRANCH  44  58
ATOM     58  C   UNL A   1      44.458  33.032  30.289  1.00  0.00     0.058 A 
ATOM     59  C   UNL A   1      44.645  33.374  31.635  1.00  0.00     0.135 A 
ATOM     60  C   UNL A   1      44.464  34.069  29.341  1.00  0.00     0.135 A 
ATOM     61  F   UNL A   1      44.627  32.423  32.584  1.00  0.00    -0.206 F 
ATOM     62  C   UNL A   1      44.808  34.698  32.032  1.00  0.00     0.059 A 
ATOM     63  C   UNL A   1      44.645  35.397  29.711  1.00  0.00     0.059 A 
ATOM     64  F   UNL A   1      44.287  33.794  28.039  1.00  0.00    -0.206 F 
ATOM     65  C   UNL A   1      44.802  35.703  31.062  1.00  0.00     0.060 A 
BRANCH  65  66
ATOM     66  S   UNL A   1      45.011  37.420  31.584  1.00  0.00     0.124 S 
ATOM     67  O   UNL A   1      46.229  37.332  32.383  1.00  0.00    -0.237 OA
ATOM     68  O   UNL A   1      45.138  38.124  30.311  1.00  0.00    -0.237 OA
ATOM     69  O   UNL A   1      43.787  37.698  32.329  1.00  0.00    -0.744 OA
ENDBRANCH  65  66
ENDBRANCH  44  58
BRANCH  45  70
ATOM     70  C   UNL A   1      42.805  23.636  27.355  1.00  0.00     0.058 A 
ATOM     71  C   UNL A   1      42.934  23.285  26.003  1.00  0.00     0.135 A 
ATOM     72  C   UNL A   1      42.477  22.623  28.269  1.00  0.00     0.135 A 
ATOM     73  F   UNL A   1      43.234  24.223  25.092  1.00  0.00    -0.206 F 
ATOM     74  C   UNL A   1      42.752  21.975  25.572  1.00  0.00     0.059 A 
ATOM     75  C   UNL A   1      42.312  21.303  27.865  1.00  0.00     0.059 A 
ATOM     76  F   UNL A   1      42.353  22.909  29.574  1.00  0.00    -0.206 F 
ATOM     77  C   UNL A   1      42.446  20.988  26.513  1.00  0.00     0.060 A 
BRANCH  77  78
ATOM     78  S   UNL A   1      42.293  19.274  25.967  1.00  0.00     0.124 S 
ATOM     79  O   UNL A   1      42.837  18.554  27.113  1.00  0.00    -0.237 OA
ATOM     80  O   UNL A   1      40.856  19.138  25.752  1.00  0.00    -0.237 OA
ATOM     81  O   UNL A   1      43.105  19.240  24.754  1.00  0.00    -0.744 OA
ENDBRANCH  77  78
ENDBRANCH  45  70
BRANCH  57  82
ATOM     82  C   UNL A   1      48.562  27.404  28.412  1.00  0.00     0.058 A 
ATOM     83  C   UNL A   1      49.262  27.707  27.234  1.00  0.00     0.135 A 
ATOM     84  C   UNL A   1      49.274  26.819  29.471  1.00  0.00     0.135 A 
ATOM     85  F   UNL A   1      48.622  28.259  26.191  1.00  0.00    -0.206 F 
ATOM     86  C   UNL A   1      50.617  27.422  27.102  1.00  0.00     0.059 A 
ATOM     87  C   UNL A   1      50.633  26.542  29.368  1.00  0.00     0.059 A 
ATOM     88  F   UNL A   1      48.649  26.518  30.620  1.00  0.00    -0.206 F 
ATOM     89  C   UNL A   1      51.293  26.837  28.174  1.00  0.00     0.060 A 
BRANCH  89  90
ATOM     90  S   UNL A   1      53.058  26.492  28.007  1.00  0.00     0.124 S 
ATOM     91  O   UNL A   1      53.052  25.400  27.039  1.00  0.00    -0.237 OA
ATOM     92  O   UNL A   1      53.585  27.764  27.524  1.00  0.00    -0.237 OA
ATOM     93  O   UNL A   1      53.459  26.129  29.363  1.00  0.00    -0.744 OA
ENDBRANCH  89  90
ENDBRANCH  57  82
ENDBRANCH  31  32
ENDBRANCH  24  26
ENDBRANCH  23  24
ENDBRANCH   1  23
TORSDOF 18
ENDMDL
