MODEL 1
REMARK VINA RESULT:     -11.7      0.000      0.000
REMARK SMILES Cc1nsc(N[C@H](C)c2cccc(Br)c2)c1C(=O)OCCOC(=O)c1ccc(-c2c3nc(c(-c4c(F)cc(S(=O)(=O)[O-])cc4F)c4ccc([nH]4)c(-c4c(F)cc(S(=O)(=O)[O-])cc4F)c4nc(c(-c5c(F)cc(S(=O)(=O)[O-])cc5F)c5ccc2[nH]5)C=C4)C=C3)cc1
REMARK SMILES IDX 20 1 19 2 17 3 18 4 16 5 1 6 2 7 3 8 4 9 5 10 6 11 7 13 8 14
REMARK SMILES IDX 9 15 10 16 15 17 11 18 13 19 12 20 14 21 21 22 22 23 23 24
REMARK SMILES IDX 24 25 25 26 26 27 90 28 27 29 89 30 28 31 29 32 30 33 83 34
REMARK SMILES IDX 31 35 88 36 82 37 84 38 32 39 87 40 81 41 80 42 33 44 67 45
REMARK SMILES IDX 46 46 66 47 47 48 50 49 65 50 85 51 48 52 49 53 64 55 86 56
REMARK SMILES IDX 51 57 34 58 35 59 44 60 36 61 37 62 43 63 45 64 38 65 39 66
REMARK SMILES IDX 40 67 41 68 42 69 68 70 69 71 78 72 70 73 71 74 77 75 79 76
REMARK SMILES IDX 72 77 73 78 74 79 75 80 76 81 52 82 53 83 62 84 54 85 55 86
REMARK SMILES IDX 61 87 63 88 56 89 57 90 58 91 59 92 60 93
REMARK H PARENT 6 12 84 43 50 54
REMARK Flexibility Score: inf
ROOT
ATOM      1  C   UNL A   1      36.819  20.817  25.380  1.00  0.00     0.275 C 
ENDROOT
BRANCH   1   2
ATOM      2  O   UNL A   1      35.873  21.846  25.714  1.00  0.00    -0.458 OA
BRANCH   2   3
ATOM      3  C   UNL A   1      34.600  21.459  26.025  1.00  0.00     0.343 C 
ATOM      4  O   UNL A   1      34.243  21.154  27.163  1.00  0.00    -0.246 OA
BRANCH   3   5
ATOM      5  C   UNL A   1      33.707  21.446  24.868  1.00  0.00     0.117 A 
ATOM      6  C   UNL A   1      33.421  18.837  24.565  1.00  0.00     0.069 C 
ATOM      7  C   UNL A   1      33.146  20.266  24.237  1.00  0.00     0.068 A 
ATOM      8  N   UNL A   1      32.286  20.488  23.247  1.00  0.00    -0.195 NA
ATOM      9  S   UNL A   1      32.211  22.098  22.960  1.00  0.00    -0.018 S 
ATOM     10  C   UNL A   1      33.298  22.608  24.193  1.00  0.00     0.124 A 
BRANCH  10  11
ATOM     11  N   UNL A   1      33.747  23.887  24.410  1.00  0.00    -0.368 N 
ATOM     12  H   UNL A   1      34.322  24.248  23.697  1.00  0.00     0.162 HD
BRANCH  11  13
ATOM     13  C   UNL A   1      33.511  24.800  25.530  1.00  0.00     0.107 C 
ATOM     14  C   UNL A   1      32.202  24.674  26.302  1.00  0.00     0.036 C 
BRANCH  13  15
ATOM     15  C   UNL A   1      33.642  26.251  25.066  1.00  0.00    -0.025 A 
ATOM     16  C   UNL A   1      33.629  26.585  23.701  1.00  0.00     0.006 A 
ATOM     17  C   UNL A   1      33.652  27.292  26.009  1.00  0.00     0.021 A 
ATOM     18  C   UNL A   1      33.603  27.923  23.291  1.00  0.00     0.002 A 
ATOM     19  C   UNL A   1      33.622  28.626  25.591  1.00  0.00     0.018 A 
ATOM     20  C   UNL A   1      33.591  28.946  24.238  1.00  0.00     0.016 A 
ATOM     21  Br  UNL A   1      33.584  30.010  26.881  1.00  0.00    -0.051 Br
ENDBRANCH  13  15
ENDBRANCH  11  13
ENDBRANCH  10  11
ENDBRANCH   3   5
ENDBRANCH   2   3
ENDBRANCH   1   2
BRANCH   1  22
ATOM     22  C   UNL A   1      38.233  21.371  25.268  1.00  0.00     0.275 C 
BRANCH  22  23
ATOM     23  O   UNL A   1      38.480  22.401  26.224  1.00  0.00    -0.458 OA
BRANCH  23  24
ATOM     24  C   UNL A   1      39.764  22.480  26.642  1.00  0.00     0.338 C 
ATOM     25  O   UNL A   1      40.514  21.545  26.867  1.00  0.00    -0.246 OA
BRANCH  24  26
ATOM     26  C   UNL A   1      40.084  23.866  26.999  1.00  0.00     0.060 A 
ATOM     27  C   UNL A   1      41.212  24.070  27.794  1.00  0.00     0.016 A 
ATOM     28  C   UNL A   1      39.163  24.895  26.754  1.00  0.00     0.016 A 
ATOM     29  C   UNL A   1      41.345  25.272  28.456  1.00  0.00     0.010 A 
ATOM     30  C   UNL A   1      39.301  26.101  27.413  1.00  0.00     0.010 A 
ATOM     31  C   UNL A   1      40.357  26.257  28.306  1.00  0.00    -0.014 A 
BRANCH  31  32
ATOM     32  C   UNL A   1      40.556  27.517  29.004  1.00  0.00     0.031 A 
ATOM     33  C   UNL A   1      41.640  28.335  28.399  1.00  0.00     0.074 A 
ATOM     34  C   UNL A   1      39.796  27.938  30.034  1.00  0.00     0.049 A 
ATOM     35  N   UNL A   1      42.799  28.602  28.903  1.00  0.00    -0.248 NA
ATOM     36  C   UNL A   1      41.497  28.731  26.987  1.00  0.00     0.031 C 
ATOM     37  C   UNL A   1      38.562  27.354  30.563  1.00  0.00     0.029 A 
ATOM     38  N   UNL A   1      39.943  29.059  30.793  1.00  0.00    -0.354 N 
ATOM     39  C   UNL A   1      43.448  29.395  27.962  1.00  0.00     0.074 A 
ATOM     40  C   UNL A   1      42.686  29.284  26.746  1.00  0.00     0.031 C 
ATOM     41  C   UNL A   1      37.960  28.247  31.387  1.00  0.00     0.029 A 
ATOM     42  C   UNL A   1      38.829  29.398  31.553  1.00  0.00     0.049 A 
ATOM     43  H   UNL A   1      40.775  29.587  30.803  1.00  0.00     0.167 HD
ATOM     44  C   UNL A   1      44.430  30.261  28.332  1.00  0.00     0.037 A 
ATOM     45  C   UNL A   1      38.631  30.570  32.214  1.00  0.00     0.037 A 
ATOM     46  C   UNL A   1      44.943  29.935  29.638  1.00  0.00     0.049 A 
ATOM     47  C   UNL A   1      39.971  31.183  32.420  1.00  0.00     0.074 A 
ATOM     48  C   UNL A   1      45.600  28.852  30.187  1.00  0.00     0.029 A 
ATOM     49  N   UNL A   1      44.470  30.667  30.700  1.00  0.00    -0.354 N 
ATOM     50  N   UNL A   1      40.887  30.669  33.194  1.00  0.00    -0.248 NA
ATOM     51  C   UNL A   1      40.457  32.100  31.400  1.00  0.00     0.031 C 
ATOM     52  C   UNL A   1      45.085  28.739  31.512  1.00  0.00     0.029 A 
ATOM     53  C   UNL A   1      44.192  29.792  31.717  1.00  0.00     0.049 A 
ATOM     54  H   UNL A   1      44.353  31.644  30.727  1.00  0.00     0.167 HD
ATOM     55  C   UNL A   1      42.076  30.844  32.499  1.00  0.00     0.074 A 
ATOM     56  C   UNL A   1      41.759  31.797  31.437  1.00  0.00     0.031 C 
ATOM     57  C   UNL A   1      43.127  29.990  32.675  1.00  0.00     0.037 A 
BRANCH  44  58
ATOM     58  C   UNL A   1      44.645  31.617  27.700  1.00  0.00     0.058 A 
ATOM     59  C   UNL A   1      45.836  31.856  26.982  1.00  0.00     0.135 A 
ATOM     60  C   UNL A   1      43.888  32.766  28.018  1.00  0.00     0.135 A 
ATOM     61  F   UNL A   1      46.636  30.838  26.624  1.00  0.00    -0.206 F 
ATOM     62  C   UNL A   1      46.284  33.143  26.684  1.00  0.00     0.059 A 
ATOM     63  C   UNL A   1      44.290  34.054  27.684  1.00  0.00     0.059 A 
ATOM     64  F   UNL A   1      42.772  32.713  28.753  1.00  0.00    -0.206 F 
ATOM     65  C   UNL A   1      45.510  34.237  27.056  1.00  0.00     0.060 A 
BRANCH  65  66
ATOM     66  S   UNL A   1      46.133  35.900  26.766  1.00  0.00     0.124 S 
ATOM     67  O   UNL A   1      44.920  36.696  26.919  1.00  0.00    -0.237 OA
ATOM     68  O   UNL A   1      47.127  36.037  27.825  1.00  0.00    -0.237 OA
ATOM     69  O   UNL A   1      46.674  35.825  25.412  1.00  0.00    -0.744 OA
ENDBRANCH  65  66
ENDBRANCH  44  58
BRANCH  45  70
ATOM     70  C   UNL A   1      37.376  31.369  32.308  1.00  0.00     0.058 A 
ATOM     71  C   UNL A   1      36.955  31.934  33.528  1.00  0.00     0.135 A 
ATOM     72  C   UNL A   1      36.728  31.851  31.152  1.00  0.00     0.135 A 
ATOM     73  F   UNL A   1      37.529  31.554  34.679  1.00  0.00    -0.206 F 
ATOM     74  C   UNL A   1      35.993  32.951  33.592  1.00  0.00     0.059 A 
ATOM     75  C   UNL A   1      35.763  32.856  31.192  1.00  0.00     0.059 A 
ATOM     76  F   UNL A   1      37.084  31.423  29.932  1.00  0.00    -0.206 F 
ATOM     77  C   UNL A   1      35.418  33.423  32.413  1.00  0.00     0.060 A 
BRANCH  77  78
ATOM     78  S   UNL A   1      34.315  34.857  32.464  1.00  0.00     0.124 S 
ATOM     79  O   UNL A   1      34.968  35.706  33.454  1.00  0.00    -0.237 OA
ATOM     80  O   UNL A   1      34.362  35.334  31.086  1.00  0.00    -0.237 OA
ATOM     81  O   UNL A   1      33.036  34.286  32.879  1.00  0.00    -0.744 OA
ENDBRANCH  77  78
ENDBRANCH  45  70
BRANCH  57  82
ATOM     82  C   UNL A   1      43.083  29.046  33.848  1.00  0.00     0.058 A 
ATOM     83  C   UNL A   1      43.516  29.362  35.149  1.00  0.00     0.135 A 
ATOM     84  C   UNL A   1      42.445  27.811  33.667  1.00  0.00     0.135 A 
ATOM     85  F   UNL A   1      44.045  30.561  35.428  1.00  0.00    -0.206 F 
ATOM     86  C   UNL A   1      43.359  28.468  36.212  1.00  0.00     0.059 A 
ATOM     87  C   UNL A   1      42.251  26.919  34.717  1.00  0.00     0.059 A 
ATOM     88  F   UNL A   1      41.956  27.477  32.461  1.00  0.00    -0.206 F 
ATOM     89  C   UNL A   1      42.724  27.247  35.984  1.00  0.00     0.060 A 
BRANCH  89  90
ATOM     90  S   UNL A   1      42.465  26.113  37.367  1.00  0.00     0.124 S 
ATOM     91  O   UNL A   1      42.838  24.829  36.785  1.00  0.00    -0.237 OA
ATOM     92  O   UNL A   1      43.373  26.638  38.382  1.00  0.00    -0.237 OA
ATOM     93  O   UNL A   1      41.044  26.269  37.674  1.00  0.00    -0.744 OA
ENDBRANCH  89  90
ENDBRANCH  57  82
ENDBRANCH  31  32
ENDBRANCH  24  26
ENDBRANCH  23  24
ENDBRANCH  22  23
ENDBRANCH   1  22
TORSDOF 17
ENDMDL
MODEL 2
REMARK VINA RESULT:     -11.6      0.899      1.453
REMARK SMILES Cc1nsc(N[C@H](C)c2cccc(Br)c2)c1C(=O)OCCOC(=O)c1ccc(-c2c3nc(c(-c4c(F)cc(S(=O)(=O)[O-])cc4F)c4ccc([nH]4)c(-c4c(F)cc(S(=O)(=O)[O-])cc4F)c4nc(c(-c5c(F)cc(S(=O)(=O)[O-])cc5F)c5ccc2[nH]5)C=C4)C=C3)cc1
REMARK SMILES IDX 20 1 19 2 17 3 18 4 16 5 1 6 2 7 3 8 4 9 5 10 6 11 7 13 8 14
REMARK SMILES IDX 9 15 10 16 15 17 11 18 13 19 12 20 14 21 21 22 22 23 23 24
REMARK SMILES IDX 24 25 25 26 26 27 90 28 27 29 89 30 28 31 29 32 30 33 83 34
REMARK SMILES IDX 31 35 88 36 82 37 84 38 32 39 87 40 81 41 80 42 33 44 67 45
REMARK SMILES IDX 46 46 66 47 47 48 50 49 65 50 85 51 48 52 49 53 64 55 86 56
REMARK SMILES IDX 51 57 34 58 35 59 44 60 36 61 37 62 43 63 45 64 38 65 39 66
REMARK SMILES IDX 40 67 41 68 42 69 68 70 69 71 78 72 70 73 71 74 77 75 79 76
REMARK SMILES IDX 72 77 73 78 74 79 75 80 76 81 52 82 53 83 62 84 54 85 55 86
REMARK SMILES IDX 61 87 63 88 56 89 57 90 58 91 59 92 60 93
REMARK H PARENT 6 12 84 43 50 54
REMARK Flexibility Score: inf
ROOT
ATOM      1  C   UNL A   1      36.542  21.129  25.051  1.00  0.00     0.275 C 
ENDROOT
BRANCH   1   2
ATOM      2  O   UNL A   1      35.767  21.876  26.003  1.00  0.00    -0.458 OA
BRANCH   2   3
ATOM      3  C   UNL A   1      34.470  21.495  26.201  1.00  0.00     0.343 C 
ATOM      4  O   UNL A   1      34.035  21.110  27.286  1.00  0.00    -0.246 OA
BRANCH   3   5
ATOM      5  C   UNL A   1      33.653  21.594  24.993  1.00  0.00     0.117 A 
ATOM      6  C   UNL A   1      33.238  19.025  24.535  1.00  0.00     0.069 C 
ATOM      7  C   UNL A   1      33.067  20.482  24.267  1.00  0.00     0.068 A 
ATOM      8  N   UNL A   1      32.286  20.805  23.239  1.00  0.00    -0.195 NA
ATOM      9  S   UNL A   1      32.322  22.428  23.034  1.00  0.00    -0.018 S 
ATOM     10  C   UNL A   1      33.356  22.810  24.356  1.00  0.00     0.124 A 
BRANCH  10  11
ATOM     11  N   UNL A   1      33.863  24.047  24.667  1.00  0.00    -0.368 N 
ATOM     12  H   UNL A   1      34.579  24.361  24.070  1.00  0.00     0.162 HD
BRANCH  11  13
ATOM     13  C   UNL A   1      33.511  24.975  25.744  1.00  0.00     0.107 C 
ATOM     14  C   UNL A   1      32.176  24.786  26.455  1.00  0.00     0.036 C 
BRANCH  13  15
ATOM     15  C   UNL A   1      33.573  26.417  25.241  1.00  0.00    -0.025 A 
ATOM     16  C   UNL A   1      33.705  26.708  23.872  1.00  0.00     0.006 A 
ATOM     17  C   UNL A   1      33.371  27.483  26.134  1.00  0.00     0.021 A 
ATOM     18  C   UNL A   1      33.614  28.025  23.407  1.00  0.00     0.002 A 
ATOM     19  C   UNL A   1      33.278  28.795  25.661  1.00  0.00     0.018 A 
ATOM     20  C   UNL A   1      33.392  29.070  24.302  1.00  0.00     0.016 A 
ATOM     21  Br  UNL A   1      32.954  30.207  26.878  1.00  0.00    -0.051 Br
ENDBRANCH  13  15
ENDBRANCH  11  13
ENDBRANCH  10  11
ENDBRANCH   3   5
ENDBRANCH   2   3
ENDBRANCH   1   2
BRANCH   1  22
ATOM     22  C   UNL A   1      38.034  21.230  25.340  1.00  0.00     0.275 C 
BRANCH  22  23
ATOM     23  O   UNL A   1      38.355  22.406  26.082  1.00  0.00    -0.458 OA
BRANCH  23  24
ATOM     24  C   UNL A   1      39.529  22.341  26.751  1.00  0.00     0.338 C 
ATOM     25  O   UNL A   1      40.049  21.340  27.213  1.00  0.00    -0.246 OA
BRANCH  24  26
ATOM     26  C   UNL A   1      40.009  23.697  27.039  1.00  0.00     0.060 A 
ATOM     27  C   UNL A   1      41.243  23.807  27.681  1.00  0.00     0.016 A 
ATOM     28  C   UNL A   1      39.156  24.801  26.892  1.00  0.00     0.016 A 
ATOM     29  C   UNL A   1      41.561  24.999  28.298  1.00  0.00     0.010 A 
ATOM     30  C   UNL A   1      39.480  25.995  27.506  1.00  0.00     0.010 A 
ATOM     31  C   UNL A   1      40.650  26.065  28.255  1.00  0.00    -0.014 A 
BRANCH  31  32
ATOM     32  C   UNL A   1      41.045  27.308  28.899  1.00  0.00     0.031 A 
ATOM     33  C   UNL A   1      42.229  27.931  28.251  1.00  0.00     0.074 A 
ATOM     34  C   UNL A   1      40.371  27.878  29.917  1.00  0.00     0.049 A 
ATOM     35  N   UNL A   1      43.422  28.043  28.733  1.00  0.00    -0.248 NA
ATOM     36  C   UNL A   1      42.125  28.287  26.825  1.00  0.00     0.031 C 
ATOM     37  C   UNL A   1      39.072  27.506  30.481  1.00  0.00     0.029 A 
ATOM     38  N   UNL A   1      40.693  28.994  30.627  1.00  0.00    -0.354 N 
ATOM     39  C   UNL A   1      44.167  28.692  27.754  1.00  0.00     0.074 A 
ATOM     40  C   UNL A   1      43.380  28.648  26.551  1.00  0.00     0.031 C 
ATOM     41  C   UNL A   1      38.621  28.510  31.271  1.00  0.00     0.029 A 
ATOM     42  C   UNL A   1      39.653  29.525  31.382  1.00  0.00     0.049 A 
ATOM     43  H   UNL A   1      41.594  29.393  30.608  1.00  0.00     0.167 HD
ATOM     44  C   UNL A   1      45.272  29.417  28.079  1.00  0.00     0.037 A 
ATOM     45  C   UNL A   1      39.640  30.739  31.996  1.00  0.00     0.037 A 
ATOM     46  C   UNL A   1      45.751  29.071  29.394  1.00  0.00     0.049 A 
ATOM     47  C   UNL A   1      41.060  31.153  32.164  1.00  0.00     0.074 A 
ATOM     48  C   UNL A   1      46.248  27.924  29.981  1.00  0.00     0.029 A 
ATOM     49  N   UNL A   1      45.407  29.906  30.428  1.00  0.00    -0.354 N 
ATOM     50  N   UNL A   1      41.901  30.540  32.950  1.00  0.00    -0.248 NA
ATOM     51  C   UNL A   1      41.661  31.946  31.103  1.00  0.00     0.031 C 
ATOM     52  C   UNL A   1      45.741  27.943  31.314  1.00  0.00     0.029 A 
ATOM     53  C   UNL A   1      45.017  29.124  31.483  1.00  0.00     0.049 A 
ATOM     54  H   UNL A   1      45.436  30.890  30.415  1.00  0.00     0.167 HD
ATOM     55  C   UNL A   1      43.092  30.508  32.238  1.00  0.00     0.074 A 
ATOM     56  C   UNL A   1      42.904  31.455  31.141  1.00  0.00     0.031 C 
ATOM     57  C   UNL A   1      44.008  29.516  32.441  1.00  0.00     0.037 A 
BRANCH  44  58
ATOM     58  C   UNL A   1      45.676  30.700  27.389  1.00  0.00     0.058 A 
ATOM     59  C   UNL A   1      47.016  30.861  26.975  1.00  0.00     0.135 A 
ATOM     60  C   UNL A   1      44.896  31.877  27.390  1.00  0.00     0.135 A 
ATOM     61  F   UNL A   1      47.851  29.810  26.933  1.00  0.00    -0.206 F 
ATOM     62  C   UNL A   1      47.559  32.109  26.672  1.00  0.00     0.059 A 
ATOM     63  C   UNL A   1      45.404  33.123  27.042  1.00  0.00     0.059 A 
ATOM     64  F   UNL A   1      43.631  31.902  27.823  1.00  0.00    -0.206 F 
ATOM     65  C   UNL A   1      46.747  33.237  26.726  1.00  0.00     0.060 A 
BRANCH  65  66
ATOM     66  S   UNL A   1      47.469  34.860  26.438  1.00  0.00     0.124 S 
ATOM     67  O   UNL A   1      47.875  34.755  25.042  1.00  0.00    -0.237 OA
ATOM     68  O   UNL A   1      46.340  35.743  26.713  1.00  0.00    -0.237 OA
ATOM     69  O   UNL A   1      48.556  34.922  27.411  1.00  0.00    -0.744 OA
ENDBRANCH  65  66
ENDBRANCH  44  58
BRANCH  45  70
ATOM     70  C   UNL A   1      38.519  31.718  32.067  1.00  0.00     0.058 A 
ATOM     71  C   UNL A   1      38.104  32.442  30.932  1.00  0.00     0.135 A 
ATOM     72  C   UNL A   1      37.637  31.741  33.166  1.00  0.00     0.135 A 
ATOM     73  F   UNL A   1      38.868  32.461  29.829  1.00  0.00    -0.206 F 
ATOM     74  C   UNL A   1      36.868  33.100  30.871  1.00  0.00     0.059 A 
ATOM     75  C   UNL A   1      36.405  32.394  33.132  1.00  0.00     0.059 A 
ATOM     76  F   UNL A   1      37.904  31.044  34.281  1.00  0.00    -0.206 F 
ATOM     77  C   UNL A   1      36.014  33.050  31.971  1.00  0.00     0.060 A 
BRANCH  77  78
ATOM     78  S   UNL A   1      34.344  33.736  31.841  1.00  0.00     0.124 S 
ATOM     79  O   UNL A   1      33.619  32.959  32.841  1.00  0.00    -0.237 OA
ATOM     80  O   UNL A   1      34.560  35.143  32.163  1.00  0.00    -0.237 OA
ATOM     81  O   UNL A   1      33.973  33.468  30.454  1.00  0.00    -0.744 OA
ENDBRANCH  77  78
ENDBRANCH  45  70
BRANCH  57  82
ATOM     82  C   UNL A   1      43.842  28.637  33.652  1.00  0.00     0.058 A 
ATOM     83  C   UNL A   1      44.376  28.913  34.925  1.00  0.00     0.135 A 
ATOM     84  C   UNL A   1      42.985  27.532  33.544  1.00  0.00     0.135 A 
ATOM     85  F   UNL A   1      45.123  30.005  35.136  1.00  0.00    -0.206 F 
ATOM     86  C   UNL A   1      44.104  28.099  36.028  1.00  0.00     0.059 A 
ATOM     87  C   UNL A   1      42.676  26.726  34.635  1.00  0.00     0.059 A 
ATOM     88  F   UNL A   1      42.395  27.251  32.370  1.00  0.00    -0.206 F 
ATOM     89  C   UNL A   1      43.251  27.006  35.872  1.00  0.00     0.060 A 
BRANCH  89  90
ATOM     90  S   UNL A   1      42.847  25.986  37.307  1.00  0.00     0.124 S 
ATOM     91  O   UNL A   1      41.390  25.951  37.260  1.00  0.00    -0.237 OA
ATOM     92  O   UNL A   1      43.523  24.728  37.003  1.00  0.00    -0.237 OA
ATOM     93  O   UNL A   1      43.417  26.734  38.427  1.00  0.00    -0.744 OA
ENDBRANCH  89  90
ENDBRANCH  57  82
ENDBRANCH  31  32
ENDBRANCH  24  26
ENDBRANCH  23  24
ENDBRANCH  22  23
ENDBRANCH   1  22
TORSDOF 17
ENDMDL
MODEL 3
REMARK VINA RESULT:     -11.5      3.180      9.491
REMARK SMILES Cc1nsc(N[C@H](C)c2cccc(Br)c2)c1C(=O)OCCOC(=O)c1ccc(-c2c3nc(c(-c4c(F)cc(S(=O)(=O)[O-])cc4F)c4ccc([nH]4)c(-c4c(F)cc(S(=O)(=O)[O-])cc4F)c4nc(c(-c5c(F)cc(S(=O)(=O)[O-])cc5F)c5ccc2[nH]5)C=C4)C=C3)cc1
REMARK SMILES IDX 20 1 19 2 17 3 18 4 16 5 1 6 2 7 3 8 4 9 5 10 6 11 7 13 8 14
REMARK SMILES IDX 9 15 10 16 15 17 11 18 13 19 12 20 14 21 21 22 22 23 23 24
REMARK SMILES IDX 24 25 25 26 26 27 90 28 27 29 89 30 28 31 29 32 30 33 83 34
REMARK SMILES IDX 31 35 88 36 82 37 84 38 32 39 87 40 81 41 80 42 33 44 67 45
REMARK SMILES IDX 46 46 66 47 47 48 50 49 65 50 85 51 48 52 49 53 64 55 86 56
REMARK SMILES IDX 51 57 34 58 35 59 44 60 36 61 37 62 43 63 45 64 38 65 39 66
REMARK SMILES IDX 40 67 41 68 42 69 68 70 69 71 78 72 70 73 71 74 77 75 79 76
REMARK SMILES IDX 72 77 73 78 74 79 75 80 76 81 52 82 53 83 62 84 54 85 55 86
REMARK SMILES IDX 61 87 63 88 56 89 57 90 58 91 59 92 60 93
REMARK H PARENT 6 12 84 43 50 54
REMARK Flexibility Score: inf
ROOT
ATOM      1  C   UNL A   1      32.427  30.392  26.293  1.00  0.00     0.275 C 
ENDROOT
BRANCH   1   2
ATOM      2  O   UNL A   1      32.872  29.027  26.235  1.00  0.00    -0.458 OA
BRANCH   2   3
ATOM      3  C   UNL A   1      31.929  28.047  26.371  1.00  0.00     0.343 C 
ATOM      4  O   UNL A   1      31.335  27.821  27.424  1.00  0.00    -0.246 OA
BRANCH   3   5
ATOM      5  C   UNL A   1      31.699  27.299  25.136  1.00  0.00     0.117 A 
ATOM      6  C   UNL A   1      30.294  29.091  23.795  1.00  0.00     0.069 C 
ATOM      7  C   UNL A   1      30.996  27.786  23.963  1.00  0.00     0.068 A 
ATOM      8  N   UNL A   1      30.976  26.966  22.916  1.00  0.00    -0.195 NA
ATOM      9  S   UNL A   1      31.685  25.552  23.334  1.00  0.00    -0.018 S 
ATOM     10  C   UNL A   1      32.116  25.971  24.946  1.00  0.00     0.124 A 
BRANCH  10  11
ATOM     11  N   UNL A   1      32.672  25.141  25.887  1.00  0.00    -0.368 N 
ATOM     12  H   UNL A   1      32.943  25.587  26.721  1.00  0.00     0.162 HD
BRANCH  11  13
ATOM     13  C   UNL A   1      32.927  23.699  25.851  1.00  0.00     0.107 C 
ATOM     14  C   UNL A   1      32.812  22.912  27.151  1.00  0.00     0.036 C 
BRANCH  13  15
ATOM     15  C   UNL A   1      34.307  23.421  25.256  1.00  0.00    -0.025 A 
ATOM     16  C   UNL A   1      34.457  23.011  23.920  1.00  0.00     0.006 A 
ATOM     17  C   UNL A   1      35.464  23.694  26.005  1.00  0.00     0.021 A 
ATOM     18  C   UNL A   1      35.727  22.900  23.342  1.00  0.00     0.002 A 
ATOM     19  C   UNL A   1      36.729  23.584  25.420  1.00  0.00     0.018 A 
ATOM     20  C   UNL A   1      36.866  23.195  24.091  1.00  0.00     0.016 A 
ATOM     21  Br  UNL A   1      38.269  24.006  26.434  1.00  0.00    -0.051 Br
ENDBRANCH  13  15
ENDBRANCH  11  13
ENDBRANCH  10  11
ENDBRANCH   3   5
ENDBRANCH   2   3
ENDBRANCH   1   2
BRANCH   1  22
ATOM     22  C   UNL A   1      32.984  31.111  27.515  1.00  0.00     0.275 C 
BRANCH  22  23
ATOM     23  O   UNL A   1      34.405  31.233  27.461  1.00  0.00    -0.458 OA
BRANCH  23  24
ATOM     24  C   UNL A   1      34.953  31.860  28.528  1.00  0.00     0.338 C 
ATOM     25  O   UNL A   1      34.642  32.954  28.967  1.00  0.00    -0.246 OA
BRANCH  24  26
ATOM     26  C   UNL A   1      36.142  31.127  28.975  1.00  0.00     0.060 A 
ATOM     27  C   UNL A   1      37.212  31.886  29.447  1.00  0.00     0.016 A 
ATOM     28  C   UNL A   1      36.275  29.756  28.709  1.00  0.00     0.016 A 
ATOM     29  C   UNL A   1      38.457  31.297  29.522  1.00  0.00     0.010 A 
ATOM     30  C   UNL A   1      37.521  29.167  28.791  1.00  0.00     0.010 A 
ATOM     31  C   UNL A   1      38.613  29.957  29.138  1.00  0.00    -0.014 A 
BRANCH  31  32
ATOM     32  C   UNL A   1      39.940  29.375  29.261  1.00  0.00     0.031 A 
ATOM     33  C   UNL A   1      40.322  29.130  30.677  1.00  0.00     0.074 A 
ATOM     34  C   UNL A   1      40.710  29.022  28.213  1.00  0.00     0.049 A 
ATOM     35  N   UNL A   1      41.221  29.748  31.367  1.00  0.00    -0.248 NA
ATOM     36  C   UNL A   1      39.467  28.235  31.475  1.00  0.00     0.031 C 
ATOM     37  C   UNL A   1      40.362  28.980  26.791  1.00  0.00     0.029 A 
ATOM     38  N   UNL A   1      41.982  28.538  28.222  1.00  0.00    -0.354 N 
ATOM     39  C   UNL A   1      41.202  29.160  32.627  1.00  0.00     0.074 A 
ATOM     40  C   UNL A   1      39.995  28.380  32.691  1.00  0.00     0.031 C 
ATOM     41  C   UNL A   1      41.309  28.283  26.117  1.00  0.00     0.029 A 
ATOM     42  C   UNL A   1      42.391  27.953  27.028  1.00  0.00     0.049 A 
ATOM     43  H   UNL A   1      42.567  28.599  29.011  1.00  0.00     0.167 HD
ATOM     44  C   UNL A   1      42.302  29.181  33.429  1.00  0.00     0.037 A 
ATOM     45  C   UNL A   1      43.512  27.206  26.838  1.00  0.00     0.037 A 
ATOM     46  C   UNL A   1      43.239  30.188  32.997  1.00  0.00     0.049 A 
ATOM     47  C   UNL A   1      44.453  27.554  27.937  1.00  0.00     0.074 A 
ATOM     48  C   UNL A   1      43.211  31.564  32.885  1.00  0.00     0.029 A 
ATOM     49  N   UNL A   1      44.307  29.769  32.243  1.00  0.00    -0.354 N 
ATOM     50  N   UNL A   1      45.013  28.726  28.063  1.00  0.00    -0.248 NA
ATOM     51  C   UNL A   1      44.398  26.755  29.152  1.00  0.00     0.031 C 
ATOM     52  C   UNL A   1      43.961  31.854  31.707  1.00  0.00     0.029 A 
ATOM     53  C   UNL A   1      44.452  30.649  31.202  1.00  0.00     0.049 A 
ATOM     54  H   UNL A   1      44.869  28.980  32.418  1.00  0.00     0.167 HD
ATOM     55  C   UNL A   1      44.981  28.989  29.426  1.00  0.00     0.074 A 
ATOM     56  C   UNL A   1      44.659  27.708  30.052  1.00  0.00     0.031 C 
ATOM     57  C   UNL A   1      44.940  30.270  29.895  1.00  0.00     0.037 A 
BRANCH  44  58
ATOM     58  C   UNL A   1      42.706  28.046  34.341  1.00  0.00     0.058 A 
ATOM     59  C   UNL A   1      42.866  28.301  35.721  1.00  0.00     0.135 A 
ATOM     60  C   UNL A   1      43.231  26.816  33.888  1.00  0.00     0.135 A 
ATOM     61  F   UNL A   1      42.405  29.439  36.264  1.00  0.00    -0.206 F 
ATOM     62  C   UNL A   1      43.570  27.441  36.563  1.00  0.00     0.059 A 
ATOM     63  C   UNL A   1      43.891  25.921  34.721  1.00  0.00     0.059 A 
ATOM     64  F   UNL A   1      43.221  26.461  32.598  1.00  0.00    -0.206 F 
ATOM     65  C   UNL A   1      44.095  26.260  36.047  1.00  0.00     0.060 A 
BRANCH  65  66
ATOM     66  S   UNL A   1      45.092  25.200  37.105  1.00  0.00     0.124 S 
ATOM     67  O   UNL A   1      46.348  25.938  37.156  1.00  0.00    -0.237 OA
ATOM     68  O   UNL A   1      44.308  25.180  38.335  1.00  0.00    -0.237 OA
ATOM     69  O   UNL A   1      45.130  23.936  36.373  1.00  0.00    -0.744 OA
ENDBRANCH  65  66
ENDBRANCH  44  58
BRANCH  45  70
ATOM     70  C   UNL A   1      43.655  25.954  26.043  1.00  0.00     0.058 A 
ATOM     71  C   UNL A   1      44.830  25.677  25.316  1.00  0.00     0.135 A 
ATOM     72  C   UNL A   1      42.775  24.868  26.225  1.00  0.00     0.135 A 
ATOM     73  F   UNL A   1      45.739  26.642  25.112  1.00  0.00    -0.206 F 
ATOM     74  C   UNL A   1      45.137  24.392  24.848  1.00  0.00     0.059 A 
ATOM     75  C   UNL A   1      43.056  23.583  25.761  1.00  0.00     0.059 A 
ATOM     76  F   UNL A   1      41.652  25.003  26.945  1.00  0.00    -0.206 F 
ATOM     77  C   UNL A   1      44.253  23.345  25.096  1.00  0.00     0.060 A 
BRANCH  77  78
ATOM     78  S   UNL A   1      44.721  21.651  24.659  1.00  0.00     0.124 S 
ATOM     79  O   UNL A   1      43.689  20.869  25.331  1.00  0.00    -0.237 OA
ATOM     80  O   UNL A   1      44.654  21.677  23.202  1.00  0.00    -0.237 OA
ATOM     81  O   UNL A   1      46.065  21.518  25.214  1.00  0.00    -0.744 OA
ENDBRANCH  77  78
ENDBRANCH  45  70
BRANCH  57  82
ATOM     82  C   UNL A   1      45.234  31.387  28.929  1.00  0.00     0.058 A 
ATOM     83  C   UNL A   1      46.521  31.869  28.625  1.00  0.00     0.135 A 
ATOM     84  C   UNL A   1      44.165  31.897  28.176  1.00  0.00     0.135 A 
ATOM     85  F   UNL A   1      47.605  31.363  29.227  1.00  0.00    -0.206 F 
ATOM     86  C   UNL A   1      46.727  32.846  27.648  1.00  0.00     0.059 A 
ATOM     87  C   UNL A   1      44.352  32.848  27.178  1.00  0.00     0.059 A 
ATOM     88  F   UNL A   1      42.921  31.434  28.377  1.00  0.00    -0.206 F 
ATOM     89  C   UNL A   1      45.634  33.330  26.929  1.00  0.00     0.060 A 
BRANCH  89  90
ATOM     90  S   UNL A   1      45.903  34.549  25.623  1.00  0.00     0.124 S 
ATOM     91  O   UNL A   1      44.985  34.095  24.585  1.00  0.00    -0.237 OA
ATOM     92  O   UNL A   1      45.546  35.803  26.281  1.00  0.00    -0.237 OA
ATOM     93  O   UNL A   1      47.323  34.403  25.308  1.00  0.00    -0.744 OA
ENDBRANCH  89  90
ENDBRANCH  57  82
ENDBRANCH  31  32
ENDBRANCH  24  26
ENDBRANCH  23  24
ENDBRANCH  22  23
ENDBRANCH   1  22
TORSDOF 17
ENDMDL
