MODEL 1
REMARK VINA RESULT:     -12.9      0.000      0.000
REMARK SMILES COc1cc(C)cc2c1[C@@H](C)[C@@H](CC(=O)N[C@@H](Cc1c[nH]c3ccccc13)C(=O)OCCOC(=O)c1ccc(-c3c4nc(c(-c5c(F)cc(S(=O)(=O)[O-])cc5F)c5ccc([nH]5)c(-c5c(F)cc(S(=O)(=O)[O-])cc5F)c5nc(c(-c6c(F)cc(S(=O)(=O)[O-])cc6F)c6ccc3[nH]6)C=C5)C=C4)cc1)C(=O)O2
REMARK SMILES IDX 31 1 30 2 28 3 29 4 17 5 16 6 14 7 15 8 13 10 12 11 3 12
REMARK SMILES IDX 4 13 9 14 5 15 8 16 10 17 6 18 7 19 104 20 11 21 102 22
REMARK SMILES IDX 103 23 2 24 1 25 18 26 19 27 20 28 27 29 21 30 22 31 26 32
REMARK SMILES IDX 23 34 25 35 24 36 32 37 33 38 34 39 35 40 36 41 37 42 101 43
REMARK SMILES IDX 38 44 100 45 39 46 40 47 41 48 94 49 42 50 99 51 93 52 95 53
REMARK SMILES IDX 43 54 98 55 92 56 91 57 44 59 78 60 57 61 77 62 58 63 61 64
REMARK SMILES IDX 76 65 96 66 59 67 60 68 75 70 97 71 62 72 45 73 46 74 55 75
REMARK SMILES IDX 47 76 48 77 54 78 56 79 49 80 50 81 51 82 52 83 53 84 79 85
REMARK SMILES IDX 80 86 89 87 81 88 82 89 88 90 90 91 83 92 84 93 85 94 86 95
REMARK SMILES IDX 87 96 63 97 64 98 73 99 65 100 66 101 72 102 74 103 67 104
REMARK SMILES IDX 68 105 69 106 70 107 71 108
REMARK H PARENT 16 9 21 33 95 58 61 69
REMARK Flexibility Score: inf
ROOT
ATOM      1  C   UNL A   1      36.117  22.138  24.482  1.00  0.00     0.274 C 
ENDROOT
BRANCH   1   2
ATOM      2  O   UNL A   1      34.850  22.814  24.607  1.00  0.00    -0.461 OA
BRANCH   2   3
ATOM      3  C   UNL A   1      34.091  22.806  23.486  1.00  0.00     0.329 C 
ATOM      4  O   UNL A   1      34.521  23.016  22.354  1.00  0.00    -0.250 OA
BRANCH   3   5
ATOM      5  C   UNL A   1      32.599  22.638  23.747  1.00  0.00     0.196 C 
BRANCH   5   6
ATOM      6  N   UNL A   1      31.603  23.439  23.056  1.00  0.00    -0.342 N 
ATOM      7  C   UNL A   1      30.988  24.567  23.545  1.00  0.00     0.221 C 
ATOM      8  O   UNL A   1      29.825  24.817  23.233  1.00  0.00    -0.275 OA
ATOM      9  H   UNL A   1      31.344  23.146  22.152  1.00  0.00     0.164 HD
BRANCH   7  10
ATOM     10  C   UNL A   1      31.831  25.590  24.298  1.00  0.00     0.116 C 
BRANCH  10  11
ATOM     11  C   UNL A   1      33.134  26.141  23.673  1.00  0.00     0.116 C 
ATOM     12  C   UNL A   1      31.949  29.467  24.842  1.00  0.00     0.126 A 
ATOM     13  C   UNL A   1      30.695  30.046  24.588  1.00  0.00     0.050 A 
ATOM     14  C   UNL A   1      32.441  28.494  23.971  1.00  0.00     0.041 A 
ATOM     15  C   UNL A   1      29.924  29.652  23.476  1.00  0.00    -0.044 A 
ATOM     16  C   UNL A   1      31.758  28.300  22.762  1.00  0.00     0.138 A 
ATOM     17  C   UNL A   1      33.567  27.516  24.270  1.00  0.00     0.038 C 
ATOM     18  C   UNL A   1      28.480  30.007  23.296  1.00  0.00     0.044 C 
ATOM     19  C   UNL A   1      30.519  28.864  22.502  1.00  0.00     0.051 A 
ATOM     20  O   UNL A   1      32.242  27.413  21.787  1.00  0.00    -0.426 OA
ATOM     21  C   UNL A   1      33.963  27.323  25.737  1.00  0.00     0.014 C 
ATOM     22  C   UNL A   1      33.077  26.383  22.187  1.00  0.00     0.315 C 
ATOM     23  O   UNL A   1      33.706  25.718  21.371  1.00  0.00    -0.251 OA
BRANCH  12  24
ATOM     24  O   UNL A   1      32.762  29.862  25.866  1.00  0.00    -0.496 OA
ATOM     25  C   UNL A   1      32.209  30.758  26.825  1.00  0.00     0.278 C 
ENDBRANCH  12  24
ENDBRANCH  10  11
ENDBRANCH   7  10
ENDBRANCH   5   6
BRANCH   5  26
ATOM     26  C   UNL A   1      32.278  21.145  23.726  1.00  0.00     0.074 C 
BRANCH  26  27
ATOM     27  C   UNL A   1      33.037  20.074  24.474  1.00  0.00    -0.020 A 
ATOM     28  C   UNL A   1      33.333  20.186  25.830  1.00  0.00     0.087 A 
ATOM     29  C   UNL A   1      33.282  18.675  24.234  1.00  0.00     0.003 A 
ATOM     30  N   UNL A   1      32.703  19.064  26.311  1.00  0.00    -0.361 N 
ATOM     31  C   UNL A   1      33.037  18.045  25.463  1.00  0.00     0.046 A 
ATOM     32  C   UNL A   1      33.601  17.833  23.155  1.00  0.00     0.010 A 
ATOM     33  H   UNL A   1      32.126  19.006  27.107  1.00  0.00     0.166 HD
ATOM     34  C   UNL A   1      33.059  16.665  25.671  1.00  0.00     0.026 A 
ATOM     35  C   UNL A   1      33.712  16.448  23.354  1.00  0.00     0.001 A 
ATOM     36  C   UNL A   1      33.438  15.873  24.592  1.00  0.00     0.002 A 
ENDBRANCH  26  27
ENDBRANCH   5  26
ENDBRANCH   3   5
ENDBRANCH   2   3
ENDBRANCH   1   2
BRANCH   1  37
ATOM     37  C   UNL A   1      37.259  23.153  24.436  1.00  0.00     0.275 C 
BRANCH  37  38
ATOM     38  O   UNL A   1      37.533  23.722  25.735  1.00  0.00    -0.458 OA
BRANCH  38  39
ATOM     39  C   UNL A   1      38.761  23.467  26.236  1.00  0.00     0.338 C 
ATOM     40  O   UNL A   1      39.427  22.450  26.029  1.00  0.00    -0.246 OA
BRANCH  39  41
ATOM     41  C   UNL A   1      39.297  24.636  26.966  1.00  0.00     0.060 A 
ATOM     42  C   UNL A   1      40.166  25.578  26.397  1.00  0.00     0.016 A 
ATOM     43  C   UNL A   1      38.872  24.811  28.279  1.00  0.00     0.016 A 
ATOM     44  C   UNL A   1      40.632  26.673  27.159  1.00  0.00     0.010 A 
ATOM     45  C   UNL A   1      39.349  25.888  29.030  1.00  0.00     0.010 A 
ATOM     46  C   UNL A   1      40.255  26.828  28.500  1.00  0.00    -0.014 A 
BRANCH  46  47
ATOM     47  C   UNL A   1      40.648  28.008  29.339  1.00  0.00     0.031 A 
ATOM     48  C   UNL A   1      41.934  28.089  30.139  1.00  0.00     0.074 A 
ATOM     49  C   UNL A   1      39.722  28.968  29.522  1.00  0.00     0.049 A 
ATOM     50  N   UNL A   1      42.267  28.920  31.101  1.00  0.00    -0.248 NA
ATOM     51  C   UNL A   1      42.932  27.046  29.907  1.00  0.00     0.031 C 
ATOM     52  C   UNL A   1      38.405  28.993  28.885  1.00  0.00     0.029 A 
ATOM     53  N   UNL A   1      39.736  30.087  30.313  1.00  0.00    -0.354 N 
ATOM     54  C   UNL A   1      43.453  28.428  31.653  1.00  0.00     0.074 A 
ATOM     55  C   UNL A   1      43.730  27.189  30.958  1.00  0.00     0.031 C 
ATOM     56  C   UNL A   1      37.739  30.077  29.304  1.00  0.00     0.029 A 
ATOM     57  C   UNL A   1      38.591  30.837  30.213  1.00  0.00     0.049 A 
ATOM     58  H   UNL A   1      40.493  30.328  30.896  1.00  0.00     0.167 HD
ATOM     59  C   UNL A   1      44.260  28.977  32.604  1.00  0.00     0.037 A 
ATOM     60  C   UNL A   1      38.280  32.034  30.744  1.00  0.00     0.037 A 
ATOM     61  C   UNL A   1      44.064  30.307  33.135  1.00  0.00     0.049 A 
ATOM     62  C   UNL A   1      39.296  32.761  31.572  1.00  0.00     0.074 A 
ATOM     63  C   UNL A   1      44.896  31.041  33.966  1.00  0.00     0.029 A 
ATOM     64  N   UNL A   1      42.980  31.122  32.844  1.00  0.00    -0.354 N 
ATOM     65  N   UNL A   1      40.448  32.326  32.020  1.00  0.00    -0.248 NA
ATOM     66  C   UNL A   1      38.993  34.152  31.930  1.00  0.00     0.031 C 
ATOM     67  C   UNL A   1      44.307  32.291  34.189  1.00  0.00     0.029 A 
ATOM     68  C   UNL A   1      43.128  32.351  33.464  1.00  0.00     0.049 A 
ATOM     69  H   UNL A   1      42.216  30.863  32.280  1.00  0.00     0.167 HD
ATOM     70  C   UNL A   1      41.024  33.401  32.688  1.00  0.00     0.074 A 
ATOM     71  C   UNL A   1      40.094  34.507  32.580  1.00  0.00     0.031 C 
ATOM     72  C   UNL A   1      42.214  33.459  33.331  1.00  0.00     0.037 A 
BRANCH  59  73
ATOM     73  C   UNL A   1      45.463  28.190  33.098  1.00  0.00     0.058 A 
ATOM     74  C   UNL A   1      46.726  28.286  32.490  1.00  0.00     0.135 A 
ATOM     75  C   UNL A   1      45.369  27.363  34.236  1.00  0.00     0.135 A 
ATOM     76  F   UNL A   1      46.906  29.084  31.426  1.00  0.00    -0.206 F 
ATOM     77  C   UNL A   1      47.814  27.530  32.923  1.00  0.00     0.059 A 
ATOM     78  C   UNL A   1      46.458  26.634  34.718  1.00  0.00     0.059 A 
ATOM     79  F   UNL A   1      44.209  27.257  34.903  1.00  0.00    -0.206 F 
ATOM     80  C   UNL A   1      47.667  26.695  34.031  1.00  0.00     0.060 A 
BRANCH  80  81
ATOM     81  S   UNL A   1      49.077  25.690  34.544  1.00  0.00     0.124 S 
ATOM     82  O   UNL A   1      49.792  25.529  33.281  1.00  0.00    -0.237 OA
ATOM     83  O   UNL A   1      49.730  26.542  35.532  1.00  0.00    -0.237 OA
ATOM     84  O   UNL A   1      48.459  24.479  35.075  1.00  0.00    -0.744 OA
ENDBRANCH  80  81
ENDBRANCH  59  73
BRANCH  60  85
ATOM     85  C   UNL A   1      37.015  32.673  30.313  1.00  0.00     0.058 A 
ATOM     86  C   UNL A   1      35.884  32.585  31.137  1.00  0.00     0.135 A 
ATOM     87  C   UNL A   1      36.950  33.498  29.181  1.00  0.00     0.135 A 
ATOM     88  F   UNL A   1      35.916  31.820  32.239  1.00  0.00    -0.206 F 
ATOM     89  C   UNL A   1      34.729  33.301  30.860  1.00  0.00     0.059 A 
ATOM     90  C   UNL A   1      35.807  34.237  28.892  1.00  0.00     0.059 A 
ATOM     91  F   UNL A   1      38.026  33.643  28.392  1.00  0.00    -0.206 F 
ATOM     92  C   UNL A   1      34.705  34.135  29.741  1.00  0.00     0.060 A 
BRANCH  92  93
ATOM     93  S   UNL A   1      33.230  35.137  29.461  1.00  0.00     0.124 S 
ATOM     94  O   UNL A   1      32.545  34.368  28.428  1.00  0.00    -0.237 OA
ATOM     95  O   UNL A   1      32.606  35.130  30.781  1.00  0.00    -0.237 OA
ATOM     96  O   UNL A   1      33.772  36.423  29.037  1.00  0.00    -0.744 OA
ENDBRANCH  92  93
ENDBRANCH  60  85
BRANCH  72  97
ATOM     97  C   UNL A   1      42.621  34.761  33.958  1.00  0.00     0.058 A 
ATOM     98  C   UNL A   1      42.501  34.976  35.339  1.00  0.00     0.135 A 
ATOM     99  C   UNL A   1      43.255  35.750  33.189  1.00  0.00     0.135 A 
ATOM    100  F   UNL A   1      41.895  34.065  36.115  1.00  0.00    -0.206 F 
ATOM    101  C   UNL A   1      43.007  36.124  35.939  1.00  0.00     0.059 A 
ATOM    102  C   UNL A   1      43.787  36.896  33.772  1.00  0.00     0.059 A 
ATOM    103  F   UNL A   1      43.397  35.588  31.864  1.00  0.00    -0.206 F 
ATOM    104  C   UNL A   1      43.662  37.072  35.148  1.00  0.00     0.060 A 
BRANCH 104 105
ATOM    105  S   UNL A   1      44.402  38.506  35.959  1.00  0.00     0.124 S 
ATOM    106  O   UNL A   1      43.736  38.488  37.257  1.00  0.00    -0.237 OA
ATOM    107  O   UNL A   1      45.820  38.158  35.969  1.00  0.00    -0.237 OA
ATOM    108  O   UNL A   1      44.041  39.617  35.083  1.00  0.00    -0.744 OA
ENDBRANCH 104 105
ENDBRANCH  72  97
ENDBRANCH  46  47
ENDBRANCH  39  41
ENDBRANCH  38  39
ENDBRANCH  37  38
ENDBRANCH   1  37
TORSDOF 20
ENDMDL
MODEL 2
REMARK VINA RESULT:     -12.8      3.339      4.036
REMARK SMILES COc1cc(C)cc2c1[C@@H](C)[C@@H](CC(=O)N[C@@H](Cc1c[nH]c3ccccc13)C(=O)OCCOC(=O)c1ccc(-c3c4nc(c(-c5c(F)cc(S(=O)(=O)[O-])cc5F)c5ccc([nH]5)c(-c5c(F)cc(S(=O)(=O)[O-])cc5F)c5nc(c(-c6c(F)cc(S(=O)(=O)[O-])cc6F)c6ccc3[nH]6)C=C5)C=C4)cc1)C(=O)O2
REMARK SMILES IDX 31 1 30 2 28 3 29 4 17 5 16 6 14 7 15 8 13 10 12 11 3 12
REMARK SMILES IDX 4 13 9 14 5 15 8 16 10 17 6 18 7 19 104 20 11 21 102 22
REMARK SMILES IDX 103 23 2 24 1 25 18 26 19 27 20 28 27 29 21 30 22 31 26 32
REMARK SMILES IDX 23 34 25 35 24 36 32 37 33 38 34 39 35 40 36 41 37 42 101 43
REMARK SMILES IDX 38 44 100 45 39 46 40 47 41 48 94 49 42 50 99 51 93 52 95 53
REMARK SMILES IDX 43 54 98 55 92 56 91 57 44 59 78 60 57 61 77 62 58 63 61 64
REMARK SMILES IDX 76 65 96 66 59 67 60 68 75 70 97 71 62 72 45 73 46 74 55 75
REMARK SMILES IDX 47 76 48 77 54 78 56 79 49 80 50 81 51 82 52 83 53 84 79 85
REMARK SMILES IDX 80 86 89 87 81 88 82 89 88 90 90 91 83 92 84 93 85 94 86 95
REMARK SMILES IDX 87 96 63 97 64 98 73 99 65 100 66 101 72 102 74 103 67 104
REMARK SMILES IDX 68 105 69 106 70 107 71 108
REMARK H PARENT 16 9 21 33 95 58 61 69
REMARK Flexibility Score: inf
ROOT
ATOM      1  C   UNL A   1      36.358  22.261  23.999  1.00  0.00     0.274 C 
ENDROOT
BRANCH   1   2
ATOM      2  O   UNL A   1      35.029  22.701  24.342  1.00  0.00    -0.461 OA
BRANCH   2   3
ATOM      3  C   UNL A   1      34.179  22.805  23.294  1.00  0.00     0.329 C 
ATOM      4  O   UNL A   1      34.519  23.094  22.148  1.00  0.00    -0.250 OA
BRANCH   3   5
ATOM      5  C   UNL A   1      32.709  22.659  23.668  1.00  0.00     0.196 C 
BRANCH   5   6
ATOM      6  N   UNL A   1      31.676  23.479  23.059  1.00  0.00    -0.342 N 
ATOM      7  C   UNL A   1      31.105  24.604  23.607  1.00  0.00     0.221 C 
ATOM      8  O   UNL A   1      29.926  24.868  23.379  1.00  0.00    -0.275 OA
ATOM      9  H   UNL A   1      31.354  23.203  22.170  1.00  0.00     0.164 HD
BRANCH   7  10
ATOM     10  C   UNL A   1      32.007  25.607  24.317  1.00  0.00     0.116 C 
BRANCH  10  11
ATOM     11  C   UNL A   1      33.206  26.242  23.577  1.00  0.00     0.116 C 
ATOM     12  C   UNL A   1      31.722  29.506  24.563  1.00  0.00     0.126 A 
ATOM     13  C   UNL A   1      30.401  29.926  24.342  1.00  0.00     0.050 A 
ATOM     14  C   UNL A   1      32.274  28.523  23.740  1.00  0.00     0.041 A 
ATOM     15  C   UNL A   1      29.622  29.364  23.311  1.00  0.00    -0.044 A 
ATOM     16  C   UNL A   1      31.556  28.161  22.591  1.00  0.00     0.138 A 
ATOM     17  C   UNL A   1      33.515  27.698  24.043  1.00  0.00     0.038 C 
ATOM     18  C   UNL A   1      28.140  29.548  23.190  1.00  0.00     0.044 C 
ATOM     19  C   UNL A   1      30.250  28.568  22.364  1.00  0.00     0.051 A 
ATOM     20  O   UNL A   1      32.084  27.255  21.658  1.00  0.00    -0.426 OA
ATOM     21  C   UNL A   1      34.004  27.667  25.494  1.00  0.00     0.014 C 
ATOM     22  C   UNL A   1      33.047  26.355  22.083  1.00  0.00     0.315 C 
ATOM     23  O   UNL A   1      33.703  25.697  21.282  1.00  0.00    -0.251 OA
BRANCH  12  24
ATOM     24  O   UNL A   1      32.538  30.066  25.504  1.00  0.00    -0.496 OA
ATOM     25  C   UNL A   1      31.940  30.435  26.745  1.00  0.00     0.278 C 
ENDBRANCH  12  24
ENDBRANCH  10  11
ENDBRANCH   7  10
ENDBRANCH   5   6
BRANCH   5  26
ATOM     26  C   UNL A   1      32.364  21.171  23.666  1.00  0.00     0.074 C 
BRANCH  26  27
ATOM     27  C   UNL A   1      33.094  20.100  24.442  1.00  0.00    -0.020 A 
ATOM     28  C   UNL A   1      33.392  20.238  25.794  1.00  0.00     0.087 A 
ATOM     29  C   UNL A   1      33.302  18.689  24.237  1.00  0.00     0.003 A 
ATOM     30  N   UNL A   1      32.733  19.145  26.303  1.00  0.00    -0.361 N 
ATOM     31  C   UNL A   1      33.041  18.097  25.481  1.00  0.00     0.046 A 
ATOM     32  C   UNL A   1      33.600  17.813  23.180  1.00  0.00     0.010 A 
ATOM     33  H   UNL A   1      32.154  19.123  27.099  1.00  0.00     0.166 HD
ATOM     34  C   UNL A   1      33.026  16.722  25.723  1.00  0.00     0.026 A 
ATOM     35  C   UNL A   1      33.674  16.430  23.413  1.00  0.00     0.001 A 
ATOM     36  C   UNL A   1      33.385  15.894  24.665  1.00  0.00     0.002 A 
ENDBRANCH  26  27
ENDBRANCH   5  26
ENDBRANCH   3   5
ENDBRANCH   2   3
ENDBRANCH   1   2
BRANCH   1  37
ATOM     37  C   UNL A   1      36.934  21.390  25.116  1.00  0.00     0.275 C 
BRANCH  37  38
ATOM     38  O   UNL A   1      37.577  22.178  26.142  1.00  0.00    -0.458 OA
BRANCH  38  39
ATOM     39  C   UNL A   1      38.902  21.963  26.297  1.00  0.00     0.338 C 
ATOM     40  O   UNL A   1      39.508  20.936  25.979  1.00  0.00    -0.246 OA
BRANCH  39  41
ATOM     41  C   UNL A   1      39.592  23.181  26.773  1.00  0.00     0.060 A 
ATOM     42  C   UNL A   1      40.570  23.180  27.777  1.00  0.00     0.016 A 
ATOM     43  C   UNL A   1      39.262  24.380  26.149  1.00  0.00     0.016 A 
ATOM     44  C   UNL A   1      41.189  24.387  28.175  1.00  0.00     0.010 A 
ATOM     45  C   UNL A   1      39.866  25.570  26.558  1.00  0.00     0.010 A 
ATOM     46  C   UNL A   1      40.823  25.608  27.593  1.00  0.00    -0.014 A 
BRANCH  46  47
ATOM     47  C   UNL A   1      41.495  26.910  27.911  1.00  0.00     0.031 A 
ATOM     48  C   UNL A   1      42.957  27.200  27.634  1.00  0.00     0.074 A 
ATOM     49  C   UNL A   1      40.796  27.800  28.641  1.00  0.00     0.049 A 
ATOM     50  N   UNL A   1      43.718  28.168  28.094  1.00  0.00    -0.248 NA
ATOM     51  C   UNL A   1      43.689  26.229  26.822  1.00  0.00     0.031 C 
ATOM     52  C   UNL A   1      39.404  27.632  29.058  1.00  0.00     0.029 A 
ATOM     53  N   UNL A   1      41.167  29.003  29.183  1.00  0.00    -0.354 N 
ATOM     54  C   UNL A   1      45.027  27.853  27.717  1.00  0.00     0.074 A 
ATOM     55  C   UNL A   1      44.951  26.568  27.055  1.00  0.00     0.031 C 
ATOM     56  C   UNL A   1      39.034  28.695  29.784  1.00  0.00     0.029 A 
ATOM     57  C   UNL A   1      40.152  29.632  29.857  1.00  0.00     0.049 A 
ATOM     58  H   UNL A   1      42.074  29.379  29.095  1.00  0.00     0.167 HD
ATOM     59  C   UNL A   1      46.170  28.581  27.860  1.00  0.00     0.037 A 
ATOM     60  C   UNL A   1      40.100  30.853  30.422  1.00  0.00     0.037 A 
ATOM     61  C   UNL A   1      46.183  29.943  28.343  1.00  0.00     0.049 A 
ATOM     62  C   UNL A   1      41.289  31.761  30.327  1.00  0.00     0.074 A 
ATOM     63  C   UNL A   1      47.237  30.843  28.374  1.00  0.00     0.029 A 
ATOM     64  N   UNL A   1      45.076  30.618  28.834  1.00  0.00    -0.354 N 
ATOM     65  N   UNL A   1      42.495  31.487  29.895  1.00  0.00    -0.248 NA
ATOM     66  C   UNL A   1      41.100  33.153  30.753  1.00  0.00     0.031 C 
ATOM     67  C   UNL A   1      46.770  32.054  28.897  1.00  0.00     0.029 A 
ATOM     68  C   UNL A   1      45.415  31.922  29.155  1.00  0.00     0.049 A 
ATOM     69  H   UNL A   1      44.179  30.227  28.940  1.00  0.00     0.167 HD
ATOM     70  C   UNL A   1      43.202  32.681  29.968  1.00  0.00     0.074 A 
ATOM     71  C   UNL A   1      42.287  33.680  30.481  1.00  0.00     0.031 C 
ATOM     72  C   UNL A   1      44.494  32.920  29.639  1.00  0.00     0.037 A 
BRANCH  59  73
ATOM     73  C   UNL A   1      47.495  27.969  27.438  1.00  0.00     0.058 A 
ATOM     74  C   UNL A   1      48.336  27.299  28.341  1.00  0.00     0.135 A 
ATOM     75  C   UNL A   1      47.913  28.005  26.092  1.00  0.00     0.135 A 
ATOM     76  F   UNL A   1      47.990  27.187  29.633  1.00  0.00    -0.206 F 
ATOM     77  C   UNL A   1      49.570  26.777  27.955  1.00  0.00     0.059 A 
ATOM     78  C   UNL A   1      49.121  27.446  25.671  1.00  0.00     0.059 A 
ATOM     79  F   UNL A   1      47.140  28.584  25.158  1.00  0.00    -0.206 F 
ATOM     80  C   UNL A   1      49.961  26.867  26.619  1.00  0.00     0.060 A 
BRANCH  80  81
ATOM     81  S   UNL A   1      51.584  26.226  26.152  1.00  0.00     0.124 S 
ATOM     82  O   UNL A   1      52.471  27.132  26.876  1.00  0.00    -0.237 OA
ATOM     83  O   UNL A   1      51.538  24.856  26.653  1.00  0.00    -0.237 OA
ATOM     84  O   UNL A   1      51.599  26.359  24.699  1.00  0.00    -0.744 OA
ENDBRANCH  80  81
ENDBRANCH  59  73
BRANCH  60  85
ATOM     85  C   UNL A   1      38.793  31.320  30.937  1.00  0.00     0.058 A 
ATOM     86  C   UNL A   1      38.522  31.234  32.310  1.00  0.00     0.135 A 
ATOM     87  C   UNL A   1      37.873  31.993  30.120  1.00  0.00     0.135 A 
ATOM     88  F   UNL A   1      39.390  30.615  33.126  1.00  0.00    -0.206 F 
ATOM     89  C   UNL A   1      37.386  31.807  32.863  1.00  0.00     0.059 A 
ATOM     90  C   UNL A   1      36.734  32.589  30.654  1.00  0.00     0.059 A 
ATOM     91  F   UNL A   1      38.117  32.135  28.809  1.00  0.00    -0.206 F 
ATOM     92  C   UNL A   1      36.503  32.494  32.027  1.00  0.00     0.060 A 
BRANCH  92  93
ATOM     93  S   UNL A   1      35.089  33.320  32.784  1.00  0.00     0.124 S 
ATOM     94  O   UNL A   1      35.311  33.044  34.199  1.00  0.00    -0.237 OA
ATOM     95  O   UNL A   1      35.289  34.704  32.365  1.00  0.00    -0.237 OA
ATOM     96  O   UNL A   1      33.944  32.648  32.180  1.00  0.00    -0.744 OA
ENDBRANCH  92  93
ENDBRANCH  60  85
BRANCH  72  97
ATOM     97  C   UNL A   1      45.018  34.320  29.788  1.00  0.00     0.058 A 
ATOM     98  C   UNL A   1      45.652  34.741  30.966  1.00  0.00     0.135 A 
ATOM     99  C   UNL A   1      45.000  35.203  28.696  1.00  0.00     0.135 A 
ATOM    100  F   UNL A   1      45.688  33.937  32.039  1.00  0.00    -0.206 F 
ATOM    101  C   UNL A   1      46.261  35.988  31.053  1.00  0.00     0.059 A 
ATOM    102  C   UNL A   1      45.621  36.447  28.755  1.00  0.00     0.059 A 
ATOM    103  F   UNL A   1      44.408  34.844  27.546  1.00  0.00    -0.206 F 
ATOM    104  C   UNL A   1      46.254  36.828  29.937  1.00  0.00     0.060 A 
BRANCH 104 105
ATOM    105  S   UNL A   1      47.138  38.400  30.036  1.00  0.00     0.124 S 
ATOM    106  O   UNL A   1      46.043  39.344  30.230  1.00  0.00    -0.237 OA
ATOM    107  O   UNL A   1      48.009  38.192  31.190  1.00  0.00    -0.237 OA
ATOM    108  O   UNL A   1      47.822  38.487  28.749  1.00  0.00    -0.744 OA
ENDBRANCH 104 105
ENDBRANCH  72  97
ENDBRANCH  46  47
ENDBRANCH  39  41
ENDBRANCH  38  39
ENDBRANCH  37  38
ENDBRANCH   1  37
TORSDOF 20
ENDMDL
MODEL 3
REMARK VINA RESULT:     -12.5      4.652      5.969
REMARK SMILES COc1cc(C)cc2c1[C@@H](C)[C@@H](CC(=O)N[C@@H](Cc1c[nH]c3ccccc13)C(=O)OCCOC(=O)c1ccc(-c3c4nc(c(-c5c(F)cc(S(=O)(=O)[O-])cc5F)c5ccc([nH]5)c(-c5c(F)cc(S(=O)(=O)[O-])cc5F)c5nc(c(-c6c(F)cc(S(=O)(=O)[O-])cc6F)c6ccc3[nH]6)C=C5)C=C4)cc1)C(=O)O2
REMARK SMILES IDX 31 1 30 2 28 3 29 4 17 5 16 6 14 7 15 8 13 10 12 11 3 12
REMARK SMILES IDX 4 13 9 14 5 15 8 16 10 17 6 18 7 19 104 20 11 21 102 22
REMARK SMILES IDX 103 23 2 24 1 25 18 26 19 27 20 28 27 29 21 30 22 31 26 32
REMARK SMILES IDX 23 34 25 35 24 36 32 37 33 38 34 39 35 40 36 41 37 42 101 43
REMARK SMILES IDX 38 44 100 45 39 46 40 47 41 48 94 49 42 50 99 51 93 52 95 53
REMARK SMILES IDX 43 54 98 55 92 56 91 57 44 59 78 60 57 61 77 62 58 63 61 64
REMARK SMILES IDX 76 65 96 66 59 67 60 68 75 70 97 71 62 72 45 73 46 74 55 75
REMARK SMILES IDX 47 76 48 77 54 78 56 79 49 80 50 81 51 82 52 83 53 84 79 85
REMARK SMILES IDX 80 86 89 87 81 88 82 89 88 90 90 91 83 92 84 93 85 94 86 95
REMARK SMILES IDX 87 96 63 97 64 98 73 99 65 100 66 101 72 102 74 103 67 104
REMARK SMILES IDX 68 105 69 106 70 107 71 108
REMARK H PARENT 16 9 21 33 95 58 61 69
REMARK Flexibility Score: inf
ROOT
ATOM      1  C   UNL A   1      38.773  21.369  25.813  1.00  0.00     0.274 C 
ENDROOT
BRANCH   1   2
ATOM      2  O   UNL A   1      37.497  21.529  25.162  1.00  0.00    -0.461 OA
BRANCH   2   3
ATOM      3  C   UNL A   1      36.846  22.676  25.467  1.00  0.00     0.329 C 
ATOM      4  O   UNL A   1      37.193  23.459  26.348  1.00  0.00    -0.250 OA
BRANCH   3   5
ATOM      5  C   UNL A   1      35.540  22.870  24.706  1.00  0.00     0.196 C 
BRANCH   5   6
ATOM      6  N   UNL A   1      35.371  23.929  23.726  1.00  0.00    -0.342 N 
ATOM      7  C   UNL A   1      34.227  24.661  23.512  1.00  0.00     0.221 C 
ATOM      8  O   UNL A   1      33.954  25.057  22.380  1.00  0.00    -0.275 OA
ATOM      9  H   UNL A   1      36.150  24.143  23.163  1.00  0.00     0.164 HD
BRANCH   7  10
ATOM     10  C   UNL A   1      33.431  25.141  24.720  1.00  0.00     0.116 C 
BRANCH  10  11
ATOM     11  C   UNL A   1      32.058  24.513  25.052  1.00  0.00     0.116 C 
ATOM     12  C   UNL A   1      30.650  27.857  24.238  1.00  0.00     0.126 A 
ATOM     13  C   UNL A   1      31.057  29.090  24.773  1.00  0.00     0.050 A 
ATOM     14  C   UNL A   1      30.888  26.687  24.960  1.00  0.00     0.041 A 
ATOM     15  C   UNL A   1      31.710  29.161  26.020  1.00  0.00    -0.044 A 
ATOM     16  C   UNL A   1      31.324  26.820  26.286  1.00  0.00     0.138 A 
ATOM     17  C   UNL A   1      30.861  25.272  24.400  1.00  0.00     0.038 C 
ATOM     18  C   UNL A   1      32.417  30.383  26.523  1.00  0.00     0.044 C 
ATOM     19  C   UNL A   1      31.730  28.031  26.824  1.00  0.00     0.051 A 
ATOM     20  O   UNL A   1      31.492  25.697  27.113  1.00  0.00    -0.426 OA
ATOM     21  C   UNL A   1      30.935  25.114  22.879  1.00  0.00     0.014 C 
ATOM     22  C   UNL A   1      31.715  24.466  26.518  1.00  0.00     0.315 C 
ATOM     23  O   UNL A   1      31.647  23.425  27.163  1.00  0.00    -0.251 OA
BRANCH  12  24
ATOM     24  O   UNL A   1      29.956  27.742  23.068  1.00  0.00    -0.496 OA
ATOM     25  C   UNL A   1      29.146  28.850  22.682  1.00  0.00     0.278 C 
ENDBRANCH  12  24
ENDBRANCH  10  11
ENDBRANCH   7  10
ENDBRANCH   5   6
BRANCH   5  26
ATOM     26  C   UNL A   1      35.083  21.506  24.191  1.00  0.00     0.074 C 
BRANCH  26  27
ATOM     27  C   UNL A   1      34.465  20.414  25.030  1.00  0.00    -0.020 A 
ATOM     28  C   UNL A   1      33.579  20.688  26.068  1.00  0.00     0.087 A 
ATOM     29  C   UNL A   1      34.256  19.002  24.830  1.00  0.00     0.003 A 
ATOM     30  N   UNL A   1      32.476  19.991  25.639  1.00  0.00    -0.361 N 
ATOM     31  C   UNL A   1      32.931  18.769  25.229  1.00  0.00     0.046 A 
ATOM     32  C   UNL A   1      34.952  17.899  24.308  1.00  0.00     0.010 A 
ATOM     33  H   UNL A   1      31.544  20.309  25.628  1.00  0.00     0.166 HD
ATOM     34  C   UNL A   1      32.266  17.547  25.113  1.00  0.00     0.026 A 
ATOM     35  C   UNL A   1      34.336  16.639  24.256  1.00  0.00     0.001 A 
ATOM     36  C   UNL A   1      33.011  16.469  24.647  1.00  0.00     0.002 A 
ENDBRANCH  26  27
ENDBRANCH   5  26
ENDBRANCH   3   5
ENDBRANCH   2   3
ENDBRANCH   1   2
BRANCH   1  37
ATOM     37  C   UNL A   1      39.358  19.991  25.504  1.00  0.00     0.275 C 
BRANCH  37  38
ATOM     38  O   UNL A   1      40.327  19.578  26.492  1.00  0.00    -0.458 OA
BRANCH  38  39
ATOM     39  C   UNL A   1      41.622  19.742  26.142  1.00  0.00     0.338 C 
ATOM     40  O   UNL A   1      42.307  18.932  25.512  1.00  0.00    -0.246 OA
BRANCH  39  41
ATOM     41  C   UNL A   1      42.104  21.098  26.483  1.00  0.00     0.060 A 
ATOM     42  C   UNL A   1      42.359  21.527  27.793  1.00  0.00     0.016 A 
ATOM     43  C   UNL A   1      42.345  21.968  25.425  1.00  0.00     0.016 A 
ATOM     44  C   UNL A   1      42.823  22.840  28.038  1.00  0.00     0.010 A 
ATOM     45  C   UNL A   1      42.788  23.268  25.677  1.00  0.00     0.010 A 
ATOM     46  C   UNL A   1      43.015  23.743  26.984  1.00  0.00    -0.014 A 
BRANCH  46  47
ATOM     47  C   UNL A   1      43.580  25.120  27.168  1.00  0.00     0.031 A 
ATOM     48  C   UNL A   1      45.006  25.505  26.825  1.00  0.00     0.074 A 
ATOM     49  C   UNL A   1      42.823  26.011  27.835  1.00  0.00     0.049 A 
ATOM     50  N   UNL A   1      45.691  26.570  27.177  1.00  0.00    -0.248 NA
ATOM     51  C   UNL A   1      45.801  24.528  26.081  1.00  0.00     0.031 C 
ATOM     52  C   UNL A   1      41.458  25.766  28.304  1.00  0.00     0.029 A 
ATOM     53  N   UNL A   1      43.101  27.285  28.258  1.00  0.00    -0.354 N 
ATOM     54  C   UNL A   1      47.014  26.332  26.792  1.00  0.00     0.074 A 
ATOM     55  C   UNL A   1      47.034  24.990  26.249  1.00  0.00     0.031 C 
ATOM     56  C   UNL A   1      41.014  26.856  28.943  1.00  0.00     0.029 A 
ATOM     57  C   UNL A   1      42.049  27.886  28.902  1.00  0.00     0.049 A 
ATOM     58  H   UNL A   1      43.970  27.725  28.112  1.00  0.00     0.167 HD
ATOM     59  C   UNL A   1      48.093  27.162  26.838  1.00  0.00     0.037 A 
ATOM     60  C   UNL A   1      41.905  29.144  29.359  1.00  0.00     0.037 A 
ATOM     61  C   UNL A   1      48.000  28.559  27.199  1.00  0.00     0.049 A 
ATOM     62  C   UNL A   1      43.009  30.135  29.151  1.00  0.00     0.074 A 
ATOM     63  C   UNL A   1      48.974  29.542  27.121  1.00  0.00     0.029 A 
ATOM     64  N   UNL A   1      46.849  29.181  27.659  1.00  0.00    -0.354 N 
ATOM     65  N   UNL A   1      44.226  29.924  28.710  1.00  0.00    -0.248 NA
ATOM     66  C   UNL A   1      42.711  31.540  29.457  1.00  0.00     0.031 C 
ATOM     67  C   UNL A   1      48.415  30.753  27.548  1.00  0.00     0.029 A 
ATOM     68  C   UNL A   1      47.083  30.532  27.854  1.00  0.00     0.049 A 
ATOM     69  H   UNL A   1      45.991  28.728  27.824  1.00  0.00     0.167 HD
ATOM     70  C   UNL A   1      44.830  31.175  28.658  1.00  0.00     0.074 A 
ATOM     71  C   UNL A   1      43.844  32.136  29.106  1.00  0.00     0.031 C 
ATOM     72  C   UNL A   1      46.090  31.490  28.273  1.00  0.00     0.037 A 
BRANCH  59  73
ATOM     73  C   UNL A   1      49.457  26.627  26.435  1.00  0.00     0.058 A 
ATOM     74  C   UNL A   1      50.262  25.881  27.312  1.00  0.00     0.135 A 
ATOM     75  C   UNL A   1      49.950  26.816  25.128  1.00  0.00     0.135 A 
ATOM     76  F   UNL A   1      49.844  25.624  28.561  1.00  0.00    -0.206 F 
ATOM     77  C   UNL A   1      51.530  25.430  26.948  1.00  0.00     0.059 A 
ATOM     78  C   UNL A   1      51.196  26.331  24.725  1.00  0.00     0.059 A 
ATOM     79  F   UNL A   1      49.218  27.476  24.216  1.00  0.00    -0.206 F 
ATOM     80  C   UNL A   1      51.995  25.671  25.655  1.00  0.00     0.060 A 
BRANCH  80  81
ATOM     81  S   UNL A   1      53.659  25.118  25.223  1.00  0.00     0.124 S 
ATOM     82  O   UNL A   1      54.457  25.766  26.259  1.00  0.00    -0.237 OA
ATOM     83  O   UNL A   1      53.547  23.667  25.329  1.00  0.00    -0.237 OA
ATOM     84  O   UNL A   1      53.849  25.632  23.869  1.00  0.00    -0.744 OA
ENDBRANCH  80  81
ENDBRANCH  59  73
BRANCH  60  85
ATOM     85  C   UNL A   1      40.573  29.546  29.866  1.00  0.00     0.058 A 
ATOM     86  C   UNL A   1      40.399  29.773  31.239  1.00  0.00     0.135 A 
ATOM     87  C   UNL A   1      39.515  29.861  29.002  1.00  0.00     0.135 A 
ATOM     88  F   UNL A   1      41.397  29.502  32.094  1.00  0.00    -0.206 F 
ATOM     89  C   UNL A   1      39.223  30.308  31.742  1.00  0.00     0.059 A 
ATOM     90  C   UNL A   1      38.331  30.413  29.481  1.00  0.00     0.059 A 
ATOM     91  F   UNL A   1      39.658  29.699  27.678  1.00  0.00    -0.206 F 
ATOM     92  C   UNL A   1      38.198  30.637  30.852  1.00  0.00     0.060 A 
BRANCH  92  93
ATOM     93  S   UNL A   1      36.719  31.429  31.518  1.00  0.00     0.124 S 
ATOM     94  O   UNL A   1      37.298  32.420  32.419  1.00  0.00    -0.237 OA
ATOM     95  O   UNL A   1      36.090  31.955  30.310  1.00  0.00    -0.237 OA
ATOM     96  O   UNL A   1      36.008  30.329  32.160  1.00  0.00    -0.744 OA
ENDBRANCH  92  93
ENDBRANCH  60  85
BRANCH  72  97
ATOM     97  C   UNL A   1      46.496  32.936  28.284  1.00  0.00     0.058 A 
ATOM     98  C   UNL A   1      46.238  33.776  27.190  1.00  0.00     0.135 A 
ATOM     99  C   UNL A   1      47.030  33.513  29.447  1.00  0.00     0.135 A 
ATOM    100  F   UNL A   1      45.736  33.270  26.054  1.00  0.00    -0.206 F 
ATOM    101  C   UNL A   1      46.484  35.143  27.255  1.00  0.00     0.059 A 
ATOM    102  C   UNL A   1      47.266  34.881  29.540  1.00  0.00     0.059 A 
ATOM    103  F   UNL A   1      47.292  32.751  30.521  1.00  0.00    -0.206 F 
ATOM    104  C   UNL A   1      46.985  35.689  28.439  1.00  0.00     0.060 A 
BRANCH 104 105
ATOM    105  S   UNL A   1      47.202  37.479  28.538  1.00  0.00     0.124 S 
ATOM    106  O   UNL A   1      48.214  37.711  27.513  1.00  0.00    -0.237 OA
ATOM    107  O   UNL A   1      45.862  37.970  28.228  1.00  0.00    -0.237 OA
ATOM    108  O   UNL A   1      47.640  37.694  29.914  1.00  0.00    -0.744 OA
ENDBRANCH 104 105
ENDBRANCH  72  97
ENDBRANCH  46  47
ENDBRANCH  39  41
ENDBRANCH  38  39
ENDBRANCH  37  38
ENDBRANCH   1  37
TORSDOF 20
ENDMDL
