MODEL 1
REMARK VINA RESULT:      -9.9      0.000      0.000
REMARK SMILES Cc1csc(CSCC[C@H]([NH3+])C(=O)OCCOC(=O)c2ccc(-c3c4nc(c(-c5c(F)cc(S(=O)(=O)[O-])cc5F)c5ccc([nH]5)c(-c5c(F)cc(S(=O)(=O)[O-])cc5F)c5nc(c(-c6c(F)cc(S(=O)(=O)[O-])cc6F)c6ccc3[nH]6)C=C5)C=C4)cc2)n1
REMARK SMILES IDX 15 1 14 2 12 3 13 4 10 5 9 6 8 7 7 8 6 9 5 10 1 11 2 12 3 13
REMARK SMILES IDX 86 14 4 15 11 16 16 20 17 21 18 22 19 23 20 24 21 25 85 26
REMARK SMILES IDX 22 27 84 28 23 29 24 30 25 31 78 32 26 33 83 34 77 35 79 36
REMARK SMILES IDX 27 37 82 38 76 39 75 40 28 42 62 43 41 44 61 45 42 46 45 47
REMARK SMILES IDX 60 48 80 49 43 50 44 51 59 53 81 54 46 55 29 56 30 57 39 58
REMARK SMILES IDX 31 59 32 60 38 61 40 62 33 63 34 64 35 65 36 66 37 67 63 68
REMARK SMILES IDX 64 69 73 70 65 71 66 72 72 73 74 74 67 75 68 76 69 77 70 78
REMARK SMILES IDX 71 79 47 80 48 81 57 82 49 83 50 84 56 85 58 86 51 87 52 88
REMARK SMILES IDX 53 89 54 90 55 91
REMARK H PARENT 11 17 11 18 11 19 79 41 45 52
REMARK Flexibility Score: inf
ROOT
ATOM      1  C   UNL A   1      40.132  21.787  26.862  1.00  0.00     0.274 C 
ENDROOT
BRANCH   1   2
ATOM      2  O   UNL A   1      39.039  21.770  25.917  1.00  0.00    -0.458 OA
BRANCH   2   3
ATOM      3  C   UNL A   1      38.615  20.572  25.427  1.00  0.00     0.364 C 
ATOM      4  O   UNL A   1      39.325  19.582  25.317  1.00  0.00    -0.245 OA
BRANCH   3   5
ATOM      5  C   UNL A   1      37.136  20.614  24.998  1.00  0.00     0.292 C 
BRANCH   5   6
ATOM      6  C   UNL A   1      36.305  21.652  25.770  1.00  0.00     0.088 C 
BRANCH   6   7
ATOM      7  C   UNL A   1      34.971  22.121  25.180  1.00  0.00     0.077 C 
BRANCH   7   8
ATOM      8  S   UNL A   1      33.438  21.291  25.734  1.00  0.00    -0.154 SA
BRANCH   8   9
ATOM      9  C   UNL A   1      32.783  20.497  24.241  1.00  0.00     0.137 C 
BRANCH   9  10
ATOM     10  C   UNL A   1      32.997  19.015  24.090  1.00  0.00     0.103 A 
ATOM     11  C   UNL A   1      34.622  16.022  25.273  1.00  0.00     0.067 C 
ATOM     12  C   UNL A   1      33.882  17.005  24.448  1.00  0.00     0.049 A 
ATOM     13  C   UNL A   1      33.338  16.775  23.203  1.00  0.00     0.090 A 
ATOM     14  N   UNL A   1      33.697  18.287  24.939  1.00  0.00    -0.246 NA
ATOM     15  S   UNL A   1      32.491  18.154  22.686  1.00  0.00    -0.126 S 
ENDBRANCH   9  10
ENDBRANCH   8   9
ENDBRANCH   7   8
ENDBRANCH   6   7
ENDBRANCH   5   6
BRANCH   5  16
ATOM     16  N   UNL A   1      36.497  19.278  24.951  1.00  0.00    -0.346 N 
ATOM     17  H   UNL A   1      36.981  18.646  25.589  1.00  0.00     0.345 HD
ATOM     18  H   UNL A   1      36.550  18.909  24.001  1.00  0.00     0.345 HD
ATOM     19  H   UNL A   1      35.518  19.359  25.230  1.00  0.00     0.345 HD
ENDBRANCH   5  16
ENDBRANCH   3   5
ENDBRANCH   2   3
ENDBRANCH   1   2
BRANCH   1  20
ATOM     20  C   UNL A   1      40.988  23.035  26.642  1.00  0.00     0.275 C 
BRANCH  20  21
ATOM     21  O   UNL A   1      40.142  24.193  26.627  1.00  0.00    -0.458 OA
BRANCH  21  22
ATOM     22  C   UNL A   1      40.774  25.343  26.295  1.00  0.00     0.338 C 
ATOM     23  O   UNL A   1      41.080  25.721  25.173  1.00  0.00    -0.246 OA
BRANCH  22  24
ATOM     24  C   UNL A   1      40.788  26.213  27.481  1.00  0.00     0.060 A 
ATOM     25  C   UNL A   1      39.786  26.003  28.431  1.00  0.00     0.016 A 
ATOM     26  C   UNL A   1      41.766  27.192  27.676  1.00  0.00     0.016 A 
ATOM     27  C   UNL A   1      39.744  26.775  29.581  1.00  0.00     0.010 A 
ATOM     28  C   UNL A   1      41.714  27.983  28.825  1.00  0.00     0.010 A 
ATOM     29  C   UNL A   1      40.688  27.791  29.765  1.00  0.00    -0.014 A 
BRANCH  29  30
ATOM     30  C   UNL A   1      40.478  28.746  30.870  1.00  0.00     0.031 A 
ATOM     31  C   UNL A   1      41.384  28.663  32.065  1.00  0.00     0.074 A 
ATOM     32  C   UNL A   1      39.553  29.714  30.754  1.00  0.00     0.049 A 
ATOM     33  N   UNL A   1      41.406  29.403  33.139  1.00  0.00    -0.248 NA
ATOM     34  C   UNL A   1      42.407  27.601  32.045  1.00  0.00     0.031 C 
ATOM     35  C   UNL A   1      38.667  29.902  29.603  1.00  0.00     0.029 A 
ATOM     36  N   UNL A   1      39.215  30.731  31.607  1.00  0.00    -0.354 N 
ATOM     37  C   UNL A   1      42.425  28.886  33.931  1.00  0.00     0.074 A 
ATOM     38  C   UNL A   1      42.985  27.757  33.226  1.00  0.00     0.031 C 
ATOM     39  C   UNL A   1      37.894  30.980  29.818  1.00  0.00     0.029 A 
ATOM     40  C   UNL A   1      38.203  31.532  31.135  1.00  0.00     0.049 A 
ATOM     41  H   UNL A   1      39.654  30.874  32.476  1.00  0.00     0.167 HD
ATOM     42  C   UNL A   1      42.851  29.324  35.138  1.00  0.00     0.037 A 
ATOM     43  C   UNL A   1      37.593  32.583  31.714  1.00  0.00     0.037 A 
ATOM     44  C   UNL A   1      42.288  30.465  35.811  1.00  0.00     0.049 A 
ATOM     45  C   UNL A   1      38.062  33.018  33.079  1.00  0.00     0.074 A 
ATOM     46  C   UNL A   1      42.654  31.017  37.025  1.00  0.00     0.029 A 
ATOM     47  N   UNL A   1      41.235  31.230  35.325  1.00  0.00    -0.354 N 
ATOM     48  N   UNL A   1      39.035  32.530  33.815  1.00  0.00    -0.248 NA
ATOM     49  C   UNL A   1      37.353  34.148  33.690  1.00  0.00     0.031 C 
ATOM     50  C   UNL A   1      41.784  32.075  37.302  1.00  0.00     0.029 A 
ATOM     51  C   UNL A   1      40.917  32.227  36.230  1.00  0.00     0.049 A 
ATOM     52  H   UNL A   1      40.782  31.083  34.464  1.00  0.00     0.167 HD
ATOM     53  C   UNL A   1      39.074  33.314  34.962  1.00  0.00     0.074 A 
ATOM     54  C   UNL A   1      38.043  34.322  34.808  1.00  0.00     0.031 C 
ATOM     55  C   UNL A   1      39.882  33.215  36.049  1.00  0.00     0.037 A 
BRANCH  42  56
ATOM     56  C   UNL A   1      43.940  28.548  35.825  1.00  0.00     0.058 A 
ATOM     57  C   UNL A   1      45.301  28.843  35.644  1.00  0.00     0.135 A 
ATOM     58  C   UNL A   1      43.610  27.510  36.714  1.00  0.00     0.135 A 
ATOM     59  F   UNL A   1      45.678  29.804  34.787  1.00  0.00    -0.206 F 
ATOM     60  C   UNL A   1      46.294  28.130  36.311  1.00  0.00     0.059 A 
ATOM     61  C   UNL A   1      44.585  26.805  37.411  1.00  0.00     0.059 A 
ATOM     62  F   UNL A   1      42.325  27.177  36.914  1.00  0.00    -0.206 F 
ATOM     63  C   UNL A   1      45.926  27.117  37.197  1.00  0.00     0.060 A 
BRANCH  63  64
ATOM     64  S   UNL A   1      47.224  26.227  38.080  1.00  0.00     0.124 S 
ATOM     65  O   UNL A   1      48.156  27.305  38.395  1.00  0.00    -0.237 OA
ATOM     66  O   UNL A   1      46.499  25.665  39.215  1.00  0.00    -0.237 OA
ATOM     67  O   UNL A   1      47.699  25.255  37.101  1.00  0.00    -0.744 OA
ENDBRANCH  63  64
ENDBRANCH  42  56
BRANCH  43  68
ATOM     68  C   UNL A   1      36.477  33.286  31.025  1.00  0.00     0.058 A 
ATOM     69  C   UNL A   1      36.712  34.119  29.920  1.00  0.00     0.135 A 
ATOM     70  C   UNL A   1      35.152  33.165  31.476  1.00  0.00     0.135 A 
ATOM     71  F   UNL A   1      37.959  34.275  29.452  1.00  0.00    -0.206 F 
ATOM     72  C   UNL A   1      35.684  34.833  29.311  1.00  0.00     0.059 A 
ATOM     73  C   UNL A   1      34.102  33.842  30.863  1.00  0.00     0.059 A 
ATOM     74  F   UNL A   1      34.866  32.371  32.521  1.00  0.00    -0.206 F 
ATOM     75  C   UNL A   1      34.382  34.689  29.792  1.00  0.00     0.060 A 
BRANCH  75  76
ATOM     76  S   UNL A   1      33.054  35.613  28.990  1.00  0.00     0.124 S 
ATOM     77  O   UNL A   1      32.411  34.571  28.197  1.00  0.00    -0.237 OA
ATOM     78  O   UNL A   1      32.292  36.109  30.131  1.00  0.00    -0.237 OA
ATOM     79  O   UNL A   1      33.768  36.635  28.229  1.00  0.00    -0.744 OA
ENDBRANCH  75  76
ENDBRANCH  43  68
BRANCH  55  80
ATOM     80  C   UNL A   1      39.701  34.249  37.126  1.00  0.00     0.058 A 
ATOM     81  C   UNL A   1      40.267  35.530  37.026  1.00  0.00     0.135 A 
ATOM     82  C   UNL A   1      38.950  33.950  38.275  1.00  0.00     0.135 A 
ATOM     83  F   UNL A   1      40.994  35.866  35.949  1.00  0.00    -0.206 F 
ATOM     84  C   UNL A   1      40.144  36.459  38.054  1.00  0.00     0.059 A 
ATOM     85  C   UNL A   1      38.782  34.878  39.297  1.00  0.00     0.059 A 
ATOM     86  F   UNL A   1      38.371  32.748  38.412  1.00  0.00    -0.206 F 
ATOM     87  C   UNL A   1      39.405  36.120  39.189  1.00  0.00     0.060 A 
BRANCH  87  88
ATOM     88  S   UNL A   1      39.272  37.324  40.525  1.00  0.00     0.124 S 
ATOM     89  O   UNL A   1      40.640  37.824  40.608  1.00  0.00    -0.237 OA
ATOM     90  O   UNL A   1      38.283  38.263  40.003  1.00  0.00    -0.237 OA
ATOM     91  O   UNL A   1      38.826  36.523  41.661  1.00  0.00    -0.744 OA
ENDBRANCH  87  88
ENDBRANCH  55  80
ENDBRANCH  29  30
ENDBRANCH  22  24
ENDBRANCH  21  22
ENDBRANCH  20  21
ENDBRANCH   1  20
TORSDOF 20
ENDMDL
MODEL 2
REMARK VINA RESULT:      -9.9      5.287     13.048
REMARK SMILES Cc1csc(CSCC[C@H]([NH3+])C(=O)OCCOC(=O)c2ccc(-c3c4nc(c(-c5c(F)cc(S(=O)(=O)[O-])cc5F)c5ccc([nH]5)c(-c5c(F)cc(S(=O)(=O)[O-])cc5F)c5nc(c(-c6c(F)cc(S(=O)(=O)[O-])cc6F)c6ccc3[nH]6)C=C5)C=C4)cc2)n1
REMARK SMILES IDX 15 1 14 2 12 3 13 4 10 5 9 6 8 7 7 8 6 9 5 10 1 11 2 12 3 13
REMARK SMILES IDX 86 14 4 15 11 16 16 20 17 21 18 22 19 23 20 24 21 25 85 26
REMARK SMILES IDX 22 27 84 28 23 29 24 30 25 31 78 32 26 33 83 34 77 35 79 36
REMARK SMILES IDX 27 37 82 38 76 39 75 40 28 42 62 43 41 44 61 45 42 46 45 47
REMARK SMILES IDX 60 48 80 49 43 50 44 51 59 53 81 54 46 55 29 56 30 57 39 58
REMARK SMILES IDX 31 59 32 60 38 61 40 62 33 63 34 64 35 65 36 66 37 67 63 68
REMARK SMILES IDX 64 69 73 70 65 71 66 72 72 73 74 74 67 75 68 76 69 77 70 78
REMARK SMILES IDX 71 79 47 80 48 81 57 82 49 83 50 84 56 85 58 86 51 87 52 88
REMARK SMILES IDX 53 89 54 90 55 91
REMARK H PARENT 11 17 11 18 11 19 79 41 45 52
REMARK Flexibility Score: inf
ROOT
ATOM      1  C   UNL A   1      33.455  34.193  28.718  1.00  0.00     0.274 C 
ENDROOT
BRANCH   1   2
ATOM      2  O   UNL A   1      33.729  34.707  30.040  1.00  0.00    -0.458 OA
BRANCH   2   3
ATOM      3  C   UNL A   1      33.018  35.779  30.487  1.00  0.00     0.364 C 
ATOM      4  O   UNL A   1      32.488  36.606  29.758  1.00  0.00    -0.245 OA
BRANCH   3   5
ATOM      5  C   UNL A   1      32.983  35.849  32.025  1.00  0.00     0.292 C 
BRANCH   5   6
ATOM      6  C   UNL A   1      34.258  35.307  32.691  1.00  0.00     0.088 C 
BRANCH   6   7
ATOM      7  C   UNL A   1      34.245  33.891  33.276  1.00  0.00     0.077 C 
BRANCH   7   8
ATOM      8  S   UNL A   1      35.448  32.675  32.626  1.00  0.00    -0.154 SA
BRANCH   8   9
ATOM      9  C   UNL A   1      37.018  33.578  32.557  1.00  0.00     0.137 C 
BRANCH   9  10
ATOM     10  C   UNL A   1      37.704  33.883  33.861  1.00  0.00     0.103 A 
ATOM     11  C   UNL A   1      40.036  35.943  35.682  1.00  0.00     0.067 C 
ATOM     12  C   UNL A   1      39.129  34.845  35.274  1.00  0.00     0.049 A 
ATOM     13  C   UNL A   1      38.837  33.716  36.007  1.00  0.00     0.090 A 
ATOM     14  N   UNL A   1      38.492  34.926  34.046  1.00  0.00    -0.246 NA
ATOM     15  S   UNL A   1      37.667  32.792  35.194  1.00  0.00    -0.126 S 
ENDBRANCH   9  10
ENDBRANCH   8   9
ENDBRANCH   7   8
ENDBRANCH   6   7
ENDBRANCH   5   6
BRANCH   5  16
ATOM     16  N   UNL A   1      31.741  35.294  32.613  1.00  0.00    -0.346 N 
ATOM     17  H   UNL A   1      31.967  34.471  33.171  1.00  0.00     0.345 HD
ATOM     18  H   UNL A   1      31.098  35.031  31.865  1.00  0.00     0.345 HD
ATOM     19  H   UNL A   1      31.301  35.998  33.207  1.00  0.00     0.345 HD
ENDBRANCH   5  16
ENDBRANCH   3   5
ENDBRANCH   2   3
ENDBRANCH   1   2
BRANCH   1  20
ATOM     20  C   UNL A   1      34.538  33.189  28.318  1.00  0.00     0.275 C 
BRANCH  20  21
ATOM     21  O   UNL A   1      34.383  31.992  29.093  1.00  0.00    -0.458 OA
BRANCH  21  22
ATOM     22  C   UNL A   1      34.417  30.849  28.370  1.00  0.00     0.338 C 
ATOM     23  O   UNL A   1      33.557  30.431  27.608  1.00  0.00    -0.246 OA
BRANCH  22  24
ATOM     24  C   UNL A   1      35.787  30.316  28.423  1.00  0.00     0.060 A 
ATOM     25  C   UNL A   1      36.256  29.901  29.672  1.00  0.00     0.016 A 
ATOM     26  C   UNL A   1      36.586  30.197  27.284  1.00  0.00     0.016 A 
ATOM     27  C   UNL A   1      37.531  29.374  29.797  1.00  0.00     0.010 A 
ATOM     28  C   UNL A   1      37.878  29.684  27.411  1.00  0.00     0.010 A 
ATOM     29  C   UNL A   1      38.359  29.296  28.673  1.00  0.00    -0.014 A 
BRANCH  29  30
ATOM     30  C   UNL A   1      39.781  28.960  28.876  1.00  0.00     0.031 A 
ATOM     31  C   UNL A   1      40.670  29.985  29.520  1.00  0.00     0.074 A 
ATOM     32  C   UNL A   1      40.232  27.732  28.567  1.00  0.00     0.049 A 
ATOM     33  N   UNL A   1      41.938  29.910  29.820  1.00  0.00    -0.248 NA
ATOM     34  C   UNL A   1      40.043  31.271  29.878  1.00  0.00     0.031 C 
ATOM     35  C   UNL A   1      39.423  26.656  27.989  1.00  0.00     0.029 A 
ATOM     36  N   UNL A   1      41.475  27.176  28.711  1.00  0.00    -0.354 N 
ATOM     37  C   UNL A   1      42.266  31.139  30.378  1.00  0.00     0.074 A 
ATOM     38  C   UNL A   1      41.073  31.952  30.359  1.00  0.00     0.031 C 
ATOM     39  C   UNL A   1      40.192  25.564  27.840  1.00  0.00     0.029 A 
ATOM     40  C   UNL A   1      41.551  25.876  28.274  1.00  0.00     0.049 A 
ATOM     41  H   UNL A   1      42.242  27.662  29.091  1.00  0.00     0.167 HD
ATOM     42  C   UNL A   1      43.462  31.545  30.866  1.00  0.00     0.037 A 
ATOM     43  C   UNL A   1      42.607  25.043  28.221  1.00  0.00     0.037 A 
ATOM     44  C   UNL A   1      44.632  30.708  30.892  1.00  0.00     0.049 A 
ATOM     45  C   UNL A   1      43.935  25.541  28.732  1.00  0.00     0.074 A 
ATOM     46  C   UNL A   1      45.891  31.002  31.383  1.00  0.00     0.029 A 
ATOM     47  N   UNL A   1      44.687  29.409  30.401  1.00  0.00    -0.354 N 
ATOM     48  N   UNL A   1      44.233  26.702  29.270  1.00  0.00    -0.248 NA
ATOM     49  C   UNL A   1      45.069  24.615  28.631  1.00  0.00     0.031 C 
ATOM     50  C   UNL A   1      46.722  29.905  31.135  1.00  0.00     0.029 A 
ATOM     51  C   UNL A   1      45.965  28.901  30.549  1.00  0.00     0.049 A 
ATOM     52  H   UNL A   1      43.927  28.923  30.007  1.00  0.00     0.167 HD
ATOM     53  C   UNL A   1      45.582  26.633  29.600  1.00  0.00     0.074 A 
ATOM     54  C   UNL A   1      46.032  25.309  29.223  1.00  0.00     0.031 C 
ATOM     55  C   UNL A   1      46.383  27.576  30.161  1.00  0.00     0.037 A 
BRANCH  42  56
ATOM     56  C   UNL A   1      43.575  32.959  31.364  1.00  0.00     0.058 A 
ATOM     57  C   UNL A   1      43.218  33.325  32.672  1.00  0.00     0.135 A 
ATOM     58  C   UNL A   1      44.092  33.960  30.525  1.00  0.00     0.135 A 
ATOM     59  F   UNL A   1      42.693  32.417  33.510  1.00  0.00    -0.206 F 
ATOM     60  C   UNL A   1      43.356  34.634  33.125  1.00  0.00     0.059 A 
ATOM     61  C   UNL A   1      44.266  35.268  30.966  1.00  0.00     0.059 A 
ATOM     62  F   UNL A   1      44.438  33.670  29.261  1.00  0.00    -0.206 F 
ATOM     63  C   UNL A   1      43.888  35.597  32.266  1.00  0.00     0.060 A 
BRANCH  63  64
ATOM     64  S   UNL A   1      44.095  37.282  32.879  1.00  0.00     0.124 S 
ATOM     65  O   UNL A   1      43.782  38.068  31.689  1.00  0.00    -0.237 OA
ATOM     66  O   UNL A   1      43.111  37.345  33.955  1.00  0.00    -0.237 OA
ATOM     67  O   UNL A   1      45.489  37.321  33.306  1.00  0.00    -0.744 OA
ENDBRANCH  63  64
ENDBRANCH  42  56
BRANCH  43  68
ATOM     68  C   UNL A   1      42.465  23.671  27.663  1.00  0.00     0.058 A 
ATOM     69  C   UNL A   1      42.320  22.555  28.501  1.00  0.00     0.135 A 
ATOM     70  C   UNL A   1      42.501  23.442  26.278  1.00  0.00     0.135 A 
ATOM     71  F   UNL A   1      42.285  22.716  29.833  1.00  0.00    -0.206 F 
ATOM     72  C   UNL A   1      42.253  21.261  27.991  1.00  0.00     0.059 A 
ATOM     73  C   UNL A   1      42.402  22.162  25.742  1.00  0.00     0.059 A 
ATOM     74  F   UNL A   1      42.625  24.474  25.428  1.00  0.00    -0.206 F 
ATOM     75  C   UNL A   1      42.298  21.075  26.609  1.00  0.00     0.060 A 
BRANCH  75  76
ATOM     76  S   UNL A   1      42.201  19.394  25.957  1.00  0.00     0.124 S 
ATOM     77  O   UNL A   1      43.085  19.478  24.800  1.00  0.00    -0.237 OA
ATOM     78  O   UNL A   1      42.690  18.601  27.079  1.00  0.00    -0.237 OA
ATOM     79  O   UNL A   1      40.781  19.232  25.655  1.00  0.00    -0.744 OA
ENDBRANCH  75  76
ENDBRANCH  43  68
BRANCH  55  80
ATOM     80  C   UNL A   1      47.809  27.182  30.430  1.00  0.00     0.058 A 
ATOM     81  C   UNL A   1      48.173  26.455  31.575  1.00  0.00     0.135 A 
ATOM     82  C   UNL A   1      48.825  27.539  29.528  1.00  0.00     0.135 A 
ATOM     83  F   UNL A   1      47.241  26.089  32.469  1.00  0.00    -0.206 F 
ATOM     84  C   UNL A   1      49.502  26.147  31.845  1.00  0.00     0.059 A 
ATOM     85  C   UNL A   1      50.155  27.207  29.760  1.00  0.00     0.059 A 
ATOM     86  F   UNL A   1      48.530  28.217  28.408  1.00  0.00    -0.206 F 
ATOM     87  C   UNL A   1      50.486  26.534  30.935  1.00  0.00     0.060 A 
BRANCH  87  88
ATOM     88  S   UNL A   1      52.209  26.149  31.307  1.00  0.00     0.124 S 
ATOM     89  O   UNL A   1      52.594  27.290  32.130  1.00  0.00    -0.237 OA
ATOM     90  O   UNL A   1      52.100  24.871  32.005  1.00  0.00    -0.237 OA
ATOM     91  O   UNL A   1      52.835  26.084  29.990  1.00  0.00    -0.744 OA
ENDBRANCH  87  88
ENDBRANCH  55  80
ENDBRANCH  29  30
ENDBRANCH  22  24
ENDBRANCH  21  22
ENDBRANCH  20  21
ENDBRANCH   1  20
TORSDOF 20
ENDMDL
MODEL 3
REMARK VINA RESULT:      -9.8      3.268      4.892
REMARK SMILES Cc1csc(CSCC[C@H]([NH3+])C(=O)OCCOC(=O)c2ccc(-c3c4nc(c(-c5c(F)cc(S(=O)(=O)[O-])cc5F)c5ccc([nH]5)c(-c5c(F)cc(S(=O)(=O)[O-])cc5F)c5nc(c(-c6c(F)cc(S(=O)(=O)[O-])cc6F)c6ccc3[nH]6)C=C5)C=C4)cc2)n1
REMARK SMILES IDX 15 1 14 2 12 3 13 4 10 5 9 6 8 7 7 8 6 9 5 10 1 11 2 12 3 13
REMARK SMILES IDX 86 14 4 15 11 16 16 20 17 21 18 22 19 23 20 24 21 25 85 26
REMARK SMILES IDX 22 27 84 28 23 29 24 30 25 31 78 32 26 33 83 34 77 35 79 36
REMARK SMILES IDX 27 37 82 38 76 39 75 40 28 42 62 43 41 44 61 45 42 46 45 47
REMARK SMILES IDX 60 48 80 49 43 50 44 51 59 53 81 54 46 55 29 56 30 57 39 58
REMARK SMILES IDX 31 59 32 60 38 61 40 62 33 63 34 64 35 65 36 66 37 67 63 68
REMARK SMILES IDX 64 69 73 70 65 71 66 72 72 73 74 74 67 75 68 76 69 77 70 78
REMARK SMILES IDX 71 79 47 80 48 81 57 82 49 83 50 84 56 85 58 86 51 87 52 88
REMARK SMILES IDX 53 89 54 90 55 91
REMARK H PARENT 11 17 11 18 11 19 79 41 45 52
REMARK Flexibility Score: inf
ROOT
ATOM      1  C   UNL A   1      40.143  22.161  27.198  1.00  0.00     0.274 C 
ENDROOT
BRANCH   1   2
ATOM      2  O   UNL A   1      40.657  20.880  27.625  1.00  0.00    -0.458 OA
BRANCH   2   3
ATOM      3  C   UNL A   1      41.006  19.965  26.678  1.00  0.00     0.364 C 
ATOM      4  O   UNL A   1      40.241  19.523  25.832  1.00  0.00    -0.245 OA
BRANCH   3   5
ATOM      5  C   UNL A   1      42.476  19.526  26.812  1.00  0.00     0.292 C 
BRANCH   5   6
ATOM      6  C   UNL A   1      43.147  19.214  25.465  1.00  0.00     0.088 C 
BRANCH   6   7
ATOM      7  C   UNL A   1      44.593  18.706  25.456  1.00  0.00     0.077 C 
BRANCH   7   8
ATOM      8  S   UNL A   1      45.891  19.796  24.770  1.00  0.00    -0.154 SA
BRANCH   8   9
ATOM      9  C   UNL A   1      45.027  21.341  24.374  1.00  0.00     0.137 C 
BRANCH   9  10
ATOM     10  C   UNL A   1      45.593  22.618  24.934  1.00  0.00     0.103 A 
ATOM     11  C   UNL A   1      47.776  25.452  24.487  1.00  0.00     0.067 C 
ATOM     12  C   UNL A   1      46.894  24.418  25.076  1.00  0.00     0.049 A 
ATOM     13  C   UNL A   1      46.517  24.327  26.398  1.00  0.00     0.090 A 
ATOM     14  N   UNL A   1      46.376  23.432  24.252  1.00  0.00    -0.246 NA
ATOM     15  S   UNL A   1      45.414  23.050  26.592  1.00  0.00    -0.126 S 
ENDBRANCH   9  10
ENDBRANCH   8   9
ENDBRANCH   7   8
ENDBRANCH   6   7
ENDBRANCH   5   6
BRANCH   5  16
ATOM     16  N   UNL A   1      42.684  18.464  27.823  1.00  0.00    -0.346 N 
ATOM     17  H   UNL A   1      43.477  18.709  28.417  1.00  0.00     0.345 HD
ATOM     18  H   UNL A   1      42.874  17.578  27.353  1.00  0.00     0.345 HD
ATOM     19  H   UNL A   1      41.845  18.370  28.397  1.00  0.00     0.345 HD
ENDBRANCH   5  16
ENDBRANCH   3   5
ENDBRANCH   2   3
ENDBRANCH   1   2
BRANCH   1  20
ATOM     20  C   UNL A   1      41.096  22.789  26.179  1.00  0.00     0.275 C 
BRANCH  20  21
ATOM     21  O   UNL A   1      41.848  23.832  26.816  1.00  0.00    -0.458 OA
BRANCH  21  22
ATOM     22  C   UNL A   1      41.520  25.082  26.415  1.00  0.00     0.338 C 
ATOM     23  O   UNL A   1      41.095  25.418  25.318  1.00  0.00    -0.246 OA
BRANCH  22  24
ATOM     24  C   UNL A   1      41.485  25.948  27.603  1.00  0.00     0.060 A 
ATOM     25  C   UNL A   1      40.394  25.799  28.462  1.00  0.00     0.016 A 
ATOM     26  C   UNL A   1      42.500  26.864  27.889  1.00  0.00     0.016 A 
ATOM     27  C   UNL A   1      40.300  26.569  29.609  1.00  0.00     0.010 A 
ATOM     28  C   UNL A   1      42.398  27.654  29.034  1.00  0.00     0.010 A 
ATOM     29  C   UNL A   1      41.285  27.525  29.881  1.00  0.00    -0.014 A 
BRANCH  29  30
ATOM     30  C   UNL A   1      41.039  28.489  30.971  1.00  0.00     0.031 A 
ATOM     31  C   UNL A   1      41.933  28.444  32.177  1.00  0.00     0.074 A 
ATOM     32  C   UNL A   1      40.093  29.433  30.832  1.00  0.00     0.049 A 
ATOM     33  N   UNL A   1      41.926  29.198  33.241  1.00  0.00    -0.248 NA
ATOM     34  C   UNL A   1      42.982  27.407  32.182  1.00  0.00     0.031 C 
ATOM     35  C   UNL A   1      39.216  29.585  29.668  1.00  0.00     0.029 A 
ATOM     36  N   UNL A   1      39.720  30.452  31.666  1.00  0.00    -0.354 N 
ATOM     37  C   UNL A   1      42.947  28.717  34.052  1.00  0.00     0.074 A 
ATOM     38  C   UNL A   1      43.543  27.593  33.368  1.00  0.00     0.031 C 
ATOM     39  C   UNL A   1      38.415  30.646  29.860  1.00  0.00     0.029 A 
ATOM     40  C   UNL A   1      38.696  31.223  31.172  1.00  0.00     0.049 A 
ATOM     41  H   UNL A   1      40.147  30.618  32.539  1.00  0.00     0.167 HD
ATOM     42  C   UNL A   1      43.349  29.181  35.258  1.00  0.00     0.037 A 
ATOM     43  C   UNL A   1      38.054  32.266  31.730  1.00  0.00     0.037 A 
ATOM     44  C   UNL A   1      42.751  30.317  35.909  1.00  0.00     0.049 A 
ATOM     45  C   UNL A   1      38.496  32.731  33.094  1.00  0.00     0.074 A 
ATOM     46  C   UNL A   1      43.089  30.893  37.119  1.00  0.00     0.029 A 
ATOM     47  N   UNL A   1      41.685  31.049  35.401  1.00  0.00    -0.354 N 
ATOM     48  N   UNL A   1      39.472  32.276  33.848  1.00  0.00    -0.248 NA
ATOM     49  C   UNL A   1      37.753  33.851  33.682  1.00  0.00     0.031 C 
ATOM     50  C   UNL A   1      42.191  31.934  37.372  1.00  0.00     0.029 A 
ATOM     51  C   UNL A   1      41.333  32.051  36.288  1.00  0.00     0.049 A 
ATOM     52  H   UNL A   1      41.246  30.880  34.536  1.00  0.00     0.167 HD
ATOM     53  C   UNL A   1      39.479  33.076  34.984  1.00  0.00     0.074 A 
ATOM     54  C   UNL A   1      38.426  34.056  34.806  1.00  0.00     0.031 C 
ATOM     55  C   UNL A   1      40.277  33.011  36.082  1.00  0.00     0.037 A 
BRANCH  42  56
ATOM     56  C   UNL A   1      44.448  28.440  35.967  1.00  0.00     0.058 A 
ATOM     57  C   UNL A   1      45.803  28.773  35.806  1.00  0.00     0.135 A 
ATOM     58  C   UNL A   1      44.133  27.400  36.857  1.00  0.00     0.135 A 
ATOM     59  F   UNL A   1      46.166  29.739  34.947  1.00  0.00    -0.206 F 
ATOM     60  C   UNL A   1      46.805  28.093  36.493  1.00  0.00     0.059 A 
ATOM     61  C   UNL A   1      45.116  26.726  37.575  1.00  0.00     0.059 A 
ATOM     62  F   UNL A   1      42.855  27.031  37.039  1.00  0.00    -0.206 F 
ATOM     63  C   UNL A   1      46.451  27.075  37.380  1.00  0.00     0.060 A 
BRANCH  63  64
ATOM     64  S   UNL A   1      47.759  26.228  38.290  1.00  0.00     0.124 S 
ATOM     65  O   UNL A   1      48.137  27.241  39.271  1.00  0.00    -0.237 OA
ATOM     66  O   UNL A   1      47.063  25.061  38.821  1.00  0.00    -0.237 OA
ATOM     67  O   UNL A   1      48.759  25.945  37.266  1.00  0.00    -0.744 OA
ENDBRANCH  63  64
ENDBRANCH  42  56
BRANCH  43  68
ATOM     68  C   UNL A   1      36.929  32.933  31.020  1.00  0.00     0.058 A 
ATOM     69  C   UNL A   1      35.594  32.686  31.375  1.00  0.00     0.135 A 
ATOM     70  C   UNL A   1      37.164  33.813  29.951  1.00  0.00     0.135 A 
ATOM     71  F   UNL A   1      35.313  31.849  32.386  1.00  0.00    -0.206 F 
ATOM     72  C   UNL A   1      34.534  33.254  30.674  1.00  0.00     0.059 A 
ATOM     73  C   UNL A   1      36.122  34.420  29.256  1.00  0.00     0.059 A 
ATOM     74  F   UNL A   1      38.421  34.098  29.576  1.00  0.00    -0.206 F 
ATOM     75  C   UNL A   1      34.809  34.118  29.614  1.00  0.00     0.060 A 
BRANCH  75  76
ATOM     76  S   UNL A   1      33.427  34.858  28.717  1.00  0.00     0.124 S 
ATOM     77  O   UNL A   1      34.045  36.057  28.165  1.00  0.00    -0.237 OA
ATOM     78  O   UNL A   1      33.090  33.812  27.756  1.00  0.00    -0.237 OA
ATOM     79  O   UNL A   1      32.431  35.084  29.761  1.00  0.00    -0.744 OA
ENDBRANCH  75  76
ENDBRANCH  43  68
BRANCH  55  80
ATOM     80  C   UNL A   1      40.059  34.054  37.143  1.00  0.00     0.058 A 
ATOM     81  C   UNL A   1      39.254  33.810  38.267  1.00  0.00     0.135 A 
ATOM     82  C   UNL A   1      40.665  35.316  37.031  1.00  0.00     0.135 A 
ATOM     83  F   UNL A   1      38.652  32.621  38.422  1.00  0.00    -0.206 F 
ATOM     84  C   UNL A   1      39.010  34.801  39.213  1.00  0.00     0.059 A 
ATOM     85  C   UNL A   1      40.465  36.308  37.985  1.00  0.00     0.059 A 
ATOM     86  F   UNL A   1      41.460  35.596  35.986  1.00  0.00    -0.206 F 
ATOM     87  C   UNL A   1      39.615  36.048  39.058  1.00  0.00     0.060 A 
BRANCH  87  88
ATOM     88  S   UNL A   1      39.273  37.333  40.278  1.00  0.00     0.124 S 
ATOM     89  O   UNL A   1      38.448  38.257  39.508  1.00  0.00    -0.237 OA
ATOM     90  O   UNL A   1      38.583  36.590  41.329  1.00  0.00    -0.237 OA
ATOM     91  O   UNL A   1      40.600  37.824  40.636  1.00  0.00    -0.744 OA
ENDBRANCH  87  88
ENDBRANCH  55  80
ENDBRANCH  29  30
ENDBRANCH  22  24
ENDBRANCH  21  22
ENDBRANCH  20  21
ENDBRANCH   1  20
TORSDOF 20
ENDMDL
