MODEL 1
REMARK VINA RESULT:     -10.4      0.000      0.000
REMARK SMILES COc1ccc2c(c1)[C@]1(CCC2)C[C@H]1C(=O)OCCOC(=O)c1ccc(-c2c3nc(c(-c4c(F)cc(S(=O)(=O)[O-])cc4F)c4ccc([nH]4)c(-c4c(F)cc(S(=O)(=O)[O-])cc4F)c4nc(c(-c5c(F)cc(S(=O)(=O)[O-])cc5F)c5ccc2[nH]5)C=C4)C=C3)cc1
REMARK SMILES IDX 19 1 18 2 17 3 15 4 16 5 14 6 3 7 4 8 8 9 5 10 7 11 6 12
REMARK SMILES IDX 9 13 12 14 10 15 13 16 11 17 2 18 1 19 20 20 21 21 22 22
REMARK SMILES IDX 23 23 24 24 88 25 25 26 87 27 26 28 27 29 28 30 81 31 29 32
REMARK SMILES IDX 86 33 80 34 82 35 30 36 85 37 79 38 78 39 31 41 65 42 44 43
REMARK SMILES IDX 64 44 45 45 48 46 63 47 83 48 46 49 47 50 62 52 84 53 49 54
REMARK SMILES IDX 32 55 33 56 42 57 34 58 35 59 41 60 43 61 36 62 37 63 38 64
REMARK SMILES IDX 39 65 40 66 66 67 67 68 76 69 68 70 69 71 75 72 77 73 70 74
REMARK SMILES IDX 71 75 72 76 73 77 74 78 50 79 51 80 60 81 52 82 53 83 59 84
REMARK SMILES IDX 61 85 54 86 55 87 56 88 57 89 58 90
REMARK H PARENT 82 40 48 51
REMARK Flexibility Score: inf
ROOT
ATOM      1  C   UNL A   1      33.884  32.251  28.208  1.00  0.00     0.275 C 
ENDROOT
BRANCH   1   2
ATOM      2  C   UNL A   1      34.944  33.349  28.351  1.00  0.00     0.274 C 
BRANCH   2   3
ATOM      3  O   UNL A   1      35.531  33.292  29.661  1.00  0.00    -0.462 OA
BRANCH   3   4
ATOM      4  C   UNL A   1      34.738  33.612  30.722  1.00  0.00     0.309 C 
ATOM      5  O   UNL A   1      33.828  34.421  30.722  1.00  0.00    -0.252 OA
BRANCH   4   6
ATOM      6  C   UNL A   1      35.100  32.765  31.882  1.00  0.00     0.111 C 
ATOM      7  C   UNL A   1      37.813  29.578  33.089  1.00  0.00     0.119 A 
ATOM      8  C   UNL A   1      39.152  29.883  33.290  1.00  0.00     0.047 A 
ATOM      9  C   UNL A   1      36.899  30.622  32.996  1.00  0.00     0.051 A 
ATOM     10  C   UNL A   1      39.561  31.212  33.433  1.00  0.00     0.008 A 
ATOM     11  C   UNL A   1      37.285  31.980  33.052  1.00  0.00    -0.034 A 
ATOM     12  C   UNL A   1      38.635  32.259  33.339  1.00  0.00    -0.044 A 
ATOM     13  C   UNL A   1      36.294  33.109  32.771  1.00  0.00     0.010 C 
ATOM     14  C   UNL A   1      39.108  33.688  33.499  1.00  0.00     0.036 C 
ATOM     15  C   UNL A   1      36.895  34.507  32.700  1.00  0.00     0.013 C 
ATOM     16  C   UNL A   1      34.909  33.058  33.354  1.00  0.00     0.029 C 
ATOM     17  C   UNL A   1      37.965  34.665  33.772  1.00  0.00     0.006 C 
BRANCH   7  18
ATOM     18  O   UNL A   1      37.503  28.248  32.977  1.00  0.00    -0.497 OA
ATOM     19  C   UNL A   1      38.538  27.392  32.497  1.00  0.00     0.278 C 
ENDBRANCH   7  18
ENDBRANCH   4   6
ENDBRANCH   3   4
ENDBRANCH   2   3
ENDBRANCH   1   2
BRANCH   1  20
ATOM     20  O   UNL A   1      34.270  31.285  27.212  1.00  0.00    -0.458 OA
BRANCH  20  21
ATOM     21  C   UNL A   1      34.382  30.009  27.650  1.00  0.00     0.338 C 
ATOM     22  O   UNL A   1      33.550  29.121  27.569  1.00  0.00    -0.246 OA
BRANCH  21  23
ATOM     23  C   UNL A   1      35.775  29.779  28.065  1.00  0.00     0.060 A 
ATOM     24  C   UNL A   1      36.129  29.409  29.354  1.00  0.00     0.016 A 
ATOM     25  C   UNL A   1      36.752  29.906  27.086  1.00  0.00     0.016 A 
ATOM     26  C   UNL A   1      37.483  29.192  29.642  1.00  0.00     0.010 A 
ATOM     27  C   UNL A   1      38.084  29.633  27.344  1.00  0.00     0.010 A 
ATOM     28  C   UNL A   1      38.469  29.295  28.637  1.00  0.00    -0.014 A 
BRANCH  28  29
ATOM     29  C   UNL A   1      39.897  29.011  28.912  1.00  0.00     0.031 A 
ATOM     30  C   UNL A   1      40.490  27.661  28.613  1.00  0.00     0.074 A 
ATOM     31  C   UNL A   1      40.639  29.976  29.486  1.00  0.00     0.049 A 
ATOM     32  N   UNL A   1      41.734  27.271  28.721  1.00  0.00    -0.248 NA
ATOM     33  C   UNL A   1      39.572  26.602  28.160  1.00  0.00     0.031 C 
ATOM     34  C   UNL A   1      40.132  31.281  29.915  1.00  0.00     0.029 A 
ATOM     35  N   UNL A   1      41.973  30.019  29.793  1.00  0.00    -0.354 N 
ATOM     36  C   UNL A   1      41.753  25.937  28.329  1.00  0.00     0.074 A 
ATOM     37  C   UNL A   1      40.384  25.558  28.059  1.00  0.00     0.031 C 
ATOM     38  C   UNL A   1      41.155  32.022  30.366  1.00  0.00     0.029 A 
ATOM     39  C   UNL A   1      42.380  31.233  30.293  1.00  0.00     0.049 A 
ATOM     40  H   UNL A   1      42.581  29.254  29.669  1.00  0.00     0.167 HD
ATOM     41  C   UNL A   1      42.819  25.119  28.173  1.00  0.00     0.037 A 
ATOM     42  C   UNL A   1      43.608  31.667  30.634  1.00  0.00     0.037 A 
ATOM     43  C   UNL A   1      44.177  25.517  28.445  1.00  0.00     0.049 A 
ATOM     44  C   UNL A   1      44.778  30.741  30.449  1.00  0.00     0.074 A 
ATOM     45  C   UNL A   1      45.340  24.789  28.270  1.00  0.00     0.029 A 
ATOM     46  N   UNL A   1      44.551  26.752  28.958  1.00  0.00    -0.354 N 
ATOM     47  N   UNL A   1      44.791  29.515  29.983  1.00  0.00    -0.248 NA
ATOM     48  C   UNL A   1      46.098  31.257  30.829  1.00  0.00     0.031 C 
ATOM     49  C   UNL A   1      46.412  25.564  28.723  1.00  0.00     0.029 A 
ATOM     50  C   UNL A   1      45.924  26.797  29.128  1.00  0.00     0.049 A 
ATOM     51  H   UNL A   1      43.932  27.487  29.168  1.00  0.00     0.167 HD
ATOM     52  C   UNL A   1      46.123  29.117  29.996  1.00  0.00     0.074 A 
ATOM     53  C   UNL A   1      46.886  30.243  30.497  1.00  0.00     0.031 C 
ATOM     54  C   UNL A   1      46.665  27.928  29.632  1.00  0.00     0.037 A 
BRANCH  41  55
ATOM     55  C   UNL A   1      42.575  23.725  27.655  1.00  0.00     0.058 A 
ATOM     56  C   UNL A   1      42.502  23.462  26.276  1.00  0.00     0.135 A 
ATOM     57  C   UNL A   1      42.483  22.632  28.531  1.00  0.00     0.135 A 
ATOM     58  F   UNL A   1      42.571  24.468  25.390  1.00  0.00    -0.206 F 
ATOM     59  C   UNL A   1      42.330  22.171  25.788  1.00  0.00     0.059 A 
ATOM     60  C   UNL A   1      42.340  21.327  28.064  1.00  0.00     0.059 A 
ATOM     61  F   UNL A   1      42.546  22.822  29.859  1.00  0.00    -0.206 F 
ATOM     62  C   UNL A   1      42.256  21.108  26.690  1.00  0.00     0.060 A 
BRANCH  62  63
ATOM     63  S   UNL A   1      42.061  19.438  26.032  1.00  0.00     0.124 S 
ATOM     64  O   UNL A   1      42.891  19.496  24.832  1.00  0.00    -0.237 OA
ATOM     65  O   UNL A   1      42.580  18.615  27.120  1.00  0.00    -0.237 OA
ATOM     66  O   UNL A   1      40.626  19.328  25.795  1.00  0.00    -0.744 OA
ENDBRANCH  62  63
ENDBRANCH  41  55
BRANCH  42  67
ATOM     67  C   UNL A   1      43.786  33.059  31.121  1.00  0.00     0.058 A 
ATOM     68  C   UNL A   1      43.964  34.120  30.222  1.00  0.00     0.135 A 
ATOM     69  C   UNL A   1      43.730  33.366  32.491  1.00  0.00     0.135 A 
ATOM     70  F   UNL A   1      44.023  33.878  28.903  1.00  0.00    -0.206 F 
ATOM     71  C   UNL A   1      44.092  35.434  30.660  1.00  0.00     0.059 A 
ATOM     72  C   UNL A   1      43.827  34.675  32.951  1.00  0.00     0.059 A 
ATOM     73  F   UNL A   1      43.539  32.389  33.391  1.00  0.00    -0.206 F 
ATOM     74  C   UNL A   1      44.014  35.701  32.028  1.00  0.00     0.060 A 
BRANCH  74  75
ATOM     75  S   UNL A   1      44.126  37.417  32.578  1.00  0.00     0.124 S 
ATOM     76  O   UNL A   1      43.046  37.484  33.556  1.00  0.00    -0.237 OA
ATOM     77  O   UNL A   1      45.481  37.475  33.118  1.00  0.00    -0.237 OA
ATOM     78  O   UNL A   1      43.913  38.179  31.352  1.00  0.00    -0.744 OA
ENDBRANCH  74  75
ENDBRANCH  42  67
BRANCH  54  79
ATOM     79  C   UNL A   1      48.156  27.783  29.752  1.00  0.00     0.058 A 
ATOM     80  C   UNL A   1      48.751  27.246  30.904  1.00  0.00     0.135 A 
ATOM     81  C   UNL A   1      48.994  28.118  28.676  1.00  0.00     0.135 A 
ATOM     82  F   UNL A   1      47.996  26.915  31.964  1.00  0.00    -0.206 F 
ATOM     83  C   UNL A   1      50.127  27.067  30.994  1.00  0.00     0.059 A 
ATOM     84  C   UNL A   1      50.369  27.917  28.731  1.00  0.00     0.059 A 
ATOM     85  F   UNL A   1      48.475  28.626  27.546  1.00  0.00    -0.206 F 
ATOM     86  C   UNL A   1      50.927  27.399  29.900  1.00  0.00     0.060 A 
BRANCH  86  87
ATOM     87  S   UNL A   1      52.706  27.123  30.021  1.00  0.00     0.124 S 
ATOM     88  O   UNL A   1      52.794  26.283  31.210  1.00  0.00    -0.237 OA
ATOM     89  O   UNL A   1      53.003  26.462  28.753  1.00  0.00    -0.237 OA
ATOM     90  O   UNL A   1      53.253  28.470  30.163  1.00  0.00    -0.744 OA
ENDBRANCH  86  87
ENDBRANCH  54  79
ENDBRANCH  28  29
ENDBRANCH  21  23
ENDBRANCH  20  21
ENDBRANCH   1  20
TORSDOF 15
ENDMDL
MODEL 2
REMARK VINA RESULT:     -10.2      2.575      5.235
REMARK SMILES COc1ccc2c(c1)[C@]1(CCC2)C[C@H]1C(=O)OCCOC(=O)c1ccc(-c2c3nc(c(-c4c(F)cc(S(=O)(=O)[O-])cc4F)c4ccc([nH]4)c(-c4c(F)cc(S(=O)(=O)[O-])cc4F)c4nc(c(-c5c(F)cc(S(=O)(=O)[O-])cc5F)c5ccc2[nH]5)C=C4)C=C3)cc1
REMARK SMILES IDX 19 1 18 2 17 3 15 4 16 5 14 6 3 7 4 8 8 9 5 10 7 11 6 12
REMARK SMILES IDX 9 13 12 14 10 15 13 16 11 17 2 18 1 19 20 20 21 21 22 22
REMARK SMILES IDX 23 23 24 24 88 25 25 26 87 27 26 28 27 29 28 30 81 31 29 32
REMARK SMILES IDX 86 33 80 34 82 35 30 36 85 37 79 38 78 39 31 41 65 42 44 43
REMARK SMILES IDX 64 44 45 45 48 46 63 47 83 48 46 49 47 50 62 52 84 53 49 54
REMARK SMILES IDX 32 55 33 56 42 57 34 58 35 59 41 60 43 61 36 62 37 63 38 64
REMARK SMILES IDX 39 65 40 66 66 67 67 68 76 69 68 70 69 71 75 72 77 73 70 74
REMARK SMILES IDX 71 75 72 76 73 77 74 78 50 79 51 80 60 81 52 82 53 83 59 84
REMARK SMILES IDX 61 85 54 86 55 87 56 88 57 89 58 90
REMARK H PARENT 82 40 48 51
REMARK Flexibility Score: inf
ROOT
ATOM      1  C   UNL A   1      32.357  29.342  27.242  1.00  0.00     0.275 C 
ENDROOT
BRANCH   1   2
ATOM      2  C   UNL A   1      31.515  28.112  27.597  1.00  0.00     0.274 C 
BRANCH   2   3
ATOM      3  O   UNL A   1      31.362  27.275  26.440  1.00  0.00    -0.462 OA
BRANCH   3   4
ATOM      4  C   UNL A   1      31.887  26.019  26.496  1.00  0.00     0.309 C 
ATOM      5  O   UNL A   1      31.317  25.017  26.891  1.00  0.00    -0.252 OA
BRANCH   4   6
ATOM      6  C   UNL A   1      33.256  26.030  25.930  1.00  0.00     0.111 C 
ATOM      7  C   UNL A   1      36.797  23.538  25.462  1.00  0.00     0.119 A 
ATOM      8  C   UNL A   1      36.762  22.496  24.545  1.00  0.00     0.047 A 
ATOM      9  C   UNL A   1      35.800  24.505  25.409  1.00  0.00     0.051 A 
ATOM     10  C   UNL A   1      35.765  22.448  23.566  1.00  0.00     0.008 A 
ATOM     11  C   UNL A   1      34.729  24.446  24.488  1.00  0.00    -0.034 A 
ATOM     12  C   UNL A   1      34.764  23.427  23.517  1.00  0.00    -0.044 A 
ATOM     13  C   UNL A   1      33.552  25.418  24.562  1.00  0.00     0.010 C 
ATOM     14  C   UNL A   1      33.698  23.348  22.446  1.00  0.00     0.036 C 
ATOM     15  C   UNL A   1      32.396  25.122  23.614  1.00  0.00     0.013 C 
ATOM     16  C   UNL A   1      33.797  26.882  24.802  1.00  0.00     0.029 C 
ATOM     17  C   UNL A   1      32.937  24.661  22.267  1.00  0.00     0.006 C 
BRANCH   7  18
ATOM     18  O   UNL A   1      37.819  23.511  26.373  1.00  0.00    -0.497 OA
ATOM     19  C   UNL A   1      38.816  22.509  26.181  1.00  0.00     0.278 C 
ENDBRANCH   7  18
ENDBRANCH   4   6
ENDBRANCH   3   4
ENDBRANCH   2   3
ENDBRANCH   1   2
BRANCH   1  20
ATOM     20  O   UNL A   1      33.740  29.142  27.592  1.00  0.00    -0.458 OA
BRANCH  20  21
ATOM     21  C   UNL A   1      34.411  30.252  27.976  1.00  0.00     0.338 C 
ATOM     22  O   UNL A   1      33.938  31.320  28.329  1.00  0.00    -0.246 OA
BRANCH  21  23
ATOM     23  C   UNL A   1      35.836  29.913  28.112  1.00  0.00     0.060 A 
ATOM     24  C   UNL A   1      36.737  29.992  27.060  1.00  0.00     0.016 A 
ATOM     25  C   UNL A   1      36.276  29.538  29.376  1.00  0.00     0.016 A 
ATOM     26  C   UNL A   1      38.079  29.668  27.300  1.00  0.00     0.010 A 
ATOM     27  C   UNL A   1      37.609  29.277  29.638  1.00  0.00     0.010 A 
ATOM     28  C   UNL A   1      38.525  29.315  28.592  1.00  0.00    -0.014 A 
BRANCH  28  29
ATOM     29  C   UNL A   1      39.951  29.027  28.873  1.00  0.00     0.031 A 
ATOM     30  C   UNL A   1      40.542  27.676  28.574  1.00  0.00     0.074 A 
ATOM     31  C   UNL A   1      40.694  29.989  29.452  1.00  0.00     0.049 A 
ATOM     32  N   UNL A   1      41.784  27.282  28.686  1.00  0.00    -0.248 NA
ATOM     33  C   UNL A   1      39.623  26.620  28.114  1.00  0.00     0.031 C 
ATOM     34  C   UNL A   1      40.188  31.294  29.882  1.00  0.00     0.029 A 
ATOM     35  N   UNL A   1      42.026  30.027  29.766  1.00  0.00    -0.354 N 
ATOM     36  C   UNL A   1      41.801  25.949  28.292  1.00  0.00     0.074 A 
ATOM     37  C   UNL A   1      40.432  25.574  28.014  1.00  0.00     0.031 C 
ATOM     38  C   UNL A   1      41.211  32.031  30.340  1.00  0.00     0.029 A 
ATOM     39  C   UNL A   1      42.434  31.239  30.270  1.00  0.00     0.049 A 
ATOM     40  H   UNL A   1      42.632  29.261  29.643  1.00  0.00     0.167 HD
ATOM     41  C   UNL A   1      42.866  25.128  28.139  1.00  0.00     0.037 A 
ATOM     42  C   UNL A   1      43.662  31.668  30.618  1.00  0.00     0.037 A 
ATOM     43  C   UNL A   1      44.224  25.522  28.418  1.00  0.00     0.049 A 
ATOM     44  C   UNL A   1      44.830  30.740  30.436  1.00  0.00     0.074 A 
ATOM     45  C   UNL A   1      45.385  24.792  28.246  1.00  0.00     0.029 A 
ATOM     46  N   UNL A   1      44.599  26.755  28.934  1.00  0.00    -0.354 N 
ATOM     47  N   UNL A   1      44.841  29.515  29.967  1.00  0.00    -0.248 NA
ATOM     48  C   UNL A   1      46.150  31.252  30.823  1.00  0.00     0.031 C 
ATOM     49  C   UNL A   1      46.457  25.562  28.706  1.00  0.00     0.029 A 
ATOM     50  C   UNL A   1      45.972  26.796  29.111  1.00  0.00     0.049 A 
ATOM     51  H   UNL A   1      43.981  27.491  29.144  1.00  0.00     0.167 HD
ATOM     52  C   UNL A   1      46.172  29.113  29.985  1.00  0.00     0.074 A 
ATOM     53  C   UNL A   1      46.936  30.236  30.492  1.00  0.00     0.031 C 
ATOM     54  C   UNL A   1      46.713  27.924  29.621  1.00  0.00     0.037 A 
BRANCH  41  55
ATOM     55  C   UNL A   1      42.620  23.737  27.616  1.00  0.00     0.058 A 
ATOM     56  C   UNL A   1      42.602  23.467  26.237  1.00  0.00     0.135 A 
ATOM     57  C   UNL A   1      42.472  22.650  28.492  1.00  0.00     0.135 A 
ATOM     58  F   UNL A   1      42.727  24.468  25.351  1.00  0.00    -0.206 F 
ATOM     59  C   UNL A   1      42.429  22.177  25.747  1.00  0.00     0.059 A 
ATOM     60  C   UNL A   1      42.327  21.345  28.025  1.00  0.00     0.059 A 
ATOM     61  F   UNL A   1      42.480  22.845  29.821  1.00  0.00    -0.206 F 
ATOM     62  C   UNL A   1      42.298  21.121  26.650  1.00  0.00     0.060 A 
BRANCH  62  63
ATOM     63  S   UNL A   1      42.103  19.451  25.991  1.00  0.00     0.124 S 
ATOM     64  O   UNL A   1      42.562  18.637  27.113  1.00  0.00    -0.237 OA
ATOM     65  O   UNL A   1      40.672  19.393  25.713  1.00  0.00    -0.237 OA
ATOM     66  O   UNL A   1      42.969  19.442  24.816  1.00  0.00    -0.744 OA
ENDBRANCH  62  63
ENDBRANCH  41  55
BRANCH  42  67
ATOM     67  C   UNL A   1      43.841  33.059  31.109  1.00  0.00     0.058 A 
ATOM     68  C   UNL A   1      44.015  34.123  30.212  1.00  0.00     0.135 A 
ATOM     69  C   UNL A   1      43.791  33.361  32.479  1.00  0.00     0.135 A 
ATOM     70  F   UNL A   1      44.069  33.886  28.893  1.00  0.00    -0.206 F 
ATOM     71  C   UNL A   1      44.145  35.436  30.654  1.00  0.00     0.059 A 
ATOM     72  C   UNL A   1      43.890  34.669  32.944  1.00  0.00     0.059 A 
ATOM     73  F   UNL A   1      43.604  32.381  33.378  1.00  0.00    -0.206 F 
ATOM     74  C   UNL A   1      44.073  35.698  32.023  1.00  0.00     0.060 A 
BRANCH  74  75
ATOM     75  S   UNL A   1      44.186  37.413  32.578  1.00  0.00     0.124 S 
ATOM     76  O   UNL A   1      45.560  37.474  33.066  1.00  0.00    -0.237 OA
ATOM     77  O   UNL A   1      43.912  38.148  31.348  1.00  0.00    -0.237 OA
ATOM     78  O   UNL A   1      43.151  37.506  33.602  1.00  0.00    -0.744 OA
ENDBRANCH  74  75
ENDBRANCH  42  67
BRANCH  54  79
ATOM     79  C   UNL A   1      48.204  27.774  29.747  1.00  0.00     0.058 A 
ATOM     80  C   UNL A   1      48.788  27.184  30.879  1.00  0.00     0.135 A 
ATOM     81  C   UNL A   1      49.050  28.160  28.696  1.00  0.00     0.135 A 
ATOM     82  F   UNL A   1      48.024  26.803  31.914  1.00  0.00    -0.206 F 
ATOM     83  C   UNL A   1      50.163  27.002  30.972  1.00  0.00     0.059 A 
ATOM     84  C   UNL A   1      50.425  27.958  28.754  1.00  0.00     0.059 A 
ATOM     85  F   UNL A   1      48.541  28.720  27.586  1.00  0.00    -0.206 F 
ATOM     86  C   UNL A   1      50.973  27.386  29.902  1.00  0.00     0.060 A 
BRANCH  86  87
ATOM     87  S   UNL A   1      52.751  27.106  30.025  1.00  0.00     0.124 S 
ATOM     88  O   UNL A   1      53.274  28.459  29.875  1.00  0.00    -0.237 OA
ATOM     89  O   UNL A   1      52.880  26.519  31.356  1.00  0.00    -0.237 OA
ATOM     90  O   UNL A   1      53.033  26.199  28.916  1.00  0.00    -0.744 OA
ENDBRANCH  86  87
ENDBRANCH  54  79
ENDBRANCH  28  29
ENDBRANCH  21  23
ENDBRANCH  20  21
ENDBRANCH   1  20
TORSDOF 15
ENDMDL
MODEL 3
REMARK VINA RESULT:     -10.1      0.965      8.479
REMARK SMILES COc1ccc2c(c1)[C@]1(CCC2)C[C@H]1C(=O)OCCOC(=O)c1ccc(-c2c3nc(c(-c4c(F)cc(S(=O)(=O)[O-])cc4F)c4ccc([nH]4)c(-c4c(F)cc(S(=O)(=O)[O-])cc4F)c4nc(c(-c5c(F)cc(S(=O)(=O)[O-])cc5F)c5ccc2[nH]5)C=C4)C=C3)cc1
REMARK SMILES IDX 19 1 18 2 17 3 15 4 16 5 14 6 3 7 4 8 8 9 5 10 7 11 6 12
REMARK SMILES IDX 9 13 12 14 10 15 13 16 11 17 2 18 1 19 20 20 21 21 22 22
REMARK SMILES IDX 23 23 24 24 88 25 25 26 87 27 26 28 27 29 28 30 81 31 29 32
REMARK SMILES IDX 86 33 80 34 82 35 30 36 85 37 79 38 78 39 31 41 65 42 44 43
REMARK SMILES IDX 64 44 45 45 48 46 63 47 83 48 46 49 47 50 62 52 84 53 49 54
REMARK SMILES IDX 32 55 33 56 42 57 34 58 35 59 41 60 43 61 36 62 37 63 38 64
REMARK SMILES IDX 39 65 40 66 66 67 67 68 76 69 68 70 69 71 75 72 77 73 70 74
REMARK SMILES IDX 71 75 72 76 73 77 74 78 50 79 51 80 60 81 52 82 53 83 59 84
REMARK SMILES IDX 61 85 54 86 55 87 56 88 57 89 58 90
REMARK H PARENT 82 40 48 51
REMARK Flexibility Score: inf
ROOT
ATOM      1  C   UNL A   1      33.967  32.251  28.044  1.00  0.00     0.275 C 
ENDROOT
BRANCH   1   2
ATOM      2  C   UNL A   1      35.113  33.254  28.212  1.00  0.00     0.274 C 
BRANCH   2   3
ATOM      3  O   UNL A   1      35.731  33.079  29.497  1.00  0.00    -0.462 OA
BRANCH   3   4
ATOM      4  C   UNL A   1      35.097  33.612  30.579  1.00  0.00     0.309 C 
ATOM      5  O   UNL A   1      34.348  34.571  30.574  1.00  0.00    -0.252 OA
BRANCH   4   6
ATOM      6  C   UNL A   1      35.401  32.797  31.778  1.00  0.00     0.111 C 
ATOM      7  C   UNL A   1      37.935  29.536  33.161  1.00  0.00     0.119 A 
ATOM      8  C   UNL A   1      39.285  29.784  33.371  1.00  0.00     0.047 A 
ATOM      9  C   UNL A   1      37.075  30.618  33.010  1.00  0.00     0.051 A 
ATOM     10  C   UNL A   1      39.757  31.096  33.467  1.00  0.00     0.008 A 
ATOM     11  C   UNL A   1      37.527  31.957  33.016  1.00  0.00    -0.034 A 
ATOM     12  C   UNL A   1      38.885  32.183  33.314  1.00  0.00    -0.044 A 
ATOM     13  C   UNL A   1      36.597  33.120  32.673  1.00  0.00     0.010 C 
ATOM     14  C   UNL A   1      39.425  33.592  33.423  1.00  0.00     0.036 C 
ATOM     15  C   UNL A   1      37.267  34.483  32.554  1.00  0.00     0.013 C 
ATOM     16  C   UNL A   1      35.203  33.161  33.234  1.00  0.00     0.029 C 
ATOM     17  C   UNL A   1      38.328  34.634  33.636  1.00  0.00     0.006 C 
BRANCH   7  18
ATOM     18  O   UNL A   1      37.562  28.220  33.099  1.00  0.00    -0.497 OA
ATOM     19  C   UNL A   1      38.441  27.342  32.397  1.00  0.00     0.278 C 
ENDBRANCH   7  18
ENDBRANCH   4   6
ENDBRANCH   3   4
ENDBRANCH   2   3
ENDBRANCH   1   2
BRANCH   1  20
ATOM     20  O   UNL A   1      34.325  31.203  27.123  1.00  0.00    -0.458 OA
BRANCH  20  21
ATOM     21  C   UNL A   1      34.421  29.964  27.658  1.00  0.00     0.338 C 
ATOM     22  O   UNL A   1      33.575  29.085  27.649  1.00  0.00    -0.246 OA
BRANCH  21  23
ATOM     23  C   UNL A   1      35.811  29.745  28.085  1.00  0.00     0.060 A 
ATOM     24  C   UNL A   1      36.157  29.359  29.372  1.00  0.00     0.016 A 
ATOM     25  C   UNL A   1      36.798  29.903  27.119  1.00  0.00     0.016 A 
ATOM     26  C   UNL A   1      37.510  29.156  29.671  1.00  0.00     0.010 A 
ATOM     27  C   UNL A   1      38.131  29.644  27.387  1.00  0.00     0.010 A 
ATOM     28  C   UNL A   1      38.506  29.290  28.679  1.00  0.00    -0.014 A 
BRANCH  28  29
ATOM     29  C   UNL A   1      39.934  29.021  28.965  1.00  0.00     0.031 A 
ATOM     30  C   UNL A   1      40.792  30.046  29.658  1.00  0.00     0.074 A 
ATOM     31  C   UNL A   1      40.461  27.856  28.544  1.00  0.00     0.049 A 
ATOM     32  N   UNL A   1      42.035  29.942  30.052  1.00  0.00    -0.248 NA
ATOM     33  C   UNL A   1      40.193  31.366  29.921  1.00  0.00     0.031 C 
ATOM     34  C   UNL A   1      39.742  26.843  27.768  1.00  0.00     0.029 A 
ATOM     35  N   UNL A   1      41.709  27.320  28.717  1.00  0.00    -0.354 N 
ATOM     36  C   UNL A   1      42.358  31.165  30.627  1.00  0.00     0.074 A 
ATOM     37  C   UNL A   1      41.208  32.027  30.459  1.00  0.00     0.031 C 
ATOM     38  C   UNL A   1      40.540  25.779  27.592  1.00  0.00     0.029 A 
ATOM     39  C   UNL A   1      41.834  26.050  28.209  1.00  0.00     0.049 A 
ATOM     40  H   UNL A   1      42.446  27.800  29.162  1.00  0.00     0.167 HD
ATOM     41  C   UNL A   1      43.494  31.522  31.270  1.00  0.00     0.037 A 
ATOM     42  C   UNL A   1      42.870  25.192  28.254  1.00  0.00     0.037 A 
ATOM     43  C   UNL A   1      44.628  30.647  31.429  1.00  0.00     0.049 A 
ATOM     44  C   UNL A   1      44.122  25.608  28.976  1.00  0.00     0.074 A 
ATOM     45  C   UNL A   1      45.809  30.883  32.109  1.00  0.00     0.029 A 
ATOM     46  N   UNL A   1      44.723  29.370  30.894  1.00  0.00    -0.354 N 
ATOM     47  N   UNL A   1      44.374  26.734  29.601  1.00  0.00    -0.248 NA
ATOM     48  C   UNL A   1      45.224  24.640  29.004  1.00  0.00     0.031 C 
ATOM     49  C   UNL A   1      46.638  29.769  31.943  1.00  0.00     0.029 A 
ATOM     50  C   UNL A   1      45.952  28.815  31.208  1.00  0.00     0.049 A 
ATOM     51  H   UNL A   1      44.019  28.923  30.370  1.00  0.00     0.167 HD
ATOM     52  C   UNL A   1      45.660  26.602  30.115  1.00  0.00     0.074 A 
ATOM     53  C   UNL A   1      46.121  25.279  29.743  1.00  0.00     0.031 C 
ATOM     54  C   UNL A   1      46.393  27.496  30.824  1.00  0.00     0.037 A 
BRANCH  41  55
ATOM     55  C   UNL A   1      43.563  32.898  31.880  1.00  0.00     0.058 A 
ATOM     56  C   UNL A   1      43.896  34.023  31.108  1.00  0.00     0.135 A 
ATOM     57  C   UNL A   1      43.227  33.110  33.227  1.00  0.00     0.135 A 
ATOM     58  F   UNL A   1      44.238  33.881  29.817  1.00  0.00    -0.206 F 
ATOM     59  C   UNL A   1      43.910  35.304  31.651  1.00  0.00     0.059 A 
ATOM     60  C   UNL A   1      43.206  34.386  33.786  1.00  0.00     0.059 A 
ATOM     61  F   UNL A   1      42.900  32.072  34.014  1.00  0.00    -0.206 F 
ATOM     62  C   UNL A   1      43.558  35.476  32.991  1.00  0.00     0.060 A 
BRANCH  62  63
ATOM     63  S   UNL A   1      43.555  37.150  33.667  1.00  0.00     0.124 S 
ATOM     64  O   UNL A   1      44.635  37.073  34.647  1.00  0.00    -0.237 OA
ATOM     65  O   UNL A   1      43.831  37.961  32.486  1.00  0.00    -0.237 OA
ATOM     66  O   UNL A   1      42.214  37.293  34.225  1.00  0.00    -0.744 OA
ENDBRANCH  62  63
ENDBRANCH  41  55
BRANCH  42  67
ATOM     67  C   UNL A   1      42.733  23.842  27.650  1.00  0.00     0.058 A 
ATOM     68  C   UNL A   1      42.993  23.631  26.287  1.00  0.00     0.135 A 
ATOM     69  C   UNL A   1      42.391  22.724  28.429  1.00  0.00     0.135 A 
ATOM     70  F   UNL A   1      43.324  24.667  25.501  1.00  0.00    -0.206 F 
ATOM     71  C   UNL A   1      42.908  22.366  25.715  1.00  0.00     0.059 A 
ATOM     72  C   UNL A   1      42.327  21.445  27.886  1.00  0.00     0.059 A 
ATOM     73  F   UNL A   1      42.154  22.868  29.743  1.00  0.00    -0.206 F 
ATOM     74  C   UNL A   1      42.581  21.278  26.527  1.00  0.00     0.060 A 
BRANCH  74  75
ATOM     75  S   UNL A   1      42.529  19.634  25.781  1.00  0.00     0.124 S 
ATOM     76  O   UNL A   1      43.451  19.789  24.661  1.00  0.00    -0.237 OA
ATOM     77  O   UNL A   1      42.993  18.790  26.878  1.00  0.00    -0.237 OA
ATOM     78  O   UNL A   1      41.125  19.471  25.422  1.00  0.00    -0.744 OA
ENDBRANCH  74  75
ENDBRANCH  42  67
BRANCH  54  79
ATOM     79  C   UNL A   1      47.770  27.073  31.255  1.00  0.00     0.058 A 
ATOM     80  C   UNL A   1      48.914  27.462  30.542  1.00  0.00     0.135 A 
ATOM     81  C   UNL A   1      47.951  26.329  32.433  1.00  0.00     0.135 A 
ATOM     82  F   UNL A   1      48.796  28.169  29.407  1.00  0.00    -0.206 F 
ATOM     83  C   UNL A   1      50.190  27.112  30.970  1.00  0.00     0.059 A 
ATOM     84  C   UNL A   1      49.219  25.995  32.897  1.00  0.00     0.059 A 
ATOM     85  F   UNL A   1      46.890  25.939  33.158  1.00  0.00    -0.206 F 
ATOM     86  C   UNL A   1      50.332  26.383  32.152  1.00  0.00     0.060 A 
BRANCH  86  87
ATOM     87  S   UNL A   1      51.997  25.970  32.712  1.00  0.00     0.124 S 
ATOM     88  O   UNL A   1      52.613  25.493  31.478  1.00  0.00    -0.237 OA
ATOM     89  O   UNL A   1      52.483  27.254  33.209  1.00  0.00    -0.237 OA
ATOM     90  O   UNL A   1      51.772  24.952  33.735  1.00  0.00    -0.744 OA
ENDBRANCH  86  87
ENDBRANCH  54  79
ENDBRANCH  28  29
ENDBRANCH  21  23
ENDBRANCH  20  21
ENDBRANCH   1  20
TORSDOF 15
ENDMDL
