MODEL 1
REMARK VINA RESULT:     -10.4      0.000      0.000
REMARK SMILES O=C(C[N@@H+]1CCC[C@@H]1C(=O)OCCOC(=O)c1ccc(-c2c3nc(c(-c4c(F)cc(S(=O)(=O)[O-])cc4F)c4ccc([nH]4)c(-c4c(F)cc(S(=O)(=O)[O-])cc4F)c4nc(c(-c5c(F)cc(S(=O)(=O)[O-])cc5F)c5ccc2[nH]5)C=C4)C=C3)cc1)NCc1ccc(Cl)cc1
REMARK SMILES IDX 12 1 11 2 9 3 10 4 8 5 4 6 5 7 6 9 7 10 3 11 2 12 1 13 83 14
REMARK SMILES IDX 84 16 85 17 86 18 91 19 87 20 90 21 88 22 89 23 13 24 14 25
REMARK SMILES IDX 15 26 16 27 17 28 18 29 82 30 19 31 81 32 20 33 21 34 22 35
REMARK SMILES IDX 75 36 23 37 80 38 74 39 76 40 24 41 79 42 73 43 72 44 25 46
REMARK SMILES IDX 59 47 38 48 58 49 39 50 42 51 57 52 77 53 40 54 41 55 56 57
REMARK SMILES IDX 78 58 43 59 26 60 27 61 36 62 28 63 29 64 35 65 37 66 30 67
REMARK SMILES IDX 31 68 32 69 33 70 34 71 60 72 61 73 70 74 62 75 63 76 69 77
REMARK SMILES IDX 71 78 64 79 65 80 66 81 67 82 68 83 44 84 45 85 54 86 46 87
REMARK SMILES IDX 47 88 53 89 55 90 48 91 49 92 50 93 51 94 52 95
REMARK H PARENT 4 8 83 15 76 45 42 56
REMARK Flexibility Score: inf
ROOT
ATOM      1  C   UNL A   1      34.943  33.484  28.406  1.00  0.00     0.274 C 
ENDROOT
BRANCH   1   2
ATOM      2  O   UNL A   1      34.893  34.173  29.669  1.00  0.00    -0.458 OA
BRANCH   2   3
ATOM      3  C   UNL A   1      33.732  34.813  29.969  1.00  0.00     0.365 C 
ATOM      4  O   UNL A   1      32.653  34.593  29.427  1.00  0.00    -0.245 OA
BRANCH   3   5
ATOM      5  C   UNL A   1      33.919  35.921  31.008  1.00  0.00     0.295 C 
ATOM      6  N   UNL A   1      34.621  35.491  32.252  1.00  0.00    -0.315 N 
ATOM      7  C   UNL A   1      34.188  36.466  33.267  1.00  0.00     0.263 C 
ATOM      8  H   UNL A   1      35.627  35.475  32.085  1.00  0.00     0.349 HD
ATOM      9  C   UNL A   1      32.726  36.727  32.943  1.00  0.00     0.068 C 
ATOM     10  C   UNL A   1      32.690  36.727  31.425  1.00  0.00     0.083 C 
BRANCH   6  11
ATOM     11  C   UNL A   1      34.359  34.103  32.698  1.00  0.00     0.364 C 
BRANCH  11  12
ATOM     12  C   UNL A   1      35.682  33.461  33.149  1.00  0.00     0.275 C 
ATOM     13  O   UNL A   1      35.824  32.979  34.270  1.00  0.00    -0.268 OA
ATOM     14  N   UNL A   1      36.641  33.419  32.163  1.00  0.00    -0.347 N 
ATOM     15  H   UNL A   1      36.410  33.777  31.276  1.00  0.00     0.164 HD
BRANCH  14  16
ATOM     16  C   UNL A   1      37.967  32.880  32.353  1.00  0.00     0.151 C 
BRANCH  16  17
ATOM     17  C   UNL A   1      39.002  33.447  31.407  1.00  0.00    -0.029 A 
ATOM     18  C   UNL A   1      38.666  33.996  30.159  1.00  0.00     0.007 A 
ATOM     19  C   UNL A   1      40.343  33.514  31.824  1.00  0.00     0.007 A 
ATOM     20  C   UNL A   1      39.647  34.562  29.338  1.00  0.00     0.021 A 
ATOM     21  C   UNL A   1      41.323  34.084  31.007  1.00  0.00     0.021 A 
ATOM     22  C   UNL A   1      40.972  34.601  29.764  1.00  0.00     0.041 A 
ATOM     23  Cl  UNL A   1      42.179  35.286  28.748  1.00  0.00    -0.084 Cl
ENDBRANCH  16  17
ENDBRANCH  14  16
ENDBRANCH  11  12
ENDBRANCH   6  11
ENDBRANCH   3   5
ENDBRANCH   2   3
ENDBRANCH   1   2
BRANCH   1  24
ATOM     24  C   UNL A   1      34.572  32.006  28.562  1.00  0.00     0.275 C 
BRANCH  24  25
ATOM     25  O   UNL A   1      35.711  31.146  28.389  1.00  0.00    -0.458 OA
BRANCH  25  26
ATOM     26  C   UNL A   1      36.360  30.816  29.531  1.00  0.00     0.338 C 
ATOM     27  O   UNL A   1      35.915  30.860  30.667  1.00  0.00    -0.246 OA
BRANCH  26  28
ATOM     28  C   UNL A   1      37.661  30.211  29.206  1.00  0.00     0.060 A 
ATOM     29  C   UNL A   1      38.541  29.967  30.265  1.00  0.00     0.016 A 
ATOM     30  C   UNL A   1      38.040  29.942  27.891  1.00  0.00     0.016 A 
ATOM     31  C   UNL A   1      39.808  29.453  30.017  1.00  0.00     0.010 A 
ATOM     32  C   UNL A   1      39.318  29.435  27.640  1.00  0.00     0.010 A 
ATOM     33  C   UNL A   1      40.210  29.199  28.701  1.00  0.00    -0.014 A 
BRANCH  33  34
ATOM     34  C   UNL A   1      41.600  28.767  28.438  1.00  0.00     0.031 A 
ATOM     35  C   UNL A   1      42.714  29.765  28.556  1.00  0.00     0.074 A 
ATOM     36  C   UNL A   1      41.858  27.481  28.143  1.00  0.00     0.049 A 
ATOM     37  N   UNL A   1      43.989  29.616  28.310  1.00  0.00    -0.248 NA
ATOM     38  C   UNL A   1      42.340  31.111  29.017  1.00  0.00     0.031 C 
ATOM     39  C   UNL A   1      40.859  26.414  28.077  1.00  0.00     0.029 A 
ATOM     40  N   UNL A   1      43.041  26.854  27.851  1.00  0.00    -0.354 N 
ATOM     41  C   UNL A   1      44.570  30.850  28.572  1.00  0.00     0.074 A 
ATOM     42  C   UNL A   1      43.504  31.743  28.978  1.00  0.00     0.031 C 
ATOM     43  C   UNL A   1      41.474  25.260  27.772  1.00  0.00     0.029 A 
ATOM     44  C   UNL A   1      42.899  25.517  27.575  1.00  0.00     0.049 A 
ATOM     45  H   UNL A   1      43.909  27.318  27.841  1.00  0.00     0.167 HD
ATOM     46  C   UNL A   1      45.874  31.204  28.481  1.00  0.00     0.037 A 
ATOM     47  C   UNL A   1      43.814  24.609  27.184  1.00  0.00     0.037 A 
ATOM     48  C   UNL A   1      46.922  30.308  28.071  1.00  0.00     0.049 A 
ATOM     49  C   UNL A   1      45.242  25.046  27.004  1.00  0.00     0.074 A 
ATOM     50  C   UNL A   1      48.273  30.566  27.924  1.00  0.00     0.029 A 
ATOM     51  N   UNL A   1      46.732  28.973  27.737  1.00  0.00    -0.354 N 
ATOM     52  N   UNL A   1      45.778  26.225  27.218  1.00  0.00    -0.248 NA
ATOM     53  C   UNL A   1      46.188  24.034  26.515  1.00  0.00     0.031 C 
ATOM     54  C   UNL A   1      48.894  29.397  27.468  1.00  0.00     0.029 A 
ATOM     55  C   UNL A   1      47.937  28.399  27.368  1.00  0.00     0.049 A 
ATOM     56  H   UNL A   1      45.867  28.503  27.759  1.00  0.00     0.167 HD
ATOM     57  C   UNL A   1      47.127  26.094  26.910  1.00  0.00     0.074 A 
ATOM     58  C   UNL A   1      47.326  24.716  26.501  1.00  0.00     0.031 C 
ATOM     59  C   UNL A   1      48.112  27.025  26.964  1.00  0.00     0.037 A 
BRANCH  46  60
ATOM     60  C   UNL A   1      46.215  32.635  28.791  1.00  0.00     0.058 A 
ATOM     61  C   UNL A   1      46.566  33.048  30.086  1.00  0.00     0.135 A 
ATOM     62  C   UNL A   1      46.158  33.613  27.785  1.00  0.00     0.135 A 
ATOM     63  F   UNL A   1      46.616  32.158  31.090  1.00  0.00    -0.206 F 
ATOM     64  C   UNL A   1      46.804  34.387  30.383  1.00  0.00     0.059 A 
ATOM     65  C   UNL A   1      46.415  34.953  28.054  1.00  0.00     0.059 A 
ATOM     66  F   UNL A   1      45.826  33.272  26.530  1.00  0.00    -0.206 F 
ATOM     67  C   UNL A   1      46.713  35.333  29.362  1.00  0.00     0.060 A 
BRANCH  67  68
ATOM     68  S   UNL A   1      46.970  37.075  29.766  1.00  0.00     0.124 S 
ATOM     69  O   UNL A   1      45.755  37.679  29.226  1.00  0.00    -0.237 OA
ATOM     70  O   UNL A   1      47.071  37.050  31.221  1.00  0.00    -0.237 OA
ATOM     71  O   UNL A   1      48.203  37.408  29.061  1.00  0.00    -0.744 OA
ENDBRANCH  67  68
ENDBRANCH  46  60
BRANCH  47  72
ATOM     72  C   UNL A   1      43.402  23.204  26.935  1.00  0.00     0.058 A 
ATOM     73  C   UNL A   1      43.336  22.695  25.630  1.00  0.00     0.135 A 
ATOM     74  C   UNL A   1      43.101  22.334  27.994  1.00  0.00     0.135 A 
ATOM     75  F   UNL A   1      43.603  23.492  24.584  1.00  0.00    -0.206 F 
ATOM     76  C   UNL A   1      42.987  21.371  25.383  1.00  0.00     0.059 A 
ATOM     77  C   UNL A   1      42.771  21.000  27.774  1.00  0.00     0.059 A 
ATOM     78  F   UNL A   1      43.159  22.771  29.262  1.00  0.00    -0.206 F 
ATOM     79  C   UNL A   1      42.712  20.529  26.463  1.00  0.00     0.060 A 
BRANCH  79  80
ATOM     80  S   UNL A   1      42.330  18.795  26.133  1.00  0.00     0.124 S 
ATOM     81  O   UNL A   1      42.591  18.185  27.432  1.00  0.00    -0.237 OA
ATOM     82  O   UNL A   1      40.929  18.859  25.728  1.00  0.00    -0.237 OA
ATOM     83  O   UNL A   1      43.266  18.442  25.070  1.00  0.00    -0.744 OA
ENDBRANCH  79  80
ENDBRANCH  47  72
BRANCH  59  84
ATOM     84  C   UNL A   1      49.497  26.578  26.597  1.00  0.00     0.058 A 
ATOM     85  C   UNL A   1      50.376  26.044  27.552  1.00  0.00     0.135 A 
ATOM     86  C   UNL A   1      49.935  26.644  25.265  1.00  0.00     0.135 A 
ATOM     87  F   UNL A   1      50.006  25.968  28.840  1.00  0.00    -0.206 F 
ATOM     88  C   UNL A   1      51.648  25.604  27.201  1.00  0.00     0.059 A 
ATOM     89  C   UNL A   1      51.194  26.190  24.887  1.00  0.00     0.059 A 
ATOM     90  F   UNL A   1      49.129  27.139  24.312  1.00  0.00    -0.206 F 
ATOM     91  C   UNL A   1      52.048  25.681  25.866  1.00  0.00     0.060 A 
BRANCH  91  92
ATOM     92  S   UNL A   1      53.688  25.074  25.415  1.00  0.00     0.124 S 
ATOM     93  O   UNL A   1      54.473  25.450  26.586  1.00  0.00    -0.237 OA
ATOM     94  O   UNL A   1      53.457  23.645  25.238  1.00  0.00    -0.237 OA
ATOM     95  O   UNL A   1      53.995  25.809  24.191  1.00  0.00    -0.744 OA
ENDBRANCH  91  92
ENDBRANCH  59  84
ENDBRANCH  33  34
ENDBRANCH  26  28
ENDBRANCH  25  26
ENDBRANCH  24  25
ENDBRANCH   1  24
TORSDOF 18
ENDMDL
MODEL 2
REMARK VINA RESULT:     -10.4      6.704     13.155
REMARK SMILES O=C(C[N@@H+]1CCC[C@@H]1C(=O)OCCOC(=O)c1ccc(-c2c3nc(c(-c4c(F)cc(S(=O)(=O)[O-])cc4F)c4ccc([nH]4)c(-c4c(F)cc(S(=O)(=O)[O-])cc4F)c4nc(c(-c5c(F)cc(S(=O)(=O)[O-])cc5F)c5ccc2[nH]5)C=C4)C=C3)cc1)NCc1ccc(Cl)cc1
REMARK SMILES IDX 12 1 11 2 9 3 10 4 8 5 4 6 5 7 6 9 7 10 3 11 2 12 1 13 83 14
REMARK SMILES IDX 84 16 85 17 86 18 91 19 87 20 90 21 88 22 89 23 13 24 14 25
REMARK SMILES IDX 15 26 16 27 17 28 18 29 82 30 19 31 81 32 20 33 21 34 22 35
REMARK SMILES IDX 75 36 23 37 80 38 74 39 76 40 24 41 79 42 73 43 72 44 25 46
REMARK SMILES IDX 59 47 38 48 58 49 39 50 42 51 57 52 77 53 40 54 41 55 56 57
REMARK SMILES IDX 78 58 43 59 26 60 27 61 36 62 28 63 29 64 35 65 37 66 30 67
REMARK SMILES IDX 31 68 32 69 33 70 34 71 60 72 61 73 70 74 62 75 63 76 69 77
REMARK SMILES IDX 71 78 64 79 65 80 66 81 67 82 68 83 44 84 45 85 54 86 46 87
REMARK SMILES IDX 47 88 53 89 55 90 48 91 49 92 50 93 51 94 52 95
REMARK H PARENT 4 8 83 15 76 45 42 56
REMARK Flexibility Score: inf
ROOT
ATOM      1  C   UNL A   1      37.524  23.610  26.127  1.00  0.00     0.274 C 
ENDROOT
BRANCH   1   2
ATOM      2  O   UNL A   1      36.452  22.709  25.791  1.00  0.00    -0.458 OA
BRANCH   2   3
ATOM      3  C   UNL A   1      35.410  23.235  25.093  1.00  0.00     0.365 C 
ATOM      4  O   UNL A   1      35.240  24.432  24.888  1.00  0.00    -0.245 OA
BRANCH   3   5
ATOM      5  C   UNL A   1      34.398  22.174  24.654  1.00  0.00     0.295 C 
ATOM      6  N   UNL A   1      33.028  22.355  25.216  1.00  0.00    -0.315 N 
ATOM      7  C   UNL A   1      32.434  21.009  25.162  1.00  0.00     0.263 C 
ATOM      8  H   UNL A   1      32.529  23.058  24.672  1.00  0.00     0.349 HD
ATOM      9  C   UNL A   1      33.579  20.074  25.514  1.00  0.00     0.068 C 
ATOM     10  C   UNL A   1      34.780  20.704  24.830  1.00  0.00     0.083 C 
BRANCH   6  11
ATOM     11  C   UNL A   1      32.957  22.916  26.586  1.00  0.00     0.364 C 
BRANCH  11  12
ATOM     12  C   UNL A   1      31.982  24.104  26.592  1.00  0.00     0.275 C 
ATOM     13  O   UNL A   1      30.947  24.094  27.254  1.00  0.00    -0.268 OA
ATOM     14  N   UNL A   1      32.416  25.183  25.855  1.00  0.00    -0.347 N 
ATOM     15  H   UNL A   1      33.292  25.116  25.409  1.00  0.00     0.164 HD
BRANCH  14  16
ATOM     16  C   UNL A   1      31.665  26.405  25.698  1.00  0.00     0.151 C 
BRANCH  16  17
ATOM     17  C   UNL A   1      32.395  27.640  26.180  1.00  0.00    -0.029 A 
ATOM     18  C   UNL A   1      31.729  28.740  26.744  1.00  0.00     0.007 A 
ATOM     19  C   UNL A   1      33.800  27.658  26.149  1.00  0.00     0.007 A 
ATOM     20  C   UNL A   1      32.445  29.840  27.229  1.00  0.00     0.021 A 
ATOM     21  C   UNL A   1      34.517  28.753  26.638  1.00  0.00     0.021 A 
ATOM     22  C   UNL A   1      33.835  29.843  27.171  1.00  0.00     0.041 A 
ATOM     23  Cl  UNL A   1      34.714  31.201  27.757  1.00  0.00    -0.084 Cl
ENDBRANCH  16  17
ENDBRANCH  14  16
ENDBRANCH  11  12
ENDBRANCH   6  11
ENDBRANCH   3   5
ENDBRANCH   2   3
ENDBRANCH   1   2
BRANCH   1  24
ATOM     24  C   UNL A   1      38.872  22.884  26.159  1.00  0.00     0.275 C 
BRANCH  24  25
ATOM     25  O   UNL A   1      39.664  23.274  27.294  1.00  0.00    -0.458 OA
BRANCH  25  26
ATOM     26  C   UNL A   1      40.593  24.228  27.046  1.00  0.00     0.338 C 
ATOM     27  O   UNL A   1      41.393  24.251  26.124  1.00  0.00    -0.246 OA
BRANCH  26  28
ATOM     28  C   UNL A   1      40.399  25.362  27.962  1.00  0.00     0.060 A 
ATOM     29  C   UNL A   1      41.405  26.332  28.011  1.00  0.00     0.016 A 
ATOM     30  C   UNL A   1      39.287  25.449  28.800  1.00  0.00     0.016 A 
ATOM     31  C   UNL A   1      41.307  27.397  28.898  1.00  0.00     0.010 A 
ATOM     32  C   UNL A   1      39.194  26.514  29.701  1.00  0.00     0.010 A 
ATOM     33  C   UNL A   1      40.209  27.484  29.760  1.00  0.00    -0.014 A 
BRANCH  33  34
ATOM     34  C   UNL A   1      40.174  28.553  30.783  1.00  0.00     0.031 A 
ATOM     35  C   UNL A   1      41.155  28.514  31.918  1.00  0.00     0.074 A 
ATOM     36  C   UNL A   1      39.302  29.568  30.663  1.00  0.00     0.049 A 
ATOM     37  N   UNL A   1      41.258  29.309  32.950  1.00  0.00    -0.248 NA
ATOM     38  C   UNL A   1      42.156  27.437  31.882  1.00  0.00     0.031 C 
ATOM     39  C   UNL A   1      38.357  29.742  29.560  1.00  0.00     0.029 A 
ATOM     40  N   UNL A   1      39.074  30.648  31.476  1.00  0.00    -0.354 N 
ATOM     41  C   UNL A   1      42.324  28.823  33.696  1.00  0.00     0.074 A 
ATOM     42  C   UNL A   1      42.824  27.651  33.006  1.00  0.00     0.031 C 
ATOM     43  C   UNL A   1      37.655  30.869  29.761  1.00  0.00     0.029 A 
ATOM     44  C   UNL A   1      38.068  31.468  31.028  1.00  0.00     0.049 A 
ATOM     45  H   UNL A   1      39.583  30.819  32.301  1.00  0.00     0.167 HD
ATOM     46  C   UNL A   1      42.838  29.311  34.849  1.00  0.00     0.037 A 
ATOM     47  C   UNL A   1      37.527  32.566  31.591  1.00  0.00     0.037 A 
ATOM     48  C   UNL A   1      42.329  30.473  35.528  1.00  0.00     0.049 A 
ATOM     49  C   UNL A   1      38.055  33.038  32.919  1.00  0.00     0.074 A 
ATOM     50  C   UNL A   1      42.759  31.042  36.712  1.00  0.00     0.029 A 
ATOM     51  N   UNL A   1      41.266  31.245  35.076  1.00  0.00    -0.354 N 
ATOM     52  N   UNL A   1      39.040  32.551  33.636  1.00  0.00    -0.248 NA
ATOM     53  C   UNL A   1      37.390  34.201  33.521  1.00  0.00     0.031 C 
ATOM     54  C   UNL A   1      41.934  32.137  36.996  1.00  0.00     0.029 A 
ATOM     55  C   UNL A   1      41.015  32.275  35.968  1.00  0.00     0.049 A 
ATOM     56  H   UNL A   1      40.763  31.083  34.245  1.00  0.00     0.167 HD
ATOM     57  C   UNL A   1      39.128  33.357  34.764  1.00  0.00     0.074 A 
ATOM     58  C   UNL A   1      38.098  34.370  34.630  1.00  0.00     0.031 C 
ATOM     59  C   UNL A   1      39.983  33.272  35.814  1.00  0.00     0.037 A 
BRANCH  46  60
ATOM     60  C   UNL A   1      43.981  28.550  35.462  1.00  0.00     0.058 A 
ATOM     61  C   UNL A   1      43.770  27.527  36.401  1.00  0.00     0.135 A 
ATOM     62  C   UNL A   1      45.307  28.872  35.132  1.00  0.00     0.135 A 
ATOM     63  F   UNL A   1      42.523  27.193  36.768  1.00  0.00    -0.206 F 
ATOM     64  C   UNL A   1      44.834  26.881  37.024  1.00  0.00     0.059 A 
ATOM     65  C   UNL A   1      46.386  28.223  35.724  1.00  0.00     0.059 A 
ATOM     66  F   UNL A   1      45.566  29.844  34.242  1.00  0.00    -0.206 F 
ATOM     67  C   UNL A   1      46.138  27.246  36.688  1.00  0.00     0.060 A 
BRANCH  67  68
ATOM     68  S   UNL A   1      47.512  26.440  37.539  1.00  0.00     0.124 S 
ATOM     69  O   UNL A   1      46.956  25.114  37.793  1.00  0.00    -0.237 OA
ATOM     70  O   UNL A   1      48.579  26.499  36.546  1.00  0.00    -0.237 OA
ATOM     71  O   UNL A   1      47.714  27.272  38.721  1.00  0.00    -0.744 OA
ENDBRANCH  67  68
ENDBRANCH  46  60
BRANCH  47  72
ATOM     72  C   UNL A   1      36.425  33.283  30.902  1.00  0.00     0.058 A 
ATOM     73  C   UNL A   1      35.118  33.248  31.407  1.00  0.00     0.135 A 
ATOM     74  C   UNL A   1      36.661  34.046  29.748  1.00  0.00     0.135 A 
ATOM     75  F   UNL A   1      34.840  32.523  32.502  1.00  0.00    -0.206 F 
ATOM     76  C   UNL A   1      34.081  33.945  30.794  1.00  0.00     0.059 A 
ATOM     77  C   UNL A   1      35.646  34.769  29.128  1.00  0.00     0.059 A 
ATOM     78  F   UNL A   1      37.897  34.118  29.230  1.00  0.00    -0.206 F 
ATOM     79  C   UNL A   1      34.357  34.708  29.657  1.00  0.00     0.060 A 
BRANCH  79  80
ATOM     80  S   UNL A   1      33.020  35.665  28.912  1.00  0.00     0.124 S 
ATOM     81  O   UNL A   1      33.755  36.759  28.285  1.00  0.00    -0.237 OA
ATOM     82  O   UNL A   1      32.418  34.696  28.000  1.00  0.00    -0.237 OA
ATOM     83  O   UNL A   1      32.192  36.034  30.057  1.00  0.00    -0.744 OA
ENDBRANCH  79  80
ENDBRANCH  47  72
BRANCH  59  84
ATOM     84  C   UNL A   1      39.858  34.316  36.886  1.00  0.00     0.058 A 
ATOM     85  C   UNL A   1      40.480  35.569  36.769  1.00  0.00     0.135 A 
ATOM     86  C   UNL A   1      39.069  34.076  38.022  1.00  0.00     0.135 A 
ATOM     87  F   UNL A   1      41.251  35.843  35.704  1.00  0.00    -0.206 F 
ATOM     88  C   UNL A   1      40.337  36.543  37.751  1.00  0.00     0.059 A 
ATOM     89  C   UNL A   1      38.895  35.043  39.006  1.00  0.00     0.059 A 
ATOM     90  F   UNL A   1      38.447  32.897  38.177  1.00  0.00    -0.206 F 
ATOM     91  C   UNL A   1      39.542  36.271  38.866  1.00  0.00     0.060 A 
BRANCH  91  92
ATOM     92  S   UNL A   1      39.334  37.556  40.118  1.00  0.00     0.124 S 
ATOM     93  O   UNL A   1      40.660  38.165  40.137  1.00  0.00    -0.237 OA
ATOM     94  O   UNL A   1      38.267  38.376  39.553  1.00  0.00    -0.237 OA
ATOM     95  O   UNL A   1      38.970  36.805  41.316  1.00  0.00    -0.744 OA
ENDBRANCH  91  92
ENDBRANCH  59  84
ENDBRANCH  33  34
ENDBRANCH  26  28
ENDBRANCH  25  26
ENDBRANCH  24  25
ENDBRANCH   1  24
TORSDOF 18
ENDMDL
MODEL 3
REMARK VINA RESULT:     -10.3      3.698      5.870
REMARK SMILES O=C(C[N@@H+]1CCC[C@@H]1C(=O)OCCOC(=O)c1ccc(-c2c3nc(c(-c4c(F)cc(S(=O)(=O)[O-])cc4F)c4ccc([nH]4)c(-c4c(F)cc(S(=O)(=O)[O-])cc4F)c4nc(c(-c5c(F)cc(S(=O)(=O)[O-])cc5F)c5ccc2[nH]5)C=C4)C=C3)cc1)NCc1ccc(Cl)cc1
REMARK SMILES IDX 12 1 11 2 9 3 10 4 8 5 4 6 5 7 6 9 7 10 3 11 2 12 1 13 83 14
REMARK SMILES IDX 84 16 85 17 86 18 91 19 87 20 90 21 88 22 89 23 13 24 14 25
REMARK SMILES IDX 15 26 16 27 17 28 18 29 82 30 19 31 81 32 20 33 21 34 22 35
REMARK SMILES IDX 75 36 23 37 80 38 74 39 76 40 24 41 79 42 73 43 72 44 25 46
REMARK SMILES IDX 59 47 38 48 58 49 39 50 42 51 57 52 77 53 40 54 41 55 56 57
REMARK SMILES IDX 78 58 43 59 26 60 27 61 36 62 28 63 29 64 35 65 37 66 30 67
REMARK SMILES IDX 31 68 32 69 33 70 34 71 60 72 61 73 70 74 62 75 63 76 69 77
REMARK SMILES IDX 71 78 64 79 65 80 66 81 67 82 68 83 44 84 45 85 54 86 46 87
REMARK SMILES IDX 47 88 53 89 55 90 48 91 49 92 50 93 51 94 52 95
REMARK H PARENT 4 8 83 15 76 45 42 56
REMARK Flexibility Score: inf
ROOT
ATOM      1  C   UNL A   1      34.240  29.160  26.311  1.00  0.00     0.274 C 
ENDROOT
BRANCH   1   2
ATOM      2  O   UNL A   1      32.839  29.095  25.989  1.00  0.00    -0.458 OA
BRANCH   2   3
ATOM      3  C   UNL A   1      32.300  27.853  25.858  1.00  0.00     0.365 C 
ATOM      4  O   UNL A   1      32.631  26.875  26.520  1.00  0.00    -0.245 OA
BRANCH   3   5
ATOM      5  C   UNL A   1      31.281  27.769  24.720  1.00  0.00     0.295 C 
ATOM      6  N   UNL A   1      31.698  26.904  23.578  1.00  0.00    -0.315 N 
ATOM      7  C   UNL A   1      30.916  27.408  22.437  1.00  0.00     0.263 C 
ATOM      8  H   UNL A   1      31.520  25.927  23.812  1.00  0.00     0.349 HD
ATOM      9  C   UNL A   1      30.887  28.915  22.634  1.00  0.00     0.068 C 
ATOM     10  C   UNL A   1      30.748  29.078  24.137  1.00  0.00     0.083 C 
BRANCH   6  11
ATOM     11  C   UNL A   1      33.146  26.890  23.270  1.00  0.00     0.364 C 
BRANCH  11  12
ATOM     12  C   UNL A   1      33.621  25.432  23.148  1.00  0.00     0.275 C 
ATOM     13  O   UNL A   1      34.105  24.989  22.109  1.00  0.00    -0.268 OA
ATOM     14  N   UNL A   1      33.517  24.715  24.318  1.00  0.00    -0.347 N 
ATOM     15  H   UNL A   1      33.172  25.178  25.116  1.00  0.00     0.164 HD
BRANCH  14  16
ATOM     16  C   UNL A   1      33.883  23.325  24.445  1.00  0.00     0.151 C 
BRANCH  16  17
ATOM     17  C   UNL A   1      35.311  23.105  24.895  1.00  0.00    -0.029 A 
ATOM     18  C   UNL A   1      36.037  24.072  25.609  1.00  0.00     0.007 A 
ATOM     19  C   UNL A   1      35.910  21.853  24.675  1.00  0.00     0.007 A 
ATOM     20  C   UNL A   1      37.335  23.808  26.057  1.00  0.00     0.021 A 
ATOM     21  C   UNL A   1      37.205  21.585  25.126  1.00  0.00     0.021 A 
ATOM     22  C   UNL A   1      37.915  22.567  25.810  1.00  0.00     0.041 A 
ATOM     23  Cl  UNL A   1      39.517  22.246  26.350  1.00  0.00    -0.084 Cl
ENDBRANCH  16  17
ENDBRANCH  14  16
ENDBRANCH  11  12
ENDBRANCH   6  11
ENDBRANCH   3   5
ENDBRANCH   2   3
ENDBRANCH   1   2
BRANCH   1  24
ATOM     24  C   UNL A   1      34.479  29.942  27.605  1.00  0.00     0.275 C 
BRANCH  24  25
ATOM     25  O   UNL A   1      35.523  29.355  28.402  1.00  0.00    -0.458 OA
BRANCH  25  26
ATOM     26  C   UNL A   1      36.262  30.235  29.118  1.00  0.00     0.338 C 
ATOM     27  O   UNL A   1      35.852  31.049  29.930  1.00  0.00    -0.246 OA
BRANCH  26  28
ATOM     28  C   UNL A   1      37.693  29.961  28.917  1.00  0.00     0.060 A 
ATOM     29  C   UNL A   1      38.126  29.717  27.610  1.00  0.00     0.016 A 
ATOM     30  C   UNL A   1      38.586  29.884  29.987  1.00  0.00     0.016 A 
ATOM     31  C   UNL A   1      39.454  29.394  27.362  1.00  0.00     0.010 A 
ATOM     32  C   UNL A   1      39.920  29.548  29.739  1.00  0.00     0.010 A 
ATOM     33  C   UNL A   1      40.355  29.291  28.428  1.00  0.00    -0.014 A 
BRANCH  33  34
ATOM     34  C   UNL A   1      41.736  28.829  28.167  1.00  0.00     0.031 A 
ATOM     35  C   UNL A   1      42.867  29.813  28.246  1.00  0.00     0.074 A 
ATOM     36  C   UNL A   1      41.972  27.531  27.908  1.00  0.00     0.049 A 
ATOM     37  N   UNL A   1      44.137  29.636  27.995  1.00  0.00    -0.248 NA
ATOM     38  C   UNL A   1      42.518  31.177  28.670  1.00  0.00     0.031 C 
ATOM     39  C   UNL A   1      40.956  26.479  27.881  1.00  0.00     0.029 A 
ATOM     40  N   UNL A   1      43.142  26.877  27.626  1.00  0.00    -0.354 N 
ATOM     41  C   UNL A   1      44.740  30.868  28.215  1.00  0.00     0.074 A 
ATOM     42  C   UNL A   1      43.692  31.789  28.603  1.00  0.00     0.031 C 
ATOM     43  C   UNL A   1      41.550  25.307  27.606  1.00  0.00     0.029 A 
ATOM     44  C   UNL A   1      42.977  25.535  27.390  1.00  0.00     0.049 A 
ATOM     45  H   UNL A   1      44.017  27.327  27.594  1.00  0.00     0.167 HD
ATOM     46  C   UNL A   1      46.048  31.197  28.104  1.00  0.00     0.037 A 
ATOM     47  C   UNL A   1      43.874  24.601  27.019  1.00  0.00     0.037 A 
ATOM     48  C   UNL A   1      47.079  30.273  27.712  1.00  0.00     0.049 A 
ATOM     49  C   UNL A   1      45.307  25.010  26.814  1.00  0.00     0.074 A 
ATOM     50  C   UNL A   1      48.432  30.505  27.546  1.00  0.00     0.029 A 
ATOM     51  N   UNL A   1      46.865  28.932  27.419  1.00  0.00    -0.354 N 
ATOM     52  N   UNL A   1      45.863  26.186  26.989  1.00  0.00    -0.248 NA
ATOM     53  C   UNL A   1      46.233  23.969  26.348  1.00  0.00     0.031 C 
ATOM     54  C   UNL A   1      49.031  29.313  27.120  1.00  0.00     0.029 A 
ATOM     55  C   UNL A   1      48.058  28.328  27.058  1.00  0.00     0.049 A 
ATOM     56  H   UNL A   1      45.993  28.477  27.462  1.00  0.00     0.167 HD
ATOM     57  C   UNL A   1      47.207  26.024  26.675  1.00  0.00     0.074 A 
ATOM     58  C   UNL A   1      47.382  24.632  26.305  1.00  0.00     0.031 C 
ATOM     59  C   UNL A   1      48.207  26.940  26.693  1.00  0.00     0.037 A 
BRANCH  46  60
ATOM     60  C   UNL A   1      46.415  32.631  28.368  1.00  0.00     0.058 A 
ATOM     61  C   UNL A   1      46.780  33.077  29.648  1.00  0.00     0.135 A 
ATOM     62  C   UNL A   1      46.368  33.579  27.333  1.00  0.00     0.135 A 
ATOM     63  F   UNL A   1      46.821  32.217  30.678  1.00  0.00    -0.206 F 
ATOM     64  C   UNL A   1      47.041  34.420  29.903  1.00  0.00     0.059 A 
ATOM     65  C   UNL A   1      46.649  34.922  27.560  1.00  0.00     0.059 A 
ATOM     66  F   UNL A   1      46.024  33.206  26.090  1.00  0.00    -0.206 F 
ATOM     67  C   UNL A   1      46.960  35.337  28.854  1.00  0.00     0.060 A 
BRANCH  67  68
ATOM     68  S   UNL A   1      47.248  37.085  29.204  1.00  0.00     0.124 S 
ATOM     69  O   UNL A   1      47.259  37.651  27.858  1.00  0.00    -0.237 OA
ATOM     70  O   UNL A   1      46.097  37.437  30.028  1.00  0.00    -0.237 OA
ATOM     71  O   UNL A   1      48.533  37.086  29.895  1.00  0.00    -0.744 OA
ENDBRANCH  67  68
ENDBRANCH  46  60
BRANCH  47  72
ATOM     72  C   UNL A   1      43.437  23.197  26.815  1.00  0.00     0.058 A 
ATOM     73  C   UNL A   1      43.302  22.666  25.524  1.00  0.00     0.135 A 
ATOM     74  C   UNL A   1      43.182  22.347  27.903  1.00  0.00     0.135 A 
ATOM     75  F   UNL A   1      43.524  23.443  24.453  1.00  0.00    -0.206 F 
ATOM     76  C   UNL A   1      42.930  21.341  25.317  1.00  0.00     0.059 A 
ATOM     77  C   UNL A   1      42.829  21.013  27.722  1.00  0.00     0.059 A 
ATOM     78  F   UNL A   1      43.306  22.805  29.158  1.00  0.00    -0.206 F 
ATOM     79  C   UNL A   1      42.701  20.520  26.424  1.00  0.00     0.060 A 
BRANCH  79  80
ATOM     80  S   UNL A   1      42.289  18.785  26.144  1.00  0.00     0.124 S 
ATOM     81  O   UNL A   1      40.912  18.882  25.673  1.00  0.00    -0.237 OA
ATOM     82  O   UNL A   1      43.278  18.390  25.145  1.00  0.00    -0.237 OA
ATOM     83  O   UNL A   1      42.465  18.181  27.461  1.00  0.00    -0.744 OA
ENDBRANCH  79  80
ENDBRANCH  47  72
BRANCH  59  84
ATOM     84  C   UNL A   1      49.583  26.461  26.328  1.00  0.00     0.058 A 
ATOM     85  C   UNL A   1      50.076  26.568  25.018  1.00  0.00     0.135 A 
ATOM     86  C   UNL A   1      50.433  25.929  27.310  1.00  0.00     0.135 A 
ATOM     87  F   UNL A   1      49.298  27.063  24.043  1.00  0.00    -0.206 F 
ATOM     88  C   UNL A   1      51.361  26.150  24.692  1.00  0.00     0.059 A 
ATOM     89  C   UNL A   1      51.729  25.524  27.011  1.00  0.00     0.059 A 
ATOM     90  F   UNL A   1      50.011  25.812  28.578  1.00  0.00    -0.206 F 
ATOM     91  C   UNL A   1      52.181  25.629  25.695  1.00  0.00     0.060 A 
BRANCH  91  92
ATOM     92  S   UNL A   1      53.861  25.122  25.268  1.00  0.00     0.124 S 
ATOM     93  O   UNL A   1      54.574  25.390  26.513  1.00  0.00    -0.237 OA
ATOM     94  O   UNL A   1      53.687  23.713  24.928  1.00  0.00    -0.237 OA
ATOM     95  O   UNL A   1      54.203  25.993  24.147  1.00  0.00    -0.744 OA
ENDBRANCH  91  92
ENDBRANCH  59  84
ENDBRANCH  33  34
ENDBRANCH  26  28
ENDBRANCH  25  26
ENDBRANCH  24  25
ENDBRANCH   1  24
TORSDOF 18
ENDMDL
