MODEL 1
REMARK VINA RESULT:     -11.8      0.000      0.000
REMARK SMILES O=C(OCCOC(=O)C1CCN(S(=O)(=O)c2ccc3nc(O)sc3c2)CC1)c1ccc(-c2c3nc(c(-c4c(F)cc(S(=O)(=O)[O-])cc4F)c4ccc([nH]4)c(-c4c(F)cc(S(=O)(=O)[O-])cc4F)c4nc(c(-c5c(F)cc(S(=O)(=O)[O-])cc5F)c5ccc2[nH]5)C=C4)C=C3)cc1
REMARK SMILES IDX 4 1 3 2 2 3 1 4 28 5 29 6 93 7 30 8 92 9 31 10 32 11 33 12
REMARK SMILES IDX 86 13 34 14 91 15 85 16 87 17 35 18 90 19 84 20 83 21 36 23
REMARK SMILES IDX 70 24 49 25 69 26 50 27 53 28 68 29 88 30 51 31 52 32 67 34
REMARK SMILES IDX 89 35 54 36 37 37 38 38 47 39 39 40 40 41 46 42 48 43 41 44
REMARK SMILES IDX 42 45 43 46 44 47 45 48 71 49 72 50 81 51 73 52 74 53 80 54
REMARK SMILES IDX 82 55 75 56 76 57 77 58 78 59 79 60 55 61 56 62 65 63 57 64
REMARK SMILES IDX 58 65 64 66 66 67 59 68 60 69 61 70 62 71 63 72 5 73 6 74
REMARK SMILES IDX 7 75 8 76 9 77 10 78 27 79 11 80 26 81 12 82 13 83 14 84
REMARK SMILES IDX 15 85 16 86 17 87 25 88 18 89 24 90 19 91 23 92 20 93 21 94
REMARK SMILES IDX 22 95
REMARK H PARENT 87 22 53 33 22 96
REMARK Flexibility Score: inf
ROOT
ATOM      1  C   UNL A   1      37.475  22.725  25.908  1.00  0.00     0.275 C 
ENDROOT
BRANCH   1   2
ATOM      2  O   UNL A   1      38.708  22.034  26.145  1.00  0.00    -0.458 OA
BRANCH   2   3
ATOM      3  C   UNL A   1      39.778  22.404  26.887  1.00  0.00     0.338 C 
ATOM      4  O   UNL A   1      40.303  21.551  27.602  1.00  0.00    -0.246 OA
BRANCH   3   5
ATOM      5  C   UNL A   1      40.273  23.815  27.027  1.00  0.00     0.060 A 
ATOM      6  C   UNL A   1      41.254  24.211  26.099  1.00  0.00     0.016 A 
ATOM      7  C   UNL A   1      39.986  24.694  28.069  1.00  0.00     0.016 A 
ATOM      8  C   UNL A   1      42.086  25.303  26.346  1.00  0.00     0.010 A 
ATOM      9  C   UNL A   1      40.854  25.751  28.360  1.00  0.00     0.010 A 
ATOM     10  C   UNL A   1      41.948  26.028  27.529  1.00  0.00    -0.014 A 
BRANCH  10  11
ATOM     11  C   UNL A   1      42.791  27.231  27.691  1.00  0.00     0.031 A 
ATOM     12  C   UNL A   1      41.870  28.403  27.734  1.00  0.00     0.074 A 
ATOM     13  C   UNL A   1      43.931  27.364  28.403  1.00  0.00     0.049 A 
ATOM     14  N   UNL A   1      41.238  28.698  28.831  1.00  0.00    -0.248 NA
ATOM     15  C   UNL A   1      41.244  28.906  26.514  1.00  0.00     0.031 C 
ATOM     16  C   UNL A   1      44.281  26.611  29.611  1.00  0.00     0.029 A 
ATOM     17  N   UNL A   1      44.883  28.368  28.339  1.00  0.00    -0.354 N 
ATOM     18  C   UNL A   1      40.049  29.273  28.446  1.00  0.00     0.074 A 
ATOM     19  C   UNL A   1      40.112  29.427  27.007  1.00  0.00     0.031 C 
ATOM     20  C   UNL A   1      45.243  27.291  30.274  1.00  0.00     0.029 A 
ATOM     21  C   UNL A   1      45.671  28.451  29.486  1.00  0.00     0.049 A 
ATOM     22  H   UNL A   1      44.991  28.964  27.562  1.00  0.00     0.167 HD
ATOM     23  C   UNL A   1      39.039  29.514  29.317  1.00  0.00     0.037 A 
ATOM     24  C   UNL A   1      46.155  29.618  30.010  1.00  0.00     0.037 A 
ATOM     25  C   UNL A   1      39.268  29.170  30.688  1.00  0.00     0.049 A 
ATOM     26  C   UNL A   1      44.929  30.153  30.703  1.00  0.00     0.074 A 
ATOM     27  C   UNL A   1      38.872  28.200  31.583  1.00  0.00     0.029 A 
ATOM     28  N   UNL A   1      40.137  29.964  31.399  1.00  0.00    -0.354 N 
ATOM     29  N   UNL A   1      44.473  29.794  31.874  1.00  0.00    -0.248 NA
ATOM     30  C   UNL A   1      43.967  30.883  29.875  1.00  0.00     0.031 C 
ATOM     31  C   UNL A   1      39.853  28.211  32.627  1.00  0.00     0.029 A 
ATOM     32  C   UNL A   1      40.811  29.163  32.286  1.00  0.00     0.049 A 
ATOM     33  H   UNL A   1      40.255  30.935  31.291  1.00  0.00     0.167 HD
ATOM     34  C   UNL A   1      43.092  29.993  31.804  1.00  0.00     0.074 A 
ATOM     35  C   UNL A   1      42.858  30.726  30.580  1.00  0.00     0.031 C 
ATOM     36  C   UNL A   1      42.202  29.371  32.631  1.00  0.00     0.037 A 
BRANCH  23  37
ATOM     37  C   UNL A   1      37.882  30.318  28.915  1.00  0.00     0.058 A 
ATOM     38  C   UNL A   1      37.934  31.683  29.223  1.00  0.00     0.135 A 
ATOM     39  C   UNL A   1      36.726  29.797  28.327  1.00  0.00     0.135 A 
ATOM     40  F   UNL A   1      39.044  32.204  29.773  1.00  0.00    -0.206 F 
ATOM     41  C   UNL A   1      36.854  32.511  28.999  1.00  0.00     0.059 A 
ATOM     42  C   UNL A   1      35.626  30.614  28.086  1.00  0.00     0.059 A 
ATOM     43  F   UNL A   1      36.653  28.497  28.002  1.00  0.00    -0.206 F 
ATOM     44  C   UNL A   1      35.697  31.964  28.445  1.00  0.00     0.060 A 
BRANCH  44  45
ATOM     45  S   UNL A   1      34.283  33.062  28.243  1.00  0.00     0.124 S 
ATOM     46  O   UNL A   1      34.848  34.121  27.413  1.00  0.00    -0.237 OA
ATOM     47  O   UNL A   1      33.318  32.185  27.587  1.00  0.00    -0.237 OA
ATOM     48  O   UNL A   1      33.953  33.444  29.612  1.00  0.00    -0.744 OA
ENDBRANCH  44  45
ENDBRANCH  23  37
BRANCH  24  49
ATOM     49  C   UNL A   1      47.033  30.458  29.126  1.00  0.00     0.058 A 
ATOM     50  C   UNL A   1      48.276  30.881  29.639  1.00  0.00     0.135 A 
ATOM     51  C   UNL A   1      46.741  30.876  27.817  1.00  0.00     0.135 A 
ATOM     52  F   UNL A   1      48.583  30.661  30.929  1.00  0.00    -0.206 F 
ATOM     53  C   UNL A   1      49.234  31.519  28.853  1.00  0.00     0.059 A 
ATOM     54  C   UNL A   1      47.695  31.483  26.996  1.00  0.00     0.059 A 
ATOM     55  F   UNL A   1      45.527  30.693  27.279  1.00  0.00    -0.206 F 
ATOM     56  C   UNL A   1      48.954  31.763  27.513  1.00  0.00     0.060 A 
BRANCH  56  57
ATOM     57  S   UNL A   1      50.282  32.363  26.448  1.00  0.00     0.124 S 
ATOM     58  O   UNL A   1      51.217  32.926  27.415  1.00  0.00    -0.237 OA
ATOM     59  O   UNL A   1      50.711  31.132  25.790  1.00  0.00    -0.237 OA
ATOM     60  O   UNL A   1      49.611  33.327  25.581  1.00  0.00    -0.744 OA
ENDBRANCH  56  57
ENDBRANCH  24  49
BRANCH  36  61
ATOM     61  C   UNL A   1      42.786  28.701  33.828  1.00  0.00     0.058 A 
ATOM     62  C   UNL A   1      42.902  29.414  35.031  1.00  0.00     0.135 A 
ATOM     63  C   UNL A   1      43.161  27.348  33.827  1.00  0.00     0.135 A 
ATOM     64  F   UNL A   1      42.555  30.710  35.086  1.00  0.00    -0.206 F 
ATOM     65  C   UNL A   1      43.323  28.797  36.203  1.00  0.00     0.059 A 
ATOM     66  C   UNL A   1      43.565  26.705  34.995  1.00  0.00     0.059 A 
ATOM     67  F   UNL A   1      43.099  26.619  32.700  1.00  0.00    -0.206 F 
ATOM     68  C   UNL A   1      43.627  27.435  36.181  1.00  0.00     0.060 A 
BRANCH  68  69
ATOM     69  S   UNL A   1      44.014  26.619  37.745  1.00  0.00     0.124 S 
ATOM     70  O   UNL A   1      44.924  25.561  37.323  1.00  0.00    -0.237 OA
ATOM     71  O   UNL A   1      44.613  27.704  38.517  1.00  0.00    -0.237 OA
ATOM     72  O   UNL A   1      42.710  26.169  38.225  1.00  0.00    -0.744 OA
ENDBRANCH  68  69
ENDBRANCH  36  61
ENDBRANCH  10  11
ENDBRANCH   3   5
ENDBRANCH   2   3
ENDBRANCH   1   2
BRANCH   1  73
ATOM     73  C   UNL A   1      36.986  22.712  24.452  1.00  0.00     0.274 C 
BRANCH  73  74
ATOM     74  O   UNL A   1      35.764  21.976  24.221  1.00  0.00    -0.462 OA
BRANCH  74  75
ATOM     75  C   UNL A   1      34.682  22.713  23.874  1.00  0.00     0.309 C 
ATOM     76  O   UNL A   1      34.604  23.922  24.068  1.00  0.00    -0.252 OA
BRANCH  75  77
ATOM     77  C   UNL A   1      33.495  21.870  23.384  1.00  0.00     0.102 C 
ATOM     78  C   UNL A   1      32.163  22.533  23.085  1.00  0.00     0.032 C 
ATOM     79  C   UNL A   1      33.173  20.795  24.407  1.00  0.00     0.032 C 
ATOM     80  C   UNL A   1      31.383  23.072  24.277  1.00  0.00     0.103 C 
ATOM     81  C   UNL A   1      32.680  21.434  25.694  1.00  0.00     0.103 C 
ATOM     82  N   UNL A   1      31.461  22.271  25.524  1.00  0.00    -0.198 NA
BRANCH  82  83
ATOM     83  S   UNL A   1      31.094  23.274  26.911  1.00  0.00     0.243 S 
ATOM     84  O   UNL A   1      29.704  23.085  27.274  1.00  0.00    -0.207 OA
ATOM     85  O   UNL A   1      32.159  23.116  27.876  1.00  0.00    -0.207 OA
BRANCH  83  86
ATOM     86  C   UNL A   1      31.226  24.905  26.225  1.00  0.00     0.084 A 
ATOM     87  C   UNL A   1      30.100  25.465  25.620  1.00  0.00     0.024 A 
ATOM     88  C   UNL A   1      32.462  25.558  26.240  1.00  0.00     0.043 A 
ATOM     89  C   UNL A   1      30.230  26.610  24.841  1.00  0.00     0.031 A 
ATOM     90  C   UNL A   1      32.561  26.733  25.482  1.00  0.00     0.059 A 
ATOM     91  C   UNL A   1      31.482  27.245  24.750  1.00  0.00     0.085 A 
ATOM     92  S   UNL A   1      33.928  27.756  25.237  1.00  0.00    -0.077 S 
ATOM     93  N   UNL A   1      31.762  28.352  23.972  1.00  0.00    -0.203 NA
ATOM     94  C   UNL A   1      33.014  28.675  24.144  1.00  0.00     0.271 A 
BRANCH  94  95
ATOM     95  O   UNL A   1      33.503  29.689  23.459  1.00  0.00    -0.486 OA
ATOM     96  H   UNL A   1      33.492  30.550  23.824  1.00  0.00     0.296 HD
ENDBRANCH  94  95
ENDBRANCH  83  86
ENDBRANCH  82  83
ENDBRANCH  75  77
ENDBRANCH  74  75
ENDBRANCH  73  74
ENDBRANCH   1  73
TORSDOF 17
ENDMDL
MODEL 2
REMARK VINA RESULT:     -11.5      1.394      1.906
REMARK SMILES O=C(OCCOC(=O)C1CCN(S(=O)(=O)c2ccc3nc(O)sc3c2)CC1)c1ccc(-c2c3nc(c(-c4c(F)cc(S(=O)(=O)[O-])cc4F)c4ccc([nH]4)c(-c4c(F)cc(S(=O)(=O)[O-])cc4F)c4nc(c(-c5c(F)cc(S(=O)(=O)[O-])cc5F)c5ccc2[nH]5)C=C4)C=C3)cc1
REMARK SMILES IDX 4 1 3 2 2 3 1 4 28 5 29 6 93 7 30 8 92 9 31 10 32 11 33 12
REMARK SMILES IDX 86 13 34 14 91 15 85 16 87 17 35 18 90 19 84 20 83 21 36 23
REMARK SMILES IDX 70 24 49 25 69 26 50 27 53 28 68 29 88 30 51 31 52 32 67 34
REMARK SMILES IDX 89 35 54 36 37 37 38 38 47 39 39 40 40 41 46 42 48 43 41 44
REMARK SMILES IDX 42 45 43 46 44 47 45 48 71 49 72 50 81 51 73 52 74 53 80 54
REMARK SMILES IDX 82 55 75 56 76 57 77 58 78 59 79 60 55 61 56 62 65 63 57 64
REMARK SMILES IDX 58 65 64 66 66 67 59 68 60 69 61 70 62 71 63 72 5 73 6 74
REMARK SMILES IDX 7 75 8 76 9 77 10 78 27 79 11 80 26 81 12 82 13 83 14 84
REMARK SMILES IDX 15 85 16 86 17 87 25 88 18 89 24 90 19 91 23 92 20 93 21 94
REMARK SMILES IDX 22 95
REMARK H PARENT 87 22 53 33 22 96
REMARK Flexibility Score: inf
ROOT
ATOM      1  C   UNL A   1      37.756  21.165  24.909  1.00  0.00     0.275 C 
ENDROOT
BRANCH   1   2
ATOM      2  O   UNL A   1      38.369  21.747  26.067  1.00  0.00    -0.458 OA
BRANCH   2   3
ATOM      3  C   UNL A   1      38.297  23.013  26.539  1.00  0.00     0.338 C 
ATOM      4  O   UNL A   1      37.201  23.572  26.521  1.00  0.00    -0.246 OA
BRANCH   3   5
ATOM      5  C   UNL A   1      39.484  23.846  26.933  1.00  0.00     0.060 A 
ATOM      6  C   UNL A   1      39.227  24.867  27.867  1.00  0.00     0.016 A 
ATOM      7  C   UNL A   1      40.748  23.815  26.350  1.00  0.00     0.016 A 
ATOM      8  C   UNL A   1      40.094  25.951  28.012  1.00  0.00     0.010 A 
ATOM      9  C   UNL A   1      41.593  24.925  26.439  1.00  0.00     0.010 A 
ATOM     10  C   UNL A   1      41.244  26.029  27.227  1.00  0.00    -0.014 A 
BRANCH  10  11
ATOM     11  C   UNL A   1      42.172  27.148  27.494  1.00  0.00     0.031 A 
ATOM     12  C   UNL A   1      41.346  28.386  27.585  1.00  0.00     0.074 A 
ATOM     13  C   UNL A   1      43.293  27.143  28.248  1.00  0.00     0.049 A 
ATOM     14  N   UNL A   1      40.699  28.661  28.678  1.00  0.00    -0.248 NA
ATOM     15  C   UNL A   1      40.806  29.013  26.381  1.00  0.00     0.031 C 
ATOM     16  C   UNL A   1      43.538  26.291  29.416  1.00  0.00     0.029 A 
ATOM     17  N   UNL A   1      44.323  28.070  28.280  1.00  0.00    -0.354 N 
ATOM     18  C   UNL A   1      39.574  29.353  28.295  1.00  0.00     0.074 A 
ATOM     19  C   UNL A   1      39.701  29.592  26.872  1.00  0.00     0.031 C 
ATOM     20  C   UNL A   1      44.526  26.848  30.151  1.00  0.00     0.029 A 
ATOM     21  C   UNL A   1      45.073  28.016  29.455  1.00  0.00     0.049 A 
ATOM     22  H   UNL A   1      44.505  28.703  27.548  1.00  0.00     0.167 HD
ATOM     23  C   UNL A   1      38.554  29.620  29.147  1.00  0.00     0.037 A 
ATOM     24  C   UNL A   1      45.627  29.105  30.068  1.00  0.00     0.037 A 
ATOM     25  C   UNL A   1      38.706  29.173  30.500  1.00  0.00     0.049 A 
ATOM     26  C   UNL A   1      44.422  29.692  30.756  1.00  0.00     0.074 A 
ATOM     27  C   UNL A   1      38.203  28.184  31.317  1.00  0.00     0.029 A 
ATOM     28  N   UNL A   1      39.608  29.848  31.289  1.00  0.00    -0.354 N 
ATOM     29  N   UNL A   1      43.898  29.299  31.887  1.00  0.00    -0.248 NA
ATOM     30  C   UNL A   1      43.551  30.549  29.948  1.00  0.00     0.031 C 
ATOM     31  C   UNL A   1      39.143  28.050  32.389  1.00  0.00     0.029 A 
ATOM     32  C   UNL A   1      40.184  28.941  32.141  1.00  0.00     0.049 A 
ATOM     33  H   UNL A   1      39.806  30.812  31.248  1.00  0.00     0.167 HD
ATOM     34  C   UNL A   1      42.539  29.613  31.787  1.00  0.00     0.074 A 
ATOM     35  C   UNL A   1      42.408  30.438  30.607  1.00  0.00     0.031 C 
ATOM     36  C   UNL A   1      41.574  29.015  32.543  1.00  0.00     0.037 A 
BRANCH  23  37
ATOM     37  C   UNL A   1      37.480  30.538  28.763  1.00  0.00     0.058 A 
ATOM     38  C   UNL A   1      37.685  31.893  29.050  1.00  0.00     0.135 A 
ATOM     39  C   UNL A   1      36.260  30.137  28.212  1.00  0.00     0.135 A 
ATOM     40  F   UNL A   1      38.859  32.299  29.563  1.00  0.00    -0.206 F 
ATOM     41  C   UNL A   1      36.695  32.830  28.841  1.00  0.00     0.059 A 
ATOM     42  C   UNL A   1      35.247  31.065  27.987  1.00  0.00     0.059 A 
ATOM     43  F   UNL A   1      36.040  28.848  27.908  1.00  0.00    -0.206 F 
ATOM     44  C   UNL A   1      35.472  32.403  28.324  1.00  0.00     0.060 A 
BRANCH  44  45
ATOM     45  S   UNL A   1      34.178  33.643  28.142  1.00  0.00     0.124 S 
ATOM     46  O   UNL A   1      33.995  34.084  29.521  1.00  0.00    -0.237 OA
ATOM     47  O   UNL A   1      34.812  34.604  27.244  1.00  0.00    -0.237 OA
ATOM     48  O   UNL A   1      33.066  32.891  27.569  1.00  0.00    -0.744 OA
ENDBRANCH  44  45
ENDBRANCH  23  37
BRANCH  24  49
ATOM     49  C   UNL A   1      46.600  29.925  29.270  1.00  0.00     0.058 A 
ATOM     50  C   UNL A   1      47.851  30.218  29.850  1.00  0.00     0.135 A 
ATOM     51  C   UNL A   1      46.392  30.442  27.980  1.00  0.00     0.135 A 
ATOM     52  F   UNL A   1      48.090  29.899  31.134  1.00  0.00    -0.206 F 
ATOM     53  C   UNL A   1      48.884  30.826  29.140  1.00  0.00     0.059 A 
ATOM     54  C   UNL A   1      47.421  31.021  27.232  1.00  0.00     0.059 A 
ATOM     55  F   UNL A   1      45.189  30.387  27.391  1.00  0.00    -0.206 F 
ATOM     56  C   UNL A   1      48.675  31.170  27.809  1.00  0.00     0.060 A 
BRANCH  56  57
ATOM     57  S   UNL A   1      50.086  31.728  26.829  1.00  0.00     0.124 S 
ATOM     58  O   UNL A   1      51.041  32.111  27.862  1.00  0.00    -0.237 OA
ATOM     59  O   UNL A   1      50.414  30.522  26.074  1.00  0.00    -0.237 OA
ATOM     60  O   UNL A   1      49.536  32.824  26.038  1.00  0.00    -0.744 OA
ENDBRANCH  56  57
ENDBRANCH  24  49
BRANCH  36  61
ATOM     61  C   UNL A   1      42.060  28.225  33.711  1.00  0.00     0.058 A 
ATOM     62  C   UNL A   1      41.911  28.745  35.005  1.00  0.00     0.135 A 
ATOM     63  C   UNL A   1      42.597  26.935  33.579  1.00  0.00     0.135 A 
ATOM     64  F   UNL A   1      41.400  29.974  35.187  1.00  0.00    -0.206 F 
ATOM     65  C   UNL A   1      42.233  27.996  36.131  1.00  0.00     0.059 A 
ATOM     66  C   UNL A   1      42.907  26.159  34.693  1.00  0.00     0.059 A 
ATOM     67  F   UNL A   1      42.790  26.392  32.365  1.00  0.00    -0.206 F 
ATOM     68  C   UNL A   1      42.706  26.693  35.965  1.00  0.00     0.060 A 
BRANCH  68  69
ATOM     69  S   UNL A   1      42.963  25.683  37.440  1.00  0.00     0.124 S 
ATOM     70  O   UNL A   1      43.918  24.688  36.967  1.00  0.00    -0.237 OA
ATOM     71  O   UNL A   1      43.481  26.659  38.394  1.00  0.00    -0.237 OA
ATOM     72  O   UNL A   1      41.627  25.175  37.742  1.00  0.00    -0.744 OA
ENDBRANCH  68  69
ENDBRANCH  36  61
ENDBRANCH  10  11
ENDBRANCH   3   5
ENDBRANCH   2   3
ENDBRANCH   1   2
BRANCH   1  73
ATOM     73  C   UNL A   1      36.404  20.481  25.157  1.00  0.00     0.274 C 
BRANCH  73  74
ATOM     74  O   UNL A   1      35.244  21.256  24.781  1.00  0.00    -0.462 OA
BRANCH  74  75
ATOM     75  C   UNL A   1      34.236  21.294  25.685  1.00  0.00     0.309 C 
ATOM     76  O   UNL A   1      34.422  21.400  26.893  1.00  0.00    -0.252 OA
BRANCH  75  77
ATOM     77  C   UNL A   1      32.854  21.012  25.077  1.00  0.00     0.102 C 
ATOM     78  C   UNL A   1      32.703  20.853  23.574  1.00  0.00     0.032 C 
ATOM     79  C   UNL A   1      31.892  22.125  25.449  1.00  0.00     0.032 C 
ATOM     80  C   UNL A   1      32.900  22.105  22.731  1.00  0.00     0.103 C 
ATOM     81  C   UNL A   1      32.332  23.429  24.804  1.00  0.00     0.103 C 
ATOM     82  N   UNL A   1      32.402  23.374  23.318  1.00  0.00    -0.198 NA
BRANCH  82  83
ATOM     83  S   UNL A   1      33.227  24.740  22.598  1.00  0.00     0.243 S 
ATOM     84  O   UNL A   1      34.578  24.799  23.117  1.00  0.00    -0.207 OA
ATOM     85  O   UNL A   1      32.958  24.729  21.177  1.00  0.00    -0.207 OA
BRANCH  83  86
ATOM     86  C   UNL A   1      32.347  26.109  23.303  1.00  0.00     0.084 A 
ATOM     87  C   UNL A   1      31.071  26.400  22.818  1.00  0.00     0.024 A 
ATOM     88  C   UNL A   1      32.972  26.904  24.268  1.00  0.00     0.043 A 
ATOM     89  C   UNL A   1      30.465  27.609  23.144  1.00  0.00     0.031 A 
ATOM     90  C   UNL A   1      32.325  28.099  24.614  1.00  0.00     0.059 A 
ATOM     91  C   UNL A   1      31.108  28.485  24.038  1.00  0.00     0.085 A 
ATOM     92  S   UNL A   1      32.827  29.327  25.717  1.00  0.00    -0.077 S 
ATOM     93  N   UNL A   1      30.646  29.735  24.404  1.00  0.00    -0.203 NA
ATOM     94  C   UNL A   1      31.486  30.255  25.255  1.00  0.00     0.271 A 
BRANCH  94  95
ATOM     95  O   UNL A   1      31.253  31.472  25.706  1.00  0.00    -0.486 OA
ATOM     96  H   UNL A   1      31.932  32.116  25.685  1.00  0.00     0.296 HD
ENDBRANCH  94  95
ENDBRANCH  83  86
ENDBRANCH  82  83
ENDBRANCH  75  77
ENDBRANCH  74  75
ENDBRANCH  73  74
ENDBRANCH   1  73
TORSDOF 17
ENDMDL
MODEL 3
REMARK VINA RESULT:     -11.3      6.066     12.868
REMARK SMILES O=C(OCCOC(=O)C1CCN(S(=O)(=O)c2ccc3nc(O)sc3c2)CC1)c1ccc(-c2c3nc(c(-c4c(F)cc(S(=O)(=O)[O-])cc4F)c4ccc([nH]4)c(-c4c(F)cc(S(=O)(=O)[O-])cc4F)c4nc(c(-c5c(F)cc(S(=O)(=O)[O-])cc5F)c5ccc2[nH]5)C=C4)C=C3)cc1
REMARK SMILES IDX 4 1 3 2 2 3 1 4 28 5 29 6 93 7 30 8 92 9 31 10 32 11 33 12
REMARK SMILES IDX 86 13 34 14 91 15 85 16 87 17 35 18 90 19 84 20 83 21 36 23
REMARK SMILES IDX 70 24 49 25 69 26 50 27 53 28 68 29 88 30 51 31 52 32 67 34
REMARK SMILES IDX 89 35 54 36 37 37 38 38 47 39 39 40 40 41 46 42 48 43 41 44
REMARK SMILES IDX 42 45 43 46 44 47 45 48 71 49 72 50 81 51 73 52 74 53 80 54
REMARK SMILES IDX 82 55 75 56 76 57 77 58 78 59 79 60 55 61 56 62 65 63 57 64
REMARK SMILES IDX 58 65 64 66 66 67 59 68 60 69 61 70 62 71 63 72 5 73 6 74
REMARK SMILES IDX 7 75 8 76 9 77 10 78 27 79 11 80 26 81 12 82 13 83 14 84
REMARK SMILES IDX 15 85 16 86 17 87 25 88 18 89 24 90 19 91 23 92 20 93 21 94
REMARK SMILES IDX 22 95
REMARK H PARENT 87 22 53 33 22 96
REMARK Flexibility Score: inf
ROOT
ATOM      1  C   UNL A   1      45.174  24.070  36.947  1.00  0.00     0.275 C 
ENDROOT
BRANCH   1   2
ATOM      2  O   UNL A   1      44.372  23.442  35.939  1.00  0.00    -0.458 OA
BRANCH   2   3
ATOM      3  C   UNL A   1      44.746  22.838  34.787  1.00  0.00     0.338 C 
ATOM      4  O   UNL A   1      44.970  21.629  34.819  1.00  0.00    -0.246 OA
BRANCH   3   5
ATOM      5  C   UNL A   1      45.066  23.560  33.509  1.00  0.00     0.060 A 
ATOM      6  C   UNL A   1      46.201  24.393  33.549  1.00  0.00     0.016 A 
ATOM      7  C   UNL A   1      44.271  23.617  32.368  1.00  0.00     0.016 A 
ATOM      8  C   UNL A   1      46.382  25.413  32.616  1.00  0.00     0.010 A 
ATOM      9  C   UNL A   1      44.407  24.675  31.464  1.00  0.00     0.010 A 
ATOM     10  C   UNL A   1      45.432  25.617  31.616  1.00  0.00    -0.014 A 
BRANCH  10  11
ATOM     11  C   UNL A   1      45.727  26.649  30.599  1.00  0.00     0.031 A 
ATOM     12  C   UNL A   1      45.657  25.979  29.269  1.00  0.00     0.074 A 
ATOM     13  C   UNL A   1      45.384  27.956  30.609  1.00  0.00     0.049 A 
ATOM     14  N   UNL A   1      44.506  25.756  28.709  1.00  0.00    -0.248 NA
ATOM     15  C   UNL A   1      46.737  25.107  28.814  1.00  0.00     0.031 C 
ATOM     16  C   UNL A   1      44.195  28.525  31.251  1.00  0.00     0.029 A 
ATOM     17  N   UNL A   1      45.884  28.991  29.837  1.00  0.00    -0.354 N 
ATOM     18  C   UNL A   1      44.658  24.613  27.960  1.00  0.00     0.074 A 
ATOM     19  C   UNL A   1      46.064  24.269  28.013  1.00  0.00     0.031 C 
ATOM     20  C   UNL A   1      43.951  29.735  30.700  1.00  0.00     0.029 A 
ATOM     21  C   UNL A   1      45.025  30.087  29.767  1.00  0.00     0.049 A 
ATOM     22  H   UNL A   1      46.758  28.956  29.383  1.00  0.00     0.167 HD
ATOM     23  C   UNL A   1      43.609  23.958  27.405  1.00  0.00     0.037 A 
ATOM     24  C   UNL A   1      44.875  30.882  28.664  1.00  0.00     0.037 A 
ATOM     25  C   UNL A   1      42.310  24.527  27.604  1.00  0.00     0.049 A 
ATOM     26  C   UNL A   1      43.991  30.018  27.803  1.00  0.00     0.074 A 
ATOM     27  C   UNL A   1      41.178  24.267  28.346  1.00  0.00     0.029 A 
ATOM     28  N   UNL A   1      42.016  25.682  26.917  1.00  0.00    -0.354 N 
ATOM     29  N   UNL A   1      42.695  29.880  27.904  1.00  0.00    -0.248 NA
ATOM     30  C   UNL A   1      44.652  28.981  27.008  1.00  0.00     0.031 C 
ATOM     31  C   UNL A   1      40.456  25.503  28.398  1.00  0.00     0.029 A 
ATOM     32  C   UNL A   1      41.210  26.453  27.714  1.00  0.00     0.049 A 
ATOM     33  H   UNL A   1      42.330  25.914  26.013  1.00  0.00     0.167 HD
ATOM     34  C   UNL A   1      42.428  28.590  27.438  1.00  0.00     0.074 A 
ATOM     35  C   UNL A   1      43.659  28.121  26.841  1.00  0.00     0.031 C 
ATOM     36  C   UNL A   1      41.294  27.899  27.750  1.00  0.00     0.037 A 
BRANCH  23  37
ATOM     37  C   UNL A   1      43.829  22.876  26.442  1.00  0.00     0.058 A 
ATOM     38  C   UNL A   1      43.404  21.599  26.831  1.00  0.00     0.135 A 
ATOM     39  C   UNL A   1      44.491  23.029  25.222  1.00  0.00     0.135 A 
ATOM     40  F   UNL A   1      42.749  21.436  27.993  1.00  0.00    -0.206 F 
ATOM     41  C   UNL A   1      43.665  20.489  26.056  1.00  0.00     0.059 A 
ATOM     42  C   UNL A   1      44.762  21.924  24.420  1.00  0.00     0.059 A 
ATOM     43  F   UNL A   1      44.894  24.243  24.812  1.00  0.00    -0.206 F 
ATOM     44  C   UNL A   1      44.360  20.659  24.859  1.00  0.00     0.060 A 
BRANCH  44  45
ATOM     45  S   UNL A   1      44.751  19.174  23.917  1.00  0.00     0.124 S 
ATOM     46  O   UNL A   1      43.837  18.201  24.506  1.00  0.00    -0.237 OA
ATOM     47  O   UNL A   1      44.441  19.597  22.555  1.00  0.00    -0.237 OA
ATOM     48  O   UNL A   1      46.167  18.957  24.198  1.00  0.00    -0.744 OA
ENDBRANCH  44  45
ENDBRANCH  23  37
BRANCH  24  49
ATOM     49  C   UNL A   1      46.101  31.579  28.145  1.00  0.00     0.058 A 
ATOM     50  C   UNL A   1      46.052  32.980  27.996  1.00  0.00     0.135 A 
ATOM     51  C   UNL A   1      47.315  30.971  27.784  1.00  0.00     0.135 A 
ATOM     52  F   UNL A   1      44.892  33.636  28.171  1.00  0.00    -0.206 F 
ATOM     53  C   UNL A   1      47.177  33.741  27.683  1.00  0.00     0.059 A 
ATOM     54  C   UNL A   1      48.467  31.711  27.503  1.00  0.00     0.059 A 
ATOM     55  F   UNL A   1      47.434  29.638  27.710  1.00  0.00    -0.206 F 
ATOM     56  C   UNL A   1      48.395  33.098  27.496  1.00  0.00     0.060 A 
BRANCH  56  57
ATOM     57  S   UNL A   1      49.887  34.102  27.334  1.00  0.00     0.124 S 
ATOM     58  O   UNL A   1      50.417  33.657  26.051  1.00  0.00    -0.237 OA
ATOM     59  O   UNL A   1      49.336  35.454  27.361  1.00  0.00    -0.237 OA
ATOM     60  O   UNL A   1      50.674  33.731  28.506  1.00  0.00    -0.744 OA
ENDBRANCH  56  57
ENDBRANCH  24  49
BRANCH  36  61
ATOM     61  C   UNL A   1      40.194  28.699  28.362  1.00  0.00     0.058 A 
ATOM     62  C   UNL A   1      39.295  29.384  27.531  1.00  0.00     0.135 A 
ATOM     63  C   UNL A   1      39.969  28.737  29.747  1.00  0.00     0.135 A 
ATOM     64  F   UNL A   1      39.464  29.378  26.199  1.00  0.00    -0.206 F 
ATOM     65  C   UNL A   1      38.183  30.039  28.048  1.00  0.00     0.059 A 
ATOM     66  C   UNL A   1      38.850  29.369  30.285  1.00  0.00     0.059 A 
ATOM     67  F   UNL A   1      40.811  28.125  30.597  1.00  0.00    -0.206 F 
ATOM     68  C   UNL A   1      37.955  30.004  29.425  1.00  0.00     0.060 A 
BRANCH  68  69
ATOM     69  S   UNL A   1      36.422  30.720  30.056  1.00  0.00     0.124 S 
ATOM     70  O   UNL A   1      36.174  29.913  31.246  1.00  0.00    -0.237 OA
ATOM     71  O   UNL A   1      36.808  32.107  30.299  1.00  0.00    -0.237 OA
ATOM     72  O   UNL A   1      35.478  30.525  28.959  1.00  0.00    -0.744 OA
ENDBRANCH  68  69
ENDBRANCH  36  61
ENDBRANCH  10  11
ENDBRANCH   3   5
ENDBRANCH   2   3
ENDBRANCH   1   2
BRANCH   1  73
ATOM     73  C   UNL A   1      46.006  23.113  37.813  1.00  0.00     0.274 C 
BRANCH  73  74
ATOM     74  O   UNL A   1      47.320  22.804  37.299  1.00  0.00    -0.462 OA
BRANCH  74  75
ATOM     75  C   UNL A   1      48.049  21.919  38.021  1.00  0.00     0.309 C 
ATOM     76  O   UNL A   1      48.634  22.220  39.056  1.00  0.00    -0.252 OA
BRANCH  75  77
ATOM     77  C   UNL A   1      48.224  20.559  37.330  1.00  0.00     0.102 C 
ATOM     78  C   UNL A   1      47.007  19.722  36.980  1.00  0.00     0.032 C 
ATOM     79  C   UNL A   1      49.085  19.653  38.192  1.00  0.00     0.032 C 
ATOM     80  C   UNL A   1      46.236  19.114  38.144  1.00  0.00     0.103 C 
ATOM     81  C   UNL A   1      48.362  19.330  39.489  1.00  0.00     0.103 C 
ATOM     82  N   UNL A   1      47.050  18.654  39.297  1.00  0.00    -0.198 NA
BRANCH  82  83
ATOM     83  S   UNL A   1      46.068  18.592  40.745  1.00  0.00     0.243 S 
ATOM     84  O   UNL A   1      46.909  18.239  41.869  1.00  0.00    -0.207 OA
ATOM     85  O   UNL A   1      45.224  19.767  40.766  1.00  0.00    -0.207 OA
BRANCH  83  86
ATOM     86  C   UNL A   1      45.031  17.190  40.420  1.00  0.00     0.084 A 
ATOM     87  C   UNL A   1      44.919  16.736  39.105  1.00  0.00     0.024 A 
ATOM     88  C   UNL A   1      44.298  16.621  41.466  1.00  0.00     0.043 A 
ATOM     89  C   UNL A   1      43.921  15.827  38.769  1.00  0.00     0.031 A 
ATOM     90  C   UNL A   1      43.325  15.676  41.111  1.00  0.00     0.059 A 
ATOM     91  C   UNL A   1      43.095  15.302  39.780  1.00  0.00     0.085 A 
ATOM     92  S   UNL A   1      42.221  14.820  42.122  1.00  0.00    -0.077 S 
ATOM     93  N   UNL A   1      42.037  14.437  39.579  1.00  0.00    -0.203 NA
ATOM     94  C   UNL A   1      41.509  14.150  40.736  1.00  0.00     0.271 A 
BRANCH  94  95
ATOM     95  O   UNL A   1      40.452  13.364  40.769  1.00  0.00    -0.486 OA
ATOM     96  H   UNL A   1      39.938  13.302  41.550  1.00  0.00     0.296 HD
ENDBRANCH  94  95
ENDBRANCH  83  86
ENDBRANCH  82  83
ENDBRANCH  75  77
ENDBRANCH  74  75
ENDBRANCH  73  74
ENDBRANCH   1  73
TORSDOF 17
ENDMDL
