MODEL 1
REMARK VINA RESULT:     -10.0      0.000      0.000
REMARK SMILES CC(C)C[C@@H](CNC(=O)[C@@H]1CCOC1)C(=O)OCCOC(=O)c1ccc(-c2c3nc(c(-c4c(F)cc(S(=O)(=O)[O-])cc4F)c4ccc([nH]4)c(-c4c(F)cc(S(=O)(=O)[O-])cc4F)c4nc(c(-c5c(F)cc(S(=O)(=O)[O-])cc5F)c5ccc2[nH]5)C=C4)C=C3)cc1
REMARK SMILES IDX 18 1 17 2 15 3 16 4 5 5 4 6 2 7 1 8 3 9 6 10 7 11 8 12 9 14
REMARK SMILES IDX 10 15 11 16 14 17 12 18 13 19 19 20 20 21 21 22 22 23 23 24
REMARK SMILES IDX 24 25 88 26 25 27 87 28 26 29 27 30 28 31 81 32 29 33 86 34
REMARK SMILES IDX 80 35 82 36 30 37 85 38 79 39 78 40 31 42 65 43 44 44 64 45
REMARK SMILES IDX 45 46 48 47 63 48 83 49 46 50 47 51 62 53 84 54 49 55 32 56
REMARK SMILES IDX 33 57 42 58 34 59 35 60 41 61 43 62 36 63 37 64 38 65 39 66
REMARK SMILES IDX 40 67 66 68 67 69 76 70 68 71 69 72 75 73 77 74 70 75 71 76
REMARK SMILES IDX 72 77 73 78 74 79 50 80 51 81 60 82 52 83 53 84 59 85 61 86
REMARK SMILES IDX 54 87 55 88 56 89 57 90 58 91
REMARK H PARENT 7 13 82 41 48 52
REMARK Flexibility Score: inf
ROOT
ATOM      1  C   UNL A   1      31.896  30.101  25.708  1.00  0.00     0.274 C 
ENDROOT
BRANCH   1   2
ATOM      2  O   UNL A   1      32.396  28.966  24.975  1.00  0.00    -0.462 OA
BRANCH   2   3
ATOM      3  C   UNL A   1      31.924  28.809  23.710  1.00  0.00     0.310 C 
ATOM      4  O   UNL A   1      32.592  28.957  22.694  1.00  0.00    -0.252 OA
BRANCH   3   5
ATOM      5  C   UNL A   1      30.437  28.494  23.661  1.00  0.00     0.118 C 
BRANCH   5   6
ATOM      6  C   UNL A   1      29.753  28.968  22.363  1.00  0.00     0.020 C 
BRANCH   6   7
ATOM      7  C   UNL A   1      28.595  29.973  22.557  1.00  0.00    -0.017 C 
ATOM      8  C   UNL A   1      27.294  29.299  23.000  1.00  0.00     0.007 C 
ATOM      9  C   UNL A   1      28.994  31.028  23.593  1.00  0.00     0.007 C 
ENDBRANCH   6   7
ENDBRANCH   5   6
BRANCH   5  10
ATOM     10  C   UNL A   1      30.201  27.017  24.000  1.00  0.00     0.131 C 
BRANCH  10  11
ATOM     11  N   UNL A   1      30.614  26.664  25.347  1.00  0.00    -0.355 N 
ATOM     12  C   UNL A   1      31.180  25.506  25.801  1.00  0.00     0.225 C 
ATOM     13  H   UNL A   1      30.465  27.357  26.031  1.00  0.00     0.163 HD
ATOM     14  O   UNL A   1      31.288  25.354  27.018  1.00  0.00    -0.275 OA
BRANCH  12  15
ATOM     15  C   UNL A   1      31.684  24.475  24.799  1.00  0.00     0.106 C 
ATOM     16  C   UNL A   1      31.152  23.087  25.080  1.00  0.00     0.044 C 
ATOM     17  C   UNL A   1      33.186  24.304  24.942  1.00  0.00     0.173 C 
ATOM     18  C   UNL A   1      32.172  22.519  26.040  1.00  0.00     0.161 C 
ATOM     19  O   UNL A   1      33.431  23.098  25.685  1.00  0.00    -0.381 OA
ENDBRANCH  12  15
ENDBRANCH  10  11
ENDBRANCH   5  10
ENDBRANCH   3   5
ENDBRANCH   2   3
ENDBRANCH   1   2
BRANCH   1  20
ATOM     20  C   UNL A   1      32.340  30.078  27.172  1.00  0.00     0.275 C 
BRANCH  20  21
ATOM     21  O   UNL A   1      33.738  29.758  27.295  1.00  0.00    -0.458 OA
BRANCH  21  22
ATOM     22  C   UNL A   1      34.454  30.621  28.053  1.00  0.00     0.338 C 
ATOM     23  O   UNL A   1      34.048  31.614  28.629  1.00  0.00    -0.246 OA
BRANCH  22  24
ATOM     24  C   UNL A   1      35.822  30.109  28.216  1.00  0.00     0.060 A 
ATOM     25  C   UNL A   1      36.219  29.703  29.492  1.00  0.00     0.016 A 
ATOM     26  C   UNL A   1      36.728  30.114  27.156  1.00  0.00     0.016 A 
ATOM     27  C   UNL A   1      37.530  29.300  29.720  1.00  0.00     0.010 A 
ATOM     28  C   UNL A   1      38.048  29.712  27.386  1.00  0.00     0.010 A 
ATOM     29  C   UNL A   1      38.458  29.315  28.671  1.00  0.00    -0.014 A 
BRANCH  29  30
ATOM     30  C   UNL A   1      39.874  28.980  28.946  1.00  0.00     0.031 A 
ATOM     31  C   UNL A   1      40.771  30.010  29.569  1.00  0.00     0.074 A 
ATOM     32  C   UNL A   1      40.339  27.748  28.668  1.00  0.00     0.049 A 
ATOM     33  N   UNL A   1      42.055  29.950  29.812  1.00  0.00    -0.248 NA
ATOM     34  C   UNL A   1      40.140  31.277  29.972  1.00  0.00     0.031 C 
ATOM     35  C   UNL A   1      39.544  26.651  28.113  1.00  0.00     0.029 A 
ATOM     36  N   UNL A   1      41.594  27.214  28.812  1.00  0.00    -0.354 N 
ATOM     37  C   UNL A   1      42.391  31.175  30.375  1.00  0.00     0.074 A 
ATOM     38  C   UNL A   1      41.178  31.962  30.429  1.00  0.00     0.031 C 
ATOM     39  C   UNL A   1      40.333  25.574  27.962  1.00  0.00     0.029 A 
ATOM     40  C   UNL A   1      41.693  25.918  28.367  1.00  0.00     0.049 A 
ATOM     41  H   UNL A   1      42.351  27.712  29.198  1.00  0.00     0.167 HD
ATOM     42  C   UNL A   1      43.603  31.600  30.805  1.00  0.00     0.037 A 
ATOM     43  C   UNL A   1      42.767  25.110  28.270  1.00  0.00     0.037 A 
ATOM     44  C   UNL A   1      44.801  30.804  30.758  1.00  0.00     0.049 A 
ATOM     45  C   UNL A   1      44.112  25.623  28.708  1.00  0.00     0.074 A 
ATOM     46  C   UNL A   1      46.079  31.143  31.167  1.00  0.00     0.029 A 
ATOM     47  N   UNL A   1      44.868  29.504  30.275  1.00  0.00    -0.354 N 
ATOM     48  N   UNL A   1      44.422  26.793  29.213  1.00  0.00    -0.248 NA
ATOM     49  C   UNL A   1      45.253  24.712  28.553  1.00  0.00     0.031 C 
ATOM     50  C   UNL A   1      46.925  30.059  30.904  1.00  0.00     0.029 A 
ATOM     51  C   UNL A   1      46.166  29.032  30.365  1.00  0.00     0.049 A 
ATOM     52  H   UNL A   1      44.105  28.994  29.922  1.00  0.00     0.167 HD
ATOM     53  C   UNL A   1      45.791  26.755  29.451  1.00  0.00     0.074 A 
ATOM     54  C   UNL A   1      46.247  25.440  29.045  1.00  0.00     0.031 C 
ATOM     55  C   UNL A   1      46.598  27.719  29.958  1.00  0.00     0.037 A 
BRANCH  42  56
ATOM     56  C   UNL A   1      43.695  33.003  31.332  1.00  0.00     0.058 A 
ATOM     57  C   UNL A   1      43.524  33.291  32.695  1.00  0.00     0.135 A 
ATOM     58  C   UNL A   1      43.976  34.070  30.465  1.00  0.00     0.135 A 
ATOM     59  F   UNL A   1      43.235  32.310  33.563  1.00  0.00    -0.206 F 
ATOM     60  C   UNL A   1      43.606  34.594  33.177  1.00  0.00     0.059 A 
ATOM     61  C   UNL A   1      44.081  35.379  30.927  1.00  0.00     0.059 A 
ATOM     62  F   UNL A   1      44.142  33.848  29.152  1.00  0.00    -0.206 F 
ATOM     63  C   UNL A   1      43.880  35.632  32.283  1.00  0.00     0.060 A 
BRANCH  63  64
ATOM     64  S   UNL A   1      43.976  37.320  32.917  1.00  0.00     0.124 S 
ATOM     65  O   UNL A   1      45.321  37.342  33.482  1.00  0.00    -0.237 OA
ATOM     66  O   UNL A   1      43.781  38.120  31.712  1.00  0.00    -0.237 OA
ATOM     67  O   UNL A   1      42.886  37.379  33.888  1.00  0.00    -0.744 OA
ENDBRANCH  63  64
ENDBRANCH  42  56
BRANCH  43  68
ATOM     68  C   UNL A   1      42.616  23.742  27.712  1.00  0.00     0.058 A 
ATOM     69  C   UNL A   1      42.654  23.517  26.330  1.00  0.00     0.135 A 
ATOM     70  C   UNL A   1      42.446  22.632  28.555  1.00  0.00     0.135 A 
ATOM     71  F   UNL A   1      42.803  24.549  25.486  1.00  0.00    -0.206 F 
ATOM     72  C   UNL A   1      42.524  22.238  25.797  1.00  0.00     0.059 A 
ATOM     73  C   UNL A   1      42.336  21.341  28.047  1.00  0.00     0.059 A 
ATOM     74  F   UNL A   1      42.413  22.795  29.886  1.00  0.00    -0.206 F 
ATOM     75  C   UNL A   1      42.368  21.156  26.665  1.00  0.00     0.060 A 
BRANCH  75  76
ATOM     76  S   UNL A   1      42.261  19.491  25.972  1.00  0.00     0.124 S 
ATOM     77  O   UNL A   1      43.161  19.592  24.829  1.00  0.00    -0.237 OA
ATOM     78  O   UNL A   1      42.728  18.664  27.081  1.00  0.00    -0.237 OA
ATOM     79  O   UNL A   1      40.843  19.354  25.652  1.00  0.00    -0.744 OA
ENDBRANCH  75  76
ENDBRANCH  43  68
BRANCH  55  80
ATOM     80  C   UNL A   1      48.051  27.379  30.124  1.00  0.00     0.058 A 
ATOM     81  C   UNL A   1      48.995  27.689  29.133  1.00  0.00     0.135 A 
ATOM     82  C   UNL A   1      48.511  26.781  31.308  1.00  0.00     0.135 A 
ATOM     83  F   UNL A   1      48.603  28.254  27.981  1.00  0.00    -0.206 F 
ATOM     84  C   UNL A   1      50.344  27.399  29.303  1.00  0.00     0.059 A 
ATOM     85  C   UNL A   1      49.858  26.502  31.508  1.00  0.00     0.059 A 
ATOM     86  F   UNL A   1      47.647  26.474  32.289  1.00  0.00    -0.206 F 
ATOM     87  C   UNL A   1      50.767  26.806  30.493  1.00  0.00     0.060 A 
BRANCH  87  88
ATOM     88  S   UNL A   1      52.526  26.465  30.720  1.00  0.00     0.124 S 
ATOM     89  O   UNL A   1      52.944  26.163  29.355  1.00  0.00    -0.237 OA
ATOM     90  O   UNL A   1      53.022  27.722  31.271  1.00  0.00    -0.237 OA
ATOM     91  O   UNL A   1      52.535  25.336  31.644  1.00  0.00    -0.744 OA
ENDBRANCH  87  88
ENDBRANCH  55  80
ENDBRANCH  29  30
ENDBRANCH  22  24
ENDBRANCH  21  22
ENDBRANCH  20  21
ENDBRANCH   1  20
TORSDOF 19
ENDMDL
MODEL 2
REMARK VINA RESULT:      -9.9      5.283     10.799
REMARK SMILES CC(C)C[C@@H](CNC(=O)[C@@H]1CCOC1)C(=O)OCCOC(=O)c1ccc(-c2c3nc(c(-c4c(F)cc(S(=O)(=O)[O-])cc4F)c4ccc([nH]4)c(-c4c(F)cc(S(=O)(=O)[O-])cc4F)c4nc(c(-c5c(F)cc(S(=O)(=O)[O-])cc5F)c5ccc2[nH]5)C=C4)C=C3)cc1
REMARK SMILES IDX 18 1 17 2 15 3 16 4 5 5 4 6 2 7 1 8 3 9 6 10 7 11 8 12 9 14
REMARK SMILES IDX 10 15 11 16 14 17 12 18 13 19 19 20 20 21 21 22 22 23 23 24
REMARK SMILES IDX 24 25 88 26 25 27 87 28 26 29 27 30 28 31 81 32 29 33 86 34
REMARK SMILES IDX 80 35 82 36 30 37 85 38 79 39 78 40 31 42 65 43 44 44 64 45
REMARK SMILES IDX 45 46 48 47 63 48 83 49 46 50 47 51 62 53 84 54 49 55 32 56
REMARK SMILES IDX 33 57 42 58 34 59 35 60 41 61 43 62 36 63 37 64 38 65 39 66
REMARK SMILES IDX 40 67 66 68 67 69 76 70 68 71 69 72 75 73 77 74 70 75 71 76
REMARK SMILES IDX 72 77 73 78 74 79 50 80 51 81 60 82 52 83 53 84 59 85 61 86
REMARK SMILES IDX 54 87 55 88 56 89 57 90 58 91
REMARK H PARENT 7 13 82 41 48 52
REMARK Flexibility Score: inf
ROOT
ATOM      1  C   UNL A   1      38.363  21.920  25.369  1.00  0.00     0.274 C 
ENDROOT
BRANCH   1   2
ATOM      2  O   UNL A   1      37.090  21.480  25.880  1.00  0.00    -0.462 OA
BRANCH   2   3
ATOM      3  C   UNL A   1      35.992  21.867  25.179  1.00  0.00     0.310 C 
ATOM      4  O   UNL A   1      35.999  22.191  23.997  1.00  0.00    -0.252 OA
BRANCH   3   5
ATOM      5  C   UNL A   1      34.732  21.933  26.028  1.00  0.00     0.118 C 
BRANCH   5   6
ATOM      6  C   UNL A   1      34.427  23.346  26.564  1.00  0.00     0.020 C 
BRANCH   6   7
ATOM      7  C   UNL A   1      33.540  24.221  25.650  1.00  0.00    -0.017 C 
ATOM      8  C   UNL A   1      32.423  24.934  26.417  1.00  0.00     0.007 C 
ATOM      9  C   UNL A   1      34.404  25.263  24.934  1.00  0.00     0.007 C 
ENDBRANCH   6   7
ENDBRANCH   5   6
BRANCH   5  10
ATOM     10  C   UNL A   1      33.565  21.268  25.288  1.00  0.00     0.131 C 
BRANCH  10  11
ATOM     11  N   UNL A   1      33.078  20.067  25.944  1.00  0.00    -0.355 N 
ATOM     12  C   UNL A   1      33.127  18.770  25.516  1.00  0.00     0.225 C 
ATOM     13  H   UNL A   1      32.652  20.207  26.821  1.00  0.00     0.163 HD
ATOM     14  O   UNL A   1      32.494  17.928  26.155  1.00  0.00    -0.275 OA
BRANCH  12  15
ATOM     15  C   UNL A   1      33.978  18.411  24.306  1.00  0.00     0.106 C 
ATOM     16  C   UNL A   1      33.191  17.683  23.239  1.00  0.00     0.044 C 
ATOM     17  C   UNL A   1      35.041  17.399  24.701  1.00  0.00     0.173 C 
ATOM     18  C   UNL A   1      33.322  16.234  23.647  1.00  0.00     0.161 C 
ATOM     19  O   UNL A   1      34.605  16.100  24.266  1.00  0.00    -0.381 OA
ENDBRANCH  12  15
ENDBRANCH  10  11
ENDBRANCH   5  10
ENDBRANCH   3   5
ENDBRANCH   2   3
ENDBRANCH   1   2
BRANCH   1  20
ATOM     20  C   UNL A   1      39.300  22.382  26.487  1.00  0.00     0.275 C 
BRANCH  20  21
ATOM     21  O   UNL A   1      39.291  23.814  26.626  1.00  0.00    -0.458 OA
BRANCH  21  22
ATOM     22  C   UNL A   1      40.500  24.369  26.878  1.00  0.00     0.338 C 
ATOM     23  O   UNL A   1      41.565  24.090  26.357  1.00  0.00    -0.246 OA
BRANCH  22  24
ATOM     24  C   UNL A   1      40.336  25.499  27.803  1.00  0.00     0.060 A 
ATOM     25  C   UNL A   1      41.325  26.485  27.809  1.00  0.00     0.016 A 
ATOM     26  C   UNL A   1      39.281  25.542  28.714  1.00  0.00     0.016 A 
ATOM     27  C   UNL A   1      41.269  27.525  28.730  1.00  0.00     0.010 A 
ATOM     28  C   UNL A   1      39.226  26.587  29.642  1.00  0.00     0.010 A 
ATOM     29  C   UNL A   1      40.226  27.576  29.662  1.00  0.00    -0.014 A 
BRANCH  29  30
ATOM     30  C   UNL A   1      40.228  28.631  30.702  1.00  0.00     0.031 A 
ATOM     31  C   UNL A   1      41.209  28.551  31.835  1.00  0.00     0.074 A 
ATOM     32  C   UNL A   1      39.377  29.669  30.608  1.00  0.00     0.049 A 
ATOM     33  N   UNL A   1      41.321  29.319  32.888  1.00  0.00    -0.248 NA
ATOM     34  C   UNL A   1      42.197  27.461  31.777  1.00  0.00     0.031 C 
ATOM     35  C   UNL A   1      38.418  29.878  29.522  1.00  0.00     0.029 A 
ATOM     36  N   UNL A   1      39.180  30.740  31.441  1.00  0.00    -0.354 N 
ATOM     37  C   UNL A   1      42.374  28.796  33.628  1.00  0.00     0.074 A 
ATOM     38  C   UNL A   1      42.862  27.638  32.909  1.00  0.00     0.031 C 
ATOM     39  C   UNL A   1      37.733  31.010  29.757  1.00  0.00     0.029 A 
ATOM     40  C   UNL A   1      38.173  31.578  31.028  1.00  0.00     0.049 A 
ATOM     41  H   UNL A   1      39.710  30.894  32.256  1.00  0.00     0.167 HD
ATOM     42  C   UNL A   1      42.883  29.242  34.801  1.00  0.00     0.037 A 
ATOM     43  C   UNL A   1      37.645  32.665  31.624  1.00  0.00     0.037 A 
ATOM     44  C   UNL A   1      42.398  30.402  35.502  1.00  0.00     0.049 A 
ATOM     45  C   UNL A   1      38.194  33.112  32.952  1.00  0.00     0.074 A 
ATOM     46  C   UNL A   1      42.844  30.937  36.698  1.00  0.00     0.029 A 
ATOM     47  N   UNL A   1      41.357  31.211  35.066  1.00  0.00    -0.354 N 
ATOM     48  N   UNL A   1      39.172  32.593  33.655  1.00  0.00    -0.248 NA
ATOM     49  C   UNL A   1      37.564  34.285  33.571  1.00  0.00     0.031 C 
ATOM     50  C   UNL A   1      42.054  32.052  37.001  1.00  0.00     0.029 A 
ATOM     51  C   UNL A   1      41.139  32.233  35.975  1.00  0.00     0.049 A 
ATOM     52  H   UNL A   1      40.850  31.078  34.234  1.00  0.00     0.167 HD
ATOM     53  C   UNL A   1      39.284  33.384  34.793  1.00  0.00     0.074 A 
ATOM     54  C   UNL A   1      38.282  34.424  34.677  1.00  0.00     0.031 C 
ATOM     55  C   UNL A   1      40.137  33.260  35.839  1.00  0.00     0.037 A 
BRANCH  42  56
ATOM     56  C   UNL A   1      44.002  28.451  35.414  1.00  0.00     0.058 A 
ATOM     57  C   UNL A   1      43.758  27.414  36.329  1.00  0.00     0.135 A 
ATOM     58  C   UNL A   1      45.335  28.723  35.069  1.00  0.00     0.135 A 
ATOM     59  F   UNL A   1      42.503  27.127  36.707  1.00  0.00    -0.206 F 
ATOM     60  C   UNL A   1      44.800  26.689  36.897  1.00  0.00     0.059 A 
ATOM     61  C   UNL A   1      46.392  27.997  35.610  1.00  0.00     0.059 A 
ATOM     62  F   UNL A   1      45.621  29.707  34.203  1.00  0.00    -0.206 F 
ATOM     63  C   UNL A   1      46.115  26.991  36.535  1.00  0.00     0.060 A 
BRANCH  63  64
ATOM     64  S   UNL A   1      47.460  26.049  37.285  1.00  0.00     0.124 S 
ATOM     65  O   UNL A   1      47.246  24.727  36.706  1.00  0.00    -0.237 OA
ATOM     66  O   UNL A   1      48.644  26.763  36.816  1.00  0.00    -0.237 OA
ATOM     67  O   UNL A   1      47.193  26.158  38.717  1.00  0.00    -0.744 OA
ENDBRANCH  63  64
ENDBRANCH  42  56
BRANCH  43  68
ATOM     68  C   UNL A   1      36.519  33.388  30.980  1.00  0.00     0.058 A 
ATOM     69  C   UNL A   1      36.726  34.188  29.849  1.00  0.00     0.135 A 
ATOM     70  C   UNL A   1      35.210  33.279  31.477  1.00  0.00     0.135 A 
ATOM     71  F   UNL A   1      37.961  34.331  29.345  1.00  0.00    -0.206 F 
ATOM     72  C   UNL A   1      35.676  34.861  29.231  1.00  0.00     0.059 A 
ATOM     73  C   UNL A   1      34.141  33.924  30.864  1.00  0.00     0.059 A 
ATOM     74  F   UNL A   1      34.960  32.517  32.553  1.00  0.00    -0.206 F 
ATOM     75  C   UNL A   1      34.386  34.720  29.745  1.00  0.00     0.060 A 
BRANCH  75  76
ATOM     76  S   UNL A   1      33.018  35.546  28.904  1.00  0.00     0.124 S 
ATOM     77  O   UNL A   1      32.438  34.447  28.140  1.00  0.00    -0.237 OA
ATOM     78  O   UNL A   1      32.219  36.038  30.022  1.00  0.00    -0.237 OA
ATOM     79  O   UNL A   1      33.685  36.580  28.119  1.00  0.00    -0.744 OA
ENDBRANCH  75  76
ENDBRANCH  43  68
BRANCH  55  80
ATOM     80  C   UNL A   1      40.041  34.289  36.928  1.00  0.00     0.058 A 
ATOM     81  C   UNL A   1      40.680  35.533  36.820  1.00  0.00     0.135 A 
ATOM     82  C   UNL A   1      39.260  34.046  38.069  1.00  0.00     0.135 A 
ATOM     83  F   UNL A   1      41.443  35.810  35.751  1.00  0.00    -0.206 F 
ATOM     84  C   UNL A   1      40.564  36.495  37.817  1.00  0.00     0.059 A 
ATOM     85  C   UNL A   1      39.114  35.001  39.068  1.00  0.00     0.059 A 
ATOM     86  F   UNL A   1      38.621  32.873  38.213  1.00  0.00    -0.206 F 
ATOM     87  C   UNL A   1      39.779  36.221  38.938  1.00  0.00     0.060 A 
BRANCH  87  88
ATOM     88  S   UNL A   1      39.606  37.489  40.212  1.00  0.00     0.124 S 
ATOM     89  O   UNL A   1      39.766  36.704  41.431  1.00  0.00    -0.237 OA
ATOM     90  O   UNL A   1      40.699  38.403  39.898  1.00  0.00    -0.237 OA
ATOM     91  O   UNL A   1      38.267  38.021  39.979  1.00  0.00    -0.744 OA
ENDBRANCH  87  88
ENDBRANCH  55  80
ENDBRANCH  29  30
ENDBRANCH  22  24
ENDBRANCH  21  22
ENDBRANCH  20  21
ENDBRANCH   1  20
TORSDOF 19
ENDMDL
MODEL 3
REMARK VINA RESULT:      -9.9      2.611      3.690
REMARK SMILES CC(C)C[C@@H](CNC(=O)[C@@H]1CCOC1)C(=O)OCCOC(=O)c1ccc(-c2c3nc(c(-c4c(F)cc(S(=O)(=O)[O-])cc4F)c4ccc([nH]4)c(-c4c(F)cc(S(=O)(=O)[O-])cc4F)c4nc(c(-c5c(F)cc(S(=O)(=O)[O-])cc5F)c5ccc2[nH]5)C=C4)C=C3)cc1
REMARK SMILES IDX 18 1 17 2 15 3 16 4 5 5 4 6 2 7 1 8 3 9 6 10 7 11 8 12 9 14
REMARK SMILES IDX 10 15 11 16 14 17 12 18 13 19 19 20 20 21 21 22 22 23 23 24
REMARK SMILES IDX 24 25 88 26 25 27 87 28 26 29 27 30 28 31 81 32 29 33 86 34
REMARK SMILES IDX 80 35 82 36 30 37 85 38 79 39 78 40 31 42 65 43 44 44 64 45
REMARK SMILES IDX 45 46 48 47 63 48 83 49 46 50 47 51 62 53 84 54 49 55 32 56
REMARK SMILES IDX 33 57 42 58 34 59 35 60 41 61 43 62 36 63 37 64 38 65 39 66
REMARK SMILES IDX 40 67 66 68 67 69 76 70 68 71 69 72 75 73 77 74 70 75 71 76
REMARK SMILES IDX 72 77 73 78 74 79 50 80 51 81 60 82 52 83 53 84 59 85 61 86
REMARK SMILES IDX 54 87 55 88 56 89 57 90 58 91
REMARK H PARENT 7 13 82 41 48 52
REMARK Flexibility Score: inf
ROOT
ATOM      1  C   UNL A   1      33.349  31.079  27.214  1.00  0.00     0.274 C 
ENDROOT
BRANCH   1   2
ATOM      2  O   UNL A   1      33.603  29.692  26.914  1.00  0.00    -0.462 OA
BRANCH   2   3
ATOM      3  C   UNL A   1      32.512  28.891  26.794  1.00  0.00     0.310 C 
ATOM      4  O   UNL A   1      31.723  28.649  27.699  1.00  0.00    -0.252 OA
BRANCH   3   5
ATOM      5  C   UNL A   1      32.391  28.246  25.422  1.00  0.00     0.118 C 
BRANCH   5   6
ATOM      6  C   UNL A   1      31.361  28.939  24.508  1.00  0.00     0.020 C 
BRANCH   6   7
ATOM      7  C   UNL A   1      30.203  28.041  24.019  1.00  0.00    -0.017 C 
ATOM      8  C   UNL A   1      30.219  27.827  22.503  1.00  0.00     0.007 C 
ATOM      9  C   UNL A   1      30.271  26.682  24.721  1.00  0.00     0.007 C 
ENDBRANCH   6   7
ENDBRANCH   5   6
BRANCH   5  10
ATOM     10  C   UNL A   1      33.781  28.075  24.798  1.00  0.00     0.131 C 
BRANCH  10  11
ATOM     11  N   UNL A   1      33.739  27.643  23.411  1.00  0.00    -0.355 N 
ATOM     12  C   UNL A   1      33.686  26.376  22.903  1.00  0.00     0.225 C 
ATOM     13  H   UNL A   1      33.750  28.367  22.743  1.00  0.00     0.163 HD
ATOM     14  O   UNL A   1      33.836  26.235  21.689  1.00  0.00    -0.275 OA
BRANCH  12  15
ATOM     15  C   UNL A   1      33.412  25.204  23.836  1.00  0.00     0.106 C 
ATOM     16  C   UNL A   1      34.681  24.562  24.349  1.00  0.00     0.044 C 
ATOM     17  C   UNL A   1      32.740  24.077  23.070  1.00  0.00     0.173 C 
ATOM     18  C   UNL A   1      34.992  23.529  23.291  1.00  0.00     0.161 C 
ATOM     19  O   UNL A   1      33.734  23.081  22.777  1.00  0.00    -0.381 OA
ENDBRANCH  12  15
ENDBRANCH  10  11
ENDBRANCH   5  10
ENDBRANCH   3   5
ENDBRANCH   2   3
ENDBRANCH   1   2
BRANCH   1  20
ATOM     20  C   UNL A   1      34.444  31.685  28.092  1.00  0.00     0.275 C 
BRANCH  20  21
ATOM     21  O   UNL A   1      35.685  30.969  27.959  1.00  0.00    -0.458 OA
BRANCH  21  22
ATOM     22  C   UNL A   1      36.270  30.623  29.129  1.00  0.00     0.338 C 
ATOM     23  O   UNL A   1      35.778  30.663  30.243  1.00  0.00    -0.246 OA
BRANCH  22  24
ATOM     24  C   UNL A   1      37.590  30.035  28.861  1.00  0.00     0.060 A 
ATOM     25  C   UNL A   1      38.426  29.785  29.952  1.00  0.00     0.016 A 
ATOM     26  C   UNL A   1      38.036  29.819  27.558  1.00  0.00     0.016 A 
ATOM     27  C   UNL A   1      39.720  29.319  29.747  1.00  0.00     0.010 A 
ATOM     28  C   UNL A   1      39.339  29.353  27.352  1.00  0.00     0.010 A 
ATOM     29  C   UNL A   1      40.190  29.112  28.445  1.00  0.00    -0.014 A 
BRANCH  29  30
ATOM     30  C   UNL A   1      41.600  28.711  28.234  1.00  0.00     0.031 A 
ATOM     31  C   UNL A   1      42.686  29.744  28.328  1.00  0.00     0.074 A 
ATOM     32  C   UNL A   1      41.903  27.423  27.992  1.00  0.00     0.049 A 
ATOM     33  N   UNL A   1      43.966  29.620  28.096  1.00  0.00    -0.248 NA
ATOM     34  C   UNL A   1      42.276  31.096  28.740  1.00  0.00     0.031 C 
ATOM     35  C   UNL A   1      40.936  26.325  27.932  1.00  0.00     0.029 A 
ATOM     36  N   UNL A   1      43.110  26.819  27.749  1.00  0.00    -0.354 N 
ATOM     37  C   UNL A   1      44.513  30.879  28.310  1.00  0.00     0.074 A 
ATOM     38  C   UNL A   1      43.423  31.755  28.683  1.00  0.00     0.031 C 
ATOM     39  C   UNL A   1      41.590  25.181  27.667  1.00  0.00     0.029 A 
ATOM     40  C   UNL A   1      43.010  25.473  27.496  1.00  0.00     0.049 A 
ATOM     41  H   UNL A   1      43.966  27.305  27.755  1.00  0.00     0.167 HD
ATOM     42  C   UNL A   1      45.807  31.265  28.203  1.00  0.00     0.037 A 
ATOM     43  C   UNL A   1      43.954  24.582  27.137  1.00  0.00     0.037 A 
ATOM     44  C   UNL A   1      46.885  30.382  27.844  1.00  0.00     0.049 A 
ATOM     45  C   UNL A   1      45.376  25.045  26.975  1.00  0.00     0.074 A 
ATOM     46  C   UNL A   1      48.231  30.676  27.706  1.00  0.00     0.029 A 
ATOM     47  N   UNL A   1      46.742  29.030  27.568  1.00  0.00    -0.354 N 
ATOM     48  N   UNL A   1      45.876  26.245  27.154  1.00  0.00    -0.248 NA
ATOM     49  C   UNL A   1      46.360  24.039  26.555  1.00  0.00     0.031 C 
ATOM     50  C   UNL A   1      48.897  29.507  27.318  1.00  0.00     0.029 A 
ATOM     51  C   UNL A   1      47.971  28.477  27.249  1.00  0.00     0.049 A 
ATOM     52  H   UNL A   1      45.891  28.536  27.595  1.00  0.00     0.167 HD
ATOM     53  C   UNL A   1      47.235  26.135  26.882  1.00  0.00     0.074 A 
ATOM     54  C   UNL A   1      47.480  24.749  26.539  1.00  0.00     0.031 C 
ATOM     55  C   UNL A   1      48.193  27.094  26.913  1.00  0.00     0.037 A 
BRANCH  42  56
ATOM     56  C   UNL A   1      46.118  32.713  28.447  1.00  0.00     0.058 A 
ATOM     57  C   UNL A   1      46.094  33.659  27.409  1.00  0.00     0.135 A 
ATOM     58  C   UNL A   1      46.426  33.165  29.740  1.00  0.00     0.135 A 
ATOM     59  F   UNL A   1      45.824  33.275  26.152  1.00  0.00    -0.206 F 
ATOM     60  C   UNL A   1      46.389  34.998  27.641  1.00  0.00     0.059 A 
ATOM     61  C   UNL A   1      46.705  34.504  29.998  1.00  0.00     0.059 A 
ATOM     62  F   UNL A   1      46.467  32.301  30.765  1.00  0.00    -0.206 F 
ATOM     63  C   UNL A   1      46.698  35.410  28.939  1.00  0.00     0.060 A 
BRANCH  63  64
ATOM     64  S   UNL A   1      47.087  37.150  29.227  1.00  0.00     0.124 S 
ATOM     65  O   UNL A   1      48.450  37.061  29.741  1.00  0.00    -0.237 OA
ATOM     66  O   UNL A   1      46.949  37.728  27.894  1.00  0.00    -0.237 OA
ATOM     67  O   UNL A   1      46.076  37.568  30.194  1.00  0.00    -0.744 OA
ENDBRANCH  63  64
ENDBRANCH  42  56
BRANCH  43  68
ATOM     68  C   UNL A   1      43.578  23.168  26.881  1.00  0.00     0.058 A 
ATOM     69  C   UNL A   1      43.198  22.320  27.930  1.00  0.00     0.135 A 
ATOM     70  C   UNL A   1      43.576  22.643  25.579  1.00  0.00     0.135 A 
ATOM     71  F   UNL A   1      43.194  22.775  29.192  1.00  0.00    -0.206 F 
ATOM     72  C   UNL A   1      42.832  20.997  27.701  1.00  0.00     0.059 A 
ATOM     73  C   UNL A   1      43.194  21.330  25.322  1.00  0.00     0.059 A 
ATOM     74  F   UNL A   1      43.923  23.419  24.540  1.00  0.00    -0.206 F 
ATOM     75  C   UNL A   1      42.831  20.513  26.391  1.00  0.00     0.060 A 
BRANCH  75  76
ATOM     76  S   UNL A   1      42.298  18.813  26.092  1.00  0.00     0.124 S 
ATOM     77  O   UNL A   1      42.587  18.185  27.375  1.00  0.00    -0.237 OA
ATOM     78  O   UNL A   1      40.885  18.985  25.768  1.00  0.00    -0.237 OA
ATOM     79  O   UNL A   1      43.140  18.392  24.976  1.00  0.00    -0.744 OA
ENDBRANCH  75  76
ENDBRANCH  43  68
BRANCH  55  80
ATOM     80  C   UNL A   1      49.597  26.671  26.590  1.00  0.00     0.058 A 
ATOM     81  C   UNL A   1      50.451  26.152  27.576  1.00  0.00     0.135 A 
ATOM     82  C   UNL A   1      50.076  26.740  25.273  1.00  0.00     0.135 A 
ATOM     83  F   UNL A   1      50.042  26.072  28.851  1.00  0.00    -0.206 F 
ATOM     84  C   UNL A   1      51.741  25.734  27.267  1.00  0.00     0.059 A 
ATOM     85  C   UNL A   1      51.354  26.308  24.939  1.00  0.00     0.059 A 
ATOM     86  F   UNL A   1      49.292  27.221  24.294  1.00  0.00    -0.206 F 
ATOM     87  C   UNL A   1      52.184  25.816  25.946  1.00  0.00     0.060 A 
BRANCH  87  88
ATOM     88  S   UNL A   1      53.848  25.238  25.549  1.00  0.00     0.124 S 
ATOM     89  O   UNL A   1      54.422  26.417  24.908  1.00  0.00    -0.237 OA
ATOM     90  O   UNL A   1      54.389  24.904  26.862  1.00  0.00    -0.237 OA
ATOM     91  O   UNL A   1      53.609  24.099  24.668  1.00  0.00    -0.744 OA
ENDBRANCH  87  88
ENDBRANCH  55  80
ENDBRANCH  29  30
ENDBRANCH  22  24
ENDBRANCH  21  22
ENDBRANCH  20  21
ENDBRANCH   1  20
TORSDOF 19
ENDMDL
