MODEL 1
REMARK VINA RESULT:      -9.5      0.000      0.000
REMARK SMILES CC(C)=CCc1cccc2c(C(=O)OCCOC(=O)c3ccc(-c4c5nc(c(-c6c(F)cc(S(=O)(=O)[O-])cc6F)c6ccc([nH]6)c(-c6c(F)cc(S(=O)(=O)[O-])cc6F)c6nc(c(-c7c(F)cc(S(=O)(=O)[O-])cc7F)c7ccc4[nH]7)C=C6)C=C5)cc3)c[nH]c12
REMARK SMILES IDX 16 1 15 2 14 3 12 4 13 5 11 6 6 7 7 8 88 9 8 10 10 11 87 12
REMARK SMILES IDX 9 13 86 14 5 16 4 17 1 18 2 19 3 20 17 21 18 22 19 23 20 24
REMARK SMILES IDX 21 25 85 26 22 27 84 28 23 29 24 30 25 31 78 32 26 33 83 34
REMARK SMILES IDX 77 35 79 36 27 37 82 38 76 39 75 40 28 42 62 43 41 44 61 45
REMARK SMILES IDX 42 46 45 47 60 48 80 49 43 50 44 51 59 53 81 54 46 55 29 56
REMARK SMILES IDX 30 57 39 58 31 59 32 60 38 61 40 62 33 63 34 64 35 65 36 66
REMARK SMILES IDX 37 67 63 68 64 69 73 70 65 71 66 72 72 73 74 74 67 75 68 76
REMARK SMILES IDX 69 77 70 78 71 79 47 80 48 81 57 82 49 83 50 84 56 85 58 86
REMARK SMILES IDX 51 87 52 88 53 89 54 90 55 91
REMARK H PARENT 87 15 79 41 45 52
REMARK Flexibility Score: inf
ROOT
ATOM      1  C   UNL A   1      43.598  24.267  25.217  1.00  0.00     0.275 C 
ENDROOT
BRANCH   1   2
ATOM      2  C   UNL A   1      44.859  25.116  25.041  1.00  0.00     0.275 C 
BRANCH   2   3
ATOM      3  O   UNL A   1      45.683  25.117  26.224  1.00  0.00    -0.458 OA
BRANCH   3   4
ATOM      4  C   UNL A   1      45.585  26.230  27.011  1.00  0.00     0.340 C 
ATOM      5  O   UNL A   1      45.458  27.366  26.574  1.00  0.00    -0.246 OA
BRANCH   4   6
ATOM      6  C   UNL A   1      45.561  25.937  28.442  1.00  0.00     0.085 A 
ATOM      7  C   UNL A   1      44.656  24.283  31.560  1.00  0.00    -0.020 A 
ATOM      8  C   UNL A   1      43.810  23.235  31.155  1.00  0.00     0.006 A 
ATOM      9  C   UNL A   1      45.152  25.106  30.532  1.00  0.00     0.050 A 
ATOM     10  C   UNL A   1      43.473  23.040  29.816  1.00  0.00     0.001 A 
ATOM     11  C   UNL A   1      44.833  24.946  29.179  1.00  0.00     0.014 A 
ATOM     12  N   UNL A   1      46.010  26.177  30.617  1.00  0.00    -0.360 N 
ATOM     13  C   UNL A   1      43.963  23.895  28.824  1.00  0.00     0.011 A 
ATOM     14  C   UNL A   1      46.346  26.605  29.369  1.00  0.00     0.099 A 
ATOM     15  H   UNL A   1      46.333  26.576  31.457  1.00  0.00     0.166 HD
BRANCH   7  16
ATOM     16  C   UNL A   1      45.014  24.471  33.016  1.00  0.00     0.065 C 
BRANCH  16  17
ATOM     17  C   UNL A   1      43.804  24.564  33.907  1.00  0.00    -0.024 C 
ATOM     18  C   UNL A   1      44.496  22.789  35.533  1.00  0.00     0.039 C 
ATOM     19  C   UNL A   1      43.563  23.850  35.024  1.00  0.00    -0.080 C 
ATOM     20  C   UNL A   1      42.307  24.102  35.814  1.00  0.00     0.039 C 
ENDBRANCH  16  17
ENDBRANCH   7  16
ENDBRANCH   4   6
ENDBRANCH   3   4
ENDBRANCH   2   3
ENDBRANCH   1   2
BRANCH   1  21
ATOM     21  O   UNL A   1      42.440  25.090  25.450  1.00  0.00    -0.458 OA
BRANCH  21  22
ATOM     22  C   UNL A   1      41.565  24.611  26.364  1.00  0.00     0.338 C 
ATOM     23  O   UNL A   1      41.171  23.462  26.479  1.00  0.00    -0.246 OA
BRANCH  22  24
ATOM     24  C   UNL A   1      41.205  25.670  27.316  1.00  0.00     0.060 A 
ATOM     25  C   UNL A   1      41.975  26.828  27.309  1.00  0.00     0.016 A 
ATOM     26  C   UNL A   1      40.236  25.483  28.298  1.00  0.00     0.016 A 
ATOM     27  C   UNL A   1      41.837  27.783  28.308  1.00  0.00     0.010 A 
ATOM     28  C   UNL A   1      40.047  26.478  29.270  1.00  0.00     0.010 A 
ATOM     29  C   UNL A   1      40.865  27.625  29.302  1.00  0.00    -0.014 A 
BRANCH  29  30
ATOM     30  C   UNL A   1      40.751  28.635  30.392  1.00  0.00     0.031 A 
ATOM     31  C   UNL A   1      41.693  28.590  31.566  1.00  0.00     0.074 A 
ATOM     32  C   UNL A   1      39.825  29.614  30.316  1.00  0.00     0.049 A 
ATOM     33  N   UNL A   1      41.673  29.287  32.672  1.00  0.00    -0.248 NA
ATOM     34  C   UNL A   1      42.800  27.623  31.487  1.00  0.00     0.031 C 
ATOM     35  C   UNL A   1      38.891  29.812  29.206  1.00  0.00     0.029 A 
ATOM     36  N   UNL A   1      39.521  30.631  31.188  1.00  0.00    -0.354 N 
ATOM     37  C   UNL A   1      42.729  28.813  33.442  1.00  0.00     0.074 A 
ATOM     38  C   UNL A   1      43.364  27.759  32.679  1.00  0.00     0.031 C 
ATOM     39  C   UNL A   1      38.138  30.895  29.451  1.00  0.00     0.029 A 
ATOM     40  C   UNL A   1      38.474  31.419  30.770  1.00  0.00     0.049 A 
ATOM     41  H   UNL A   1      40.007  30.782  32.031  1.00  0.00     0.167 HD
ATOM     42  C   UNL A   1      43.133  29.220  34.671  1.00  0.00     0.037 A 
ATOM     43  C   UNL A   1      37.823  32.422  31.393  1.00  0.00     0.037 A 
ATOM     44  C   UNL A   1      42.516  30.295  35.405  1.00  0.00     0.049 A 
ATOM     45  C   UNL A   1      38.249  32.819  32.779  1.00  0.00     0.074 A 
ATOM     46  C   UNL A   1      42.858  30.795  36.650  1.00  0.00     0.029 A 
ATOM     47  N   UNL A   1      41.432  31.040  34.963  1.00  0.00    -0.354 N 
ATOM     48  N   UNL A   1      39.227  32.337  33.510  1.00  0.00    -0.248 NA
ATOM     49  C   UNL A   1      37.477  33.885  33.432  1.00  0.00     0.031 C 
ATOM     50  C   UNL A   1      41.951  31.807  36.981  1.00  0.00     0.029 A 
ATOM     51  C   UNL A   1      41.078  31.980  35.919  1.00  0.00     0.049 A 
ATOM     52  H   UNL A   1      40.980  30.919  34.097  1.00  0.00     0.167 HD
ATOM     53  C   UNL A   1      39.201  33.055  34.701  1.00  0.00     0.074 A 
ATOM     54  C   UNL A   1      38.120  34.012  34.585  1.00  0.00     0.031 C 
ATOM     55  C   UNL A   1      40.000  32.930  35.789  1.00  0.00     0.037 A 
BRANCH  42  56
ATOM     56  C   UNL A   1      44.266  28.468  35.317  1.00  0.00     0.058 A 
ATOM     57  C   UNL A   1      45.612  28.731  35.015  1.00  0.00     0.135 A 
ATOM     58  C   UNL A   1      43.998  27.470  36.270  1.00  0.00     0.135 A 
ATOM     59  F   UNL A   1      45.930  29.664  34.102  1.00  0.00    -0.206 F 
ATOM     60  C   UNL A   1      46.647  28.007  35.601  1.00  0.00     0.059 A 
ATOM     61  C   UNL A   1      45.017  26.754  36.892  1.00  0.00     0.059 A 
ATOM     62  F   UNL A   1      42.731  27.177  36.603  1.00  0.00    -0.206 F 
ATOM     63  C   UNL A   1      46.339  27.017  36.536  1.00  0.00     0.060 A 
BRANCH  63  64
ATOM     64  S   UNL A   1      47.689  26.072  37.274  1.00  0.00     0.124 S 
ATOM     65  O   UNL A   1      47.847  24.989  36.307  1.00  0.00    -0.237 OA
ATOM     66  O   UNL A   1      48.771  27.051  37.312  1.00  0.00    -0.237 OA
ATOM     67  O   UNL A   1      47.158  25.678  38.575  1.00  0.00    -0.744 OA
ENDBRANCH  63  64
ENDBRANCH  42  56
BRANCH  43  68
ATOM     68  C   UNL A   1      36.679  33.093  30.718  1.00  0.00     0.058 A 
ATOM     69  C   UNL A   1      35.355  32.792  31.066  1.00  0.00     0.135 A 
ATOM     70  C   UNL A   1      36.887  34.072  29.733  1.00  0.00     0.135 A 
ATOM     71  F   UNL A   1      35.102  31.853  31.993  1.00  0.00    -0.206 F 
ATOM     72  C   UNL A   1      34.278  33.434  30.464  1.00  0.00     0.059 A 
ATOM     73  C   UNL A   1      35.829  34.751  29.138  1.00  0.00     0.059 A 
ATOM     74  F   UNL A   1      38.136  34.405  29.368  1.00  0.00    -0.206 F 
ATOM     75  C   UNL A   1      34.526  34.419  29.505  1.00  0.00     0.060 A 
BRANCH  75  76
ATOM     76  S   UNL A   1      33.124  35.296  28.780  1.00  0.00     0.124 S 
ATOM     77  O   UNL A   1      32.361  35.662  29.969  1.00  0.00    -0.237 OA
ATOM     78  O   UNL A   1      33.780  36.395  28.080  1.00  0.00    -0.237 OA
ATOM     79  O   UNL A   1      32.507  34.292  27.918  1.00  0.00    -0.744 OA
ENDBRANCH  75  76
ENDBRANCH  43  68
BRANCH  55  80
ATOM     80  C   UNL A   1      39.762  33.879  36.932  1.00  0.00     0.058 A 
ATOM     81  C   UNL A   1      38.970  33.525  38.036  1.00  0.00     0.135 A 
ATOM     82  C   UNL A   1      40.372  35.144  36.943  1.00  0.00     0.135 A 
ATOM     83  F   UNL A   1      38.355  32.333  38.072  1.00  0.00    -0.206 F 
ATOM     84  C   UNL A   1      38.773  34.401  39.098  1.00  0.00     0.059 A 
ATOM     85  C   UNL A   1      40.214  36.024  38.008  1.00  0.00     0.059 A 
ATOM     86  F   UNL A   1      41.147  35.529  35.916  1.00  0.00    -0.206 F 
ATOM     87  C   UNL A   1      39.403  35.647  39.077  1.00  0.00     0.060 A 
BRANCH  87  88
ATOM     88  S   UNL A   1      39.167  36.762  40.478  1.00  0.00     0.124 S 
ATOM     89  O   UNL A   1      38.490  37.889  39.847  1.00  0.00    -0.237 OA
ATOM     90  O   UNL A   1      38.351  35.956  41.382  1.00  0.00    -0.237 OA
ATOM     91  O   UNL A   1      40.528  37.023  40.938  1.00  0.00    -0.744 OA
ENDBRANCH  87  88
ENDBRANCH  55  80
ENDBRANCH  29  30
ENDBRANCH  22  24
ENDBRANCH  21  22
ENDBRANCH   1  21
TORSDOF 16
ENDMDL
MODEL 2
REMARK VINA RESULT:      -9.5      2.914      4.396
REMARK SMILES CC(C)=CCc1cccc2c(C(=O)OCCOC(=O)c3ccc(-c4c5nc(c(-c6c(F)cc(S(=O)(=O)[O-])cc6F)c6ccc([nH]6)c(-c6c(F)cc(S(=O)(=O)[O-])cc6F)c6nc(c(-c7c(F)cc(S(=O)(=O)[O-])cc7F)c7ccc4[nH]7)C=C6)C=C5)cc3)c[nH]c12
REMARK SMILES IDX 16 1 15 2 14 3 12 4 13 5 11 6 6 7 7 8 88 9 8 10 10 11 87 12
REMARK SMILES IDX 9 13 86 14 5 16 4 17 1 18 2 19 3 20 17 21 18 22 19 23 20 24
REMARK SMILES IDX 21 25 85 26 22 27 84 28 23 29 24 30 25 31 78 32 26 33 83 34
REMARK SMILES IDX 77 35 79 36 27 37 82 38 76 39 75 40 28 42 62 43 41 44 61 45
REMARK SMILES IDX 42 46 45 47 60 48 80 49 43 50 44 51 59 53 81 54 46 55 29 56
REMARK SMILES IDX 30 57 39 58 31 59 32 60 38 61 40 62 33 63 34 64 35 65 36 66
REMARK SMILES IDX 37 67 63 68 64 69 73 70 65 71 66 72 72 73 74 74 67 75 68 76
REMARK SMILES IDX 69 77 70 78 71 79 47 80 48 81 57 82 49 83 50 84 56 85 58 86
REMARK SMILES IDX 51 87 52 88 53 89 54 90 55 91
REMARK H PARENT 87 15 79 41 45 52
REMARK Flexibility Score: inf
ROOT
ATOM      1  C   UNL A   1      40.149  21.653  26.030  1.00  0.00     0.275 C 
ENDROOT
BRANCH   1   2
ATOM      2  C   UNL A   1      40.812  20.855  27.156  1.00  0.00     0.275 C 
BRANCH   2   3
ATOM      3  O   UNL A   1      42.174  21.267  27.385  1.00  0.00    -0.458 OA
BRANCH   3   4
ATOM      4  C   UNL A   1      42.943  21.410  26.264  1.00  0.00     0.340 C 
ATOM      5  O   UNL A   1      43.154  20.511  25.462  1.00  0.00    -0.246 OA
BRANCH   4   6
ATOM      6  C   UNL A   1      43.430  22.772  26.057  1.00  0.00     0.085 A 
ATOM      7  C   UNL A   1      45.283  25.850  26.666  1.00  0.00    -0.020 A 
ATOM      8  C   UNL A   1      46.046  25.565  27.812  1.00  0.00     0.006 A 
ATOM      9  C   UNL A   1      44.448  24.814  26.209  1.00  0.00     0.050 A 
ATOM     10  C   UNL A   1      45.964  24.335  28.461  1.00  0.00     0.001 A 
ATOM     11  C   UNL A   1      44.333  23.568  26.836  1.00  0.00     0.014 A 
ATOM     12  N   UNL A   1      43.617  24.788  25.114  1.00  0.00    -0.360 N 
ATOM     13  C   UNL A   1      45.102  23.337  27.995  1.00  0.00     0.011 A 
ATOM     14  C   UNL A   1      43.096  23.541  24.953  1.00  0.00     0.099 A 
ATOM     15  H   UNL A   1      43.427  25.559  24.531  1.00  0.00     0.166 HD
BRANCH   7  16
ATOM     16  C   UNL A   1      45.394  27.188  25.973  1.00  0.00     0.065 C 
BRANCH  16  17
ATOM     17  C   UNL A   1      44.115  27.980  26.025  1.00  0.00    -0.024 C 
ATOM     18  C   UNL A   1      44.795  29.523  27.876  1.00  0.00     0.039 C 
ATOM     19  C   UNL A   1      43.835  29.018  26.838  1.00  0.00    -0.080 C 
ATOM     20  C   UNL A   1      42.508  29.717  26.726  1.00  0.00     0.039 C 
ENDBRANCH  16  17
ENDBRANCH   7  16
ENDBRANCH   4   6
ENDBRANCH   3   4
ENDBRANCH   2   3
ENDBRANCH   1   2
BRANCH   1  21
ATOM     21  O   UNL A   1      38.830  22.092  26.406  1.00  0.00    -0.458 OA
BRANCH  21  22
ATOM     22  C   UNL A   1      38.481  23.321  25.958  1.00  0.00     0.338 C 
ATOM     23  O   UNL A   1      37.662  23.588  25.095  1.00  0.00    -0.246 OA
BRANCH  22  24
ATOM     24  C   UNL A   1      39.166  24.355  26.747  1.00  0.00     0.060 A 
ATOM     25  C   UNL A   1      38.831  24.461  28.092  1.00  0.00     0.016 A 
ATOM     26  C   UNL A   1      40.003  25.299  26.159  1.00  0.00     0.016 A 
ATOM     27  C   UNL A   1      39.271  25.537  28.853  1.00  0.00     0.010 A 
ATOM     28  C   UNL A   1      40.504  26.350  26.943  1.00  0.00     0.010 A 
ATOM     29  C   UNL A   1      40.120  26.496  28.291  1.00  0.00    -0.014 A 
BRANCH  29  30
ATOM     30  C   UNL A   1      40.555  27.666  29.104  1.00  0.00     0.031 A 
ATOM     31  C   UNL A   1      41.902  27.659  29.778  1.00  0.00     0.074 A 
ATOM     32  C   UNL A   1      39.760  28.751  29.213  1.00  0.00     0.049 A 
ATOM     33  N   UNL A   1      42.406  28.512  30.632  1.00  0.00    -0.248 NA
ATOM     34  C   UNL A   1      42.796  26.536  29.454  1.00  0.00     0.031 C 
ATOM     35  C   UNL A   1      38.458  28.916  28.562  1.00  0.00     0.029 A 
ATOM     36  N   UNL A   1      39.931  29.923  29.908  1.00  0.00    -0.354 N 
ATOM     37  C   UNL A   1      43.652  28.007  30.986  1.00  0.00     0.074 A 
ATOM     38  C   UNL A   1      43.822  26.764  30.261  1.00  0.00     0.031 C 
ATOM     39  C   UNL A   1      37.963  30.125  28.867  1.00  0.00     0.029 A 
ATOM     40  C   UNL A   1      38.867  30.788  29.801  1.00  0.00     0.049 A 
ATOM     41  H   UNL A   1      40.740  30.126  30.432  1.00  0.00     0.167 HD
ATOM     42  C   UNL A   1      44.570  28.531  31.836  1.00  0.00     0.037 A 
ATOM     43  C   UNL A   1      38.618  31.960  30.417  1.00  0.00     0.037 A 
ATOM     44  C   UNL A   1      44.405  29.786  32.523  1.00  0.00     0.049 A 
ATOM     45  C   UNL A   1      39.623  32.496  31.400  1.00  0.00     0.074 A 
ATOM     46  C   UNL A   1      45.281  30.413  33.393  1.00  0.00     0.029 A 
ATOM     47  N   UNL A   1      43.293  30.610  32.417  1.00  0.00    -0.354 N 
ATOM     48  N   UNL A   1      40.780  31.988  31.753  1.00  0.00    -0.248 NA
ATOM     49  C   UNL A   1      39.283  33.753  32.080  1.00  0.00     0.031 C 
ATOM     50  C   UNL A   1      44.678  31.589  33.851  1.00  0.00     0.029 A 
ATOM     51  C   UNL A   1      43.451  31.728  33.223  1.00  0.00     0.049 A 
ATOM     52  H   UNL A   1      42.508  30.428  31.852  1.00  0.00     0.167 HD
ATOM     53  C   UNL A   1      41.317  32.875  32.680  1.00  0.00     0.074 A 
ATOM     54  C   UNL A   1      40.363  33.956  32.822  1.00  0.00     0.031 C 
ATOM     55  C   UNL A   1      42.493  32.799  33.352  1.00  0.00     0.037 A 
BRANCH  42  56
ATOM     56  C   UNL A   1      45.813  27.724  32.105  1.00  0.00     0.058 A 
ATOM     57  C   UNL A   1      46.945  27.787  31.276  1.00  0.00     0.135 A 
ATOM     58  C   UNL A   1      45.875  26.877  33.225  1.00  0.00     0.135 A 
ATOM     59  F   UNL A   1      46.939  28.569  30.184  1.00  0.00    -0.206 F 
ATOM     60  C   UNL A   1      48.075  27.013  31.524  1.00  0.00     0.059 A 
ATOM     61  C   UNL A   1      47.005  26.117  33.510  1.00  0.00     0.059 A 
ATOM     62  F   UNL A   1      44.825  26.777  34.055  1.00  0.00    -0.206 F 
ATOM     63  C   UNL A   1      48.094  26.177  32.642  1.00  0.00     0.060 A 
BRANCH  63  64
ATOM     64  S   UNL A   1      49.558  25.164  32.940  1.00  0.00     0.124 S 
ATOM     65  O   UNL A   1      49.003  24.083  33.749  1.00  0.00    -0.237 OA
ATOM     66  O   UNL A   1      49.966  24.797  31.587  1.00  0.00    -0.237 OA
ATOM     67  O   UNL A   1      50.463  26.070  33.641  1.00  0.00    -0.744 OA
ENDBRANCH  63  64
ENDBRANCH  42  56
BRANCH  43  68
ATOM     68  C   UNL A   1      37.348  32.686  30.144  1.00  0.00     0.058 A 
ATOM     69  C   UNL A   1      37.287  33.702  29.180  1.00  0.00     0.135 A 
ATOM     70  C   UNL A   1      36.162  32.356  30.820  1.00  0.00     0.135 A 
ATOM     71  F   UNL A   1      38.396  34.064  28.516  1.00  0.00    -0.206 F 
ATOM     72  C   UNL A   1      36.098  34.366  28.895  1.00  0.00     0.059 A 
ATOM     73  C   UNL A   1      34.955  32.985  30.532  1.00  0.00     0.059 A 
ATOM     74  F   UNL A   1      36.163  31.385  31.747  1.00  0.00    -0.206 F 
ATOM     75  C   UNL A   1      34.934  33.995  29.571  1.00  0.00     0.060 A 
BRANCH  75  76
ATOM     76  S   UNL A   1      33.384  34.815  29.145  1.00  0.00     0.124 S 
ATOM     77  O   UNL A   1      32.804  33.871  28.196  1.00  0.00    -0.237 OA
ATOM     78  O   UNL A   1      32.720  34.906  30.441  1.00  0.00    -0.237 OA
ATOM     79  O   UNL A   1      33.820  36.089  28.581  1.00  0.00    -0.744 OA
ENDBRANCH  75  76
ENDBRANCH  43  68
BRANCH  55  80
ATOM     80  C   UNL A   1      42.835  33.936  34.275  1.00  0.00     0.058 A 
ATOM     81  C   UNL A   1      42.483  33.919  35.635  1.00  0.00     0.135 A 
ATOM     82  C   UNL A   1      43.565  35.039  33.802  1.00  0.00     0.135 A 
ATOM     83  F   UNL A   1      41.776  32.894  36.136  1.00  0.00    -0.206 F 
ATOM     84  C   UNL A   1      42.822  34.965  36.486  1.00  0.00     0.059 A 
ATOM     85  C   UNL A   1      43.941  36.082  34.642  1.00  0.00     0.059 A 
ATOM     86  F   UNL A   1      43.934  35.102  32.513  1.00  0.00    -0.206 F 
ATOM     87  C   UNL A   1      43.555  36.041  35.981  1.00  0.00     0.060 A 
BRANCH  87  88
ATOM     88  S   UNL A   1      44.019  37.377  37.104  1.00  0.00     0.124 S 
ATOM     89  O   UNL A   1      44.132  38.506  36.187  1.00  0.00    -0.237 OA
ATOM     90  O   UNL A   1      42.886  37.417  38.024  1.00  0.00    -0.237 OA
ATOM     91  O   UNL A   1      45.274  36.911  37.686  1.00  0.00    -0.744 OA
ENDBRANCH  87  88
ENDBRANCH  55  80
ENDBRANCH  29  30
ENDBRANCH  22  24
ENDBRANCH  21  22
ENDBRANCH   1  21
TORSDOF 16
ENDMDL
MODEL 3
REMARK VINA RESULT:      -9.3      6.290     12.227
REMARK SMILES CC(C)=CCc1cccc2c(C(=O)OCCOC(=O)c3ccc(-c4c5nc(c(-c6c(F)cc(S(=O)(=O)[O-])cc6F)c6ccc([nH]6)c(-c6c(F)cc(S(=O)(=O)[O-])cc6F)c6nc(c(-c7c(F)cc(S(=O)(=O)[O-])cc7F)c7ccc4[nH]7)C=C6)C=C5)cc3)c[nH]c12
REMARK SMILES IDX 16 1 15 2 14 3 12 4 13 5 11 6 6 7 7 8 88 9 8 10 10 11 87 12
REMARK SMILES IDX 9 13 86 14 5 16 4 17 1 18 2 19 3 20 17 21 18 22 19 23 20 24
REMARK SMILES IDX 21 25 85 26 22 27 84 28 23 29 24 30 25 31 78 32 26 33 83 34
REMARK SMILES IDX 77 35 79 36 27 37 82 38 76 39 75 40 28 42 62 43 41 44 61 45
REMARK SMILES IDX 42 46 45 47 60 48 80 49 43 50 44 51 59 53 81 54 46 55 29 56
REMARK SMILES IDX 30 57 39 58 31 59 32 60 38 61 40 62 33 63 34 64 35 65 36 66
REMARK SMILES IDX 37 67 63 68 64 69 73 70 65 71 66 72 72 73 74 74 67 75 68 76
REMARK SMILES IDX 69 77 70 78 71 79 47 80 48 81 57 82 49 83 50 84 56 85 58 86
REMARK SMILES IDX 51 87 52 88 53 89 54 90 55 91
REMARK H PARENT 87 15 79 41 45 52
REMARK Flexibility Score: inf
ROOT
ATOM      1  C   UNL A   1      32.664  28.760  26.730  1.00  0.00     0.275 C 
ENDROOT
BRANCH   1   2
ATOM      2  C   UNL A   1      31.833  27.517  27.058  1.00  0.00     0.275 C 
BRANCH   2   3
ATOM      3  O   UNL A   1      32.239  26.372  26.282  1.00  0.00    -0.458 OA
BRANCH   3   4
ATOM      4  C   UNL A   1      31.229  25.542  25.882  1.00  0.00     0.340 C 
ATOM      5  O   UNL A   1      30.152  25.935  25.455  1.00  0.00    -0.246 OA
BRANCH   4   6
ATOM      6  C   UNL A   1      31.581  24.125  25.930  1.00  0.00     0.085 A 
ATOM      7  C   UNL A   1      32.389  20.779  24.734  1.00  0.00    -0.020 A 
ATOM      8  C   UNL A   1      32.409  20.915  23.334  1.00  0.00     0.006 A 
ATOM      9  C   UNL A   1      32.085  21.945  25.462  1.00  0.00     0.050 A 
ATOM     10  C   UNL A   1      32.126  22.129  22.711  1.00  0.00     0.001 A 
ATOM     11  C   UNL A   1      31.790  23.179  24.872  1.00  0.00     0.014 A 
ATOM     12  N   UNL A   1      32.019  22.125  26.823  1.00  0.00    -0.360 N 
ATOM     13  C   UNL A   1      31.800  23.261  23.465  1.00  0.00     0.011 A 
ATOM     14  C   UNL A   1      31.832  23.442  27.110  1.00  0.00     0.099 A 
ATOM     15  H   UNL A   1      32.097  21.406  27.492  1.00  0.00     0.166 HD
BRANCH   7  16
ATOM     16  C   UNL A   1      32.708  19.455  25.389  1.00  0.00     0.065 C 
BRANCH  16  17
ATOM     17  C   UNL A   1      32.861  18.335  24.395  1.00  0.00    -0.024 C 
ATOM     18  C   UNL A   1      35.349  18.113  24.578  1.00  0.00     0.039 C 
ATOM     19  C   UNL A   1      34.005  17.720  24.036  1.00  0.00    -0.080 C 
ATOM     20  C   UNL A   1      33.964  16.588  23.046  1.00  0.00     0.039 C 
ENDBRANCH  16  17
ENDBRANCH   7  16
ENDBRANCH   4   6
ENDBRANCH   3   4
ENDBRANCH   2   3
ENDBRANCH   1   2
BRANCH   1  21
ATOM     21  O   UNL A   1      33.921  28.749  27.431  1.00  0.00    -0.458 OA
BRANCH  21  22
ATOM     22  C   UNL A   1      34.360  29.959  27.849  1.00  0.00     0.338 C 
ATOM     23  O   UNL A   1      33.702  30.978  27.985  1.00  0.00    -0.246 OA
BRANCH  22  24
ATOM     24  C   UNL A   1      35.773  29.872  28.241  1.00  0.00     0.060 A 
ATOM     25  C   UNL A   1      36.726  30.086  27.251  1.00  0.00     0.016 A 
ATOM     26  C   UNL A   1      36.165  29.443  29.506  1.00  0.00     0.016 A 
ATOM     27  C   UNL A   1      38.070  29.819  27.485  1.00  0.00     0.010 A 
ATOM     28  C   UNL A   1      37.529  29.237  29.766  1.00  0.00     0.010 A 
ATOM     29  C   UNL A   1      38.492  29.395  28.750  1.00  0.00    -0.014 A 
BRANCH  29  30
ATOM     30  C   UNL A   1      39.929  29.074  28.980  1.00  0.00     0.031 A 
ATOM     31  C   UNL A   1      40.851  30.112  29.563  1.00  0.00     0.074 A 
ATOM     32  C   UNL A   1      40.403  27.842  28.698  1.00  0.00     0.049 A 
ATOM     33  N   UNL A   1      42.150  30.077  29.713  1.00  0.00    -0.248 NA
ATOM     34  C   UNL A   1      40.228  31.361  30.030  1.00  0.00     0.031 C 
ATOM     35  C   UNL A   1      39.607  26.724  28.188  1.00  0.00     0.029 A 
ATOM     36  N   UNL A   1      41.670  27.322  28.806  1.00  0.00    -0.354 N 
ATOM     37  C   UNL A   1      42.507  31.311  30.244  1.00  0.00     0.074 A 
ATOM     38  C   UNL A   1      41.286  32.078  30.379  1.00  0.00     0.031 C 
ATOM     39  C   UNL A   1      40.396  25.648  28.052  1.00  0.00     0.029 A 
ATOM     40  C   UNL A   1      41.768  26.018  28.382  1.00  0.00     0.049 A 
ATOM     41  H   UNL A   1      42.436  27.834  29.155  1.00  0.00     0.167 HD
ATOM     42  C   UNL A   1      43.739  31.763  30.587  1.00  0.00     0.037 A 
ATOM     43  C   UNL A   1      42.842  25.218  28.230  1.00  0.00     0.037 A 
ATOM     44  C   UNL A   1      44.942  30.977  30.482  1.00  0.00     0.049 A 
ATOM     45  C   UNL A   1      44.206  25.758  28.562  1.00  0.00     0.074 A 
ATOM     46  C   UNL A   1      46.236  31.335  30.818  1.00  0.00     0.029 A 
ATOM     47  N   UNL A   1      45.001  29.673  30.010  1.00  0.00    -0.354 N 
ATOM     48  N   UNL A   1      44.532  26.940  29.029  1.00  0.00    -0.248 NA
ATOM     49  C   UNL A   1      45.348  24.862  28.334  1.00  0.00     0.031 C 
ATOM     50  C   UNL A   1      47.083  30.268  30.501  1.00  0.00     0.029 A 
ATOM     51  C   UNL A   1      46.311  29.221  30.023  1.00  0.00     0.049 A 
ATOM     52  H   UNL A   1      44.226  29.147  29.708  1.00  0.00     0.167 HD
ATOM     53  C   UNL A   1      45.916  26.924  29.171  1.00  0.00     0.074 A 
ATOM     54  C   UNL A   1      46.361  25.610  28.753  1.00  0.00     0.031 C 
ATOM     55  C   UNL A   1      46.740  27.908  29.607  1.00  0.00     0.037 A 
BRANCH  42  56
ATOM     56  C   UNL A   1      43.852  33.187  31.065  1.00  0.00     0.058 A 
ATOM     57  C   UNL A   1      44.019  34.265  30.182  1.00  0.00     0.135 A 
ATOM     58  C   UNL A   1      43.779  33.477  32.439  1.00  0.00     0.135 A 
ATOM     59  F   UNL A   1      44.108  34.048  28.860  1.00  0.00    -0.206 F 
ATOM     60  C   UNL A   1      44.149  35.572  30.643  1.00  0.00     0.059 A 
ATOM     61  C   UNL A   1      43.876  34.779  32.921  1.00  0.00     0.059 A 
ATOM     62  F   UNL A   1      43.616  32.488  33.331  1.00  0.00    -0.206 F 
ATOM     63  C   UNL A   1      44.081  35.819  32.016  1.00  0.00     0.060 A 
BRANCH  63  64
ATOM     64  S   UNL A   1      44.272  37.516  32.601  1.00  0.00     0.124 S 
ATOM     65  O   UNL A   1      43.440  37.505  33.801  1.00  0.00    -0.237 OA
ATOM     66  O   UNL A   1      45.711  37.609  32.828  1.00  0.00    -0.237 OA
ATOM     67  O   UNL A   1      43.761  38.318  31.493  1.00  0.00    -0.744 OA
ENDBRANCH  63  64
ENDBRANCH  42  56
BRANCH  43  68
ATOM     68  C   UNL A   1      42.668  23.835  27.707  1.00  0.00     0.058 A 
ATOM     69  C   UNL A   1      42.547  22.742  28.576  1.00  0.00     0.135 A 
ATOM     70  C   UNL A   1      42.589  23.584  26.328  1.00  0.00     0.135 A 
ATOM     71  F   UNL A   1      42.629  22.928  29.903  1.00  0.00    -0.206 F 
ATOM     72  C   UNL A   1      42.354  21.450  28.100  1.00  0.00     0.059 A 
ATOM     73  C   UNL A   1      42.367  22.305  25.827  1.00  0.00     0.059 A 
ATOM     74  F   UNL A   1      42.691  24.597  25.452  1.00  0.00    -0.206 F 
ATOM     75  C   UNL A   1      42.257  21.242  26.722  1.00  0.00     0.060 A 
BRANCH  75  76
ATOM     76  S   UNL A   1      41.938  19.572  26.116  1.00  0.00     0.124 S 
ATOM     77  O   UNL A   1      42.297  18.765  27.278  1.00  0.00    -0.237 OA
ATOM     78  O   UNL A   1      40.516  19.629  25.795  1.00  0.00    -0.237 OA
ATOM     79  O   UNL A   1      42.830  19.453  24.966  1.00  0.00    -0.744 OA
ENDBRANCH  75  76
ENDBRANCH  43  68
BRANCH  55  80
ATOM     80  C   UNL A   1      48.208  27.591  29.692  1.00  0.00     0.058 A 
ATOM     81  C   UNL A   1      49.082  27.831  28.619  1.00  0.00     0.135 A 
ATOM     82  C   UNL A   1      48.756  27.082  30.880  1.00  0.00     0.135 A 
ATOM     83  F   UNL A   1      48.609  28.308  27.457  1.00  0.00    -0.206 F 
ATOM     84  C   UNL A   1      50.442  27.556  28.715  1.00  0.00     0.059 A 
ATOM     85  C   UNL A   1      50.117  26.827  31.009  1.00  0.00     0.059 A 
ATOM     86  F   UNL A   1      47.967  26.841  31.940  1.00  0.00    -0.206 F 
ATOM     87  C   UNL A   1      50.951  27.057  29.915  1.00  0.00     0.060 A 
BRANCH  87  88
ATOM     88  S   UNL A   1      52.724  26.735  30.038  1.00  0.00     0.124 S 
ATOM     89  O   UNL A   1      53.238  28.054  30.390  1.00  0.00    -0.237 OA
ATOM     90  O   UNL A   1      52.785  25.728  31.093  1.00  0.00    -0.237 OA
ATOM     91  O   UNL A   1      53.076  26.258  28.704  1.00  0.00    -0.744 OA
ENDBRANCH  87  88
ENDBRANCH  55  80
ENDBRANCH  29  30
ENDBRANCH  22  24
ENDBRANCH  21  22
ENDBRANCH   1  21
TORSDOF 16
ENDMDL
