MODEL 1
REMARK VINA RESULT:     -10.5      0.000      0.000
REMARK SMILES CCN1C(=O)c2cccc3cc(S(=O)(=O)NCC(=O)OCCOC(=O)c4ccc(-c5c6nc(c(-c7c(F)cc(S(=O)(=O)[O-])cc7F)c7ccc([nH]7)c(-c7c(F)cc(S(=O)(=O)[O-])cc7F)c7nc(c(-c8c(F)cc(S(=O)(=O)[O-])cc8F)c8ccc5[nH]8)C=C7)C=C6)cc4)cc(c23)C1=O
REMARK SMILES IDX 21 1 20 2 18 3 19 4 17 5 16 6 13 8 14 9 15 10 12 11 3 12
REMARK SMILES IDX 4 13 95 14 5 15 6 16 93 17 96 18 7 19 94 20 92 21 8 22 10 23
REMARK SMILES IDX 9 24 11 25 2 26 1 27 22 28 23 29 24 30 25 31 26 32 27 33
REMARK SMILES IDX 91 34 28 35 90 36 29 37 30 38 31 39 84 40 32 41 89 42 83 43
REMARK SMILES IDX 85 44 33 45 88 46 82 47 81 48 34 50 68 51 47 52 67 53 48 54
REMARK SMILES IDX 51 55 66 56 86 57 49 58 50 59 65 61 87 62 52 63 35 64 36 65
REMARK SMILES IDX 45 66 37 67 38 68 44 69 46 70 39 71 40 72 41 73 42 74 43 75
REMARK SMILES IDX 69 76 70 77 79 78 71 79 72 80 78 81 80 82 73 83 74 84 75 85
REMARK SMILES IDX 76 86 77 87 53 88 54 89 63 90 55 91 56 92 62 93 64 94 57 95
REMARK SMILES IDX 58 96 59 97 60 98 61 99
REMARK H PARENT 16 7 85 49 51 60
REMARK Flexibility Score: inf
ROOT
ATOM      1  C   UNL A   1      34.517  32.869  29.177  1.00  0.00     0.274 C 
ENDROOT
BRANCH   1   2
ATOM      2  O   UNL A   1      34.419  34.295  29.298  1.00  0.00    -0.461 OA
BRANCH   2   3
ATOM      3  C   UNL A   1      33.220  34.846  29.007  1.00  0.00     0.321 C 
ATOM      4  O   UNL A   1      32.503  34.516  28.070  1.00  0.00    -0.251 OA
BRANCH   3   5
ATOM      5  C   UNL A   1      32.864  35.942  29.968  1.00  0.00     0.221 C 
BRANCH   5   6
ATOM      6  N   UNL A   1      33.833  36.318  31.028  1.00  0.00    -0.200 NA
ATOM      7  H   UNL A   1      34.755  36.044  30.690  1.00  0.00     0.142 HD
BRANCH   6   8
ATOM      8  S   UNL A   1      33.688  35.693  32.590  1.00  0.00     0.241 S 
ATOM      9  O   UNL A   1      32.848  34.520  32.519  1.00  0.00    -0.207 OA
ATOM     10  O   UNL A   1      33.373  36.793  33.472  1.00  0.00    -0.207 OA
BRANCH   8  11
ATOM     11  C   UNL A   1      35.316  35.142  33.027  1.00  0.00     0.083 A 
ATOM     12  N   UNL A   1      38.142  32.669  36.111  1.00  0.00    -0.275 N 
ATOM     13  C   UNL A   1      39.155  32.542  35.157  1.00  0.00     0.261 C 
ATOM     14  C   UNL A   1      36.963  33.388  35.914  1.00  0.00     0.261 C 
ATOM     15  O   UNL A   1      40.218  31.959  35.355  1.00  0.00    -0.269 OA
ATOM     16  C   UNL A   1      38.929  33.184  33.840  1.00  0.00     0.049 A 
ATOM     17  C   UNL A   1      36.734  33.952  34.567  1.00  0.00     0.050 A 
ATOM     18  O   UNL A   1      36.131  33.601  36.792  1.00  0.00    -0.269 OA
ATOM     19  C   UNL A   1      39.905  33.079  32.838  1.00  0.00     0.014 A 
ATOM     20  C   UNL A   1      37.741  33.877  33.601  1.00  0.00     0.007 A 
ATOM     21  C   UNL A   1      35.505  34.548  34.274  1.00  0.00     0.036 A 
ATOM     22  C   UNL A   1      39.702  33.678  31.597  1.00  0.00     0.001 A 
ATOM     23  C   UNL A   1      37.546  34.503  32.344  1.00  0.00    -0.015 A 
ATOM     24  C   UNL A   1      38.532  34.397  31.355  1.00  0.00     0.009 A 
ATOM     25  C   UNL A   1      36.352  35.187  32.092  1.00  0.00     0.030 A 
BRANCH  12  26
ATOM     26  C   UNL A   1      38.386  32.126  37.448  1.00  0.00     0.126 C 
ATOM     27  C   UNL A   1      39.027  33.119  38.410  1.00  0.00     0.028 C 
ENDBRANCH  12  26
ENDBRANCH   8  11
ENDBRANCH   6   8
ENDBRANCH   5   6
ENDBRANCH   3   5
ENDBRANCH   2   3
ENDBRANCH   1   2
BRANCH   1  28
ATOM     28  C   UNL A   1      34.971  32.248  30.501  1.00  0.00     0.275 C 
BRANCH  28  29
ATOM     29  O   UNL A   1      35.878  31.142  30.306  1.00  0.00    -0.458 OA
BRANCH  29  30
ATOM     30  C   UNL A   1      36.649  30.816  31.369  1.00  0.00     0.338 C 
ATOM     31  O   UNL A   1      36.277  30.621  32.517  1.00  0.00    -0.246 OA
BRANCH  30  32
ATOM     32  C   UNL A   1      38.027  30.522  30.941  1.00  0.00     0.060 A 
ATOM     33  C   UNL A   1      38.352  30.758  29.601  1.00  0.00     0.016 A 
ATOM     34  C   UNL A   1      38.967  29.961  31.808  1.00  0.00     0.016 A 
ATOM     35  C   UNL A   1      39.612  30.428  29.117  1.00  0.00     0.010 A 
ATOM     36  C   UNL A   1      40.237  29.633  31.319  1.00  0.00     0.010 A 
ATOM     37  C   UNL A   1      40.563  29.857  29.970  1.00  0.00    -0.014 A 
BRANCH  37  38
ATOM     38  C   UNL A   1      41.884  29.465  29.423  1.00  0.00     0.031 A 
ATOM     39  C   UNL A   1      42.988  30.479  29.336  1.00  0.00     0.074 A 
ATOM     40  C   UNL A   1      42.093  28.193  29.035  1.00  0.00     0.049 A 
ATOM     41  N   UNL A   1      44.186  30.353  28.829  1.00  0.00    -0.248 NA
ATOM     42  C   UNL A   1      42.707  31.812  29.893  1.00  0.00     0.031 C 
ATOM     43  C   UNL A   1      41.103  27.116  29.111  1.00  0.00     0.029 A 
ATOM     44  N   UNL A   1      43.201  27.590  28.497  1.00  0.00    -0.354 N 
ATOM     45  C   UNL A   1      44.794  31.594  28.978  1.00  0.00     0.074 A 
ATOM     46  C   UNL A   1      43.830  32.463  29.617  1.00  0.00     0.031 C 
ATOM     47  C   UNL A   1      41.647  25.986  28.631  1.00  0.00     0.029 A 
ATOM     48  C   UNL A   1      43.003  26.269  28.168  1.00  0.00     0.049 A 
ATOM     49  H   UNL A   1      44.056  28.058  28.358  1.00  0.00     0.167 HD
ATOM     50  C   UNL A   1      46.044  31.968  28.612  1.00  0.00     0.037 A 
ATOM     51  C   UNL A   1      43.810  25.396  27.535  1.00  0.00     0.037 A 
ATOM     52  C   UNL A   1      47.001  31.084  27.999  1.00  0.00     0.049 A 
ATOM     53  C   UNL A   1      45.181  25.848  27.108  1.00  0.00     0.074 A 
ATOM     54  C   UNL A   1      48.304  31.358  27.620  1.00  0.00     0.029 A 
ATOM     55  N   UNL A   1      46.762  29.757  27.671  1.00  0.00    -0.354 N 
ATOM     56  N   UNL A   1      45.746  27.021  27.265  1.00  0.00    -0.248 NA
ATOM     57  C   UNL A   1      46.022  24.862  26.416  1.00  0.00     0.031 C 
ATOM     58  C   UNL A   1      48.836  30.211  27.020  1.00  0.00     0.029 A 
ATOM     59  C   UNL A   1      47.883  29.206  27.073  1.00  0.00     0.049 A 
ATOM     60  H   UNL A   1      45.919  29.277  27.841  1.00  0.00     0.167 HD
ATOM     61  C   UNL A   1      47.016  26.909  26.709  1.00  0.00     0.074 A 
ATOM     62  C   UNL A   1      47.140  25.549  26.225  1.00  0.00     0.031 C 
ATOM     63  C   UNL A   1      47.990  27.846  26.605  1.00  0.00     0.037 A 
BRANCH  50  64
ATOM     64  C   UNL A   1      46.441  33.401  28.831  1.00  0.00     0.058 A 
ATOM     65  C   UNL A   1      46.255  34.384  27.847  1.00  0.00     0.135 A 
ATOM     66  C   UNL A   1      46.968  33.805  30.069  1.00  0.00     0.135 A 
ATOM     67  F   UNL A   1      45.772  34.050  26.640  1.00  0.00    -0.206 F 
ATOM     68  C   UNL A   1      46.591  35.715  28.078  1.00  0.00     0.059 A 
ATOM     69  C   UNL A   1      47.290  35.134  30.330  1.00  0.00     0.059 A 
ATOM     70  F   UNL A   1      47.170  32.903  31.043  1.00  0.00    -0.206 F 
ATOM     71  C   UNL A   1      47.106  36.080  29.323  1.00  0.00     0.060 A 
BRANCH  71  72
ATOM     72  S   UNL A   1      47.519  37.814  29.614  1.00  0.00     0.124 S 
ATOM     73  O   UNL A   1      46.387  38.491  28.990  1.00  0.00    -0.237 OA
ATOM     74  O   UNL A   1      47.573  37.882  31.071  1.00  0.00    -0.237 OA
ATOM     75  O   UNL A   1      48.800  37.978  28.935  1.00  0.00    -0.744 OA
ENDBRANCH  71  72
ENDBRANCH  50  64
BRANCH  51  76
ATOM     76  C   UNL A   1      43.327  24.022  27.232  1.00  0.00     0.058 A 
ATOM     77  C   UNL A   1      43.407  22.993  28.181  1.00  0.00     0.135 A 
ATOM     78  C   UNL A   1      42.771  23.714  25.980  1.00  0.00     0.135 A 
ATOM     79  F   UNL A   1      43.939  23.235  29.389  1.00  0.00    -0.206 F 
ATOM     80  C   UNL A   1      42.970  21.704  27.896  1.00  0.00     0.059 A 
ATOM     81  C   UNL A   1      42.300  22.439  25.682  1.00  0.00     0.059 A 
ATOM     82  F   UNL A   1      42.659  24.666  25.040  1.00  0.00    -0.206 F 
ATOM     83  C   UNL A   1      42.415  21.437  26.643  1.00  0.00     0.060 A 
BRANCH  83  84
ATOM     84  S   UNL A   1      41.810  19.772  26.295  1.00  0.00     0.124 S 
ATOM     85  O   UNL A   1      40.388  20.015  26.081  1.00  0.00    -0.237 OA
ATOM     86  O   UNL A   1      42.582  19.406  25.111  1.00  0.00    -0.237 OA
ATOM     87  O   UNL A   1      42.150  19.031  27.506  1.00  0.00    -0.744 OA
ENDBRANCH  83  84
ENDBRANCH  51  76
BRANCH  63  88
ATOM     88  C   UNL A   1      49.289  27.427  25.975  1.00  0.00     0.058 A 
ATOM     89  C   UNL A   1      50.374  26.986  26.747  1.00  0.00     0.135 A 
ATOM     90  C   UNL A   1      49.428  27.416  24.578  1.00  0.00     0.135 A 
ATOM     91  F   UNL A   1      50.294  26.985  28.087  1.00  0.00    -0.206 F 
ATOM     92  C   UNL A   1      51.562  26.569  26.156  1.00  0.00     0.059 A 
ATOM     93  C   UNL A   1      50.597  26.977  23.965  1.00  0.00     0.059 A 
ATOM     94  F   UNL A   1      48.415  27.818  23.794  1.00  0.00    -0.206 F 
ATOM     95  C   UNL A   1      51.663  26.566  24.763  1.00  0.00     0.060 A 
BRANCH  95  96
ATOM     96  S   UNL A   1      53.197  25.988  24.006  1.00  0.00     0.124 S 
ATOM     97  O   UNL A   1      54.137  27.022  24.423  1.00  0.00    -0.237 OA
ATOM     98  O   UNL A   1      53.379  24.679  24.627  1.00  0.00    -0.237 OA
ATOM     99  O   UNL A   1      52.883  25.961  22.582  1.00  0.00    -0.744 OA
ENDBRANCH  95  96
ENDBRANCH  63  88
ENDBRANCH  37  38
ENDBRANCH  30  32
ENDBRANCH  29  30
ENDBRANCH  28  29
ENDBRANCH   1  28
TORSDOF 18
ENDMDL
MODEL 2
REMARK VINA RESULT:     -10.4      6.434     13.310
REMARK SMILES CCN1C(=O)c2cccc3cc(S(=O)(=O)NCC(=O)OCCOC(=O)c4ccc(-c5c6nc(c(-c7c(F)cc(S(=O)(=O)[O-])cc7F)c7ccc([nH]7)c(-c7c(F)cc(S(=O)(=O)[O-])cc7F)c7nc(c(-c8c(F)cc(S(=O)(=O)[O-])cc8F)c8ccc5[nH]8)C=C7)C=C6)cc4)cc(c23)C1=O
REMARK SMILES IDX 21 1 20 2 18 3 19 4 17 5 16 6 13 8 14 9 15 10 12 11 3 12
REMARK SMILES IDX 4 13 95 14 5 15 6 16 93 17 96 18 7 19 94 20 92 21 8 22 10 23
REMARK SMILES IDX 9 24 11 25 2 26 1 27 22 28 23 29 24 30 25 31 26 32 27 33
REMARK SMILES IDX 91 34 28 35 90 36 29 37 30 38 31 39 84 40 32 41 89 42 83 43
REMARK SMILES IDX 85 44 33 45 88 46 82 47 81 48 34 50 68 51 47 52 67 53 48 54
REMARK SMILES IDX 51 55 66 56 86 57 49 58 50 59 65 61 87 62 52 63 35 64 36 65
REMARK SMILES IDX 45 66 37 67 38 68 44 69 46 70 39 71 40 72 41 73 42 74 43 75
REMARK SMILES IDX 69 76 70 77 79 78 71 79 72 80 78 81 80 82 73 83 74 84 75 85
REMARK SMILES IDX 76 86 77 87 53 88 54 89 63 90 55 91 56 92 62 93 64 94 57 95
REMARK SMILES IDX 58 96 59 97 60 98 61 99
REMARK H PARENT 16 7 85 49 51 60
REMARK Flexibility Score: inf
ROOT
ATOM      1  C   UNL A   1      38.617  21.859  25.789  1.00  0.00     0.274 C 
ENDROOT
BRANCH   1   2
ATOM      2  O   UNL A   1      37.444  22.685  25.784  1.00  0.00    -0.461 OA
BRANCH   2   3
ATOM      3  C   UNL A   1      36.262  22.055  25.603  1.00  0.00     0.321 C 
ATOM      4  O   UNL A   1      36.127  20.853  25.414  1.00  0.00    -0.251 OA
BRANCH   3   5
ATOM      5  C   UNL A   1      35.109  23.016  25.640  1.00  0.00     0.221 C 
BRANCH   5   6
ATOM      6  N   UNL A   1      34.772  23.790  24.419  1.00  0.00    -0.200 NA
ATOM      7  H   UNL A   1      35.219  24.701  24.520  1.00  0.00     0.142 HD
BRANCH   6   8
ATOM      8  S   UNL A   1      33.163  24.087  24.001  1.00  0.00     0.241 S 
ATOM      9  O   UNL A   1      32.327  23.372  24.937  1.00  0.00    -0.207 OA
ATOM     10  O   UNL A   1      33.040  23.887  22.576  1.00  0.00    -0.207 OA
BRANCH   8  11
ATOM     11  C   UNL A   1      32.915  25.817  24.295  1.00  0.00     0.083 A 
ATOM     12  N   UNL A   1      30.140  29.753  23.639  1.00  0.00    -0.275 N 
ATOM     13  C   UNL A   1      30.720  30.403  24.732  1.00  0.00     0.261 C 
ATOM     14  C   UNL A   1      30.541  28.504  23.165  1.00  0.00     0.261 C 
ATOM     15  O   UNL A   1      30.405  31.529  25.110  1.00  0.00    -0.269 OA
ATOM     16  C   UNL A   1      31.803  29.688  25.450  1.00  0.00     0.049 A 
ATOM     17  C   UNL A   1      31.570  27.784  23.946  1.00  0.00     0.050 A 
ATOM     18  O   UNL A   1      30.115  27.988  22.135  1.00  0.00    -0.269 OA
ATOM     19  C   UNL A   1      32.413  30.284  26.562  1.00  0.00     0.014 A 
ATOM     20  C   UNL A   1      32.197  28.418  25.022  1.00  0.00     0.007 A 
ATOM     21  C   UNL A   1      31.895  26.469  23.603  1.00  0.00     0.036 A 
ATOM     22  C   UNL A   1      33.430  29.621  27.243  1.00  0.00     0.001 A 
ATOM     23  C   UNL A   1      33.247  27.754  25.704  1.00  0.00    -0.015 A 
ATOM     24  C   UNL A   1      33.853  28.365  26.809  1.00  0.00     0.009 A 
ATOM     25  C   UNL A   1      33.639  26.476  25.290  1.00  0.00     0.030 A 
BRANCH  12  26
ATOM     26  C   UNL A   1      29.139  30.481  22.860  1.00  0.00     0.126 C 
ATOM     27  C   UNL A   1      27.702  30.074  23.166  1.00  0.00     0.028 C 
ENDBRANCH  12  26
ENDBRANCH   8  11
ENDBRANCH   6   8
ENDBRANCH   5   6
ENDBRANCH   3   5
ENDBRANCH   2   3
ENDBRANCH   1   2
BRANCH   1  28
ATOM     28  C   UNL A   1      39.700  22.471  26.684  1.00  0.00     0.275 C 
BRANCH  28  29
ATOM     29  O   UNL A   1      39.564  23.903  26.808  1.00  0.00    -0.458 OA
BRANCH  29  30
ATOM     30  C   UNL A   1      40.713  24.613  26.741  1.00  0.00     0.338 C 
ATOM     31  O   UNL A   1      41.542  24.591  25.842  1.00  0.00    -0.246 OA
BRANCH  30  32
ATOM     32  C   UNL A   1      40.776  25.605  27.828  1.00  0.00     0.060 A 
ATOM     33  C   UNL A   1      39.667  25.707  28.674  1.00  0.00     0.016 A 
ATOM     34  C   UNL A   1      41.863  26.468  27.978  1.00  0.00     0.016 A 
ATOM     35  C   UNL A   1      39.633  26.676  29.670  1.00  0.00     0.010 A 
ATOM     36  C   UNL A   1      41.828  27.441  28.985  1.00  0.00     0.010 A 
ATOM     37  C   UNL A   1      40.710  27.555  29.830  1.00  0.00    -0.014 A 
BRANCH  37  38
ATOM     38  C   UNL A   1      40.633  28.614  30.864  1.00  0.00     0.031 A 
ATOM     39  C   UNL A   1      41.554  28.569  32.050  1.00  0.00     0.074 A 
ATOM     40  C   UNL A   1      39.758  29.626  30.717  1.00  0.00     0.049 A 
ATOM     41  N   UNL A   1      41.596  29.358  33.091  1.00  0.00    -0.248 NA
ATOM     42  C   UNL A   1      42.558  27.493  32.068  1.00  0.00     0.031 C 
ATOM     43  C   UNL A   1      38.843  29.790  29.585  1.00  0.00     0.029 A 
ATOM     44  N   UNL A   1      39.489  30.704  31.521  1.00  0.00    -0.354 N 
ATOM     45  C   UNL A   1      42.610  28.862  33.902  1.00  0.00     0.074 A 
ATOM     46  C   UNL A   1      43.152  27.698  33.236  1.00  0.00     0.031 C 
ATOM     47  C   UNL A   1      38.110  30.899  29.770  1.00  0.00     0.029 A 
ATOM     48  C   UNL A   1      38.467  31.497  31.055  1.00  0.00     0.049 A 
ATOM     49  H   UNL A   1      39.981  30.892  32.353  1.00  0.00     0.167 HD
ATOM     50  C   UNL A   1      43.043  29.339  35.094  1.00  0.00     0.037 A 
ATOM     51  C   UNL A   1      37.862  32.562  31.615  1.00  0.00     0.037 A 
ATOM     52  C   UNL A   1      42.509  30.514  35.733  1.00  0.00     0.049 A 
ATOM     53  C   UNL A   1      38.340  33.049  32.956  1.00  0.00     0.074 A 
ATOM     54  C   UNL A   1      42.901  31.096  36.926  1.00  0.00     0.029 A 
ATOM     55  N   UNL A   1      41.467  31.284  35.237  1.00  0.00    -0.354 N 
ATOM     56  N   UNL A   1      39.307  32.577  33.707  1.00  0.00    -0.248 NA
ATOM     57  C   UNL A   1      37.647  34.211  33.529  1.00  0.00     0.031 C 
ATOM     58  C   UNL A   1      42.065  32.190  37.175  1.00  0.00     0.029 A 
ATOM     59  C   UNL A   1      41.187  32.321  36.111  1.00  0.00     0.049 A 
ATOM     60  H   UNL A   1      40.997  31.117  34.388  1.00  0.00     0.167 HD
ATOM     61  C   UNL A   1      39.350  33.394  34.831  1.00  0.00     0.074 A 
ATOM     62  C   UNL A   1      38.322  34.400  34.655  1.00  0.00     0.031 C 
ATOM     63  C   UNL A   1      40.163  33.318  35.913  1.00  0.00     0.037 A 
BRANCH  50  64
ATOM     64  C   UNL A   1      44.125  28.574  35.806  1.00  0.00     0.058 A 
ATOM     65  C   UNL A   1      45.485  28.863  35.622  1.00  0.00     0.135 A 
ATOM     66  C   UNL A   1      43.787  27.571  36.729  1.00  0.00     0.135 A 
ATOM     67  F   UNL A   1      45.864  29.800  34.739  1.00  0.00    -0.206 F 
ATOM     68  C   UNL A   1      46.474  28.173  36.317  1.00  0.00     0.059 A 
ATOM     69  C   UNL A   1      44.758  26.884  37.452  1.00  0.00     0.059 A 
ATOM     70  F   UNL A   1      42.500  27.252  36.940  1.00  0.00    -0.206 F 
ATOM     71  C   UNL A   1      46.101  27.187  37.231  1.00  0.00     0.060 A 
BRANCH  71  72
ATOM     72  S   UNL A   1      47.394  26.314  38.140  1.00  0.00     0.124 S 
ATOM     73  O   UNL A   1      47.062  24.922  37.855  1.00  0.00    -0.237 OA
ATOM     74  O   UNL A   1      48.611  26.816  37.511  1.00  0.00    -0.237 OA
ATOM     75  O   UNL A   1      47.185  26.739  39.521  1.00  0.00    -0.744 OA
ENDBRANCH  71  72
ENDBRANCH  50  64
BRANCH  51  76
ATOM     76  C   UNL A   1      36.715  33.212  30.928  1.00  0.00     0.058 A 
ATOM     77  C   UNL A   1      35.393  32.986  31.338  1.00  0.00     0.135 A 
ATOM     78  C   UNL A   1      36.922  34.078  29.841  1.00  0.00     0.135 A 
ATOM     79  F   UNL A   1      35.142  32.161  32.365  1.00  0.00    -0.206 F 
ATOM     80  C   UNL A   1      34.317  33.581  30.687  1.00  0.00     0.059 A 
ATOM     81  C   UNL A   1      35.864  34.707  29.193  1.00  0.00     0.059 A 
ATOM     82  F   UNL A   1      38.169  34.338  29.416  1.00  0.00    -0.206 F 
ATOM     83  C   UNL A   1      34.563  34.443  29.617  1.00  0.00     0.060 A 
BRANCH  83  84
ATOM     84  S   UNL A   1      33.164  35.244  28.804  1.00  0.00     0.124 S 
ATOM     85  O   UNL A   1      32.342  35.628  29.946  1.00  0.00    -0.237 OA
ATOM     86  O   UNL A   1      33.811  36.338  28.086  1.00  0.00    -0.237 OA
ATOM     87  O   UNL A   1      32.617  34.188  27.958  1.00  0.00    -0.744 OA
ENDBRANCH  83  84
ENDBRANCH  51  76
BRANCH  63  88
ATOM     88  C   UNL A   1      40.000  34.369  36.976  1.00  0.00     0.058 A 
ATOM     89  C   UNL A   1      40.744  35.558  36.955  1.00  0.00     0.135 A 
ATOM     90  C   UNL A   1      39.049  34.205  37.995  1.00  0.00     0.135 A 
ATOM     91  F   UNL A   1      41.672  35.761  36.005  1.00  0.00    -0.206 F 
ATOM     92  C   UNL A   1      40.566  36.542  37.923  1.00  0.00     0.059 A 
ATOM     93  C   UNL A   1      38.835  35.187  38.957  1.00  0.00     0.059 A 
ATOM     94  F   UNL A   1      38.305  33.089  38.053  1.00  0.00    -0.206 F 
ATOM     95  C   UNL A   1      39.607  36.347  38.920  1.00  0.00     0.060 A 
BRANCH  95  96
ATOM     96  S   UNL A   1      39.359  37.645  40.149  1.00  0.00     0.124 S 
ATOM     97  O   UNL A   1      39.072  36.863  41.347  1.00  0.00    -0.237 OA
ATOM     98  O   UNL A   1      40.645  38.338  40.138  1.00  0.00    -0.237 OA
ATOM     99  O   UNL A   1      38.237  38.410  39.615  1.00  0.00    -0.744 OA
ENDBRANCH  95  96
ENDBRANCH  63  88
ENDBRANCH  37  38
ENDBRANCH  30  32
ENDBRANCH  29  30
ENDBRANCH  28  29
ENDBRANCH   1  28
TORSDOF 18
ENDMDL
MODEL 3
REMARK VINA RESULT:     -10.3      5.241     11.485
REMARK SMILES CCN1C(=O)c2cccc3cc(S(=O)(=O)NCC(=O)OCCOC(=O)c4ccc(-c5c6nc(c(-c7c(F)cc(S(=O)(=O)[O-])cc7F)c7ccc([nH]7)c(-c7c(F)cc(S(=O)(=O)[O-])cc7F)c7nc(c(-c8c(F)cc(S(=O)(=O)[O-])cc8F)c8ccc5[nH]8)C=C7)C=C6)cc4)cc(c23)C1=O
REMARK SMILES IDX 21 1 20 2 18 3 19 4 17 5 16 6 13 8 14 9 15 10 12 11 3 12
REMARK SMILES IDX 4 13 95 14 5 15 6 16 93 17 96 18 7 19 94 20 92 21 8 22 10 23
REMARK SMILES IDX 9 24 11 25 2 26 1 27 22 28 23 29 24 30 25 31 26 32 27 33
REMARK SMILES IDX 91 34 28 35 90 36 29 37 30 38 31 39 84 40 32 41 89 42 83 43
REMARK SMILES IDX 85 44 33 45 88 46 82 47 81 48 34 50 68 51 47 52 67 53 48 54
REMARK SMILES IDX 51 55 66 56 86 57 49 58 50 59 65 61 87 62 52 63 35 64 36 65
REMARK SMILES IDX 45 66 37 67 38 68 44 69 46 70 39 71 40 72 41 73 42 74 43 75
REMARK SMILES IDX 69 76 70 77 79 78 71 79 72 80 78 81 80 82 73 83 74 84 75 85
REMARK SMILES IDX 76 86 77 87 53 88 54 89 63 90 55 91 56 92 62 93 64 94 57 95
REMARK SMILES IDX 58 96 59 97 60 98 61 99
REMARK H PARENT 16 7 85 49 51 60
REMARK Flexibility Score: inf
ROOT
ATOM      1  C   UNL A   1      35.823  20.887  25.345  1.00  0.00     0.274 C 
ENDROOT
BRANCH   1   2
ATOM      2  O   UNL A   1      34.569  21.457  25.747  1.00  0.00    -0.461 OA
BRANCH   2   3
ATOM      3  C   UNL A   1      33.459  20.744  25.454  1.00  0.00     0.321 C 
ATOM      4  O   UNL A   1      33.366  19.526  25.529  1.00  0.00    -0.251 OA
BRANCH   3   5
ATOM      5  C   UNL A   1      32.335  21.628  24.999  1.00  0.00     0.221 C 
BRANCH   5   6
ATOM      6  N   UNL A   1      31.146  21.796  25.873  1.00  0.00    -0.200 NA
ATOM      7  H   UNL A   1      30.350  21.945  25.254  1.00  0.00     0.142 HD
BRANCH   6   8
ATOM      8  S   UNL A   1      31.093  23.022  27.033  1.00  0.00     0.241 S 
ATOM      9  O   UNL A   1      32.229  22.848  27.908  1.00  0.00    -0.207 OA
ATOM     10  O   UNL A   1      29.745  23.074  27.550  1.00  0.00    -0.207 OA
BRANCH   8  11
ATOM     11  C   UNL A   1      31.351  24.527  26.135  1.00  0.00     0.083 A 
ATOM     12  N   UNL A   1      29.442  28.122  23.478  1.00  0.00    -0.275 N 
ATOM     13  C   UNL A   1      30.525  28.963  23.749  1.00  0.00     0.261 C 
ATOM     14  C   UNL A   1      29.352  26.796  23.901  1.00  0.00     0.261 C 
ATOM     15  O   UNL A   1      30.629  30.111  23.325  1.00  0.00    -0.269 OA
ATOM     16  C   UNL A   1      31.624  28.407  24.576  1.00  0.00     0.049 A 
ATOM     17  C   UNL A   1      30.426  26.295  24.785  1.00  0.00     0.050 A 
ATOM     18  O   UNL A   1      28.460  26.023  23.561  1.00  0.00    -0.269 OA
ATOM     19  C   UNL A   1      32.730  29.208  24.892  1.00  0.00     0.014 A 
ATOM     20  C   UNL A   1      31.542  27.095  25.046  1.00  0.00     0.007 A 
ATOM     21  C   UNL A   1      30.305  25.027  25.358  1.00  0.00     0.036 A 
ATOM     22  C   UNL A   1      33.767  28.696  25.668  1.00  0.00     0.001 A 
ATOM     23  C   UNL A   1      32.608  26.569  25.818  1.00  0.00    -0.015 A 
ATOM     24  C   UNL A   1      33.711  27.378  26.120  1.00  0.00     0.009 A 
ATOM     25  C   UNL A   1      32.527  25.260  26.305  1.00  0.00     0.030 A 
BRANCH  12  26
ATOM     26  C   UNL A   1      28.395  28.618  22.585  1.00  0.00     0.126 C 
ATOM     27  C   UNL A   1      27.277  29.368  23.300  1.00  0.00     0.028 C 
ENDBRANCH  12  26
ENDBRANCH   8  11
ENDBRANCH   6   8
ENDBRANCH   5   6
ENDBRANCH   3   5
ENDBRANCH   2   3
ENDBRANCH   1   2
BRANCH   1  28
ATOM     28  C   UNL A   1      36.750  21.970  24.785  1.00  0.00     0.275 C 
BRANCH  28  29
ATOM     29  O   UNL A   1      37.219  22.873  25.808  1.00  0.00    -0.458 OA
BRANCH  29  30
ATOM     30  C   UNL A   1      38.513  22.726  26.177  1.00  0.00     0.338 C 
ATOM     31  O   UNL A   1      39.233  21.759  25.971  1.00  0.00    -0.246 OA
BRANCH  30  32
ATOM     32  C   UNL A   1      39.047  23.988  26.716  1.00  0.00     0.060 A 
ATOM     33  C   UNL A   1      39.782  24.801  25.846  1.00  0.00     0.016 A 
ATOM     34  C   UNL A   1      38.898  24.342  28.058  1.00  0.00     0.016 A 
ATOM     35  C   UNL A   1      40.379  25.966  26.313  1.00  0.00     0.010 A 
ATOM     36  C   UNL A   1      39.496  25.518  28.525  1.00  0.00     0.010 A 
ATOM     37  C   UNL A   1      40.247  26.331  27.657  1.00  0.00    -0.014 A 
BRANCH  37  38
ATOM     38  C   UNL A   1      40.933  27.550  28.148  1.00  0.00     0.031 A 
ATOM     39  C   UNL A   1      42.432  27.633  28.106  1.00  0.00     0.074 A 
ATOM     40  C   UNL A   1      40.204  28.588  28.600  1.00  0.00     0.049 A 
ATOM     41  N   UNL A   1      43.218  28.579  28.548  1.00  0.00    -0.248 NA
ATOM     42  C   UNL A   1      43.140  26.501  27.486  1.00  0.00     0.031 C 
ATOM     43  C   UNL A   1      38.741  28.631  28.650  1.00  0.00     0.029 A 
ATOM     44  N   UNL A   1      40.590  29.802  29.107  1.00  0.00    -0.354 N 
ATOM     45  C   UNL A   1      44.514  28.148  28.287  1.00  0.00     0.074 A 
ATOM     46  C   UNL A   1      44.408  26.851  27.654  1.00  0.00     0.031 C 
ATOM     47  C   UNL A   1      38.354  29.809  29.165  1.00  0.00     0.029 A 
ATOM     48  C   UNL A   1      39.539  30.582  29.528  1.00  0.00     0.049 A 
ATOM     49  H   UNL A   1      41.531  30.088  29.166  1.00  0.00     0.167 HD
ATOM     50  C   UNL A   1      45.681  28.782  28.554  1.00  0.00     0.037 A 
ATOM     51  C   UNL A   1      39.532  31.770  30.165  1.00  0.00     0.037 A 
ATOM     52  C   UNL A   1      45.769  30.084  29.163  1.00  0.00     0.049 A 
ATOM     53  C   UNL A   1      40.844  32.435  30.480  1.00  0.00     0.074 A 
ATOM     54  C   UNL A   1      46.903  30.825  29.446  1.00  0.00     0.029 A 
ATOM     55  N   UNL A   1      44.684  30.839  29.585  1.00  0.00    -0.354 N 
ATOM     56  N   UNL A   1      42.061  32.021  30.218  1.00  0.00    -0.248 NA
ATOM     57  C   UNL A   1      40.785  33.725  31.180  1.00  0.00     0.031 C 
ATOM     58  C   UNL A   1      46.507  32.006  30.082  1.00  0.00     0.029 A 
ATOM     59  C   UNL A   1      45.123  32.026  30.148  1.00  0.00     0.049 A 
ATOM     60  H   UNL A   1      43.741  30.570  29.496  1.00  0.00     0.167 HD
ATOM     61  C   UNL A   1      42.912  33.008  30.703  1.00  0.00     0.074 A 
ATOM     62  C   UNL A   1      42.069  34.047  31.262  1.00  0.00     0.031 C 
ATOM     63  C   UNL A   1      44.266  33.051  30.691  1.00  0.00     0.037 A 
BRANCH  50  64
ATOM     64  C   UNL A   1      46.961  28.065  28.224  1.00  0.00     0.058 A 
ATOM     65  C   UNL A   1      47.592  27.209  29.139  1.00  0.00     0.135 A 
ATOM     66  C   UNL A   1      47.535  28.200  26.949  1.00  0.00     0.135 A 
ATOM     67  F   UNL A   1      47.096  27.058  30.377  1.00  0.00    -0.206 F 
ATOM     68  C   UNL A   1      48.756  26.522  28.806  1.00  0.00     0.059 A 
ATOM     69  C   UNL A   1      48.685  27.505  26.587  1.00  0.00     0.059 A 
ATOM     70  F   UNL A   1      46.973  29.010  26.038  1.00  0.00    -0.206 F 
ATOM     71  C   UNL A   1      49.294  26.675  27.527  1.00  0.00     0.060 A 
BRANCH  71  72
ATOM     72  S   UNL A   1      50.793  25.761  27.103  1.00  0.00     0.124 S 
ATOM     73  O   UNL A   1      51.788  26.436  27.931  1.00  0.00    -0.237 OA
ATOM     74  O   UNL A   1      50.454  24.400  27.504  1.00  0.00    -0.237 OA
ATOM     75  O   UNL A   1      50.926  25.973  25.665  1.00  0.00    -0.744 OA
ENDBRANCH  71  72
ENDBRANCH  50  64
BRANCH  51  76
ATOM     76  C   UNL A   1      38.242  32.382  30.579  1.00  0.00     0.058 A 
ATOM     77  C   UNL A   1      37.665  32.099  31.825  1.00  0.00     0.135 A 
ATOM     78  C   UNL A   1      37.560  33.269  29.731  1.00  0.00     0.135 A 
ATOM     79  F   UNL A   1      38.273  31.251  32.668  1.00  0.00    -0.206 F 
ATOM     80  C   UNL A   1      36.451  32.659  32.210  1.00  0.00     0.059 A 
ATOM     81  C   UNL A   1      36.359  33.864  30.105  1.00  0.00     0.059 A 
ATOM     82  F   UNL A   1      38.075  33.585  28.532  1.00  0.00    -0.206 F 
ATOM     83  C   UNL A   1      35.807  33.543  31.343  1.00  0.00     0.060 A 
BRANCH  83  84
ATOM     84  S   UNL A   1      34.253  34.299  31.867  1.00  0.00     0.124 S 
ATOM     85  O   UNL A   1      33.718  33.281  32.764  1.00  0.00    -0.237 OA
ATOM     86  O   UNL A   1      34.709  35.533  32.500  1.00  0.00    -0.237 OA
ATOM     87  O   UNL A   1      33.528  34.481  30.613  1.00  0.00    -0.744 OA
ENDBRANCH  83  84
ENDBRANCH  51  76
BRANCH  63  88
ATOM     88  C   UNL A   1      44.925  34.274  31.268  1.00  0.00     0.058 A 
ATOM     89  C   UNL A   1      45.177  35.412  30.488  1.00  0.00     0.135 A 
ATOM     90  C   UNL A   1      45.257  34.324  32.631  1.00  0.00     0.135 A 
ATOM     91  F   UNL A   1      44.884  35.412  29.177  1.00  0.00    -0.206 F 
ATOM     92  C   UNL A   1      45.757  36.552  31.034  1.00  0.00     0.059 A 
ATOM     93  C   UNL A   1      45.813  35.463  33.205  1.00  0.00     0.059 A 
ATOM     94  F   UNL A   1      45.027  33.264  33.423  1.00  0.00    -0.206 F 
ATOM     95  C   UNL A   1      46.069  36.568  32.395  1.00  0.00     0.060 A 
BRANCH  95  96
ATOM     96  S   UNL A   1      46.788  38.066  33.102  1.00  0.00     0.124 S 
ATOM     97  O   UNL A   1      45.779  38.439  34.088  1.00  0.00    -0.237 OA
ATOM     98  O   UNL A   1      48.054  37.581  33.644  1.00  0.00    -0.237 OA
ATOM     99  O   UNL A   1      46.906  38.961  31.955  1.00  0.00    -0.744 OA
ENDBRANCH  95  96
ENDBRANCH  63  88
ENDBRANCH  37  38
ENDBRANCH  30  32
ENDBRANCH  29  30
ENDBRANCH  28  29
ENDBRANCH   1  28
TORSDOF 18
ENDMDL
