MODEL 1
REMARK VINA RESULT:     -11.6      0.000      0.000
REMARK SMILES O=C1CN(S(=O)(=O)c2ccc(CC(=O)OCCOC(=O)c3ccc(-c4c5nc(c(-c6c(F)cc(S(=O)(=O)[O-])cc6F)c6ccc([nH]6)c(-c6c(F)cc(S(=O)(=O)[O-])cc6F)c6nc(c(-c7c(F)cc(S(=O)(=O)[O-])cc7F)c7ccc4[nH]7)C=C6)C=C5)cc3)cc2)CCN1
REMARK SMILES IDX 16 1 15 2 13 3 14 4 12 5 11 6 8 7 9 8 88 9 10 10 87 11 5 12
REMARK SMILES IDX 6 13 7 14 4 15 1 16 2 17 3 18 91 19 90 20 89 22 17 23 18 24
REMARK SMILES IDX 19 25 20 26 21 27 22 28 86 29 23 30 85 31 24 32 25 33 26 34
REMARK SMILES IDX 79 35 27 36 84 37 78 38 80 39 28 40 83 41 77 42 76 43 29 45
REMARK SMILES IDX 63 46 42 47 62 48 43 49 46 50 61 51 81 52 44 53 45 54 60 56
REMARK SMILES IDX 82 57 47 58 30 59 31 60 40 61 32 62 33 63 39 64 41 65 34 66
REMARK SMILES IDX 35 67 36 68 37 69 38 70 64 71 65 72 74 73 66 74 67 75 73 76
REMARK SMILES IDX 75 77 68 78 69 79 70 80 71 81 72 82 48 83 49 84 58 85 50 86
REMARK SMILES IDX 51 87 57 88 59 89 52 90 53 91 54 92 55 93 56 94
REMARK H PARENT 91 21 80 44 46 55
REMARK Flexibility Score: inf
ROOT
ATOM      1  C   UNL A   1      38.556  21.603  25.638  1.00  0.00     0.274 C 
ENDROOT
BRANCH   1   2
ATOM      2  O   UNL A   1      37.641  22.576  25.097  1.00  0.00    -0.462 OA
BRANCH   2   3
ATOM      3  C   UNL A   1      36.324  22.359  25.348  1.00  0.00     0.310 C 
ATOM      4  O   UNL A   1      35.690  21.395  24.928  1.00  0.00    -0.252 OA
BRANCH   3   5
ATOM      5  C   UNL A   1      35.657  23.450  26.156  1.00  0.00     0.158 C 
BRANCH   5   6
ATOM      6  C   UNL A   1      34.553  24.230  25.484  1.00  0.00    -0.037 A 
ATOM      7  C   UNL A   1      32.463  25.640  24.262  1.00  0.00     0.082 A 
ATOM      8  C   UNL A   1      33.637  25.395  23.549  1.00  0.00     0.022 A 
ATOM      9  C   UNL A   1      32.323  25.170  25.573  1.00  0.00     0.022 A 
ATOM     10  C   UNL A   1      34.679  24.692  24.163  1.00  0.00     0.006 A 
ATOM     11  C   UNL A   1      33.370  24.486  26.185  1.00  0.00     0.006 A 
BRANCH   7  12
ATOM     12  S   UNL A   1      31.052  26.355  23.458  1.00  0.00     0.243 S 
ATOM     13  O   UNL A   1      29.904  25.548  23.828  1.00  0.00    -0.207 OA
ATOM     14  O   UNL A   1      31.371  26.562  22.064  1.00  0.00    -0.207 OA
BRANCH  12  15
ATOM     15  N   UNL A   1      30.860  27.909  24.155  1.00  0.00    -0.187 NA
ATOM     16  O   UNL A   1      29.449  29.680  21.313  1.00  0.00    -0.274 OA
ATOM     17  C   UNL A   1      30.264  29.361  22.176  1.00  0.00     0.235 C 
ATOM     18  C   UNL A   1      29.846  28.800  23.528  1.00  0.00     0.202 C 
ATOM     19  N   UNL A   1      31.602  29.612  21.995  1.00  0.00    -0.354 N 
ATOM     20  C   UNL A   1      32.650  29.098  22.865  1.00  0.00     0.132 C 
ATOM     21  H   UNL A   1      31.868  30.173  21.230  1.00  0.00     0.163 HD
ATOM     22  C   UNL A   1      32.154  28.668  24.255  1.00  0.00     0.124 C 
ENDBRANCH  12  15
ENDBRANCH   7  12
ENDBRANCH   5   6
ENDBRANCH   3   5
ENDBRANCH   2   3
ENDBRANCH   1   2
BRANCH   1  23
ATOM     23  C   UNL A   1      39.534  22.234  26.628  1.00  0.00     0.275 C 
BRANCH  23  24
ATOM     24  O   UNL A   1      39.455  23.669  26.587  1.00  0.00    -0.458 OA
BRANCH  24  25
ATOM     25  C   UNL A   1      40.641  24.306  26.703  1.00  0.00     0.338 C 
ATOM     26  O   UNL A   1      41.697  24.022  26.165  1.00  0.00    -0.246 OA
BRANCH  25  27
ATOM     27  C   UNL A   1      40.495  25.482  27.569  1.00  0.00     0.060 A 
ATOM     28  C   UNL A   1      41.445  26.502  27.503  1.00  0.00     0.016 A 
ATOM     29  C   UNL A   1      39.504  25.496  28.549  1.00  0.00     0.016 A 
ATOM     30  C   UNL A   1      41.441  27.520  28.451  1.00  0.00     0.010 A 
ATOM     31  C   UNL A   1      39.469  26.547  29.466  1.00  0.00     0.010 A 
ATOM     32  C   UNL A   1      40.452  27.554  29.442  1.00  0.00    -0.014 A 
BRANCH  32  33
ATOM     33  C   UNL A   1      40.454  28.615  30.480  1.00  0.00     0.031 A 
ATOM     34  C   UNL A   1      41.402  28.518  31.644  1.00  0.00     0.074 A 
ATOM     35  C   UNL A   1      39.594  29.647  30.386  1.00  0.00     0.049 A 
ATOM     36  N   UNL A   1      41.445  29.234  32.737  1.00  0.00    -0.248 NA
ATOM     37  C   UNL A   1      42.432  27.468  31.571  1.00  0.00     0.031 C 
ATOM     38  C   UNL A   1      38.663  29.876  29.279  1.00  0.00     0.029 A 
ATOM     39  N   UNL A   1      39.352  30.689  31.245  1.00  0.00    -0.354 N 
ATOM     40  C   UNL A   1      42.485  28.708  33.495  1.00  0.00     0.074 A 
ATOM     41  C   UNL A   1      43.034  27.598  32.746  1.00  0.00     0.031 C 
ATOM     42  C   UNL A   1      37.950  30.986  29.529  1.00  0.00     0.029 A 
ATOM     43  C   UNL A   1      38.326  31.508  30.838  1.00  0.00     0.049 A 
ATOM     44  H   UNL A   1      39.865  30.836  32.073  1.00  0.00     0.167 HD
ATOM     45  C   UNL A   1      42.942  29.121  34.703  1.00  0.00     0.037 A 
ATOM     46  C   UNL A   1      37.726  32.536  31.469  1.00  0.00     0.037 A 
ATOM     47  C   UNL A   1      42.393  30.237  35.430  1.00  0.00     0.049 A 
ATOM     48  C   UNL A   1      38.200  32.927  32.843  1.00  0.00     0.074 A 
ATOM     49  C   UNL A   1      42.780  30.736  36.662  1.00  0.00     0.029 A 
ATOM     50  N   UNL A   1      41.344  31.032  34.990  1.00  0.00    -0.354 N 
ATOM     51  N   UNL A   1      39.170  32.408  33.559  1.00  0.00    -0.248 NA
ATOM     52  C   UNL A   1      37.497  34.037  33.497  1.00  0.00     0.031 C 
ATOM     53  C   UNL A   1      41.938  31.804  36.986  1.00  0.00     0.029 A 
ATOM     54  C   UNL A   1      41.062  32.008  35.931  1.00  0.00     0.049 A 
ATOM     55  H   UNL A   1      40.871  30.918  34.134  1.00  0.00     0.167 HD
ATOM     56  C   UNL A   1      39.216  33.155  34.732  1.00  0.00     0.074 A 
ATOM     57  C   UNL A   1      38.181  34.162  34.626  1.00  0.00     0.031 C 
ATOM     58  C   UNL A   1      40.042  33.020  35.798  1.00  0.00     0.037 A 
BRANCH  45  59
ATOM     59  C   UNL A   1      44.076  28.351  35.324  1.00  0.00     0.058 A 
ATOM     60  C   UNL A   1      43.852  27.240  36.151  1.00  0.00     0.135 A 
ATOM     61  C   UNL A   1      45.410  28.704  35.052  1.00  0.00     0.135 A 
ATOM     62  F   UNL A   1      42.599  26.868  36.459  1.00  0.00    -0.206 F 
ATOM     63  C   UNL A   1      44.907  26.519  36.705  1.00  0.00     0.059 A 
ATOM     64  C   UNL A   1      46.480  27.980  35.571  1.00  0.00     0.059 A 
ATOM     65  F   UNL A   1      45.682  29.758  34.268  1.00  0.00    -0.206 F 
ATOM     66  C   UNL A   1      46.217  26.896  36.408  1.00  0.00     0.060 A 
BRANCH  66  67
ATOM     67  S   UNL A   1      47.572  25.944  37.125  1.00  0.00     0.124 S 
ATOM     68  O   UNL A   1      46.917  24.670  37.406  1.00  0.00    -0.237 OA
ATOM     69  O   UNL A   1      48.548  25.926  36.039  1.00  0.00    -0.237 OA
ATOM     70  O   UNL A   1      47.957  26.723  38.297  1.00  0.00    -0.744 OA
ENDBRANCH  66  67
ENDBRANCH  45  59
BRANCH  46  71
ATOM     71  C   UNL A   1      36.596  33.255  30.820  1.00  0.00     0.058 A 
ATOM     72  C   UNL A   1      35.276  33.061  31.253  1.00  0.00     0.135 A 
ATOM     73  C   UNL A   1      36.809  34.139  29.751  1.00  0.00     0.135 A 
ATOM     74  F   UNL A   1      35.020  32.219  32.266  1.00  0.00    -0.206 F 
ATOM     75  C   UNL A   1      34.206  33.699  30.636  1.00  0.00     0.059 A 
ATOM     76  C   UNL A   1      35.758  34.813  29.138  1.00  0.00     0.059 A 
ATOM     77  F   UNL A   1      38.054  34.372  29.307  1.00  0.00    -0.206 F 
ATOM     78  C   UNL A   1      34.458  34.574  29.577  1.00  0.00     0.060 A 
BRANCH  78  79
ATOM     79  S   UNL A   1      33.062  35.415  28.800  1.00  0.00     0.124 S 
ATOM     80  O   UNL A   1      32.313  35.876  29.963  1.00  0.00    -0.237 OA
ATOM     81  O   UNL A   1      33.726  36.451  28.015  1.00  0.00    -0.237 OA
ATOM     82  O   UNL A   1      32.426  34.357  28.019  1.00  0.00    -0.744 OA
ENDBRANCH  78  79
ENDBRANCH  46  71
BRANCH  58  83
ATOM     83  C   UNL A   1      39.909  34.024  36.911  1.00  0.00     0.058 A 
ATOM     84  C   UNL A   1      40.612  35.237  36.904  1.00  0.00     0.135 A 
ATOM     85  C   UNL A   1      39.019  33.787  37.971  1.00  0.00     0.135 A 
ATOM     86  F   UNL A   1      41.483  35.510  35.918  1.00  0.00    -0.206 F 
ATOM     87  C   UNL A   1      40.453  36.173  37.921  1.00  0.00     0.059 A 
ATOM     88  C   UNL A   1      38.822  34.721  38.982  1.00  0.00     0.059 A 
ATOM     89  F   UNL A   1      38.315  32.644  38.021  1.00  0.00    -0.206 F 
ATOM     90  C   UNL A   1      39.551  35.908  38.953  1.00  0.00     0.060 A 
BRANCH  90  91
ATOM     91  S   UNL A   1      39.321  37.151  40.243  1.00  0.00     0.124 S 
ATOM     92  O   UNL A   1      40.701  37.498  40.568  1.00  0.00    -0.237 OA
ATOM     93  O   UNL A   1      38.554  38.181  39.550  1.00  0.00    -0.237 OA
ATOM     94  O   UNL A   1      38.594  36.431  41.284  1.00  0.00    -0.744 OA
ENDBRANCH  90  91
ENDBRANCH  58  83
ENDBRANCH  32  33
ENDBRANCH  25  27
ENDBRANCH  24  25
ENDBRANCH  23  24
ENDBRANCH   1  23
TORSDOF 17
ENDMDL
MODEL 2
REMARK VINA RESULT:     -11.5      5.011     10.755
REMARK SMILES O=C1CN(S(=O)(=O)c2ccc(CC(=O)OCCOC(=O)c3ccc(-c4c5nc(c(-c6c(F)cc(S(=O)(=O)[O-])cc6F)c6ccc([nH]6)c(-c6c(F)cc(S(=O)(=O)[O-])cc6F)c6nc(c(-c7c(F)cc(S(=O)(=O)[O-])cc7F)c7ccc4[nH]7)C=C6)C=C5)cc3)cc2)CCN1
REMARK SMILES IDX 16 1 15 2 13 3 14 4 12 5 11 6 8 7 9 8 88 9 10 10 87 11 5 12
REMARK SMILES IDX 6 13 7 14 4 15 1 16 2 17 3 18 91 19 90 20 89 22 17 23 18 24
REMARK SMILES IDX 19 25 20 26 21 27 22 28 86 29 23 30 85 31 24 32 25 33 26 34
REMARK SMILES IDX 79 35 27 36 84 37 78 38 80 39 28 40 83 41 77 42 76 43 29 45
REMARK SMILES IDX 63 46 42 47 62 48 43 49 46 50 61 51 81 52 44 53 45 54 60 56
REMARK SMILES IDX 82 57 47 58 30 59 31 60 40 61 32 62 33 63 39 64 41 65 34 66
REMARK SMILES IDX 35 67 36 68 37 69 38 70 64 71 65 72 74 73 66 74 67 75 73 76
REMARK SMILES IDX 75 77 68 78 69 79 70 80 71 81 72 82 48 83 49 84 58 85 50 86
REMARK SMILES IDX 51 87 57 88 59 89 52 90 53 91 54 92 55 93 56 94
REMARK H PARENT 91 21 80 44 46 55
REMARK Flexibility Score: inf
ROOT
ATOM      1  C   UNL A   1      32.401  29.986  25.454  1.00  0.00     0.274 C 
ENDROOT
BRANCH   1   2
ATOM      2  O   UNL A   1      31.055  29.967  24.938  1.00  0.00    -0.462 OA
BRANCH   2   3
ATOM      3  C   UNL A   1      30.817  29.089  23.928  1.00  0.00     0.310 C 
ATOM      4  O   UNL A   1      30.951  29.353  22.736  1.00  0.00    -0.252 OA
BRANCH   3   5
ATOM      5  C   UNL A   1      30.304  27.742  24.385  1.00  0.00     0.158 C 
BRANCH   5   6
ATOM      6  C   UNL A   1      31.331  26.719  24.805  1.00  0.00    -0.037 A 
ATOM      7  C   UNL A   1      33.245  24.804  25.527  1.00  0.00     0.082 A 
ATOM      8  C   UNL A   1      32.123  24.994  26.335  1.00  0.00     0.022 A 
ATOM      9  C   UNL A   1      33.405  25.553  24.355  1.00  0.00     0.022 A 
ATOM     10  C   UNL A   1      31.171  25.953  25.972  1.00  0.00     0.006 A 
ATOM     11  C   UNL A   1      32.463  26.517  24.008  1.00  0.00     0.006 A 
BRANCH   7  12
ATOM     12  S   UNL A   1      34.371  23.472  25.847  1.00  0.00     0.243 S 
ATOM     13  O   UNL A   1      33.747  22.624  26.846  1.00  0.00    -0.207 OA
ATOM     14  O   UNL A   1      35.685  24.025  26.088  1.00  0.00    -0.207 OA
BRANCH  12  15
ATOM     15  N   UNL A   1      34.471  22.587  24.382  1.00  0.00    -0.187 NA
ATOM     16  O   UNL A   1      32.385  19.740  25.250  1.00  0.00    -0.274 OA
ATOM     17  C   UNL A   1      33.399  20.376  24.968  1.00  0.00     0.235 C 
ATOM     18  C   UNL A   1      33.365  21.629  24.106  1.00  0.00     0.202 C 
ATOM     19  N   UNL A   1      34.637  19.905  25.332  1.00  0.00    -0.354 N 
ATOM     20  C   UNL A   1      35.866  20.679  25.217  1.00  0.00     0.132 C 
ATOM     21  H   UNL A   1      34.697  18.991  25.693  1.00  0.00     0.163 HD
ATOM     22  C   UNL A   1      35.774  21.854  24.231  1.00  0.00     0.124 C 
ENDBRANCH  12  15
ENDBRANCH   7  12
ENDBRANCH   5   6
ENDBRANCH   3   5
ENDBRANCH   2   3
ENDBRANCH   1   2
BRANCH   1  23
ATOM     23  C   UNL A   1      32.425  30.219  26.964  1.00  0.00     0.275 C 
BRANCH  23  24
ATOM     24  O   UNL A   1      33.620  29.677  27.551  1.00  0.00    -0.458 OA
BRANCH  24  25
ATOM     25  C   UNL A   1      34.423  30.587  28.146  1.00  0.00     0.338 C 
ATOM     26  O   UNL A   1      34.127  31.705  28.531  1.00  0.00    -0.246 OA
BRANCH  25  27
ATOM     27  C   UNL A   1      35.766  30.025  28.329  1.00  0.00     0.060 A 
ATOM     28  C   UNL A   1      36.174  29.632  29.605  1.00  0.00     0.016 A 
ATOM     29  C   UNL A   1      36.667  30.031  27.265  1.00  0.00     0.016 A 
ATOM     30  C   UNL A   1      37.503  29.292  29.837  1.00  0.00     0.010 A 
ATOM     31  C   UNL A   1      37.986  29.637  27.489  1.00  0.00     0.010 A 
ATOM     32  C   UNL A   1      38.422  29.289  28.781  1.00  0.00    -0.014 A 
BRANCH  32  33
ATOM     33  C   UNL A   1      39.850  28.960  29.019  1.00  0.00     0.031 A 
ATOM     34  C   UNL A   1      40.781  30.017  29.548  1.00  0.00     0.074 A 
ATOM     35  C   UNL A   1      40.309  27.725  28.742  1.00  0.00     0.049 A 
ATOM     36  N   UNL A   1      42.084  29.991  29.659  1.00  0.00    -0.248 NA
ATOM     37  C   UNL A   1      40.163  31.274  30.003  1.00  0.00     0.031 C 
ATOM     38  C   UNL A   1      39.494  26.603  28.273  1.00  0.00     0.029 A 
ATOM     39  N   UNL A   1      41.580  27.211  28.798  1.00  0.00    -0.354 N 
ATOM     40  C   UNL A   1      42.447  31.232  30.170  1.00  0.00     0.074 A 
ATOM     41  C   UNL A   1      41.227  31.997  30.326  1.00  0.00     0.031 C 
ATOM     42  C   UNL A   1      40.285  25.535  28.082  1.00  0.00     0.029 A 
ATOM     43  C   UNL A   1      41.667  25.914  28.351  1.00  0.00     0.049 A 
ATOM     44  H   UNL A   1      42.355  27.722  29.128  1.00  0.00     0.167 HD
ATOM     45  C   UNL A   1      43.684  31.687  30.483  1.00  0.00     0.037 A 
ATOM     46  C   UNL A   1      42.745  25.133  28.139  1.00  0.00     0.037 A 
ATOM     47  C   UNL A   1      44.887  30.908  30.334  1.00  0.00     0.049 A 
ATOM     48  C   UNL A   1      44.115  25.687  28.422  1.00  0.00     0.074 A 
ATOM     49  C   UNL A   1      46.191  31.275  30.619  1.00  0.00     0.029 A 
ATOM     50  N   UNL A   1      44.934  29.604  29.864  1.00  0.00    -0.354 N 
ATOM     51  N   UNL A   1      44.447  26.871  28.884  1.00  0.00    -0.248 NA
ATOM     52  C   UNL A   1      45.257  24.805  28.151  1.00  0.00     0.031 C 
ATOM     53  C   UNL A   1      47.030  30.209  30.281  1.00  0.00     0.029 A 
ATOM     54  C   UNL A   1      46.245  29.156  29.838  1.00  0.00     0.049 A 
ATOM     55  H   UNL A   1      44.151  29.075  29.589  1.00  0.00     0.167 HD
ATOM     56  C   UNL A   1      45.834  26.858  28.993  1.00  0.00     0.074 A 
ATOM     57  C   UNL A   1      46.276  25.552  28.555  1.00  0.00     0.031 C 
ATOM     58  C   UNL A   1      46.665  27.841  29.421  1.00  0.00     0.037 A 
BRANCH  45  59
ATOM     59  C   UNL A   1      43.804  33.096  30.999  1.00  0.00     0.058 A 
ATOM     60  C   UNL A   1      43.889  33.377  32.371  1.00  0.00     0.135 A 
ATOM     61  C   UNL A   1      43.880  34.178  30.105  1.00  0.00     0.135 A 
ATOM     62  F   UNL A   1      43.805  32.385  33.271  1.00  0.00    -0.206 F 
ATOM     63  C   UNL A   1      44.022  34.681  32.841  1.00  0.00     0.059 A 
ATOM     64  C   UNL A   1      44.042  35.487  30.551  1.00  0.00     0.059 A 
ATOM     65  F   UNL A   1      43.803  33.967  28.782  1.00  0.00    -0.206 F 
ATOM     66  C   UNL A   1      44.099  35.729  31.923  1.00  0.00     0.060 A 
BRANCH  66  67
ATOM     67  S   UNL A   1      44.284  37.412  32.549  1.00  0.00     0.124 S 
ATOM     68  O   UNL A   1      43.107  37.537  33.404  1.00  0.00    -0.237 OA
ATOM     69  O   UNL A   1      45.567  37.347  33.243  1.00  0.00    -0.237 OA
ATOM     70  O   UNL A   1      44.269  38.230  31.340  1.00  0.00    -0.744 OA
ENDBRANCH  66  67
ENDBRANCH  45  59
BRANCH  46  71
ATOM     71  C   UNL A   1      42.575  23.753  27.611  1.00  0.00     0.058 A 
ATOM     72  C   UNL A   1      42.483  22.656  28.481  1.00  0.00     0.135 A 
ATOM     73  C   UNL A   1      42.509  23.499  26.232  1.00  0.00     0.135 A 
ATOM     74  F   UNL A   1      42.548  22.845  29.807  1.00  0.00    -0.206 F 
ATOM     75  C   UNL A   1      42.357  21.356  28.003  1.00  0.00     0.059 A 
ATOM     76  C   UNL A   1      42.353  22.212  25.731  1.00  0.00     0.059 A 
ATOM     77  F   UNL A   1      42.577  24.515  25.357  1.00  0.00    -0.206 F 
ATOM     78  C   UNL A   1      42.293  21.144  26.624  1.00  0.00     0.060 A 
BRANCH  78  79
ATOM     79  S   UNL A   1      42.106  19.454  26.017  1.00  0.00     0.124 S 
ATOM     80  O   UNL A   1      40.675  19.399  25.741  1.00  0.00    -0.237 OA
ATOM     81  O   UNL A   1      42.983  19.448  24.850  1.00  0.00    -0.237 OA
ATOM     82  O   UNL A   1      42.564  18.641  27.140  1.00  0.00    -0.744 OA
ENDBRANCH  78  79
ENDBRANCH  46  71
BRANCH  58  83
ATOM     83  C   UNL A   1      48.133  27.522  29.500  1.00  0.00     0.058 A 
ATOM     84  C   UNL A   1      49.025  27.867  28.474  1.00  0.00     0.135 A 
ATOM     85  C   UNL A   1      48.660  26.909  30.648  1.00  0.00     0.135 A 
ATOM     86  F   UNL A   1      48.572  28.447  27.350  1.00  0.00    -0.206 F 
ATOM     87  C   UNL A   1      50.386  27.599  28.575  1.00  0.00     0.059 A 
ATOM     88  C   UNL A   1      50.021  26.658  30.784  1.00  0.00     0.059 A 
ATOM     89  F   UNL A   1      47.851  26.566  31.663  1.00  0.00    -0.206 F 
ATOM     90  C   UNL A   1      50.876  26.998  29.737  1.00  0.00     0.060 A 
BRANCH  90  91
ATOM     91  S   UNL A   1      52.650  26.696  29.874  1.00  0.00     0.124 S 
ATOM     92  O   UNL A   1      52.938  26.048  28.599  1.00  0.00    -0.237 OA
ATOM     93  O   UNL A   1      53.185  28.045  30.034  1.00  0.00    -0.237 OA
ATOM     94  O   UNL A   1      52.760  25.841  31.051  1.00  0.00    -0.744 OA
ENDBRANCH  90  91
ENDBRANCH  58  83
ENDBRANCH  32  33
ENDBRANCH  25  27
ENDBRANCH  24  25
ENDBRANCH  23  24
ENDBRANCH   1  23
TORSDOF 17
ENDMDL
MODEL 3
REMARK VINA RESULT:     -11.5      6.500     11.987
REMARK SMILES O=C1CN(S(=O)(=O)c2ccc(CC(=O)OCCOC(=O)c3ccc(-c4c5nc(c(-c6c(F)cc(S(=O)(=O)[O-])cc6F)c6ccc([nH]6)c(-c6c(F)cc(S(=O)(=O)[O-])cc6F)c6nc(c(-c7c(F)cc(S(=O)(=O)[O-])cc7F)c7ccc4[nH]7)C=C6)C=C5)cc3)cc2)CCN1
REMARK SMILES IDX 16 1 15 2 13 3 14 4 12 5 11 6 8 7 9 8 88 9 10 10 87 11 5 12
REMARK SMILES IDX 6 13 7 14 4 15 1 16 2 17 3 18 91 19 90 20 89 22 17 23 18 24
REMARK SMILES IDX 19 25 20 26 21 27 22 28 86 29 23 30 85 31 24 32 25 33 26 34
REMARK SMILES IDX 79 35 27 36 84 37 78 38 80 39 28 40 83 41 77 42 76 43 29 45
REMARK SMILES IDX 63 46 42 47 62 48 43 49 46 50 61 51 81 52 44 53 45 54 60 56
REMARK SMILES IDX 82 57 47 58 30 59 31 60 40 61 32 62 33 63 39 64 41 65 34 66
REMARK SMILES IDX 35 67 36 68 37 69 38 70 64 71 65 72 74 73 66 74 67 75 73 76
REMARK SMILES IDX 75 77 68 78 69 79 70 80 71 81 72 82 48 83 49 84 58 85 50 86
REMARK SMILES IDX 51 87 57 88 59 89 52 90 53 91 54 92 55 93 56 94
REMARK H PARENT 91 21 80 44 46 55
REMARK Flexibility Score: inf
ROOT
ATOM      1  C   UNL A   1      32.913  29.932  27.100  1.00  0.00     0.274 C 
ENDROOT
BRANCH   1   2
ATOM      2  O   UNL A   1      32.439  30.445  25.839  1.00  0.00    -0.462 OA
BRANCH   2   3
ATOM      3  C   UNL A   1      32.112  29.515  24.903  1.00  0.00     0.310 C 
ATOM      4  O   UNL A   1      30.988  29.041  24.764  1.00  0.00    -0.252 OA
BRANCH   3   5
ATOM      5  C   UNL A   1      33.276  29.049  24.057  1.00  0.00     0.158 C 
BRANCH   5   6
ATOM      6  C   UNL A   1      33.493  27.559  23.944  1.00  0.00    -0.037 A 
ATOM      7  C   UNL A   1      33.938  24.799  23.776  1.00  0.00     0.082 A 
ATOM      8  C   UNL A   1      33.691  25.528  22.612  1.00  0.00     0.022 A 
ATOM      9  C   UNL A   1      33.980  25.444  25.017  1.00  0.00     0.022 A 
ATOM     10  C   UNL A   1      33.468  26.906  22.701  1.00  0.00     0.006 A 
ATOM     11  C   UNL A   1      33.740  26.813  25.101  1.00  0.00     0.006 A 
BRANCH   7  12
ATOM     12  S   UNL A   1      34.416  23.093  23.687  1.00  0.00     0.243 S 
ATOM     13  O   UNL A   1      35.678  23.046  22.971  1.00  0.00    -0.207 OA
ATOM     14  O   UNL A   1      33.288  22.321  23.214  1.00  0.00    -0.207 OA
BRANCH  12  15
ATOM     15  N   UNL A   1      34.702  22.606  25.305  1.00  0.00    -0.187 NA
ATOM     16  O   UNL A   1      37.700  20.610  24.820  1.00  0.00    -0.274 OA
ATOM     17  C   UNL A   1      36.527  20.875  25.076  1.00  0.00     0.235 C 
ATOM     18  C   UNL A   1      36.098  22.218  25.648  1.00  0.00     0.202 C 
ATOM     19  N   UNL A   1      35.556  19.910  24.961  1.00  0.00    -0.354 N 
ATOM     20  C   UNL A   1      34.128  20.179  25.052  1.00  0.00     0.132 C 
ATOM     21  H   UNL A   1      35.843  18.980  24.809  1.00  0.00     0.163 HD
ATOM     22  C   UNL A   1      33.785  21.503  25.754  1.00  0.00     0.124 C 
ENDBRANCH  12  15
ENDBRANCH   7  12
ENDBRANCH   5   6
ENDBRANCH   3   5
ENDBRANCH   2   3
ENDBRANCH   1   2
BRANCH   1  23
ATOM     23  C   UNL A   1      34.106  30.731  27.623  1.00  0.00     0.275 C 
BRANCH  23  24
ATOM     24  O   UNL A   1      35.065  29.869  28.258  1.00  0.00    -0.458 OA
BRANCH  24  25
ATOM     25  C   UNL A   1      35.965  30.502  29.043  1.00  0.00     0.338 C 
ATOM     26  O   UNL A   1      35.768  31.433  29.804  1.00  0.00    -0.246 OA
BRANCH  25  27
ATOM     27  C   UNL A   1      37.282  29.871  28.901  1.00  0.00     0.060 A 
ATOM     28  C   UNL A   1      37.996  29.514  30.046  1.00  0.00     0.016 A 
ATOM     29  C   UNL A   1      37.869  29.777  27.640  1.00  0.00     0.016 A 
ATOM     30  C   UNL A   1      39.323  29.108  29.942  1.00  0.00     0.010 A 
ATOM     31  C   UNL A   1      39.182  29.318  27.533  1.00  0.00     0.010 A 
ATOM     32  C   UNL A   1      39.929  29.005  28.684  1.00  0.00    -0.014 A 
BRANCH  32  33
ATOM     33  C   UNL A   1      41.353  28.605  28.560  1.00  0.00     0.031 A 
ATOM     34  C   UNL A   1      42.434  29.640  28.704  1.00  0.00     0.074 A 
ATOM     35  C   UNL A   1      41.669  27.322  28.297  1.00  0.00     0.049 A 
ATOM     36  N   UNL A   1      43.715  29.539  28.459  1.00  0.00    -0.248 NA
ATOM     37  C   UNL A   1      42.016  30.970  29.177  1.00  0.00     0.031 C 
ATOM     38  C   UNL A   1      40.712  26.219  28.186  1.00  0.00     0.029 A 
ATOM     39  N   UNL A   1      42.885  26.732  28.060  1.00  0.00    -0.354 N 
ATOM     40  C   UNL A   1      44.253  30.793  28.721  1.00  0.00     0.074 A 
ATOM     41  C   UNL A   1      43.155  31.647  29.123  1.00  0.00     0.031 C 
ATOM     42  C   UNL A   1      41.378  25.089  27.899  1.00  0.00     0.029 A 
ATOM     43  C   UNL A   1      42.794  25.398  27.743  1.00  0.00     0.049 A 
ATOM     44  H   UNL A   1      43.740  27.219  28.113  1.00  0.00     0.167 HD
ATOM     45  C   UNL A   1      45.546  31.191  28.639  1.00  0.00     0.037 A 
ATOM     46  C   UNL A   1      43.740  24.532  27.329  1.00  0.00     0.037 A 
ATOM     47  C   UNL A   1      46.629  30.325  28.250  1.00  0.00     0.049 A 
ATOM     48  C   UNL A   1      45.156  25.017  27.171  1.00  0.00     0.074 A 
ATOM     49  C   UNL A   1      47.975  30.629  28.132  1.00  0.00     0.029 A 
ATOM     50  N   UNL A   1      46.493  28.983  27.923  1.00  0.00    -0.354 N 
ATOM     51  N   UNL A   1      45.648  26.212  27.400  1.00  0.00    -0.248 NA
ATOM     52  C   UNL A   1      46.143  24.041  26.693  1.00  0.00     0.031 C 
ATOM     53  C   UNL A   1      48.645  29.484  27.691  1.00  0.00     0.029 A 
ATOM     54  C   UNL A   1      47.727  28.450  27.590  1.00  0.00     0.049 A 
ATOM     55  H   UNL A   1      45.645  28.485  27.927  1.00  0.00     0.167 HD
ATOM     56  C   UNL A   1      47.010  26.118  27.130  1.00  0.00     0.074 A 
ATOM     57  C   UNL A   1      47.262  24.752  26.726  1.00  0.00     0.031 C 
ATOM     58  C   UNL A   1      47.965  27.078  27.212  1.00  0.00     0.037 A 
BRANCH  45  59
ATOM     59  C   UNL A   1      45.859  32.630  28.954  1.00  0.00     0.058 A 
ATOM     60  C   UNL A   1      46.221  33.043  30.245  1.00  0.00     0.135 A 
ATOM     61  C   UNL A   1      45.839  33.602  27.939  1.00  0.00     0.135 A 
ATOM     62  F   UNL A   1      46.240  32.160  31.257  1.00  0.00    -0.206 F 
ATOM     63  C   UNL A   1      46.530  34.371  30.526  1.00  0.00     0.059 A 
ATOM     64  C   UNL A   1      46.173  34.930  28.191  1.00  0.00     0.059 A 
ATOM     65  F   UNL A   1      45.499  33.263  26.686  1.00  0.00    -0.206 F 
ATOM     66  C   UNL A   1      46.504  35.307  29.492  1.00  0.00     0.060 A 
BRANCH  66  67
ATOM     67  S   UNL A   1      46.921  37.022  29.870  1.00  0.00     0.124 S 
ATOM     68  O   UNL A   1      46.704  37.064  31.313  1.00  0.00    -0.237 OA
ATOM     69  O   UNL A   1      48.312  37.108  29.436  1.00  0.00    -0.237 OA
ATOM     70  O   UNL A   1      45.970  37.789  29.071  1.00  0.00    -0.744 OA
ENDBRANCH  66  67
ENDBRANCH  45  59
BRANCH  46  71
ATOM     71  C   UNL A   1      43.377  23.124  27.012  1.00  0.00     0.058 A 
ATOM     72  C   UNL A   1      43.084  22.209  28.035  1.00  0.00     0.135 A 
ATOM     73  C   UNL A   1      43.323  22.662  25.688  1.00  0.00     0.135 A 
ATOM     74  F   UNL A   1      43.130  22.600  29.317  1.00  0.00    -0.206 F 
ATOM     75  C   UNL A   1      42.776  20.882  27.759  1.00  0.00     0.059 A 
ATOM     76  C   UNL A   1      42.987  21.347  25.385  1.00  0.00     0.059 A 
ATOM     77  F   UNL A   1      43.580  23.500  24.671  1.00  0.00    -0.206 F 
ATOM     78  C   UNL A   1      42.730  20.460  26.428  1.00  0.00     0.060 A 
BRANCH  78  79
ATOM     79  S   UNL A   1      42.305  18.740  26.081  1.00  0.00     0.124 S 
ATOM     80  O   UNL A   1      40.900  18.855  25.708  1.00  0.00    -0.237 OA
ATOM     81  O   UNL A   1      43.227  18.408  24.999  1.00  0.00    -0.237 OA
ATOM     82  O   UNL A   1      42.569  18.067  27.349  1.00  0.00    -0.744 OA
ENDBRANCH  78  79
ENDBRANCH  46  71
BRANCH  58  83
ATOM     83  C   UNL A   1      49.384  26.671  26.923  1.00  0.00     0.058 A 
ATOM     84  C   UNL A   1      50.261  26.263  27.939  1.00  0.00     0.135 A 
ATOM     85  C   UNL A   1      49.851  26.637  25.599  1.00  0.00     0.135 A 
ATOM     86  F   UNL A   1      49.867  26.285  29.223  1.00  0.00    -0.206 F 
ATOM     87  C   UNL A   1      51.560  25.855  27.654  1.00  0.00     0.059 A 
ATOM     88  C   UNL A   1      51.135  26.204  25.288  1.00  0.00     0.059 A 
ATOM     89  F   UNL A   1      49.049  27.009  24.589  1.00  0.00    -0.206 F 
ATOM     90  C   UNL A   1      51.987  25.824  26.325  1.00  0.00     0.060 A 
BRANCH  90  91
ATOM     91  S   UNL A   1      53.660  25.249  25.965  1.00  0.00     0.124 S 
ATOM     92  O   UNL A   1      54.090  26.208  24.953  1.00  0.00    -0.237 OA
ATOM     93  O   UNL A   1      54.315  25.362  27.265  1.00  0.00    -0.237 OA
ATOM     94  O   UNL A   1      53.457  23.885  25.489  1.00  0.00    -0.744 OA
ENDBRANCH  90  91
ENDBRANCH  58  83
ENDBRANCH  32  33
ENDBRANCH  25  27
ENDBRANCH  24  25
ENDBRANCH  23  24
ENDBRANCH   1  23
TORSDOF 17
ENDMDL
