MODEL 1
REMARK VINA RESULT:     -10.3      0.000      0.000
REMARK SMILES CC(C)[C@H](C)n1c(SCC(=O)OCCOC(=O)c2ccc(-c3c4nc(c(-c5c(F)cc(S(=O)(=O)[O-])cc5F)c5ccc([nH]5)c(-c5c(F)cc(S(=O)(=O)[O-])cc5F)c5nc(c(-c6c(F)cc(S(=O)(=O)[O-])cc6F)c6ccc3[nH]6)C=C5)C=C4)cc2)nc2cc(Br)cnc21
REMARK SMILES IDX 13 1 12 2 10 3 11 4 9 5 8 6 7 7 6 8 91 9 84 10 85 11 90 12
REMARK SMILES IDX 86 13 89 14 87 15 88 16 4 17 5 18 2 19 1 20 3 21 14 22 15 23
REMARK SMILES IDX 16 24 17 25 18 26 19 27 83 28 20 29 82 30 21 31 22 32 23 33
REMARK SMILES IDX 76 34 24 35 81 36 75 37 77 38 25 39 80 40 74 41 73 42 26 44
REMARK SMILES IDX 60 45 39 46 59 47 40 48 43 49 58 50 78 51 41 52 42 53 57 55
REMARK SMILES IDX 79 56 44 57 27 58 28 59 37 60 29 61 30 62 36 63 38 64 31 65
REMARK SMILES IDX 32 66 33 67 34 68 35 69 61 70 62 71 71 72 63 73 64 74 70 75
REMARK SMILES IDX 72 76 65 77 66 78 67 79 68 80 69 81 45 82 46 83 55 84 47 85
REMARK SMILES IDX 48 86 54 87 56 88 49 89 50 90 51 91 52 92 53 93
REMARK H PARENT 77 43 43 54
REMARK Flexibility Score: inf
ROOT
ATOM      1  C   UNL A   1      40.778  21.141  27.632  1.00  0.00     0.274 C 
ENDROOT
BRANCH   1   2
ATOM      2  O   UNL A   1      39.687  21.710  26.807  1.00  0.00    -0.461 OA
BRANCH   2   3
ATOM      3  C   UNL A   1      39.569  23.068  26.777  1.00  0.00     0.316 C 
ATOM      4  O   UNL A   1      40.564  23.797  26.836  1.00  0.00    -0.251 OA
BRANCH   3   5
ATOM      5  C   UNL A   1      38.187  23.706  26.499  1.00  0.00     0.200 C 
BRANCH   5   6
ATOM      6  S   UNL A   1      37.149  23.338  25.102  1.00  0.00    -0.076 SA
BRANCH   6   7
ATOM      7  C   UNL A   1      35.829  22.188  25.273  1.00  0.00     0.171 A 
ATOM      8  N   UNL A   1      34.439  22.244  25.192  1.00  0.00    -0.301 N 
ATOM      9  C   UNL A   1      34.035  20.948  24.845  1.00  0.00     0.161 A 
ATOM     10  N   UNL A   1      36.220  20.922  25.367  1.00  0.00    -0.221 NA
ATOM     11  C   UNL A   1      35.152  20.153  25.000  1.00  0.00     0.110 A 
ATOM     12  N   UNL A   1      32.824  20.571  24.375  1.00  0.00    -0.235 NA
ATOM     13  C   UNL A   1      35.040  18.791  24.692  1.00  0.00     0.049 A 
ATOM     14  C   UNL A   1      32.775  19.263  24.018  1.00  0.00     0.129 A 
ATOM     15  C   UNL A   1      33.821  18.359  24.160  1.00  0.00     0.038 A 
ATOM     16  Br  UNL A   1      33.620  16.577  23.571  1.00  0.00    -0.049 Br
BRANCH   8  17
ATOM     17  C   UNL A   1      33.438  23.300  25.098  1.00  0.00     0.091 C 
ATOM     18  C   UNL A   1      33.041  24.039  26.362  1.00  0.00     0.032 C 
BRANCH  17  19
ATOM     19  C   UNL A   1      33.465  24.129  23.830  1.00  0.00     0.006 C 
ATOM     20  C   UNL A   1      32.381  24.019  22.755  1.00  0.00     0.009 C 
ATOM     21  C   UNL A   1      34.027  25.494  24.103  1.00  0.00     0.009 C 
ENDBRANCH  17  19
ENDBRANCH   8  17
ENDBRANCH   6   7
ENDBRANCH   5   6
ENDBRANCH   3   5
ENDBRANCH   2   3
ENDBRANCH   1   2
BRANCH   1  22
ATOM     22  C   UNL A   1      41.562  19.982  26.923  1.00  0.00     0.275 C 
BRANCH  22  23
ATOM     23  O   UNL A   1      41.960  20.230  25.521  1.00  0.00    -0.458 OA
BRANCH  23  24
ATOM     24  C   UNL A   1      43.313  20.161  25.327  1.00  0.00     0.338 C 
ATOM     25  O   UNL A   1      43.956  19.117  25.397  1.00  0.00    -0.246 OA
BRANCH  24  26
ATOM     26  C   UNL A   1      44.055  21.415  24.960  1.00  0.00     0.060 A 
ATOM     27  C   UNL A   1      45.374  21.589  25.377  1.00  0.00     0.016 A 
ATOM     28  C   UNL A   1      43.241  22.541  24.959  1.00  0.00     0.016 A 
ATOM     29  C   UNL A   1      45.737  22.662  26.192  1.00  0.00     0.010 A 
ATOM     30  C   UNL A   1      43.650  23.697  25.616  1.00  0.00     0.010 A 
ATOM     31  C   UNL A   1      44.829  23.701  26.372  1.00  0.00    -0.014 A 
BRANCH  31  32
ATOM     32  C   UNL A   1      45.191  24.871  27.201  1.00  0.00     0.031 A 
ATOM     33  C   UNL A   1      44.751  24.778  28.635  1.00  0.00     0.074 A 
ATOM     34  C   UNL A   1      46.045  25.803  26.709  1.00  0.00     0.049 A 
ATOM     35  N   UNL A   1      44.252  25.694  29.405  1.00  0.00    -0.248 NA
ATOM     36  C   UNL A   1      44.741  23.433  29.257  1.00  0.00     0.031 C 
ATOM     37  C   UNL A   1      46.603  25.834  25.349  1.00  0.00     0.029 A 
ATOM     38  N   UNL A   1      46.745  26.806  27.321  1.00  0.00    -0.354 N 
ATOM     39  C   UNL A   1      44.095  25.092  30.656  1.00  0.00     0.074 A 
ATOM     40  C   UNL A   1      44.205  23.676  30.451  1.00  0.00     0.031 C 
ATOM     41  C   UNL A   1      47.736  26.565  25.341  1.00  0.00     0.029 A 
ATOM     42  C   UNL A   1      47.934  27.131  26.659  1.00  0.00     0.049 A 
ATOM     43  H   UNL A   1      46.444  27.253  28.144  1.00  0.00     0.167 HD
ATOM     44  C   UNL A   1      44.191  25.801  31.815  1.00  0.00     0.037 A 
ATOM     45  C   UNL A   1      49.058  27.687  27.192  1.00  0.00     0.037 A 
ATOM     46  C   UNL A   1      43.895  27.190  31.607  1.00  0.00     0.049 A 
ATOM     47  C   UNL A   1      48.664  28.314  28.481  1.00  0.00     0.074 A 
ATOM     48  C   UNL A   1      42.796  27.882  31.143  1.00  0.00     0.029 A 
ATOM     49  N   UNL A   1      44.945  28.074  31.575  1.00  0.00    -0.354 N 
ATOM     50  N   UNL A   1      47.858  29.339  28.574  1.00  0.00    -0.248 NA
ATOM     51  C   UNL A   1      48.778  27.500  29.682  1.00  0.00     0.031 C 
ATOM     52  C   UNL A   1      43.333  28.975  30.411  1.00  0.00     0.029 A 
ATOM     53  C   UNL A   1      44.723  28.933  30.532  1.00  0.00     0.049 A 
ATOM     54  H   UNL A   1      45.715  28.087  32.187  1.00  0.00     0.167 HD
ATOM     55  C   UNL A   1      47.046  29.051  29.662  1.00  0.00     0.074 A 
ATOM     56  C   UNL A   1      47.703  27.938  30.344  1.00  0.00     0.031 C 
ATOM     57  C   UNL A   1      45.775  29.541  29.748  1.00  0.00     0.037 A 
BRANCH  44  58
ATOM     58  C   UNL A   1      44.953  25.301  33.025  1.00  0.00     0.058 A 
ATOM     59  C   UNL A   1      44.298  25.215  34.271  1.00  0.00     0.135 A 
ATOM     60  C   UNL A   1      46.364  25.204  33.076  1.00  0.00     0.135 A 
ATOM     61  F   UNL A   1      42.960  25.299  34.346  1.00  0.00    -0.206 F 
ATOM     62  C   UNL A   1      44.996  25.129  35.477  1.00  0.00     0.059 A 
ATOM     63  C   UNL A   1      47.074  25.064  34.259  1.00  0.00     0.059 A 
ATOM     64  F   UNL A   1      47.136  25.341  31.992  1.00  0.00    -0.206 F 
ATOM     65  C   UNL A   1      46.387  25.074  35.459  1.00  0.00     0.060 A 
BRANCH  65  66
ATOM     66  S   UNL A   1      47.297  25.090  37.012  1.00  0.00     0.124 S 
ATOM     67  O   UNL A   1      48.278  24.041  36.786  1.00  0.00    -0.237 OA
ATOM     68  O   UNL A   1      47.805  26.454  37.050  1.00  0.00    -0.237 OA
ATOM     69  O   UNL A   1      46.263  24.784  38.006  1.00  0.00    -0.744 OA
ENDBRANCH  65  66
ENDBRANCH  44  58
BRANCH  45  70
ATOM     70  C   UNL A   1      50.474  27.326  26.856  1.00  0.00     0.058 A 
ATOM     71  C   UNL A   1      50.976  26.020  27.026  1.00  0.00     0.135 A 
ATOM     72  C   UNL A   1      51.314  28.205  26.136  1.00  0.00     0.135 A 
ATOM     73  F   UNL A   1      50.241  25.093  27.659  1.00  0.00    -0.206 F 
ATOM     74  C   UNL A   1      52.217  25.614  26.503  1.00  0.00     0.059 A 
ATOM     75  C   UNL A   1      52.557  27.833  25.629  1.00  0.00     0.059 A 
ATOM     76  F   UNL A   1      50.917  29.444  25.816  1.00  0.00    -0.206 F 
ATOM     77  C   UNL A   1      52.997  26.529  25.796  1.00  0.00     0.060 A 
BRANCH  77  78
ATOM     78  S   UNL A   1      54.534  25.994  25.003  1.00  0.00     0.124 S 
ATOM     79  O   UNL A   1      55.472  27.029  25.426  1.00  0.00    -0.237 OA
ATOM     80  O   UNL A   1      54.737  24.673  25.586  1.00  0.00    -0.237 OA
ATOM     81  O   UNL A   1      54.203  26.000  23.580  1.00  0.00    -0.744 OA
ENDBRANCH  77  78
ENDBRANCH  45  70
BRANCH  57  82
ATOM     82  C   UNL A   1      45.338  30.632  28.805  1.00  0.00     0.058 A 
ATOM     83  C   UNL A   1      45.538  32.005  29.031  1.00  0.00     0.135 A 
ATOM     84  C   UNL A   1      44.909  30.249  27.524  1.00  0.00     0.135 A 
ATOM     85  F   UNL A   1      46.045  32.447  30.191  1.00  0.00    -0.206 F 
ATOM     86  C   UNL A   1      45.305  32.953  28.033  1.00  0.00     0.059 A 
ATOM     87  C   UNL A   1      44.709  31.173  26.503  1.00  0.00     0.059 A 
ATOM     88  F   UNL A   1      44.757  28.947  27.227  1.00  0.00    -0.206 F 
ATOM     89  C   UNL A   1      44.907  32.526  26.767  1.00  0.00     0.060 A 
BRANCH  89  90
ATOM     90  S   UNL A   1      44.724  33.740  25.444  1.00  0.00     0.124 S 
ATOM     91  O   UNL A   1      46.098  34.191  25.247  1.00  0.00    -0.237 OA
ATOM     92  O   UNL A   1      44.155  32.942  24.362  1.00  0.00    -0.237 OA
ATOM     93  O   UNL A   1      43.819  34.736  26.014  1.00  0.00    -0.744 OA
ENDBRANCH  89  90
ENDBRANCH  57  82
ENDBRANCH  31  32
ENDBRANCH  24  26
ENDBRANCH  23  24
ENDBRANCH  22  23
ENDBRANCH   1  22
TORSDOF 18
ENDMDL
MODEL 2
REMARK VINA RESULT:      -9.7      1.658      2.773
REMARK SMILES CC(C)[C@H](C)n1c(SCC(=O)OCCOC(=O)c2ccc(-c3c4nc(c(-c5c(F)cc(S(=O)(=O)[O-])cc5F)c5ccc([nH]5)c(-c5c(F)cc(S(=O)(=O)[O-])cc5F)c5nc(c(-c6c(F)cc(S(=O)(=O)[O-])cc6F)c6ccc3[nH]6)C=C5)C=C4)cc2)nc2cc(Br)cnc21
REMARK SMILES IDX 13 1 12 2 10 3 11 4 9 5 8 6 7 7 6 8 91 9 84 10 85 11 90 12
REMARK SMILES IDX 86 13 89 14 87 15 88 16 4 17 5 18 2 19 1 20 3 21 14 22 15 23
REMARK SMILES IDX 16 24 17 25 18 26 19 27 83 28 20 29 82 30 21 31 22 32 23 33
REMARK SMILES IDX 76 34 24 35 81 36 75 37 77 38 25 39 80 40 74 41 73 42 26 44
REMARK SMILES IDX 60 45 39 46 59 47 40 48 43 49 58 50 78 51 41 52 42 53 57 55
REMARK SMILES IDX 79 56 44 57 27 58 28 59 37 60 29 61 30 62 36 63 38 64 31 65
REMARK SMILES IDX 32 66 33 67 34 68 35 69 61 70 62 71 71 72 63 73 64 74 70 75
REMARK SMILES IDX 72 76 65 77 66 78 67 79 68 80 69 81 45 82 46 83 55 84 47 85
REMARK SMILES IDX 48 86 54 87 56 88 49 89 50 90 51 91 52 92 53 93
REMARK H PARENT 77 43 43 54
REMARK Flexibility Score: inf
ROOT
ATOM      1  C   UNL A   1      40.264  20.906  26.928  1.00  0.00     0.274 C 
ENDROOT
BRANCH   1   2
ATOM      2  O   UNL A   1      39.435  21.639  25.943  1.00  0.00    -0.461 OA
BRANCH   2   3
ATOM      3  C   UNL A   1      38.396  20.963  25.374  1.00  0.00     0.316 C 
ATOM      4  O   UNL A   1      38.510  19.780  25.042  1.00  0.00    -0.251 OA
BRANCH   3   5
ATOM      5  C   UNL A   1      37.004  21.634  25.296  1.00  0.00     0.200 C 
BRANCH   5   6
ATOM      6  S   UNL A   1      36.390  22.568  23.912  1.00  0.00    -0.076 SA
BRANCH   6   7
ATOM      7  C   UNL A   1      34.881  23.458  24.059  1.00  0.00     0.171 A 
ATOM      8  N   UNL A   1      33.528  23.129  24.105  1.00  0.00    -0.301 N 
ATOM      9  C   UNL A   1      32.913  24.179  24.800  1.00  0.00     0.161 A 
ATOM     10  N   UNL A   1      35.036  24.749  24.332  1.00  0.00    -0.221 NA
ATOM     11  C   UNL A   1      33.863  25.176  24.889  1.00  0.00     0.110 A 
ATOM     12  N   UNL A   1      31.675  24.181  25.344  1.00  0.00    -0.235 NA
ATOM     13  C   UNL A   1      33.523  26.352  25.568  1.00  0.00     0.049 A 
ATOM     14  C   UNL A   1      31.407  25.305  26.055  1.00  0.00     0.129 A 
ATOM     15  C   UNL A   1      32.269  26.387  26.187  1.00  0.00     0.038 A 
ATOM     16  Br  UNL A   1      31.777  27.865  27.254  1.00  0.00    -0.049 Br
BRANCH   8  17
ATOM     17  C   UNL A   1      32.735  21.924  23.885  1.00  0.00     0.091 C 
ATOM     18  C   UNL A   1      32.153  21.680  22.507  1.00  0.00     0.032 C 
BRANCH  17  19
ATOM     19  C   UNL A   1      33.182  20.690  24.641  1.00  0.00     0.006 C 
ATOM     20  C   UNL A   1      33.455  20.703  26.147  1.00  0.00     0.009 C 
ATOM     21  C   UNL A   1      32.539  19.459  24.070  1.00  0.00     0.009 C 
ENDBRANCH  17  19
ENDBRANCH   8  17
ENDBRANCH   6   7
ENDBRANCH   5   6
ENDBRANCH   3   5
ENDBRANCH   2   3
ENDBRANCH   1   2
BRANCH   1  22
ATOM     22  C   UNL A   1      41.801  20.967  26.624  1.00  0.00     0.275 C 
BRANCH  22  23
ATOM     23  O   UNL A   1      42.243  20.308  25.376  1.00  0.00    -0.458 OA
BRANCH  23  24
ATOM     24  C   UNL A   1      43.603  20.302  25.223  1.00  0.00     0.338 C 
ATOM     25  O   UNL A   1      44.294  19.295  25.343  1.00  0.00    -0.246 OA
BRANCH  24  26
ATOM     26  C   UNL A   1      44.292  21.581  24.841  1.00  0.00     0.060 A 
ATOM     27  C   UNL A   1      45.605  21.813  25.252  1.00  0.00     0.016 A 
ATOM     28  C   UNL A   1      43.434  22.674  24.831  1.00  0.00     0.016 A 
ATOM     29  C   UNL A   1      45.926  22.908  26.055  1.00  0.00     0.010 A 
ATOM     30  C   UNL A   1      43.797  23.852  25.475  1.00  0.00     0.010 A 
ATOM     31  C   UNL A   1      44.978  23.911  26.227  1.00  0.00    -0.014 A 
BRANCH  31  32
ATOM     32  C   UNL A   1      45.295  25.103  27.043  1.00  0.00     0.031 A 
ATOM     33  C   UNL A   1      44.841  25.017  28.473  1.00  0.00     0.074 A 
ATOM     34  C   UNL A   1      46.125  26.054  26.548  1.00  0.00     0.049 A 
ATOM     35  N   UNL A   1      44.305  25.929  29.224  1.00  0.00    -0.248 NA
ATOM     36  C   UNL A   1      44.863  23.682  29.114  1.00  0.00     0.031 C 
ATOM     37  C   UNL A   1      46.699  26.082  25.193  1.00  0.00     0.029 A 
ATOM     38  N   UNL A   1      46.788  27.086  27.152  1.00  0.00    -0.354 N 
ATOM     39  C   UNL A   1      44.151  25.341  30.482  1.00  0.00     0.074 A 
ATOM     40  C   UNL A   1      44.306  23.926  30.298  1.00  0.00     0.031 C 
ATOM     41  C   UNL A   1      47.809  26.846  25.187  1.00  0.00     0.029 A 
ATOM     42  C   UNL A   1      47.975  27.437  26.500  1.00  0.00     0.049 A 
ATOM     43  H   UNL A   1      46.464  27.535  27.965  1.00  0.00     0.167 HD
ATOM     44  C   UNL A   1      44.212  26.068  31.631  1.00  0.00     0.037 A 
ATOM     45  C   UNL A   1      49.075  28.034  27.037  1.00  0.00     0.037 A 
ATOM     46  C   UNL A   1      43.877  27.445  31.400  1.00  0.00     0.049 A 
ATOM     47  C   UNL A   1      48.648  28.668  28.312  1.00  0.00     0.074 A 
ATOM     48  C   UNL A   1      42.764  28.097  30.913  1.00  0.00     0.029 A 
ATOM     49  N   UNL A   1      44.900  28.360  31.366  1.00  0.00    -0.354 N 
ATOM     50  N   UNL A   1      47.810  29.669  28.380  1.00  0.00    -0.248 NA
ATOM     51  C   UNL A   1      48.771  27.875  29.526  1.00  0.00     0.031 C 
ATOM     52  C   UNL A   1      43.276  29.195  30.171  1.00  0.00     0.029 A 
ATOM     53  C   UNL A   1      44.665  29.196  30.308  1.00  0.00     0.049 A 
ATOM     54  H   UNL A   1      45.663  28.405  31.987  1.00  0.00     0.167 HD
ATOM     55  C   UNL A   1      46.994  29.372  29.463  1.00  0.00     0.074 A 
ATOM     56  C   UNL A   1      47.676  28.289  30.169  1.00  0.00     0.031 C 
ATOM     57  C   UNL A   1      45.708  29.825  29.528  1.00  0.00     0.037 A 
BRANCH  44  58
ATOM     58  C   UNL A   1      44.975  25.610  32.857  1.00  0.00     0.058 A 
ATOM     59  C   UNL A   1      46.343  25.289  32.743  1.00  0.00     0.135 A 
ATOM     60  C   UNL A   1      44.350  25.179  34.051  1.00  0.00     0.135 A 
ATOM     61  F   UNL A   1      47.039  25.643  31.651  1.00  0.00    -0.206 F 
ATOM     62  C   UNL A   1      47.013  24.523  33.700  1.00  0.00     0.059 A 
ATOM     63  C   UNL A   1      45.011  24.464  35.040  1.00  0.00     0.059 A 
ATOM     64  F   UNL A   1      43.042  25.340  34.281  1.00  0.00    -0.206 F 
ATOM     65  C   UNL A   1      46.329  24.100  34.836  1.00  0.00     0.060 A 
BRANCH  65  66
ATOM     66  S   UNL A   1      47.148  23.010  36.011  1.00  0.00     0.124 S 
ATOM     67  O   UNL A   1      48.163  23.890  36.567  1.00  0.00    -0.237 OA
ATOM     68  O   UNL A   1      46.052  22.644  36.897  1.00  0.00    -0.237 OA
ATOM     69  O   UNL A   1      47.650  21.923  35.163  1.00  0.00    -0.744 OA
ENDBRANCH  65  66
ENDBRANCH  44  58
BRANCH  45  70
ATOM     70  C   UNL A   1      50.506  27.711  26.723  1.00  0.00     0.058 A 
ATOM     71  C   UNL A   1      51.017  26.401  26.815  1.00  0.00     0.135 A 
ATOM     72  C   UNL A   1      51.358  28.647  26.095  1.00  0.00     0.135 A 
ATOM     73  F   UNL A   1      50.272  25.424  27.355  1.00  0.00    -0.206 F 
ATOM     74  C   UNL A   1      52.278  26.045  26.305  1.00  0.00     0.059 A 
ATOM     75  C   UNL A   1      52.621  28.324  25.604  1.00  0.00     0.059 A 
ATOM     76  F   UNL A   1      50.957  29.903  25.852  1.00  0.00    -0.206 F 
ATOM     77  C   UNL A   1      53.070  27.016  25.691  1.00  0.00     0.060 A 
BRANCH  77  78
ATOM     78  S   UNL A   1      54.638  26.553  24.913  1.00  0.00     0.124 S 
ATOM     79  O   UNL A   1      54.658  25.107  25.103  1.00  0.00    -0.237 OA
ATOM     80  O   UNL A   1      54.447  27.014  23.542  1.00  0.00    -0.237 OA
ATOM     81  O   UNL A   1      55.633  27.296  25.684  1.00  0.00    -0.744 OA
ENDBRANCH  77  78
ENDBRANCH  45  70
BRANCH  57  82
ATOM     82  C   UNL A   1      45.250  30.888  28.564  1.00  0.00     0.058 A 
ATOM     83  C   UNL A   1      45.407  32.270  28.772  1.00  0.00     0.135 A 
ATOM     84  C   UNL A   1      44.847  30.474  27.284  1.00  0.00     0.135 A 
ATOM     85  F   UNL A   1      45.888  32.744  29.930  1.00  0.00    -0.206 F 
ATOM     86  C   UNL A   1      45.157  33.196  27.757  1.00  0.00     0.059 A 
ATOM     87  C   UNL A   1      44.631  31.377  26.248  1.00  0.00     0.059 A 
ATOM     88  F   UNL A   1      44.737  29.164  27.005  1.00  0.00    -0.206 F 
ATOM     89  C   UNL A   1      44.786  32.738  26.493  1.00  0.00     0.060 A 
BRANCH  89  90
ATOM     90  S   UNL A   1      44.583  33.928  25.150  1.00  0.00     0.124 S 
ATOM     91  O   UNL A   1      44.154  33.077  24.045  1.00  0.00    -0.237 OA
ATOM     92  O   UNL A   1      43.569  34.834  25.686  1.00  0.00    -0.237 OA
ATOM     93  O   UNL A   1      45.914  34.512  25.004  1.00  0.00    -0.744 OA
ENDBRANCH  89  90
ENDBRANCH  57  82
ENDBRANCH  31  32
ENDBRANCH  24  26
ENDBRANCH  23  24
ENDBRANCH  22  23
ENDBRANCH   1  22
TORSDOF 18
ENDMDL
MODEL 3
REMARK VINA RESULT:      -9.5      1.726      2.777
REMARK SMILES CC(C)[C@H](C)n1c(SCC(=O)OCCOC(=O)c2ccc(-c3c4nc(c(-c5c(F)cc(S(=O)(=O)[O-])cc5F)c5ccc([nH]5)c(-c5c(F)cc(S(=O)(=O)[O-])cc5F)c5nc(c(-c6c(F)cc(S(=O)(=O)[O-])cc6F)c6ccc3[nH]6)C=C5)C=C4)cc2)nc2cc(Br)cnc21
REMARK SMILES IDX 13 1 12 2 10 3 11 4 9 5 8 6 7 7 6 8 91 9 84 10 85 11 90 12
REMARK SMILES IDX 86 13 89 14 87 15 88 16 4 17 5 18 2 19 1 20 3 21 14 22 15 23
REMARK SMILES IDX 16 24 17 25 18 26 19 27 83 28 20 29 82 30 21 31 22 32 23 33
REMARK SMILES IDX 76 34 24 35 81 36 75 37 77 38 25 39 80 40 74 41 73 42 26 44
REMARK SMILES IDX 60 45 39 46 59 47 40 48 43 49 58 50 78 51 41 52 42 53 57 55
REMARK SMILES IDX 79 56 44 57 27 58 28 59 37 60 29 61 30 62 36 63 38 64 31 65
REMARK SMILES IDX 32 66 33 67 34 68 35 69 61 70 62 71 71 72 63 73 64 74 70 75
REMARK SMILES IDX 72 76 65 77 66 78 67 79 68 80 69 81 45 82 46 83 55 84 47 85
REMARK SMILES IDX 48 86 54 87 56 88 49 89 50 90 51 91 52 92 53 93
REMARK H PARENT 77 43 43 54
REMARK Flexibility Score: inf
ROOT
ATOM      1  C   UNL A   1      39.727  21.371  26.489  1.00  0.00     0.274 C 
ENDROOT
BRANCH   1   2
ATOM      2  O   UNL A   1      38.593  21.539  25.551  1.00  0.00    -0.461 OA
BRANCH   2   3
ATOM      3  C   UNL A   1      37.816  22.650  25.704  1.00  0.00     0.316 C 
ATOM      4  O   UNL A   1      38.289  23.707  26.131  1.00  0.00    -0.251 OA
BRANCH   3   5
ATOM      5  C   UNL A   1      36.360  22.638  25.179  1.00  0.00     0.200 C 
BRANCH   5   6
ATOM      6  S   UNL A   1      35.876  22.912  23.489  1.00  0.00    -0.076 SA
BRANCH   6   7
ATOM      7  C   UNL A   1      34.251  23.479  23.127  1.00  0.00     0.171 A 
ATOM      8  N   UNL A   1      32.963  23.156  23.550  1.00  0.00    -0.301 N 
ATOM      9  C   UNL A   1      32.205  24.317  23.348  1.00  0.00     0.161 A 
ATOM     10  N   UNL A   1      34.213  24.572  22.373  1.00  0.00    -0.221 NA
ATOM     11  C   UNL A   1      32.994  25.154  22.587  1.00  0.00     0.110 A 
ATOM     12  N   UNL A   1      30.985  24.592  23.864  1.00  0.00    -0.235 NA
ATOM     13  C   UNL A   1      32.488  26.415  22.252  1.00  0.00     0.049 A 
ATOM     14  C   UNL A   1      30.558  25.849  23.580  1.00  0.00     0.129 A 
ATOM     15  C   UNL A   1      31.249  26.766  22.798  1.00  0.00     0.038 A 
ATOM     16  Br  UNL A   1      30.551  28.500  22.532  1.00  0.00    -0.049 Br
BRANCH   8  17
ATOM     17  C   UNL A   1      32.359  22.099  24.351  1.00  0.00     0.091 C 
ATOM     18  C   UNL A   1      32.518  20.661  23.895  1.00  0.00     0.032 C 
BRANCH  17  19
ATOM     19  C   UNL A   1      32.360  22.319  25.850  1.00  0.00     0.006 C 
ATOM     20  C   UNL A   1      31.097  22.709  26.623  1.00  0.00     0.009 C 
ATOM     21  C   UNL A   1      33.313  21.374  26.523  1.00  0.00     0.009 C 
ENDBRANCH  17  19
ENDBRANCH   8  17
ENDBRANCH   6   7
ENDBRANCH   5   6
ENDBRANCH   3   5
ENDBRANCH   2   3
ENDBRANCH   1   2
BRANCH   1  22
ATOM     22  C   UNL A   1      40.463  19.993  26.342  1.00  0.00     0.275 C 
BRANCH  22  23
ATOM     23  O   UNL A   1      41.519  19.928  25.310  1.00  0.00    -0.458 OA
BRANCH  23  24
ATOM     24  C   UNL A   1      42.772  20.170  25.806  1.00  0.00     0.338 C 
ATOM     25  O   UNL A   1      43.349  19.418  26.585  1.00  0.00    -0.246 OA
BRANCH  24  26
ATOM     26  C   UNL A   1      43.508  21.395  25.342  1.00  0.00     0.060 A 
ATOM     27  C   UNL A   1      44.868  21.534  25.616  1.00  0.00     0.016 A 
ATOM     28  C   UNL A   1      42.732  22.546  25.405  1.00  0.00     0.016 A 
ATOM     29  C   UNL A   1      45.346  22.607  26.370  1.00  0.00     0.010 A 
ATOM     30  C   UNL A   1      43.242  23.698  25.996  1.00  0.00     0.010 A 
ATOM     31  C   UNL A   1      44.493  23.676  26.625  1.00  0.00    -0.014 A 
BRANCH  31  32
ATOM     32  C   UNL A   1      44.975  24.846  27.390  1.00  0.00     0.031 A 
ATOM     33  C   UNL A   1      44.668  24.797  28.861  1.00  0.00     0.074 A 
ATOM     34  C   UNL A   1      45.812  25.735  26.801  1.00  0.00     0.049 A 
ATOM     35  N   UNL A   1      44.276  25.746  29.653  1.00  0.00    -0.248 NA
ATOM     36  C   UNL A   1      44.665  23.465  29.510  1.00  0.00     0.031 C 
ATOM     37  C   UNL A   1      46.242  25.719  25.394  1.00  0.00     0.029 A 
ATOM     38  N   UNL A   1      46.603  26.721  27.323  1.00  0.00    -0.354 N 
ATOM     39  C   UNL A   1      44.215  25.174  30.927  1.00  0.00     0.074 A 
ATOM     40  C   UNL A   1      44.253  23.751  30.743  1.00  0.00     0.031 C 
ATOM     41  C   UNL A   1      47.395  26.405  25.265  1.00  0.00     0.029 A 
ATOM     42  C   UNL A   1      47.737  26.987  26.547  1.00  0.00     0.049 A 
ATOM     43  H   UNL A   1      46.398  27.194  28.160  1.00  0.00     0.167 HD
ATOM     44  C   UNL A   1      44.445  25.900  32.055  1.00  0.00     0.037 A 
ATOM     45  C   UNL A   1      48.926  27.508  26.961  1.00  0.00     0.037 A 
ATOM     46  C   UNL A   1      44.183  27.296  31.846  1.00  0.00     0.049 A 
ATOM     47  C   UNL A   1      48.678  28.174  28.266  1.00  0.00     0.074 A 
ATOM     48  C   UNL A   1      43.072  28.021  31.470  1.00  0.00     0.029 A 
ATOM     49  N   UNL A   1      45.257  28.137  31.696  1.00  0.00    -0.354 N 
ATOM     50  N   UNL A   1      47.923  29.231  28.411  1.00  0.00    -0.248 NA
ATOM     51  C   UNL A   1      48.873  27.379  29.469  1.00  0.00     0.031 C 
ATOM     52  C   UNL A   1      43.578  29.079  30.667  1.00  0.00     0.029 A 
ATOM     53  C   UNL A   1      44.971  28.984  30.660  1.00  0.00     0.049 A 
ATOM     54  H   UNL A   1      46.082  28.132  32.234  1.00  0.00     0.167 HD
ATOM     55  C   UNL A   1      47.206  28.996  29.575  1.00  0.00     0.074 A 
ATOM     56  C   UNL A   1      47.882  27.870  30.218  1.00  0.00     0.031 C 
ATOM     57  C   UNL A   1      45.968  29.537  29.769  1.00  0.00     0.037 A 
BRANCH  44  58
ATOM     58  C   UNL A   1      45.298  25.394  33.201  1.00  0.00     0.058 A 
ATOM     59  C   UNL A   1      44.749  25.327  34.497  1.00  0.00     0.135 A 
ATOM     60  C   UNL A   1      46.706  25.271  33.133  1.00  0.00     0.135 A 
ATOM     61  F   UNL A   1      43.424  25.436  34.685  1.00  0.00    -0.206 F 
ATOM     62  C   UNL A   1      45.545  25.235  35.641  1.00  0.00     0.059 A 
ATOM     63  C   UNL A   1      47.512  25.125  34.253  1.00  0.00     0.059 A 
ATOM     64  F   UNL A   1      47.386  25.387  31.986  1.00  0.00    -0.206 F 
ATOM     65  C   UNL A   1      46.928  25.155  35.506  1.00  0.00     0.060 A 
BRANCH  65  66
ATOM     66  S   UNL A   1      47.967  25.162  36.976  1.00  0.00     0.124 S 
ATOM     67  O   UNL A   1      46.983  25.371  38.027  1.00  0.00    -0.237 OA
ATOM     68  O   UNL A   1      48.581  23.843  36.918  1.00  0.00    -0.237 OA
ATOM     69  O   UNL A   1      48.879  26.284  36.733  1.00  0.00    -0.744 OA
ENDBRANCH  65  66
ENDBRANCH  44  58
BRANCH  45  70
ATOM     70  C   UNL A   1      50.290  27.085  26.503  1.00  0.00     0.058 A 
ATOM     71  C   UNL A   1      51.262  28.015  26.083  1.00  0.00     0.135 A 
ATOM     72  C   UNL A   1      50.759  25.765  26.687  1.00  0.00     0.135 A 
ATOM     73  F   UNL A   1      50.933  29.305  25.919  1.00  0.00    -0.206 F 
ATOM     74  C   UNL A   1      52.607  27.660  25.876  1.00  0.00     0.059 A 
ATOM     75  C   UNL A   1      52.081  25.384  26.465  1.00  0.00     0.059 A 
ATOM     76  F   UNL A   1      49.965  24.804  27.179  1.00  0.00    -0.206 F 
ATOM     77  C   UNL A   1      53.008  26.340  26.080  1.00  0.00     0.060 A 
BRANCH  77  78
ATOM     78  S   UNL A   1      54.756  25.888  25.947  1.00  0.00     0.124 S 
ATOM     79  O   UNL A   1      54.900  24.905  27.016  1.00  0.00    -0.237 OA
ATOM     80  O   UNL A   1      54.836  25.368  24.587  1.00  0.00    -0.237 OA
ATOM     81  O   UNL A   1      55.453  27.153  26.169  1.00  0.00    -0.744 OA
ENDBRANCH  77  78
ENDBRANCH  45  70
BRANCH  57  82
ATOM     82  C   UNL A   1      45.486  30.626  28.846  1.00  0.00     0.058 A 
ATOM     83  C   UNL A   1      45.770  31.993  29.013  1.00  0.00     0.135 A 
ATOM     84  C   UNL A   1      44.909  30.236  27.627  1.00  0.00     0.135 A 
ATOM     85  F   UNL A   1      46.415  32.436  30.102  1.00  0.00    -0.206 F 
ATOM     86  C   UNL A   1      45.479  32.929  28.019  1.00  0.00     0.059 A 
ATOM     87  C   UNL A   1      44.646  31.145  26.607  1.00  0.00     0.059 A 
ATOM     88  F   UNL A   1      44.667  28.936  27.382  1.00  0.00    -0.206 F 
ATOM     89  C   UNL A   1      44.931  32.492  26.812  1.00  0.00     0.060 A 
BRANCH  89  90
ATOM     90  S   UNL A   1      44.668  33.685  25.483  1.00  0.00     0.124 S 
ATOM     91  O   UNL A   1      43.763  34.646  26.104  1.00  0.00    -0.237 OA
ATOM     92  O   UNL A   1      46.023  34.165  25.220  1.00  0.00    -0.237 OA
ATOM     93  O   UNL A   1      44.082  32.882  24.412  1.00  0.00    -0.744 OA
ENDBRANCH  89  90
ENDBRANCH  57  82
ENDBRANCH  31  32
ENDBRANCH  24  26
ENDBRANCH  23  24
ENDBRANCH  22  23
ENDBRANCH   1  22
TORSDOF 18
ENDMDL
