MODEL 1
REMARK VINA RESULT:     -11.2      0.000      0.000
REMARK SMILES COc1cccc(NC(=O)/C(C#N)=C\c2ccc(O[C@@H](C)C(=O)OCCOC(=O)c3ccc(-c4c5nc(c(-c6c(F)cc(S(=O)(=O)[O-])cc6F)c6ccc([nH]6)c(-c6c(F)cc(S(=O)(=O)[O-])cc6F)c6nc(c(-c7c(F)cc(S(=O)(=O)[O-])cc7F)c7ccc4[nH]7)C=C6)C=C5)cc3)cc2)c1
REMARK SMILES IDX 24 1 22 2 23 3 20 4 21 5 19 6 18 7 15 8 16 9 97 10 17 11
REMARK SMILES IDX 96 12 14 13 11 14 9 15 8 16 10 18 7 19 3 20 4 21 98 22 5 23
REMARK SMILES IDX 6 24 2 25 1 26 12 27 13 28 25 29 26 30 27 31 28 32 29 33
REMARK SMILES IDX 30 34 31 35 95 36 32 37 94 38 33 39 34 40 35 41 88 42 36 43
REMARK SMILES IDX 93 44 87 45 89 46 37 47 92 48 86 49 85 50 38 52 72 53 51 54
REMARK SMILES IDX 71 55 52 56 55 57 70 58 90 59 53 60 54 61 69 63 91 64 56 65
REMARK SMILES IDX 39 66 40 67 49 68 41 69 42 70 48 71 50 72 43 73 44 74 45 75
REMARK SMILES IDX 46 76 47 77 73 78 74 79 83 80 75 81 76 82 82 83 84 84 77 85
REMARK SMILES IDX 78 86 79 87 80 88 81 89 57 90 58 91 67 92 59 93 60 94 66 95
REMARK SMILES IDX 68 96 61 97 62 98 63 99 64 100 65 101
REMARK H PARENT 8 17 89 51 55 62
REMARK Flexibility Score: inf
ROOT
ATOM      1  O   UNL A   1      43.825  22.571  26.717  1.00  0.00    -0.459 OA
ENDROOT
BRANCH   1   2
ATOM      2  C   UNL A   1      42.710  21.983  26.212  1.00  0.00     0.347 C 
ATOM      3  O   UNL A   1      42.702  21.270  25.216  1.00  0.00    -0.248 OA
BRANCH   2   4
ATOM      4  C   UNL A   1      41.430  22.320  27.034  1.00  0.00     0.279 C 
ATOM      5  C   UNL A   1      41.768  22.764  28.458  1.00  0.00     0.066 C 
BRANCH   4   6
ATOM      6  O   UNL A   1      40.260  21.509  27.004  1.00  0.00    -0.479 OA
BRANCH   6   7
ATOM      7  C   UNL A   1      39.179  21.884  26.268  1.00  0.00     0.120 A 
ATOM      8  C   UNL A   1      36.987  22.856  24.821  1.00  0.00    -0.024 A 
ATOM      9  C   UNL A   1      37.670  23.705  25.692  1.00  0.00     0.012 A 
ATOM     10  C   UNL A   1      37.453  21.555  24.627  1.00  0.00     0.012 A 
ATOM     11  C   UNL A   1      38.774  23.217  26.403  1.00  0.00     0.047 A 
ATOM     12  C   UNL A   1      38.487  21.056  25.395  1.00  0.00     0.047 A 
BRANCH   8  13
ATOM     13  C   UNL A   1      35.837  23.279  24.020  1.00  0.00     0.033 C 
ATOM     14  C   UNL A   1      34.563  22.831  24.152  1.00  0.00     0.118 C 
BRANCH  14  15
ATOM     15  C   UNL A   1      34.107  22.063  25.377  1.00  0.00     0.266 C 
ATOM     16  N   UNL A   1      33.919  20.715  25.445  1.00  0.00    -0.321 N 
ATOM     17  H   UNL A   1      34.106  20.357  26.343  1.00  0.00     0.170 HD
ATOM     18  O   UNL A   1      33.949  22.632  26.462  1.00  0.00    -0.268 OA
BRANCH  16  19
ATOM     19  C   UNL A   1      33.527  19.719  24.547  1.00  0.00     0.045 A 
ATOM     20  C   UNL A   1      33.822  17.445  23.770  1.00  0.00     0.120 A 
ATOM     21  C   UNL A   1      32.902  17.664  22.752  1.00  0.00     0.046 A 
ATOM     22  C   UNL A   1      34.162  18.475  24.650  1.00  0.00     0.072 A 
ATOM     23  C   UNL A   1      32.212  18.870  22.703  1.00  0.00     0.006 A 
ATOM     24  C   UNL A   1      32.485  19.868  23.639  1.00  0.00     0.026 A 
BRANCH  20  25
ATOM     25  O   UNL A   1      34.405  16.210  23.844  1.00  0.00    -0.497 OA
ATOM     26  C   UNL A   1      35.110  16.052  25.077  1.00  0.00     0.278 C 
ENDBRANCH  20  25
ENDBRANCH  16  19
ENDBRANCH  14  15
BRANCH  14  27
ATOM     27  C   UNL A   1      33.767  23.000  22.988  1.00  0.00     0.105 C 
ATOM     28  N   UNL A   1      33.197  23.164  21.987  1.00  0.00    -0.192 NA
ENDBRANCH  14  27
ENDBRANCH   8  13
ENDBRANCH   6   7
ENDBRANCH   4   6
ENDBRANCH   2   4
ENDBRANCH   1   2
BRANCH   1  29
ATOM     29  C   UNL A   1      44.478  23.610  25.966  1.00  0.00     0.274 C 
BRANCH  29  30
ATOM     30  C   UNL A   1      44.412  24.918  26.754  1.00  0.00     0.275 C 
BRANCH  30  31
ATOM     31  O   UNL A   1      43.915  25.974  25.915  1.00  0.00    -0.458 OA
BRANCH  31  32
ATOM     32  C   UNL A   1      42.564  26.059  25.860  1.00  0.00     0.338 C 
ATOM     33  O   UNL A   1      41.814  25.510  25.072  1.00  0.00    -0.246 OA
BRANCH  32  34
ATOM     34  C   UNL A   1      42.091  26.806  27.028  1.00  0.00     0.060 A 
ATOM     35  C   UNL A   1      42.658  28.056  27.278  1.00  0.00     0.016 A 
ATOM     36  C   UNL A   1      41.158  26.261  27.903  1.00  0.00     0.016 A 
ATOM     37  C   UNL A   1      42.316  28.771  28.415  1.00  0.00     0.010 A 
ATOM     38  C   UNL A   1      40.801  26.983  29.043  1.00  0.00     0.010 A 
ATOM     39  C   UNL A   1      41.389  28.233  29.311  1.00  0.00    -0.014 A 
BRANCH  39  40
ATOM     40  C   UNL A   1      41.088  28.953  30.566  1.00  0.00     0.031 A 
ATOM     41  C   UNL A   1      39.941  29.919  30.604  1.00  0.00     0.074 A 
ATOM     42  C   UNL A   1      41.833  28.718  31.661  1.00  0.00     0.049 A 
ATOM     43  N   UNL A   1      39.575  30.729  31.561  1.00  0.00    -0.248 NA
ATOM     44  C   UNL A   1      39.101  29.986  29.398  1.00  0.00     0.031 C 
ATOM     45  C   UNL A   1      42.927  27.751  31.748  1.00  0.00     0.029 A 
ATOM     46  N   UNL A   1      41.781  29.278  32.911  1.00  0.00    -0.354 N 
ATOM     47  C   UNL A   1      38.480  31.427  31.063  1.00  0.00     0.074 A 
ATOM     48  C   UNL A   1      38.260  30.961  29.711  1.00  0.00     0.031 C 
ATOM     49  C   UNL A   1      43.440  27.778  32.987  1.00  0.00     0.029 A 
ATOM     50  C   UNL A   1      42.752  28.809  33.761  1.00  0.00     0.049 A 
ATOM     51  H   UNL A   1      41.113  29.952  33.174  1.00  0.00     0.167 HD
ATOM     52  C   UNL A   1      37.730  32.367  31.686  1.00  0.00     0.037 A 
ATOM     53  C   UNL A   1      43.072  29.190  35.011  1.00  0.00     0.037 A 
ATOM     54  C   UNL A   1      37.968  32.809  33.036  1.00  0.00     0.049 A 
ATOM     55  C   UNL A   1      42.276  30.292  35.655  1.00  0.00     0.074 A 
ATOM     56  C   UNL A   1      37.270  33.750  33.771  1.00  0.00     0.029 A 
ATOM     57  N   UNL A   1      38.990  32.343  33.854  1.00  0.00    -0.354 N 
ATOM     58  N   UNL A   1      41.253  30.959  35.174  1.00  0.00    -0.248 NA
ATOM     59  C   UNL A   1      42.682  30.699  37.005  1.00  0.00     0.031 C 
ATOM     60  C   UNL A   1      37.904  33.894  35.011  1.00  0.00     0.029 A 
ATOM     61  C   UNL A   1      38.960  32.997  35.075  1.00  0.00     0.049 A 
ATOM     62  H   UNL A   1      39.641  31.648  33.603  1.00  0.00     0.167 HD
ATOM     63  C   UNL A   1      40.873  31.847  36.174  1.00  0.00     0.074 A 
ATOM     64  C   UNL A   1      41.774  31.624  37.288  1.00  0.00     0.031 C 
ATOM     65  C   UNL A   1      39.869  32.759  36.172  1.00  0.00     0.037 A 
BRANCH  52  66
ATOM     66  C   UNL A   1      36.626  33.008  30.890  1.00  0.00     0.058 A 
ATOM     67  C   UNL A   1      35.275  32.668  31.074  1.00  0.00     0.135 A 
ATOM     68  C   UNL A   1      36.925  33.968  29.908  1.00  0.00     0.135 A 
ATOM     69  F   UNL A   1      34.929  31.744  31.986  1.00  0.00    -0.206 F 
ATOM     70  C   UNL A   1      34.270  33.216  30.282  1.00  0.00     0.059 A 
ATOM     71  C   UNL A   1      35.933  34.554  29.127  1.00  0.00     0.059 A 
ATOM     72  F   UNL A   1      38.198  34.334  29.686  1.00  0.00    -0.206 F 
ATOM     73  C   UNL A   1      34.611  34.153  29.307  1.00  0.00     0.060 A 
BRANCH  73  74
ATOM     74  S   UNL A   1      33.302  34.828  28.261  1.00  0.00     0.124 S 
ATOM     75  O   UNL A   1      34.077  35.551  27.256  1.00  0.00    -0.237 OA
ATOM     76  O   UNL A   1      32.625  33.623  27.791  1.00  0.00    -0.237 OA
ATOM     77  O   UNL A   1      32.529  35.661  29.176  1.00  0.00    -0.744 OA
ENDBRANCH  73  74
ENDBRANCH  52  66
BRANCH  53  78
ATOM     78  C   UNL A   1      44.194  28.522  35.721  1.00  0.00     0.058 A 
ATOM     79  C   UNL A   1      45.496  29.036  35.652  1.00  0.00     0.135 A 
ATOM     80  C   UNL A   1      43.981  27.388  36.522  1.00  0.00     0.135 A 
ATOM     81  F   UNL A   1      45.751  30.113  34.892  1.00  0.00    -0.206 F 
ATOM     82  C   UNL A   1      46.547  28.454  36.352  1.00  0.00     0.059 A 
ATOM     83  C   UNL A   1      45.010  26.804  37.253  1.00  0.00     0.059 A 
ATOM     84  F   UNL A   1      42.750  26.862  36.632  1.00  0.00    -0.206 F 
ATOM     85  C   UNL A   1      46.292  27.344  37.158  1.00  0.00     0.060 A 
BRANCH  85  86
ATOM     86  S   UNL A   1      47.652  26.646  38.120  1.00  0.00     0.124 S 
ATOM     87  O   UNL A   1      48.659  27.693  38.010  1.00  0.00    -0.237 OA
ATOM     88  O   UNL A   1      47.041  26.484  39.436  1.00  0.00    -0.237 OA
ATOM     89  O   UNL A   1      47.955  25.402  37.421  1.00  0.00    -0.744 OA
ENDBRANCH  85  86
ENDBRANCH  53  78
BRANCH  65  90
ATOM     90  C   UNL A   1      39.666  33.560  37.429  1.00  0.00     0.058 A 
ATOM     91  C   UNL A   1      40.368  34.752  37.671  1.00  0.00     0.135 A 
ATOM     92  C   UNL A   1      38.717  33.153  38.383  1.00  0.00     0.135 A 
ATOM     93  F   UNL A   1      41.292  35.181  36.798  1.00  0.00    -0.206 F 
ATOM     94  C   UNL A   1      40.153  35.499  38.825  1.00  0.00     0.059 A 
ATOM     95  C   UNL A   1      38.464  33.901  39.527  1.00  0.00     0.059 A 
ATOM     96  F   UNL A   1      38.011  32.026  38.195  1.00  0.00    -0.206 F 
ATOM     97  C   UNL A   1      39.196  35.067  39.746  1.00  0.00     0.060 A 
BRANCH  97  98
ATOM     98  S   UNL A   1      38.902  36.066  41.219  1.00  0.00     0.124 S 
ATOM     99  O   UNL A   1      38.543  37.354  40.635  1.00  0.00    -0.237 OA
ATOM    100  O   UNL A   1      37.817  35.342  41.875  1.00  0.00    -0.237 OA
ATOM    101  O   UNL A   1      40.184  36.029  41.917  1.00  0.00    -0.744 OA
ENDBRANCH  97  98
ENDBRANCH  65  90
ENDBRANCH  39  40
ENDBRANCH  32  34
ENDBRANCH  31  32
ENDBRANCH  30  31
ENDBRANCH  29  30
ENDBRANCH   1  29
TORSDOF 21
ENDMDL
MODEL 2
REMARK VINA RESULT:     -11.1      1.566      3.038
REMARK SMILES COc1cccc(NC(=O)/C(C#N)=C\c2ccc(O[C@@H](C)C(=O)OCCOC(=O)c3ccc(-c4c5nc(c(-c6c(F)cc(S(=O)(=O)[O-])cc6F)c6ccc([nH]6)c(-c6c(F)cc(S(=O)(=O)[O-])cc6F)c6nc(c(-c7c(F)cc(S(=O)(=O)[O-])cc7F)c7ccc4[nH]7)C=C6)C=C5)cc3)cc2)c1
REMARK SMILES IDX 24 1 22 2 23 3 20 4 21 5 19 6 18 7 15 8 16 9 97 10 17 11
REMARK SMILES IDX 96 12 14 13 11 14 9 15 8 16 10 18 7 19 3 20 4 21 98 22 5 23
REMARK SMILES IDX 6 24 2 25 1 26 12 27 13 28 25 29 26 30 27 31 28 32 29 33
REMARK SMILES IDX 30 34 31 35 95 36 32 37 94 38 33 39 34 40 35 41 88 42 36 43
REMARK SMILES IDX 93 44 87 45 89 46 37 47 92 48 86 49 85 50 38 52 72 53 51 54
REMARK SMILES IDX 71 55 52 56 55 57 70 58 90 59 53 60 54 61 69 63 91 64 56 65
REMARK SMILES IDX 39 66 40 67 49 68 41 69 42 70 48 71 50 72 43 73 44 74 45 75
REMARK SMILES IDX 46 76 47 77 73 78 74 79 83 80 75 81 76 82 82 83 84 84 77 85
REMARK SMILES IDX 78 86 79 87 80 88 81 89 57 90 58 91 67 92 59 93 60 94 66 95
REMARK SMILES IDX 68 96 61 97 62 98 63 99 64 100 65 101
REMARK H PARENT 8 17 89 51 55 62
REMARK Flexibility Score: inf
ROOT
ATOM      1  O   UNL A   1      43.620  22.393  25.915  1.00  0.00    -0.459 OA
ENDROOT
BRANCH   1   2
ATOM      2  C   UNL A   1      42.541  21.595  26.124  1.00  0.00     0.347 C 
ATOM      3  O   UNL A   1      42.388  20.499  25.600  1.00  0.00    -0.248 OA
BRANCH   2   4
ATOM      4  C   UNL A   1      41.507  22.228  27.102  1.00  0.00     0.279 C 
ATOM      5  C   UNL A   1      42.130  22.546  28.463  1.00  0.00     0.066 C 
BRANCH   4   6
ATOM      6  O   UNL A   1      40.177  21.738  27.239  1.00  0.00    -0.479 OA
BRANCH   6   7
ATOM      7  C   UNL A   1      39.191  22.180  26.412  1.00  0.00     0.120 A 
ATOM      8  C   UNL A   1      37.137  22.887  24.644  1.00  0.00    -0.024 A 
ATOM      9  C   UNL A   1      37.636  21.585  24.635  1.00  0.00     0.012 A 
ATOM     10  C   UNL A   1      37.617  23.799  25.585  1.00  0.00     0.012 A 
ATOM     11  C   UNL A   1      38.655  21.233  25.532  1.00  0.00     0.047 A 
ATOM     12  C   UNL A   1      38.679  23.470  26.405  1.00  0.00     0.047 A 
BRANCH   8  13
ATOM     13  C   UNL A   1      36.062  23.343  23.762  1.00  0.00     0.033 C 
ATOM     14  C   UNL A   1      34.732  23.173  23.969  1.00  0.00     0.118 C 
BRANCH  14  15
ATOM     15  C   UNL A   1      34.177  22.767  25.321  1.00  0.00     0.266 C 
ATOM     16  N   UNL A   1      33.121  23.350  25.954  1.00  0.00    -0.321 N 
ATOM     17  H   UNL A   1      32.619  22.711  26.510  1.00  0.00     0.170 HD
ATOM     18  O   UNL A   1      34.620  21.782  25.921  1.00  0.00    -0.268 OA
BRANCH  16  19
ATOM     19  C   UNL A   1      32.577  24.637  26.002  1.00  0.00     0.045 A 
ATOM     20  C   UNL A   1      32.989  27.021  26.069  1.00  0.00     0.120 A 
ATOM     21  C   UNL A   1      31.625  27.263  26.191  1.00  0.00     0.046 A 
ATOM     22  C   UNL A   1      33.473  25.714  26.006  1.00  0.00     0.072 A 
ATOM     23  C   UNL A   1      30.734  26.200  26.103  1.00  0.00     0.006 A 
ATOM     24  C   UNL A   1      31.213  24.899  25.947  1.00  0.00     0.026 A 
BRANCH  20  25
ATOM     25  O   UNL A   1      33.826  28.104  26.059  1.00  0.00    -0.497 OA
ATOM     26  C   UNL A   1      33.134  29.279  25.635  1.00  0.00     0.278 C 
ENDBRANCH  20  25
ENDBRANCH  16  19
ENDBRANCH  14  15
BRANCH  14  27
ATOM     27  C   UNL A   1      33.947  23.247  22.788  1.00  0.00     0.105 C 
ATOM     28  N   UNL A   1      33.360  23.385  21.793  1.00  0.00    -0.192 NA
ENDBRANCH  14  27
ENDBRANCH   8  13
ENDBRANCH   6   7
ENDBRANCH   4   6
ENDBRANCH   2   4
ENDBRANCH   1   2
BRANCH   1  29
ATOM     29  C   UNL A   1      43.754  23.088  24.663  1.00  0.00     0.274 C 
BRANCH  29  30
ATOM     30  C   UNL A   1      44.098  24.552  24.934  1.00  0.00     0.275 C 
BRANCH  30  31
ATOM     31  O   UNL A   1      43.504  24.977  26.172  1.00  0.00    -0.458 OA
BRANCH  31  32
ATOM     32  C   UNL A   1      42.512  25.889  26.036  1.00  0.00     0.338 C 
ATOM     33  O   UNL A   1      41.759  26.037  25.090  1.00  0.00    -0.246 OA
BRANCH  32  34
ATOM     34  C   UNL A   1      42.354  26.605  27.305  1.00  0.00     0.060 A 
ATOM     35  C   UNL A   1      41.405  26.130  28.210  1.00  0.00     0.016 A 
ATOM     36  C   UNL A   1      43.076  27.763  27.574  1.00  0.00     0.016 A 
ATOM     37  C   UNL A   1      41.148  26.815  29.387  1.00  0.00     0.010 A 
ATOM     38  C   UNL A   1      42.830  28.450  28.764  1.00  0.00     0.010 A 
ATOM     39  C   UNL A   1      41.855  27.987  29.668  1.00  0.00    -0.014 A 
BRANCH  39  40
ATOM     40  C   UNL A   1      41.522  28.765  30.879  1.00  0.00     0.031 A 
ATOM     41  C   UNL A   1      40.351  29.702  30.853  1.00  0.00     0.074 A 
ATOM     42  C   UNL A   1      42.258  28.608  31.993  1.00  0.00     0.049 A 
ATOM     43  N   UNL A   1      39.954  30.554  31.760  1.00  0.00    -0.248 NA
ATOM     44  C   UNL A   1      39.525  29.684  29.635  1.00  0.00     0.031 C 
ATOM     45  C   UNL A   1      43.375  27.674  32.144  1.00  0.00     0.029 A 
ATOM     46  N   UNL A   1      42.178  29.232  33.211  1.00  0.00    -0.354 N 
ATOM     47  C   UNL A   1      38.849  31.196  31.214  1.00  0.00     0.074 A 
ATOM     48  C   UNL A   1      38.656  30.653  29.887  1.00  0.00     0.031 C 
ATOM     49  C   UNL A   1      43.872  27.780  33.385  1.00  0.00     0.029 A 
ATOM     50  C   UNL A   1      43.150  28.833  34.095  1.00  0.00     0.049 A 
ATOM     51  H   UNL A   1      41.491  29.902  33.430  1.00  0.00     0.167 HD
ATOM     52  C   UNL A   1      38.068  32.149  31.777  1.00  0.00     0.037 A 
ATOM     53  C   UNL A   1      43.445  29.289  35.327  1.00  0.00     0.037 A 
ATOM     54  C   UNL A   1      38.279  32.669  33.104  1.00  0.00     0.049 A 
ATOM     55  C   UNL A   1      42.615  30.404  35.901  1.00  0.00     0.074 A 
ATOM     56  C   UNL A   1      37.549  33.630  33.780  1.00  0.00     0.029 A 
ATOM     57  N   UNL A   1      39.302  32.272  33.957  1.00  0.00    -0.354 N 
ATOM     58  N   UNL A   1      41.582  31.018  35.374  1.00  0.00    -0.248 NA
ATOM     59  C   UNL A   1      42.994  30.892  37.232  1.00  0.00     0.031 C 
ATOM     60  C   UNL A   1      38.165  33.856  35.017  1.00  0.00     0.029 A 
ATOM     61  C   UNL A   1      39.241  32.989  35.141  1.00  0.00     0.049 A 
ATOM     62  H   UNL A   1      39.973  31.582  33.750  1.00  0.00     0.167 HD
ATOM     63  C   UNL A   1      41.168  31.948  36.320  1.00  0.00     0.074 A 
ATOM     64  C   UNL A   1      42.060  31.808  37.455  1.00  0.00     0.031 C 
ATOM     65  C   UNL A   1      40.142  32.834  36.259  1.00  0.00     0.037 A 
BRANCH  52  66
ATOM     66  C   UNL A   1      36.958  32.719  30.936  1.00  0.00     0.058 A 
ATOM     67  C   UNL A   1      37.181  33.730  29.986  1.00  0.00     0.135 A 
ATOM     68  C   UNL A   1      35.640  32.259  31.097  1.00  0.00     0.135 A 
ATOM     69  F   UNL A   1      38.418  34.221  29.800  1.00  0.00    -0.206 F 
ATOM     70  C   UNL A   1      36.135  34.297  29.265  1.00  0.00     0.059 A 
ATOM     71  C   UNL A   1      34.583  32.788  30.363  1.00  0.00     0.059 A 
ATOM     72  F   UNL A   1      35.365  31.294  31.989  1.00  0.00    -0.206 F 
ATOM     73  C   UNL A   1      34.838  33.824  29.467  1.00  0.00     0.060 A 
BRANCH  73  74
ATOM     74  S   UNL A   1      33.485  34.596  28.553  1.00  0.00     0.124 S 
ATOM     75  O   UNL A   1      34.172  35.703  27.895  1.00  0.00    -0.237 OA
ATOM     76  O   UNL A   1      33.044  33.515  27.676  1.00  0.00    -0.237 OA
ATOM     77  O   UNL A   1      32.540  34.976  29.598  1.00  0.00    -0.744 OA
ENDBRANCH  73  74
ENDBRANCH  52  66
BRANCH  53  78
ATOM     78  C   UNL A   1      44.574  28.688  36.083  1.00  0.00     0.058 A 
ATOM     79  C   UNL A   1      45.870  29.209  35.974  1.00  0.00     0.135 A 
ATOM     80  C   UNL A   1      44.373  27.615  36.967  1.00  0.00     0.135 A 
ATOM     81  F   UNL A   1      46.114  30.228  35.136  1.00  0.00    -0.206 F 
ATOM     82  C   UNL A   1      46.928  28.692  36.715  1.00  0.00     0.059 A 
ATOM     83  C   UNL A   1      45.409  27.099  37.739  1.00  0.00     0.059 A 
ATOM     84  F   UNL A   1      43.148  27.086  37.117  1.00  0.00    -0.206 F 
ATOM     85  C   UNL A   1      46.686  27.643  37.603  1.00  0.00     0.060 A 
BRANCH  85  86
ATOM     86  S   UNL A   1      48.052  27.034  38.613  1.00  0.00     0.124 S 
ATOM     87  O   UNL A   1      47.571  25.712  38.995  1.00  0.00    -0.237 OA
ATOM     88  O   UNL A   1      49.165  27.061  37.669  1.00  0.00    -0.237 OA
ATOM     89  O   UNL A   1      48.133  28.012  39.694  1.00  0.00    -0.744 OA
ENDBRANCH  85  86
ENDBRANCH  53  78
BRANCH  65  90
ATOM     90  C   UNL A   1      39.904  33.695  37.469  1.00  0.00     0.058 A 
ATOM     91  C   UNL A   1      40.523  34.946  37.622  1.00  0.00     0.135 A 
ATOM     92  C   UNL A   1      39.005  33.283  38.466  1.00  0.00     0.135 A 
ATOM     93  F   UNL A   1      41.398  35.384  36.703  1.00  0.00    -0.206 F 
ATOM     94  C   UNL A   1      40.276  35.747  38.732  1.00  0.00     0.059 A 
ATOM     95  C   UNL A   1      38.718  34.081  39.568  1.00  0.00     0.059 A 
ATOM     96  F   UNL A   1      38.379  32.099  38.364  1.00  0.00    -0.206 F 
ATOM     97  C   UNL A   1      39.369  35.307  39.698  1.00  0.00     0.060 A 
BRANCH  97  98
ATOM     98  S   UNL A   1      39.030  36.373  41.114  1.00  0.00     0.124 S 
ATOM     99  O   UNL A   1      37.886  35.699  41.722  1.00  0.00    -0.237 OA
ATOM    100  O   UNL A   1      40.280  36.303  41.864  1.00  0.00    -0.237 OA
ATOM    101  O   UNL A   1      38.744  37.668  40.505  1.00  0.00    -0.744 OA
ENDBRANCH  97  98
ENDBRANCH  65  90
ENDBRANCH  39  40
ENDBRANCH  32  34
ENDBRANCH  31  32
ENDBRANCH  30  31
ENDBRANCH  29  30
ENDBRANCH   1  29
TORSDOF 21
ENDMDL
MODEL 3
REMARK VINA RESULT:     -11.0      0.996      8.120
REMARK SMILES COc1cccc(NC(=O)/C(C#N)=C\c2ccc(O[C@@H](C)C(=O)OCCOC(=O)c3ccc(-c4c5nc(c(-c6c(F)cc(S(=O)(=O)[O-])cc6F)c6ccc([nH]6)c(-c6c(F)cc(S(=O)(=O)[O-])cc6F)c6nc(c(-c7c(F)cc(S(=O)(=O)[O-])cc7F)c7ccc4[nH]7)C=C6)C=C5)cc3)cc2)c1
REMARK SMILES IDX 24 1 22 2 23 3 20 4 21 5 19 6 18 7 15 8 16 9 97 10 17 11
REMARK SMILES IDX 96 12 14 13 11 14 9 15 8 16 10 18 7 19 3 20 4 21 98 22 5 23
REMARK SMILES IDX 6 24 2 25 1 26 12 27 13 28 25 29 26 30 27 31 28 32 29 33
REMARK SMILES IDX 30 34 31 35 95 36 32 37 94 38 33 39 34 40 35 41 88 42 36 43
REMARK SMILES IDX 93 44 87 45 89 46 37 47 92 48 86 49 85 50 38 52 72 53 51 54
REMARK SMILES IDX 71 55 52 56 55 57 70 58 90 59 53 60 54 61 69 63 91 64 56 65
REMARK SMILES IDX 39 66 40 67 49 68 41 69 42 70 48 71 50 72 43 73 44 74 45 75
REMARK SMILES IDX 46 76 47 77 73 78 74 79 83 80 75 81 76 82 82 83 84 84 77 85
REMARK SMILES IDX 78 86 79 87 80 88 81 89 57 90 58 91 67 92 59 93 60 94 66 95
REMARK SMILES IDX 68 96 61 97 62 98 63 99 64 100 65 101
REMARK H PARENT 8 17 89 51 55 62
REMARK Flexibility Score: inf
ROOT
ATOM      1  O   UNL A   1      43.342  21.914  25.947  1.00  0.00    -0.459 OA
ENDROOT
BRANCH   1   2
ATOM      2  C   UNL A   1      42.696  20.725  25.842  1.00  0.00     0.347 C 
ATOM      3  O   UNL A   1      43.152  19.746  25.263  1.00  0.00    -0.248 OA
BRANCH   2   4
ATOM      4  C   UNL A   1      41.300  20.738  26.532  1.00  0.00     0.279 C 
ATOM      5  C   UNL A   1      41.335  20.055  27.900  1.00  0.00     0.066 C 
BRANCH   4   6
ATOM      6  O   UNL A   1      40.093  20.446  25.834  1.00  0.00    -0.479 OA
BRANCH   6   7
ATOM      7  C   UNL A   1      39.093  21.367  25.770  1.00  0.00     0.120 A 
ATOM      8  C   UNL A   1      36.916  23.114  25.541  1.00  0.00    -0.024 A 
ATOM      9  C   UNL A   1      36.865  21.864  24.925  1.00  0.00     0.012 A 
ATOM     10  C   UNL A   1      38.023  23.447  26.324  1.00  0.00     0.012 A 
ATOM     11  C   UNL A   1      37.952  20.988  25.055  1.00  0.00     0.047 A 
ATOM     12  C   UNL A   1      39.124  22.615  26.376  1.00  0.00     0.047 A 
BRANCH   8  13
ATOM     13  C   UNL A   1      35.825  24.087  25.480  1.00  0.00     0.033 C 
ATOM     14  C   UNL A   1      34.557  23.895  25.923  1.00  0.00     0.118 C 
BRANCH  14  15
ATOM     15  C   UNL A   1      34.196  22.745  26.843  1.00  0.00     0.266 C 
ATOM     16  N   UNL A   1      33.917  21.471  26.451  1.00  0.00    -0.321 N 
ATOM     17  H   UNL A   1      34.184  20.805  27.125  1.00  0.00     0.170 HD
ATOM     18  O   UNL A   1      34.215  22.883  28.072  1.00  0.00    -0.268 OA
BRANCH  16  19
ATOM     19  C   UNL A   1      33.344  20.881  25.321  1.00  0.00     0.045 A 
ATOM     20  C   UNL A   1      32.806  18.838  24.140  1.00  0.00     0.120 A 
ATOM     21  C   UNL A   1      32.313  19.575  23.070  1.00  0.00     0.046 A 
ATOM     22  C   UNL A   1      33.350  19.482  25.252  1.00  0.00     0.072 A 
ATOM     23  C   UNL A   1      32.231  20.958  23.174  1.00  0.00     0.006 A 
ATOM     24  C   UNL A   1      32.691  21.599  24.325  1.00  0.00     0.026 A 
BRANCH  20  25
ATOM     25  O   UNL A   1      32.776  17.473  24.038  1.00  0.00    -0.497 OA
ATOM     26  C   UNL A   1      33.887  16.995  23.277  1.00  0.00     0.278 C 
ENDBRANCH  20  25
ENDBRANCH  16  19
ENDBRANCH  14  15
BRANCH  14  27
ATOM     27  C   UNL A   1      33.598  24.753  25.324  1.00  0.00     0.105 C 
ATOM     28  N   UNL A   1      32.803  25.389  24.760  1.00  0.00    -0.192 NA
ENDBRANCH  14  27
ENDBRANCH   8  13
ENDBRANCH   6   7
ENDBRANCH   4   6
ENDBRANCH   2   4
ENDBRANCH   1   2
BRANCH   1  29
ATOM     29  C   UNL A   1      43.491  22.744  24.781  1.00  0.00     0.274 C 
BRANCH  29  30
ATOM     30  C   UNL A   1      43.515  24.211  25.207  1.00  0.00     0.275 C 
BRANCH  30  31
ATOM     31  O   UNL A   1      42.526  24.446  26.222  1.00  0.00    -0.458 OA
BRANCH  31  32
ATOM     32  C   UNL A   1      41.706  25.496  25.977  1.00  0.00     0.338 C 
ATOM     33  O   UNL A   1      40.996  25.676  25.004  1.00  0.00    -0.246 OA
BRANCH  32  34
ATOM     34  C   UNL A   1      41.664  26.348  27.168  1.00  0.00     0.060 A 
ATOM     35  C   UNL A   1      40.727  26.045  28.157  1.00  0.00     0.016 A 
ATOM     36  C   UNL A   1      42.481  27.468  27.283  1.00  0.00     0.016 A 
ATOM     37  C   UNL A   1      40.581  26.865  29.264  1.00  0.00     0.010 A 
ATOM     38  C   UNL A   1      42.346  28.290  28.402  1.00  0.00     0.010 A 
ATOM     39  C   UNL A   1      41.385  28.000  29.389  1.00  0.00    -0.014 A 
BRANCH  39  40
ATOM     40  C   UNL A   1      41.170  28.922  30.524  1.00  0.00     0.031 A 
ATOM     41  C   UNL A   1      42.073  28.842  31.719  1.00  0.00     0.074 A 
ATOM     42  C   UNL A   1      40.182  29.833  30.462  1.00  0.00     0.049 A 
ATOM     43  N   UNL A   1      41.994  29.476  32.858  1.00  0.00    -0.248 NA
ATOM     44  C   UNL A   1      43.212  27.916  31.618  1.00  0.00     0.031 C 
ATOM     45  C   UNL A   1      39.291  30.037  29.319  1.00  0.00     0.029 A 
ATOM     46  N   UNL A   1      39.762  30.756  31.384  1.00  0.00    -0.354 N 
ATOM     47  C   UNL A   1      43.054  29.005  33.624  1.00  0.00     0.074 A 
ATOM     48  C   UNL A   1      43.744  28.013  32.828  1.00  0.00     0.031 C 
ATOM     49  C   UNL A   1      38.434  31.029  29.604  1.00  0.00     0.029 A 
ATOM     50  C   UNL A   1      38.674  31.485  30.970  1.00  0.00     0.049 A 
ATOM     51  H   UNL A   1      40.197  30.884  32.257  1.00  0.00     0.167 HD
ATOM     52  C   UNL A   1      43.414  29.373  34.877  1.00  0.00     0.037 A 
ATOM     53  C   UNL A   1      37.935  32.395  31.631  1.00  0.00     0.037 A 
ATOM     54  C   UNL A   1      42.712  30.368  35.647  1.00  0.00     0.049 A 
ATOM     55  C   UNL A   1      38.304  32.731  33.049  1.00  0.00     0.074 A 
ATOM     56  C   UNL A   1      42.988  30.826  36.922  1.00  0.00     0.029 A 
ATOM     57  N   UNL A   1      41.585  31.057  35.212  1.00  0.00    -0.354 N 
ATOM     58  N   UNL A   1      39.297  32.271  33.774  1.00  0.00    -0.248 NA
ATOM     59  C   UNL A   1      37.450  33.703  33.742  1.00  0.00     0.031 C 
ATOM     60  C   UNL A   1      41.997  31.747  37.280  1.00  0.00     0.029 A 
ATOM     61  C   UNL A   1      41.137  31.914  36.204  1.00  0.00     0.049 A 
ATOM     62  H   UNL A   1      41.165  30.950  34.328  1.00  0.00     0.167 HD
ATOM     63  C   UNL A   1      39.205  32.917  35.001  1.00  0.00     0.074 A 
ATOM     64  C   UNL A   1      38.062  33.807  34.915  1.00  0.00     0.031 C 
ATOM     65  C   UNL A   1      39.995  32.790  36.097  1.00  0.00     0.037 A 
BRANCH  52  66
ATOM     66  C   UNL A   1      44.582  28.657  35.499  1.00  0.00     0.058 A 
ATOM     67  C   UNL A   1      44.432  27.449  36.202  1.00  0.00     0.135 A 
ATOM     68  C   UNL A   1      45.875  29.200  35.409  1.00  0.00     0.135 A 
ATOM     69  F   UNL A   1      43.218  26.892  36.336  1.00  0.00    -0.206 F 
ATOM     70  C   UNL A   1      45.509  26.835  36.833  1.00  0.00     0.059 A 
ATOM     71  C   UNL A   1      46.972  28.585  36.004  1.00  0.00     0.059 A 
ATOM     72  F   UNL A   1      46.081  30.352  34.751  1.00  0.00    -0.206 F 
ATOM     73  C   UNL A   1      46.774  27.414  36.734  1.00  0.00     0.060 A 
BRANCH  73  74
ATOM     74  S   UNL A   1      48.156  26.626  37.589  1.00  0.00     0.124 S 
ATOM     75  O   UNL A   1      48.339  27.519  38.730  1.00  0.00    -0.237 OA
ATOM     76  O   UNL A   1      47.619  25.305  37.900  1.00  0.00    -0.237 OA
ATOM     77  O   UNL A   1      49.227  26.647  36.599  1.00  0.00    -0.744 OA
ENDBRANCH  73  74
ENDBRANCH  52  66
BRANCH  53  78
ATOM     78  C   UNL A   1      36.781  33.040  30.952  1.00  0.00     0.058 A 
ATOM     79  C   UNL A   1      35.466  32.750  31.339  1.00  0.00     0.135 A 
ATOM     80  C   UNL A   1      36.969  33.995  29.939  1.00  0.00     0.135 A 
ATOM     81  F   UNL A   1      35.235  31.839  32.296  1.00  0.00    -0.206 F 
ATOM     82  C   UNL A   1      34.377  33.384  30.750  1.00  0.00     0.059 A 
ATOM     83  C   UNL A   1      35.897  34.662  29.353  1.00  0.00     0.059 A 
ATOM     84  F   UNL A   1      38.209  34.317  29.538  1.00  0.00    -0.206 F 
ATOM     85  C   UNL A   1      34.603  34.346  29.764  1.00  0.00     0.060 A 
BRANCH  85  86
ATOM     86  S   UNL A   1      33.184  35.215  29.064  1.00  0.00     0.124 S 
ATOM     87  O   UNL A   1      32.758  34.291  28.020  1.00  0.00    -0.237 OA
ATOM     88  O   UNL A   1      32.297  35.328  30.218  1.00  0.00    -0.237 OA
ATOM     89  O   UNL A   1      33.757  36.474  28.597  1.00  0.00    -0.744 OA
ENDBRANCH  85  86
ENDBRANCH  53  78
BRANCH  65  90
ATOM     90  C   UNL A   1      39.674  33.663  37.280  1.00  0.00     0.058 A 
ATOM     91  C   UNL A   1      38.795  33.246  38.292  1.00  0.00     0.135 A 
ATOM     92  C   UNL A   1      40.295  34.914  37.426  1.00  0.00     0.135 A 
ATOM     93  F   UNL A   1      38.167  32.063  38.197  1.00  0.00    -0.206 F 
ATOM     94  C   UNL A   1      38.525  34.049  39.395  1.00  0.00     0.059 A 
ATOM     95  C   UNL A   1      40.065  35.719  38.536  1.00  0.00     0.059 A 
ATOM     96  F   UNL A   1      41.152  35.357  36.492  1.00  0.00    -0.206 F 
ATOM     97  C   UNL A   1      39.169  35.283  39.510  1.00  0.00     0.060 A 
BRANCH  97  98
ATOM     98  S   UNL A   1      38.838  36.298  40.965  1.00  0.00     0.124 S 
ATOM     99  O   UNL A   1      40.140  36.300  41.624  1.00  0.00    -0.237 OA
ATOM    100  O   UNL A   1      38.424  37.566  40.374  1.00  0.00    -0.237 OA
ATOM    101  O   UNL A   1      37.784  35.564  41.660  1.00  0.00    -0.744 OA
ENDBRANCH  97  98
ENDBRANCH  65  90
ENDBRANCH  39  40
ENDBRANCH  32  34
ENDBRANCH  31  32
ENDBRANCH  30  31
ENDBRANCH  29  30
ENDBRANCH   1  29
TORSDOF 21
ENDMDL
