MODEL 1
REMARK VINA RESULT:     -11.4      0.000      0.000
REMARK SMILES Cc1cccc(NC(=O)C[C@H]([NH2+]C(C)C)C(=O)OCCOC(=O)c2ccc(-c3c4nc(c(-c5c(F)cc(S(=O)(=O)[O-])cc5F)c5ccc([nH]5)c(-c5c(F)cc(S(=O)(=O)[O-])cc5F)c5nc(c(-c6c(F)cc(S(=O)(=O)[O-])cc6F)c6ccc3[nH]6)C=C5)C=C4)cc2)c1
REMARK SMILES IDX 19 1 18 2 16 3 17 4 11 5 10 6 8 7 7 8 9 10 6 11 1 12 2 13
REMARK SMILES IDX 3 14 90 15 4 16 5 17 12 18 13 21 14 22 15 23 20 24 21 25
REMARK SMILES IDX 22 26 23 27 24 28 25 29 89 30 26 31 88 32 27 33 28 34 29 35
REMARK SMILES IDX 82 36 30 37 87 38 81 39 83 40 31 41 86 42 80 43 79 44 32 46
REMARK SMILES IDX 66 47 45 48 65 49 46 50 49 51 64 52 84 53 47 54 48 55 63 57
REMARK SMILES IDX 85 58 50 59 33 60 34 61 43 62 35 63 36 64 42 65 44 66 37 67
REMARK SMILES IDX 38 68 39 69 40 70 41 71 67 72 68 73 77 74 69 75 70 76 76 77
REMARK SMILES IDX 78 78 71 79 72 80 73 81 74 82 75 83 51 84 52 85 61 86 53 87
REMARK SMILES IDX 54 88 60 89 62 90 55 91 56 92 57 93 58 94 59 95
REMARK H PARENT 7 9 12 19 12 20 83 45 49 56
REMARK Flexibility Score: inf
ROOT
ATOM      1  C   UNL A   1      31.681  30.777  27.181  1.00  0.00     0.274 C 
ENDROOT
BRANCH   1   2
ATOM      2  O   UNL A   1      31.870  29.322  27.173  1.00  0.00    -0.458 OA
BRANCH   2   3
ATOM      3  C   UNL A   1      32.503  28.471  26.142  1.00  0.00     0.365 C 
ATOM      4  O   UNL A   1      33.499  27.992  26.759  1.00  0.00    -0.245 OA
BRANCH   3   5
ATOM      5  C   UNL A   1      31.728  28.214  24.119  1.00  0.00     0.303 C 
BRANCH   5   6
ATOM      6  C   UNL A   1      32.062  27.397  22.707  1.00  0.00     0.177 C 
BRANCH   6   7
ATOM      7  C   UNL A   1      33.323  26.930  22.046  1.00  0.00     0.231 C 
ATOM      8  N   UNL A   1      33.657  25.586  22.061  1.00  0.00    -0.326 N 
ATOM      9  H   UNL A   1      34.051  25.211  21.242  1.00  0.00     0.169 HD
ATOM     10  O   UNL A   1      34.067  27.809  21.608  1.00  0.00    -0.274 OA
BRANCH   8  11
ATOM     11  C   UNL A   1      33.480  24.714  23.148  1.00  0.00     0.041 A 
ATOM     12  C   UNL A   1      35.554  23.498  26.080  1.00  0.00     0.044 C 
ATOM     13  C   UNL A   1      34.413  23.668  25.120  1.00  0.00    -0.049 A 
ATOM     14  C   UNL A   1      33.391  22.712  25.067  1.00  0.00     0.003 A 
ATOM     15  C   UNL A   1      34.401  24.723  24.200  1.00  0.00     0.029 A 
ATOM     16  C   UNL A   1      32.380  22.806  24.111  1.00  0.00     0.002 A 
ATOM     17  C   UNL A   1      32.433  23.800  23.144  1.00  0.00     0.026 A 
ENDBRANCH   8  11
ENDBRANCH   6   7
ENDBRANCH   5   6
BRANCH   5  18
ATOM     18  N   UNL A   1      31.005  29.553  23.167  1.00  0.00    -0.332 N 
ATOM     19  H   UNL A   1      31.154  29.328  22.184  1.00  0.00     0.347 HD
ATOM     20  H   UNL A   1      31.474  30.381  23.537  1.00  0.00     0.347 HD
BRANCH  18  21
ATOM     21  C   UNL A   1      29.566  29.885  23.318  1.00  0.00     0.176 C 
ATOM     22  C   UNL A   1      29.361  31.247  23.992  1.00  0.00     0.075 C 
ATOM     23  C   UNL A   1      28.904  29.939  21.935  1.00  0.00     0.075 C 
ENDBRANCH  18  21
ENDBRANCH   5  18
ENDBRANCH   3   5
ENDBRANCH   2   3
ENDBRANCH   1   2
BRANCH   1  24
ATOM     24  C   UNL A   1      32.815  31.785  26.871  1.00  0.00     0.275 C 
BRANCH  24  25
ATOM     25  O   UNL A   1      33.195  32.721  27.887  1.00  0.00    -0.458 OA
BRANCH  25  26
ATOM     26  C   UNL A   1      34.481  32.905  28.282  1.00  0.00     0.338 C 
ATOM     27  O   UNL A   1      35.019  34.000  28.344  1.00  0.00    -0.246 OA
BRANCH  26  28
ATOM     28  C   UNL A   1      35.211  31.656  28.555  1.00  0.00     0.060 A 
ATOM     29  C   UNL A   1      35.510  31.192  30.273  1.00  0.00     0.016 A 
ATOM     30  C   UNL A   1      36.119  30.773  27.241  1.00  0.00     0.016 A 
ATOM     31  C   UNL A   1      36.863  30.034  30.684  1.00  0.00     0.010 A 
ATOM     32  C   UNL A   1      37.493  29.680  27.706  1.00  0.00     0.010 A 
ATOM     33  C   UNL A   1      37.893  29.329  29.414  1.00  0.00    -0.014 A 
BRANCH  33  34
ATOM     34  C   UNL A   1      39.369  28.984  29.602  1.00  0.00     0.031 A 
ATOM     35  C   UNL A   1      40.140  27.676  29.394  1.00  0.00     0.074 A 
ATOM     36  C   UNL A   1      40.164  30.077  29.767  1.00  0.00     0.049 A 
ATOM     37  N   UNL A   1      41.407  27.552  29.695  1.00  0.00    -0.248 NA
ATOM     38  C   UNL A   1      39.673  26.379  28.916  1.00  0.00     0.031 C 
ATOM     39  C   UNL A   1      41.585  30.231  29.447  1.00  0.00     0.029 A 
ATOM     40  N   UNL A   1      39.882  31.272  30.419  1.00  0.00    -0.354 N 
ATOM     41  C   UNL A   1      41.899  26.404  29.097  1.00  0.00     0.074 A 
ATOM     42  C   UNL A   1      40.760  25.614  28.853  1.00  0.00     0.031 C 
ATOM     43  C   UNL A   1      42.084  31.259  30.149  1.00  0.00     0.029 A 
ATOM     44  C   UNL A   1      41.040  31.723  31.039  1.00  0.00     0.049 A 
ATOM     45  H   UNL A   1      39.007  31.722  30.438  1.00  0.00     0.167 HD
ATOM     46  C   UNL A   1      43.196  26.316  28.691  1.00  0.00     0.037 A 
ATOM     47  C   UNL A   1      41.147  31.961  32.375  1.00  0.00     0.037 A 
ATOM     48  C   UNL A   1      43.990  27.311  29.394  1.00  0.00     0.049 A 
ATOM     49  C   UNL A   1      42.254  31.148  33.016  1.00  0.00     0.074 A 
ATOM     50  C   UNL A   1      44.715  28.438  29.061  1.00  0.00     0.029 A 
ATOM     51  N   UNL A   1      43.889  27.318  30.776  1.00  0.00    -0.354 N 
ATOM     52  N   UNL A   1      43.036  30.325  32.373  1.00  0.00    -0.248 NA
ATOM     53  C   UNL A   1      42.543  31.153  34.443  1.00  0.00     0.031 C 
ATOM     54  C   UNL A   1      45.035  29.125  30.274  1.00  0.00     0.029 A 
ATOM     55  C   UNL A   1      44.542  28.389  31.340  1.00  0.00     0.049 A 
ATOM     56  H   UNL A   1      43.406  26.636  31.295  1.00  0.00     0.167 HD
ATOM     57  C   UNL A   1      43.798  29.588  33.250  1.00  0.00     0.074 A 
ATOM     58  C   UNL A   1      43.496  30.206  34.528  1.00  0.00     0.031 C 
ATOM     59  C   UNL A   1      44.525  28.508  32.802  1.00  0.00     0.037 A 
BRANCH  46  60
ATOM     60  C   UNL A   1      43.712  25.403  27.570  1.00  0.00     0.058 A 
ATOM     61  C   UNL A   1      44.427  24.224  27.883  1.00  0.00     0.135 A 
ATOM     62  C   UNL A   1      43.653  25.667  26.176  1.00  0.00     0.135 A 
ATOM     63  F   UNL A   1      44.622  23.849  29.154  1.00  0.00    -0.206 F 
ATOM     64  C   UNL A   1      45.018  23.396  26.914  1.00  0.00     0.059 A 
ATOM     65  C   UNL A   1      44.182  24.826  25.190  1.00  0.00     0.059 A 
ATOM     66  F   UNL A   1      43.150  26.798  25.671  1.00  0.00    -0.206 F 
ATOM     67  C   UNL A   1      44.882  23.697  25.566  1.00  0.00     0.060 A 
BRANCH  67  68
ATOM     68  S   UNL A   1      45.663  22.652  24.322  1.00  0.00     0.124 S 
ATOM     69  O   UNL A   1      46.246  21.593  25.140  1.00  0.00    -0.237 OA
ATOM     70  O   UNL A   1      44.531  22.264  23.489  1.00  0.00    -0.237 OA
ATOM     71  O   UNL A   1      46.630  23.542  23.683  1.00  0.00    -0.744 OA
ENDBRANCH  67  68
ENDBRANCH  46  60
BRANCH  47  72
ATOM     72  C   UNL A   1      39.902  32.460  33.028  1.00  0.00     0.058 A 
ATOM     73  C   UNL A   1      39.618  33.836  32.922  1.00  0.00     0.135 A 
ATOM     74  C   UNL A   1      38.836  31.616  33.384  1.00  0.00     0.135 A 
ATOM     75  F   UNL A   1      40.600  34.697  32.606  1.00  0.00    -0.206 F 
ATOM     76  C   UNL A   1      38.324  34.338  33.037  1.00  0.00     0.059 A 
ATOM     77  C   UNL A   1      37.527  32.099  33.511  1.00  0.00     0.059 A 
ATOM     78  F   UNL A   1      39.029  30.291  33.476  1.00  0.00    -0.206 F 
ATOM     79  C   UNL A   1      37.276  33.453  33.277  1.00  0.00     0.060 A 
BRANCH  79  80
ATOM     80  S   UNL A   1      35.583  34.075  33.100  1.00  0.00     0.124 S 
ATOM     81  O   UNL A   1      35.584  35.225  34.000  1.00  0.00    -0.237 OA
ATOM     82  O   UNL A   1      35.524  34.390  31.676  1.00  0.00    -0.237 OA
ATOM     83  O   UNL A   1      34.761  32.947  33.528  1.00  0.00    -0.744 OA
ENDBRANCH  79  80
ENDBRANCH  47  72
BRANCH  59  84
ATOM     84  C   UNL A   1      45.216  27.390  33.616  1.00  0.00     0.058 A 
ATOM     85  C   UNL A   1      44.574  26.422  34.405  1.00  0.00     0.135 A 
ATOM     86  C   UNL A   1      46.638  27.231  33.582  1.00  0.00     0.135 A 
ATOM     87  F   UNL A   1      43.254  26.418  34.591  1.00  0.00    -0.206 F 
ATOM     88  C   UNL A   1      45.257  25.399  35.078  1.00  0.00     0.059 A 
ATOM     89  C   UNL A   1      47.334  26.194  34.204  1.00  0.00     0.059 A 
ATOM     90  F   UNL A   1      47.445  28.089  32.946  1.00  0.00    -0.206 F 
ATOM     91  C   UNL A   1      46.636  25.291  34.972  1.00  0.00     0.060 A 
BRANCH  91  92
ATOM     92  S   UNL A   1      47.499  24.001  35.880  1.00  0.00     0.124 S 
ATOM     93  O   UNL A   1      47.809  23.053  34.815  1.00  0.00    -0.237 OA
ATOM     94  O   UNL A   1      48.639  24.725  36.436  1.00  0.00    -0.237 OA
ATOM     95  O   UNL A   1      46.514  23.549  36.857  1.00  0.00    -0.744 OA
ENDBRANCH  91  92
ENDBRANCH  59  84
ENDBRANCH  33  34
ENDBRANCH  26  28
ENDBRANCH  25  26
ENDBRANCH  24  25
ENDBRANCH   1  24
TORSDOF 19
ENDMDL
MODEL 2
REMARK VINA RESULT:     -11.3      5.063      9.296
REMARK SMILES Cc1cccc(NC(=O)C[C@H]([NH2+]C(C)C)C(=O)OCCOC(=O)c2ccc(-c3c4nc(c(-c5c(F)cc(S(=O)(=O)[O-])cc5F)c5ccc([nH]5)c(-c5c(F)cc(S(=O)(=O)[O-])cc5F)c5nc(c(-c6c(F)cc(S(=O)(=O)[O-])cc6F)c6ccc3[nH]6)C=C5)C=C4)cc2)c1
REMARK SMILES IDX 19 1 18 2 16 3 17 4 11 5 10 6 8 7 7 8 9 10 6 11 1 12 2 13
REMARK SMILES IDX 3 14 90 15 4 16 5 17 12 18 13 21 14 22 15 23 20 24 21 25
REMARK SMILES IDX 22 26 23 27 24 28 25 29 89 30 26 31 88 32 27 33 28 34 29 35
REMARK SMILES IDX 82 36 30 37 87 38 81 39 83 40 31 41 86 42 80 43 79 44 32 46
REMARK SMILES IDX 66 47 45 48 65 49 46 50 49 51 64 52 84 53 47 54 48 55 63 57
REMARK SMILES IDX 85 58 50 59 33 60 34 61 43 62 35 63 36 64 42 65 44 66 37 67
REMARK SMILES IDX 38 68 39 69 40 70 41 71 67 72 68 73 77 74 69 75 70 76 76 77
REMARK SMILES IDX 78 78 71 79 72 80 73 81 74 82 75 83 51 84 52 85 61 86 53 87
REMARK SMILES IDX 54 88 60 89 62 90 55 91 56 92 57 93 58 94 59 95
REMARK H PARENT 7 9 12 19 12 20 83 45 49 56
REMARK Flexibility Score: inf
ROOT
ATOM      1  C   UNL A   1      33.895  29.830  26.685  1.00  0.00     0.274 C 
ENDROOT
BRANCH   1   2
ATOM      2  O   UNL A   1      32.523  29.347  26.883  1.00  0.00    -0.458 OA
BRANCH   2   3
ATOM      3  C   UNL A   1      32.033  27.957  27.001  1.00  0.00     0.365 C 
ATOM      4  O   UNL A   1      31.064  28.079  27.807  1.00  0.00    -0.245 OA
BRANCH   3   5
ATOM      5  C   UNL A   1      32.890  26.259  25.934  1.00  0.00     0.303 C 
BRANCH   5   6
ATOM      6  C   UNL A   1      33.827  25.917  24.600  1.00  0.00     0.177 C 
BRANCH   6   7
ATOM      7  C   UNL A   1      33.523  25.602  23.167  1.00  0.00     0.231 C 
ATOM      8  N   UNL A   1      33.194  24.309  22.797  1.00  0.00    -0.326 N 
ATOM      9  H   UNL A   1      32.485  24.200  22.124  1.00  0.00     0.169 HD
ATOM     10  O   UNL A   1      33.694  26.517  22.359  1.00  0.00    -0.274 OA
BRANCH   8  11
ATOM     11  C   UNL A   1      33.788  23.140  23.300  1.00  0.00     0.041 A 
ATOM     12  C   UNL A   1      32.604  19.878  24.828  1.00  0.00     0.044 C 
ATOM     13  C   UNL A   1      33.506  20.962  24.315  1.00  0.00    -0.049 A 
ATOM     14  C   UNL A   1      34.855  20.990  24.692  1.00  0.00     0.003 A 
ATOM     15  C   UNL A   1      32.998  22.010  23.539  1.00  0.00     0.029 A 
ATOM     16  C   UNL A   1      35.678  22.047  24.305  1.00  0.00     0.002 A 
ATOM     17  C   UNL A   1      35.141  23.128  23.620  1.00  0.00     0.026 A 
ENDBRANCH   8  11
ENDBRANCH   6   7
ENDBRANCH   5   6
BRANCH   5  18
ATOM     18  N   UNL A   1      32.034  24.695  25.729  1.00  0.00    -0.332 N 
ATOM     19  H   UNL A   1      32.640  24.100  25.164  1.00  0.00     0.347 HD
ATOM     20  H   UNL A   1      31.138  24.971  25.327  1.00  0.00     0.347 HD
BRANCH  18  21
ATOM     21  C   UNL A   1      31.640  23.898  26.917  1.00  0.00     0.176 C 
ATOM     22  C   UNL A   1      30.373  23.073  26.656  1.00  0.00     0.075 C 
ATOM     23  C   UNL A   1      32.769  22.925  27.281  1.00  0.00     0.075 C 
ENDBRANCH  18  21
ENDBRANCH   5  18
ENDBRANCH   3   5
ENDBRANCH   2   3
ENDBRANCH   1   2
BRANCH   1  24
ATOM     24  C   UNL A   1      34.657  30.682  27.730  1.00  0.00     0.275 C 
BRANCH  24  25
ATOM     25  O   UNL A   1      35.882  30.169  28.269  1.00  0.00    -0.458 OA
BRANCH  25  26
ATOM     26  C   UNL A   1      37.024  30.900  28.337  1.00  0.00     0.338 C 
ATOM     27  O   UNL A   1      37.083  32.090  28.068  1.00  0.00    -0.246 OA
BRANCH  26  28
ATOM     28  C   UNL A   1      38.219  30.116  28.689  1.00  0.00     0.060 A 
ATOM     29  C   UNL A   1      39.192  30.624  30.122  1.00  0.00     0.016 A 
ATOM     30  C   UNL A   1      38.936  28.896  27.536  1.00  0.00     0.016 A 
ATOM     31  C   UNL A   1      40.938  30.106  30.271  1.00  0.00     0.010 A 
ATOM     32  C   UNL A   1      40.692  28.463  27.696  1.00  0.00     0.010 A 
ATOM     33  C   UNL A   1      41.706  29.083  29.033  1.00  0.00    -0.014 A 
BRANCH  33  34
ATOM     34  C   UNL A   1      43.181  29.169  28.647  1.00  0.00     0.031 A 
ATOM     35  C   UNL A   1      43.970  30.239  27.883  1.00  0.00     0.074 A 
ATOM     36  C   UNL A   1      43.963  28.252  29.281  1.00  0.00     0.049 A 
ATOM     37  N   UNL A   1      45.231  30.092  27.571  1.00  0.00    -0.248 NA
ATOM     38  C   UNL A   1      43.526  31.513  27.330  1.00  0.00     0.031 C 
ATOM     39  C   UNL A   1      45.388  28.332  29.607  1.00  0.00     0.029 A 
ATOM     40  N   UNL A   1      43.655  26.945  29.644  1.00  0.00    -0.354 N 
ATOM     41  C   UNL A   1      45.748  31.322  27.200  1.00  0.00     0.074 A 
ATOM     42  C   UNL A   1      44.622  32.084  26.836  1.00  0.00     0.031 C 
ATOM     43  C   UNL A   1      45.862  27.095  29.812  1.00  0.00     0.029 A 
ATOM     44  C   UNL A   1      44.795  26.165  29.502  1.00  0.00     0.049 A 
ATOM     45  H   UNL A   1      42.776  26.626  29.949  1.00  0.00     0.167 HD
ATOM     46  C   UNL A   1      47.053  31.640  27.421  1.00  0.00     0.037 A 
ATOM     47  C   UNL A   1      44.873  25.065  28.705  1.00  0.00     0.037 A 
ATOM     48  C   UNL A   1      47.823  30.419  27.600  1.00  0.00     0.049 A 
ATOM     49  C   UNL A   1      45.975  25.181  27.671  1.00  0.00     0.074 A 
ATOM     50  C   UNL A   1      48.543  29.824  28.617  1.00  0.00     0.029 A 
ATOM     51  N   UNL A   1      47.694  29.457  26.611  1.00  0.00    -0.354 N 
ATOM     52  N   UNL A   1      46.778  26.203  27.556  1.00  0.00    -0.248 NA
ATOM     53  C   UNL A   1      46.235  24.181  26.645  1.00  0.00     0.031 C 
ATOM     54  C   UNL A   1      48.831  28.481  28.218  1.00  0.00     0.029 A 
ATOM     55  C   UNL A   1      48.324  28.281  26.944  1.00  0.00     0.049 A 
ATOM     56  H   UNL A   1      47.207  29.598  25.768  1.00  0.00     0.167 HD
ATOM     57  C   UNL A   1      47.529  26.108  26.408  1.00  0.00     0.074 A 
ATOM     58  C   UNL A   1      47.195  24.783  25.919  1.00  0.00     0.031 C 
ATOM     59  C   UNL A   1      48.276  27.180  25.975  1.00  0.00     0.037 A 
BRANCH  46  60
ATOM     60  C   UNL A   1      47.601  33.064  27.591  1.00  0.00     0.058 A 
ATOM     61  C   UNL A   1      48.035  33.514  28.859  1.00  0.00     0.135 A 
ATOM     62  C   UNL A   1      47.627  34.079  26.598  1.00  0.00     0.135 A 
ATOM     63  F   UNL A   1      48.030  32.699  29.923  1.00  0.00    -0.206 F 
ATOM     64  C   UNL A   1      48.451  34.832  29.112  1.00  0.00     0.059 A 
ATOM     65  C   UNL A   1      48.094  35.381  26.813  1.00  0.00     0.059 A 
ATOM     66  F   UNL A   1      47.128  33.908  25.370  1.00  0.00    -0.206 F 
ATOM     67  C   UNL A   1      48.489  35.759  28.080  1.00  0.00     0.060 A 
BRANCH  67  68
ATOM     68  S   UNL A   1      48.996  37.458  28.409  1.00  0.00     0.124 S 
ATOM     69  O   UNL A   1      49.587  37.346  29.738  1.00  0.00    -0.237 OA
ATOM     70  O   UNL A   1      49.926  37.720  27.317  1.00  0.00    -0.237 OA
ATOM     71  O   UNL A   1      47.743  38.207  28.352  1.00  0.00    -0.744 OA
ENDBRANCH  67  68
ENDBRANCH  46  60
BRANCH  47  72
ATOM     72  C   UNL A   1      43.610  24.279  28.591  1.00  0.00     0.058 A 
ATOM     73  C   UNL A   1      42.787  24.530  27.475  1.00  0.00     0.135 A 
ATOM     74  C   UNL A   1      43.394  23.075  29.282  1.00  0.00     0.135 A 
ATOM     75  F   UNL A   1      42.929  25.675  26.785  1.00  0.00    -0.206 F 
ATOM     76  C   UNL A   1      41.884  23.587  26.990  1.00  0.00     0.059 A 
ATOM     77  C   UNL A   1      42.488  22.113  28.816  1.00  0.00     0.059 A 
ATOM     78  F   UNL A   1      44.161  22.758  30.337  1.00  0.00    -0.206 F 
ATOM     79  C   UNL A   1      41.782  22.357  27.636  1.00  0.00     0.060 A 
BRANCH  79  80
ATOM     80  S   UNL A   1      40.855  21.038  26.808  1.00  0.00     0.124 S 
ATOM     81  O   UNL A   1      41.716  20.727  25.671  1.00  0.00    -0.237 OA
ATOM     82  O   UNL A   1      40.789  20.016  27.847  1.00  0.00    -0.237 OA
ATOM     83  O   UNL A   1      39.584  21.677  26.474  1.00  0.00    -0.744 OA
ENDBRANCH  79  80
ENDBRANCH  47  72
BRANCH  59  84
ATOM     84  C   UNL A   1      48.962  27.406  24.607  1.00  0.00     0.058 A 
ATOM     85  C   UNL A   1      50.344  27.409  24.363  1.00  0.00     0.135 A 
ATOM     86  C   UNL A   1      48.183  27.593  23.420  1.00  0.00     0.135 A 
ATOM     87  F   UNL A   1      51.238  27.282  25.343  1.00  0.00    -0.206 F 
ATOM     88  C   UNL A   1      50.902  27.567  23.086  1.00  0.00     0.059 A 
ATOM     89  C   UNL A   1      48.713  27.706  22.135  1.00  0.00     0.059 A 
ATOM     90  F   UNL A   1      46.848  27.693  23.440  1.00  0.00    -0.206 F 
ATOM     91  C   UNL A   1      50.081  27.714  21.977  1.00  0.00     0.060 A 
BRANCH  91  92
ATOM     92  S   UNL A   1      50.814  27.963  20.355  1.00  0.00     0.124 S 
ATOM     93  O   UNL A   1      52.075  27.241  20.493  1.00  0.00    -0.237 OA
ATOM     94  O   UNL A   1      49.827  27.349  19.472  1.00  0.00    -0.237 OA
ATOM     95  O   UNL A   1      50.928  29.413  20.246  1.00  0.00    -0.744 OA
ENDBRANCH  91  92
ENDBRANCH  59  84
ENDBRANCH  33  34
ENDBRANCH  26  28
ENDBRANCH  25  26
ENDBRANCH  24  25
ENDBRANCH   1  24
TORSDOF 19
ENDMDL
MODEL 3
REMARK VINA RESULT:     -11.2      3.797     10.278
REMARK SMILES Cc1cccc(NC(=O)C[C@H]([NH2+]C(C)C)C(=O)OCCOC(=O)c2ccc(-c3c4nc(c(-c5c(F)cc(S(=O)(=O)[O-])cc5F)c5ccc([nH]5)c(-c5c(F)cc(S(=O)(=O)[O-])cc5F)c5nc(c(-c6c(F)cc(S(=O)(=O)[O-])cc6F)c6ccc3[nH]6)C=C5)C=C4)cc2)c1
REMARK SMILES IDX 19 1 18 2 16 3 17 4 11 5 10 6 8 7 7 8 9 10 6 11 1 12 2 13
REMARK SMILES IDX 3 14 90 15 4 16 5 17 12 18 13 21 14 22 15 23 20 24 21 25
REMARK SMILES IDX 22 26 23 27 24 28 25 29 89 30 26 31 88 32 27 33 28 34 29 35
REMARK SMILES IDX 82 36 30 37 87 38 81 39 83 40 31 41 86 42 80 43 79 44 32 46
REMARK SMILES IDX 66 47 45 48 65 49 46 50 49 51 64 52 84 53 47 54 48 55 63 57
REMARK SMILES IDX 85 58 50 59 33 60 34 61 43 62 35 63 36 64 42 65 44 66 37 67
REMARK SMILES IDX 38 68 39 69 40 70 41 71 67 72 68 73 77 74 69 75 70 76 76 77
REMARK SMILES IDX 78 78 71 79 72 80 73 81 74 82 75 83 51 84 52 85 61 86 53 87
REMARK SMILES IDX 54 88 60 89 62 90 55 91 56 92 57 93 58 94 59 95
REMARK H PARENT 7 9 12 19 12 20 83 45 49 56
REMARK Flexibility Score: inf
ROOT
ATOM      1  C   UNL A   1      37.362  20.615  25.201  1.00  0.00     0.274 C 
ENDROOT
BRANCH   1   2
ATOM      2  O   UNL A   1      36.127  21.124  24.591  1.00  0.00    -0.458 OA
BRANCH   2   3
ATOM      3  C   UNL A   1      34.850  21.488  25.241  1.00  0.00     0.365 C 
ATOM      4  O   UNL A   1      35.152  21.456  26.470  1.00  0.00    -0.245 OA
BRANCH   3   5
ATOM      5  C   UNL A   1      33.015  21.961  24.161  1.00  0.00     0.303 C 
BRANCH   5   6
ATOM      6  C   UNL A   1      32.495  22.758  22.793  1.00  0.00     0.177 C 
BRANCH   6   7
ATOM      7  C   UNL A   1      33.026  23.907  21.992  1.00  0.00     0.231 C 
ATOM      8  N   UNL A   1      33.092  25.171  22.554  1.00  0.00    -0.326 N 
ATOM      9  H   UNL A   1      33.884  25.716  22.345  1.00  0.00     0.169 HD
ATOM     10  O   UNL A   1      33.280  23.676  20.809  1.00  0.00    -0.274 OA
BRANCH   8  11
ATOM     11  C   UNL A   1      32.123  25.741  23.396  1.00  0.00     0.041 A 
ATOM     12  C   UNL A   1      32.081  27.559  26.723  1.00  0.00     0.044 C 
ATOM     13  C   UNL A   1      31.615  26.904  25.456  1.00  0.00    -0.049 A 
ATOM     14  C   UNL A   1      30.277  26.515  25.317  1.00  0.00     0.003 A 
ATOM     15  C   UNL A   1      32.522  26.583  24.440  1.00  0.00     0.029 A 
ATOM     16  C   UNL A   1      29.855  25.815  24.187  1.00  0.00     0.002 A 
ATOM     17  C   UNL A   1      30.781  25.418  23.234  1.00  0.00     0.026 A 
ENDBRANCH   8  11
ENDBRANCH   6   7
ENDBRANCH   5   6
BRANCH   5  18
ATOM     18  N   UNL A   1      31.471  22.367  24.979  1.00  0.00    -0.332 N 
ATOM     19  H   UNL A   1      30.826  21.600  24.788  1.00  0.00     0.347 HD
ATOM     20  H   UNL A   1      31.239  23.284  24.597  1.00  0.00     0.347 HD
BRANCH  18  21
ATOM     21  C   UNL A   1      31.440  22.595  26.446  1.00  0.00     0.176 C 
ATOM     22  C   UNL A   1      32.359  23.749  26.864  1.00  0.00     0.075 C 
ATOM     23  C   UNL A   1      30.012  22.949  26.881  1.00  0.00     0.075 C 
ENDBRANCH  18  21
ENDBRANCH   5  18
ENDBRANCH   3   5
ENDBRANCH   2   3
ENDBRANCH   1   2
BRANCH   1  24
ATOM     24  C   UNL A   1      38.617  21.490  25.441  1.00  0.00     0.275 C 
BRANCH  24  25
ATOM     25  O   UNL A   1      39.622  21.011  26.342  1.00  0.00    -0.458 OA
BRANCH  25  26
ATOM     26  C   UNL A   1      40.402  21.834  27.089  1.00  0.00     0.338 C 
ATOM     27  O   UNL A   1      41.244  21.435  27.879  1.00  0.00    -0.246 OA
BRANCH  26  28
ATOM     28  C   UNL A   1      40.092  23.263  26.929  1.00  0.00     0.060 A 
ATOM     29  C   UNL A   1      41.260  24.302  26.025  1.00  0.00     0.016 A 
ATOM     30  C   UNL A   1      38.779  24.072  27.905  1.00  0.00     0.016 A 
ATOM     31  C   UNL A   1      41.262  26.111  26.282  1.00  0.00     0.010 A 
ATOM     32  C   UNL A   1      38.866  25.866  28.176  1.00  0.00     0.010 A 
ATOM     33  C   UNL A   1      40.114  26.886  27.401  1.00  0.00    -0.014 A 
BRANCH  33  34
ATOM     34  C   UNL A   1      40.429  28.136  28.219  1.00  0.00     0.031 A 
ATOM     35  C   UNL A   1      39.663  29.453  28.398  1.00  0.00     0.074 A 
ATOM     36  C   UNL A   1      41.444  27.960  29.110  1.00  0.00     0.049 A 
ATOM     37  N   UNL A   1      40.144  30.456  29.085  1.00  0.00    -0.248 NA
ATOM     38  C   UNL A   1      38.378  29.871  27.849  1.00  0.00     0.031 C 
ATOM     39  C   UNL A   1      41.683  28.658  30.375  1.00  0.00     0.029 A 
ATOM     40  N   UNL A   1      42.595  27.191  28.981  1.00  0.00    -0.354 N 
ATOM     41  C   UNL A   1      39.118  31.348  29.351  1.00  0.00     0.074 A 
ATOM     42  C   UNL A   1      38.143  31.069  28.376  1.00  0.00     0.031 C 
ATOM     43  C   UNL A   1      42.973  28.522  30.714  1.00  0.00     0.029 A 
ATOM     44  C   UNL A   1      43.639  27.843  29.622  1.00  0.00     0.049 A 
ATOM     45  H   UNL A   1      42.658  26.327  28.513  1.00  0.00     0.167 HD
ATOM     46  C   UNL A   1      39.109  32.102  30.485  1.00  0.00     0.037 A 
ATOM     47  C   UNL A   1      44.797  28.214  29.010  1.00  0.00     0.037 A 
ATOM     48  C   UNL A   1      40.459  32.178  31.024  1.00  0.00     0.049 A 
ATOM     49  C   UNL A   1      45.054  29.704  29.121  1.00  0.00     0.074 A 
ATOM     50  C   UNL A   1      41.111  31.760  32.166  1.00  0.00     0.029 A 
ATOM     51  N   UNL A   1      41.451  32.589  30.147  1.00  0.00    -0.354 N 
ATOM     52  N   UNL A   1      44.275  30.545  29.746  1.00  0.00    -0.248 NA
ATOM     53  C   UNL A   1      46.181  30.383  28.499  1.00  0.00     0.031 C 
ATOM     54  C   UNL A   1      42.515  31.920  31.950  1.00  0.00     0.029 A 
ATOM     55  C   UNL A   1      42.707  32.475  30.694  1.00  0.00     0.049 A 
ATOM     56  H   UNL A   1      41.277  32.924  29.239  1.00  0.00     0.167 HD
ATOM     57  C   UNL A   1      44.661  31.843  29.501  1.00  0.00     0.074 A 
ATOM     58  C   UNL A   1      45.905  31.672  28.773  1.00  0.00     0.031 C 
ATOM     59  C   UNL A   1      43.851  32.891  29.874  1.00  0.00     0.037 A 
BRANCH  46  60
ATOM     60  C   UNL A   1      37.853  32.666  31.163  1.00  0.00     0.058 A 
ATOM     61  C   UNL A   1      36.686  31.875  31.275  1.00  0.00     0.135 A 
ATOM     62  C   UNL A   1      37.672  33.998  31.622  1.00  0.00     0.135 A 
ATOM     63  F   UNL A   1      36.667  30.606  30.846  1.00  0.00    -0.206 F 
ATOM     64  C   UNL A   1      35.470  32.356  31.789  1.00  0.00     0.059 A 
ATOM     65  C   UNL A   1      36.488  34.481  32.191  1.00  0.00     0.059 A 
ATOM     66  F   UNL A   1      38.599  34.949  31.477  1.00  0.00    -0.206 F 
ATOM     67  C   UNL A   1      35.381  33.659  32.257  1.00  0.00     0.060 A 
BRANCH  67  68
ATOM     68  S   UNL A   1      33.814  34.287  32.889  1.00  0.00     0.124 S 
ATOM     69  O   UNL A   1      33.192  33.076  33.413  1.00  0.00    -0.237 OA
ATOM     70  O   UNL A   1      34.250  35.261  33.883  1.00  0.00    -0.237 OA
ATOM     71  O   UNL A   1      33.168  34.853  31.707  1.00  0.00    -0.744 OA
ENDBRANCH  67  68
ENDBRANCH  46  60
BRANCH  47  72
ATOM     72  C   UNL A   1      45.257  27.301  27.924  1.00  0.00     0.058 A 
ATOM     73  C   UNL A   1      44.911  27.637  26.601  1.00  0.00     0.135 A 
ATOM     74  C   UNL A   1      46.307  26.382  28.093  1.00  0.00     0.135 A 
ATOM     75  F   UNL A   1      43.901  28.494  26.372  1.00  0.00    -0.206 F 
ATOM     76  C   UNL A   1      45.645  27.190  25.504  1.00  0.00     0.059 A 
ATOM     77  C   UNL A   1      47.056  25.914  27.005  1.00  0.00     0.059 A 
ATOM     78  F   UNL A   1      46.708  26.038  29.327  1.00  0.00    -0.206 F 
ATOM     79  C   UNL A   1      46.751  26.371  25.721  1.00  0.00     0.060 A 
BRANCH  79  80
ATOM     80  S   UNL A   1      47.871  26.072  24.328  1.00  0.00     0.124 S 
ATOM     81  O   UNL A   1      49.182  26.194  24.958  1.00  0.00    -0.237 OA
ATOM     82  O   UNL A   1      47.491  24.723  23.920  1.00  0.00    -0.237 OA
ATOM     83  O   UNL A   1      47.528  27.133  23.385  1.00  0.00    -0.744 OA
ENDBRANCH  79  80
ENDBRANCH  47  72
BRANCH  59  84
ATOM     84  C   UNL A   1      43.933  34.382  29.470  1.00  0.00     0.058 A 
ATOM     85  C   UNL A   1      43.828  34.894  28.168  1.00  0.00     0.135 A 
ATOM     86  C   UNL A   1      44.085  35.402  30.463  1.00  0.00     0.135 A 
ATOM     87  F   UNL A   1      43.713  34.104  27.101  1.00  0.00    -0.206 F 
ATOM     88  C   UNL A   1      43.858  36.265  27.874  1.00  0.00     0.059 A 
ATOM     89  C   UNL A   1      44.071  36.771  30.200  1.00  0.00     0.059 A 
ATOM     90  F   UNL A   1      44.273  35.126  31.760  1.00  0.00    -0.206 F 
ATOM     91  C   UNL A   1      43.978  37.197  28.894  1.00  0.00     0.060 A 
BRANCH  91  92
ATOM     92  S   UNL A   1      44.062  38.947  28.493  1.00  0.00     0.124 S 
ATOM     93  O   UNL A   1      43.907  39.555  29.811  1.00  0.00    -0.237 OA
ATOM     94  O   UNL A   1      45.388  39.064  27.894  1.00  0.00    -0.237 OA
ATOM     95  O   UNL A   1      42.946  39.145  27.574  1.00  0.00    -0.744 OA
ENDBRANCH  91  92
ENDBRANCH  59  84
ENDBRANCH  33  34
ENDBRANCH  26  28
ENDBRANCH  25  26
ENDBRANCH  24  25
ENDBRANCH   1  24
TORSDOF 19
ENDMDL
