MODEL 1
REMARK VINA RESULT:     -10.2      0.000      0.000
REMARK SMILES C[C@@H]1[C@@H](C(=O)OCCOC(=O)c2ccc(-c3c4nc(c(-c5c(F)cc(S(=O)(=O)[O-])cc5F)c5ccc([nH]5)c(-c5c(F)cc(S(=O)(=O)[O-])cc5F)c5nc(c(-c6c(F)cc(S(=O)(=O)[O-])cc6F)c6ccc3[nH]6)C=C5)C=C4)cc2)CC[N@H+]1[C@H]1CC[C@@H](C(F)(F)F)CC1
REMARK SMILES IDX 8 1 7 2 6 3 4 4 5 5 3 6 1 7 2 8 80 9 78 10 79 11 81 13 82 14
REMARK SMILES IDX 90 15 83 16 89 17 84 18 85 19 86 20 87 21 88 22 9 23 10 24
REMARK SMILES IDX 11 25 12 26 13 27 77 28 14 29 76 30 15 31 16 32 17 33 70 34
REMARK SMILES IDX 18 35 75 36 69 37 71 38 19 39 74 40 68 41 67 42 20 44 54 45
REMARK SMILES IDX 33 46 53 47 34 48 37 49 52 50 72 51 35 52 36 53 51 55 73 56
REMARK SMILES IDX 38 57 21 58 22 59 31 60 23 61 24 62 30 63 32 64 25 65 26 66
REMARK SMILES IDX 27 67 28 68 29 69 55 70 56 71 65 72 57 73 58 74 64 75 66 76
REMARK SMILES IDX 59 77 60 78 61 79 62 80 63 81 39 82 40 83 49 84 41 85 42 86
REMARK SMILES IDX 48 87 50 88 43 89 44 90 45 91 46 92 47 93
REMARK H PARENT 80 12 71 43 37 54
REMARK Flexibility Score: inf
ROOT
ATOM      1  C   UNL A   1      33.755  32.971  28.079  1.00  0.00     0.275 C 
ENDROOT
BRANCH   1   2
ATOM      2  C   UNL A   1      33.928  34.278  28.853  1.00  0.00     0.274 C 
BRANCH   2   3
ATOM      3  O   UNL A   1      34.622  34.035  30.091  1.00  0.00    -0.462 OA
BRANCH   3   4
ATOM      4  C   UNL A   1      34.166  34.697  31.193  1.00  0.00     0.315 C 
ATOM      5  O   UNL A   1      33.015  35.069  31.359  1.00  0.00    -0.252 OA
BRANCH   4   6
ATOM      6  C   UNL A   1      35.309  34.917  32.166  1.00  0.00     0.162 C 
ATOM      7  C   UNL A   1      37.728  34.318  31.877  1.00  0.00     0.076 C 
ATOM      8  C   UNL A   1      36.330  33.758  32.163  1.00  0.00     0.195 C 
ATOM      9  N   UNL A   1      36.267  33.227  33.518  1.00  0.00    -0.330 N 
ATOM     10  C   UNL A   1      34.791  34.977  33.597  1.00  0.00     0.083 C 
ATOM     11  C   UNL A   1      34.990  33.561  34.115  1.00  0.00     0.263 C 
ATOM     12  H   UNL A   1      37.025  33.721  33.990  1.00  0.00     0.348 HD
BRANCH   9  13
ATOM     13  C   UNL A   1      36.882  31.957  33.896  1.00  0.00     0.184 C 
ATOM     14  C   UNL A   1      37.624  31.152  32.805  1.00  0.00     0.066 C 
ATOM     15  C   UNL A   1      37.801  32.322  35.073  1.00  0.00     0.066 C 
ATOM     16  C   UNL A   1      38.467  30.001  33.375  1.00  0.00     0.019 C 
ATOM     17  C   UNL A   1      38.598  31.143  35.605  1.00  0.00     0.019 C 
ATOM     18  C   UNL A   1      39.402  30.421  34.519  1.00  0.00     0.095 C 
BRANCH  18  19
ATOM     19  C   UNL A   1      40.607  31.230  34.041  1.00  0.00     0.391 C 
ATOM     20  F   UNL A   1      40.201  32.319  33.346  1.00  0.00    -0.171 F 
ATOM     21  F   UNL A   1      41.335  31.670  35.089  1.00  0.00    -0.171 F 
ATOM     22  F   UNL A   1      41.428  30.525  33.239  1.00  0.00    -0.171 F 
ENDBRANCH  18  19
ENDBRANCH   9  13
ENDBRANCH   4   6
ENDBRANCH   3   4
ENDBRANCH   2   3
ENDBRANCH   1   2
BRANCH   1  23
ATOM     23  O   UNL A   1      34.288  31.866  28.834  1.00  0.00    -0.458 OA
BRANCH  23  24
ATOM     24  C   UNL A   1      34.345  30.684  28.184  1.00  0.00     0.338 C 
ATOM     25  O   UNL A   1      33.459  30.151  27.528  1.00  0.00    -0.246 OA
BRANCH  24  26
ATOM     26  C   UNL A   1      35.706  30.141  28.275  1.00  0.00     0.060 A 
ATOM     27  C   UNL A   1      36.117  29.623  29.501  1.00  0.00     0.016 A 
ATOM     28  C   UNL A   1      36.611  30.248  27.224  1.00  0.00     0.016 A 
ATOM     29  C   UNL A   1      37.446  29.266  29.711  1.00  0.00     0.010 A 
ATOM     30  C   UNL A   1      37.934  29.825  27.413  1.00  0.00     0.010 A 
ATOM     31  C   UNL A   1      38.374  29.354  28.668  1.00  0.00    -0.014 A 
BRANCH  31  32
ATOM     32  C   UNL A   1      39.807  29.011  28.899  1.00  0.00     0.031 A 
ATOM     33  C   UNL A   1      40.742  30.041  29.478  1.00  0.00     0.074 A 
ATOM     34  C   UNL A   1      40.278  27.778  28.616  1.00  0.00     0.049 A 
ATOM     35  N   UNL A   1      42.047  30.016  29.574  1.00  0.00    -0.248 NA
ATOM     36  C   UNL A   1      40.125  31.264  30.015  1.00  0.00     0.031 C 
ATOM     37  C   UNL A   1      39.480  26.656  28.119  1.00  0.00     0.029 A 
ATOM     38  N   UNL A   1      41.548  27.263  28.708  1.00  0.00    -0.354 N 
ATOM     39  C   UNL A   1      42.412  31.234  30.137  1.00  0.00     0.074 A 
ATOM     40  C   UNL A   1      41.189  31.978  30.356  1.00  0.00     0.031 C 
ATOM     41  C   UNL A   1      40.273  25.582  27.972  1.00  0.00     0.029 A 
ATOM     42  C   UNL A   1      41.647  25.958  28.286  1.00  0.00     0.049 A 
ATOM     43  H   UNL A   1      42.316  27.779  29.046  1.00  0.00     0.167 HD
ATOM     44  C   UNL A   1      43.650  31.691  30.441  1.00  0.00     0.037 A 
ATOM     45  C   UNL A   1      42.725  25.164  28.125  1.00  0.00     0.037 A 
ATOM     46  C   UNL A   1      44.862  30.931  30.269  1.00  0.00     0.049 A 
ATOM     47  C   UNL A   1      44.096  25.711  28.417  1.00  0.00     0.074 A 
ATOM     48  C   UNL A   1      46.166  31.314  30.534  1.00  0.00     0.029 A 
ATOM     49  N   UNL A   1      44.917  29.624  29.807  1.00  0.00    -0.354 N 
ATOM     50  N   UNL A   1      44.434  26.895  28.867  1.00  0.00    -0.248 NA
ATOM     51  C   UNL A   1      45.237  24.820  28.156  1.00  0.00     0.031 C 
ATOM     52  C   UNL A   1      47.012  30.248  30.208  1.00  0.00     0.029 A 
ATOM     53  C   UNL A   1      46.232  29.189  29.775  1.00  0.00     0.049 A 
ATOM     54  H   UNL A   1      44.138  29.085  29.542  1.00  0.00     0.167 HD
ATOM     55  C   UNL A   1      45.821  26.885  28.961  1.00  0.00     0.074 A 
ATOM     56  C   UNL A   1      46.261  25.573  28.532  1.00  0.00     0.031 C 
ATOM     57  C   UNL A   1      46.656  27.876  29.359  1.00  0.00     0.037 A 
BRANCH  44  58
ATOM     58  C   UNL A   1      43.766  33.095  30.965  1.00  0.00     0.058 A 
ATOM     59  C   UNL A   1      43.877  34.202  30.110  1.00  0.00     0.135 A 
ATOM     60  C   UNL A   1      43.733  33.337  32.349  1.00  0.00     0.135 A 
ATOM     61  F   UNL A   1      43.930  34.025  28.781  1.00  0.00    -0.206 F 
ATOM     62  C   UNL A   1      43.977  35.498  30.608  1.00  0.00     0.059 A 
ATOM     63  C   UNL A   1      43.808  34.627  32.868  1.00  0.00     0.059 A 
ATOM     64  F   UNL A   1      43.628  32.314  33.212  1.00  0.00    -0.206 F 
ATOM     65  C   UNL A   1      43.945  35.699  31.989  1.00  0.00     0.060 A 
BRANCH  65  66
ATOM     66  S   UNL A   1      44.078  37.385  32.624  1.00  0.00     0.124 S 
ATOM     67  O   UNL A   1      45.440  37.391  33.147  1.00  0.00    -0.237 OA
ATOM     68  O   UNL A   1      43.855  38.190  31.427  1.00  0.00    -0.237 OA
ATOM     69  O   UNL A   1      43.020  37.455  33.627  1.00  0.00    -0.744 OA
ENDBRANCH  65  66
ENDBRANCH  44  58
BRANCH  45  70
ATOM     70  C   UNL A   1      42.560  23.776  27.614  1.00  0.00     0.058 A 
ATOM     71  C   UNL A   1      42.477  22.687  28.495  1.00  0.00     0.135 A 
ATOM     72  C   UNL A   1      42.494  23.511  26.237  1.00  0.00     0.135 A 
ATOM     73  F   UNL A   1      42.549  22.888  29.819  1.00  0.00    -0.206 F 
ATOM     74  C   UNL A   1      42.346  21.383  28.029  1.00  0.00     0.059 A 
ATOM     75  C   UNL A   1      42.337  22.218  25.748  1.00  0.00     0.059 A 
ATOM     76  F   UNL A   1      42.561  24.518  25.354  1.00  0.00    -0.206 F 
ATOM     77  C   UNL A   1      42.276  21.159  26.653  1.00  0.00     0.060 A 
BRANCH  77  78
ATOM     78  S   UNL A   1      42.063  19.467  26.054  1.00  0.00     0.124 S 
ATOM     79  O   UNL A   1      42.918  19.466  24.874  1.00  0.00    -0.237 OA
ATOM     80  O   UNL A   1      42.535  18.677  27.187  1.00  0.00    -0.237 OA
ATOM     81  O   UNL A   1      40.629  19.384  25.798  1.00  0.00    -0.744 OA
ENDBRANCH  77  78
ENDBRANCH  45  70
BRANCH  57  82
ATOM     82  C   UNL A   1      48.126  27.570  29.389  1.00  0.00     0.058 A 
ATOM     83  C   UNL A   1      48.965  27.886  28.309  1.00  0.00     0.135 A 
ATOM     84  C   UNL A   1      48.711  26.997  30.530  1.00  0.00     0.135 A 
ATOM     85  F   UNL A   1      48.453  28.428  27.193  1.00  0.00    -0.206 F 
ATOM     86  C   UNL A   1      50.332  27.628  28.352  1.00  0.00     0.059 A 
ATOM     87  C   UNL A   1      50.078  26.750  30.603  1.00  0.00     0.059 A 
ATOM     88  F   UNL A   1      47.953  26.683  31.592  1.00  0.00    -0.206 F 
ATOM     89  C   UNL A   1      50.879  27.060  29.504  1.00  0.00     0.060 A 
BRANCH  89  90
ATOM     90  S   UNL A   1      52.659  26.762  29.563  1.00  0.00     0.124 S 
ATOM     91  O   UNL A   1      52.900  26.157  28.258  1.00  0.00    -0.237 OA
ATOM     92  O   UNL A   1      53.198  28.106  29.748  1.00  0.00    -0.237 OA
ATOM     93  O   UNL A   1      52.815  25.869  30.708  1.00  0.00    -0.744 OA
ENDBRANCH  89  90
ENDBRANCH  57  82
ENDBRANCH  31  32
ENDBRANCH  24  26
ENDBRANCH  23  24
ENDBRANCH   1  23
TORSDOF 16
ENDMDL
MODEL 2
REMARK VINA RESULT:     -10.0      3.321      6.141
REMARK SMILES C[C@@H]1[C@@H](C(=O)OCCOC(=O)c2ccc(-c3c4nc(c(-c5c(F)cc(S(=O)(=O)[O-])cc5F)c5ccc([nH]5)c(-c5c(F)cc(S(=O)(=O)[O-])cc5F)c5nc(c(-c6c(F)cc(S(=O)(=O)[O-])cc6F)c6ccc3[nH]6)C=C5)C=C4)cc2)CC[N@H+]1[C@H]1CC[C@@H](C(F)(F)F)CC1
REMARK SMILES IDX 8 1 7 2 6 3 4 4 5 5 3 6 1 7 2 8 80 9 78 10 79 11 81 13 82 14
REMARK SMILES IDX 90 15 83 16 89 17 84 18 85 19 86 20 87 21 88 22 9 23 10 24
REMARK SMILES IDX 11 25 12 26 13 27 77 28 14 29 76 30 15 31 16 32 17 33 70 34
REMARK SMILES IDX 18 35 75 36 69 37 71 38 19 39 74 40 68 41 67 42 20 44 54 45
REMARK SMILES IDX 33 46 53 47 34 48 37 49 52 50 72 51 35 52 36 53 51 55 73 56
REMARK SMILES IDX 38 57 21 58 22 59 31 60 23 61 24 62 30 63 32 64 25 65 26 66
REMARK SMILES IDX 27 67 28 68 29 69 55 70 56 71 65 72 57 73 58 74 64 75 66 76
REMARK SMILES IDX 59 77 60 78 61 79 62 80 63 81 39 82 40 83 49 84 41 85 42 86
REMARK SMILES IDX 48 87 50 88 43 89 44 90 45 91 46 92 47 93
REMARK H PARENT 80 12 71 43 37 54
REMARK Flexibility Score: inf
ROOT
ATOM      1  C   UNL A   1      33.106  28.487  26.362  1.00  0.00     0.275 C 
ENDROOT
BRANCH   1   2
ATOM      2  C   UNL A   1      31.605  28.331  26.608  1.00  0.00     0.274 C 
BRANCH   2   3
ATOM      3  O   UNL A   1      31.191  26.983  26.323  1.00  0.00    -0.462 OA
BRANCH   3   4
ATOM      4  C   UNL A   1      30.665  26.748  25.086  1.00  0.00     0.315 C 
ATOM      5  O   UNL A   1      30.499  27.597  24.224  1.00  0.00    -0.252 OA
BRANCH   4   6
ATOM      6  C   UNL A   1      30.299  25.282  24.956  1.00  0.00     0.162 C 
ATOM      7  C   UNL A   1      30.243  23.533  26.754  1.00  0.00     0.076 C 
ATOM      8  C   UNL A   1      31.160  24.367  25.854  1.00  0.00     0.195 C 
ATOM      9  N   UNL A   1      31.862  23.505  24.911  1.00  0.00    -0.330 N 
ATOM     10  C   UNL A   1      30.552  24.789  23.538  1.00  0.00     0.083 C 
ATOM     11  C   UNL A   1      31.931  24.152  23.616  1.00  0.00     0.263 C 
ATOM     12  H   UNL A   1      31.262  22.681  24.870  1.00  0.00     0.348 HD
BRANCH   9  13
ATOM     13  C   UNL A   1      32.979  22.652  25.305  1.00  0.00     0.184 C 
ATOM     14  C   UNL A   1      33.823  21.992  24.191  1.00  0.00     0.066 C 
ATOM     15  C   UNL A   1      33.828  23.548  26.221  1.00  0.00     0.066 C 
ATOM     16  C   UNL A   1      35.126  21.368  24.712  1.00  0.00     0.019 C 
ATOM     17  C   UNL A   1      35.097  22.874  26.718  1.00  0.00     0.019 C 
ATOM     18  C   UNL A   1      35.963  22.314  25.587  1.00  0.00     0.095 C 
BRANCH  18  19
ATOM     19  C   UNL A   1      36.665  23.408  24.783  1.00  0.00     0.391 C 
ATOM     20  F   UNL A   1      37.848  23.732  25.356  1.00  0.00    -0.171 F 
ATOM     21  F   UNL A   1      36.928  22.987  23.528  1.00  0.00    -0.171 F 
ATOM     22  F   UNL A   1      35.941  24.539  24.692  1.00  0.00    -0.171 F 
ENDBRANCH  18  19
ENDBRANCH   9  13
ENDBRANCH   4   6
ENDBRANCH   3   4
ENDBRANCH   2   3
ENDBRANCH   1   2
BRANCH   1  23
ATOM     23  O   UNL A   1      33.802  28.674  27.609  1.00  0.00    -0.458 OA
BRANCH  23  24
ATOM     24  C   UNL A   1      34.306  29.909  27.820  1.00  0.00     0.338 C 
ATOM     25  O   UNL A   1      33.697  30.972  27.816  1.00  0.00    -0.246 OA
BRANCH  24  26
ATOM     26  C   UNL A   1      35.725  29.804  28.181  1.00  0.00     0.060 A 
ATOM     27  C   UNL A   1      36.667  30.011  27.176  1.00  0.00     0.016 A 
ATOM     28  C   UNL A   1      36.132  29.385  29.445  1.00  0.00     0.016 A 
ATOM     29  C   UNL A   1      38.014  29.745  27.401  1.00  0.00     0.010 A 
ATOM     30  C   UNL A   1      37.497  29.182  29.691  1.00  0.00     0.010 A 
ATOM     31  C   UNL A   1      38.451  29.333  28.665  1.00  0.00    -0.014 A 
BRANCH  31  32
ATOM     32  C   UNL A   1      39.888  29.007  28.899  1.00  0.00     0.031 A 
ATOM     33  C   UNL A   1      40.809  30.047  29.485  1.00  0.00     0.074 A 
ATOM     34  C   UNL A   1      40.375  27.782  28.613  1.00  0.00     0.049 A 
ATOM     35  N   UNL A   1      42.114  30.038  29.585  1.00  0.00    -0.248 NA
ATOM     36  C   UNL A   1      40.174  31.261  30.024  1.00  0.00     0.031 C 
ATOM     37  C   UNL A   1      39.593  26.652  28.109  1.00  0.00     0.029 A 
ATOM     38  N   UNL A   1      41.651  27.282  28.707  1.00  0.00    -0.354 N 
ATOM     39  C   UNL A   1      42.461  31.259  30.153  1.00  0.00     0.074 A 
ATOM     40  C   UNL A   1      41.229  31.986  30.372  1.00  0.00     0.031 C 
ATOM     41  C   UNL A   1      40.399  25.589  27.961  1.00  0.00     0.029 A 
ATOM     42  C   UNL A   1      41.768  25.980  28.280  1.00  0.00     0.049 A 
ATOM     43  H   UNL A   1      42.411  27.807  29.049  1.00  0.00     0.167 HD
ATOM     44  C   UNL A   1      43.693  31.730  30.463  1.00  0.00     0.037 A 
ATOM     45  C   UNL A   1      42.856  25.200  28.119  1.00  0.00     0.037 A 
ATOM     46  C   UNL A   1      44.915  30.985  30.291  1.00  0.00     0.049 A 
ATOM     47  C   UNL A   1      44.220  25.763  28.417  1.00  0.00     0.074 A 
ATOM     48  C   UNL A   1      46.213  31.384  30.561  1.00  0.00     0.029 A 
ATOM     49  N   UNL A   1      44.987  29.682  29.825  1.00  0.00    -0.354 N 
ATOM     50  N   UNL A   1      44.541  26.950  28.873  1.00  0.00    -0.248 NA
ATOM     51  C   UNL A   1      45.372  24.888  28.157  1.00  0.00     0.031 C 
ATOM     52  C   UNL A   1      47.073  30.330  30.234  1.00  0.00     0.029 A 
ATOM     53  C   UNL A   1      46.308  29.263  29.795  1.00  0.00     0.049 A 
ATOM     54  H   UNL A   1      44.216  29.134  29.555  1.00  0.00     0.167 HD
ATOM     55  C   UNL A   1      45.928  26.957  28.971  1.00  0.00     0.074 A 
ATOM     56  C   UNL A   1      46.386  25.653  28.538  1.00  0.00     0.031 C 
ATOM     57  C   UNL A   1      46.750  27.956  29.376  1.00  0.00     0.037 A 
BRANCH  44  58
ATOM     58  C   UNL A   1      43.789  33.134  30.993  1.00  0.00     0.058 A 
ATOM     59  C   UNL A   1      43.796  34.250  30.144  1.00  0.00     0.135 A 
ATOM     60  C   UNL A   1      43.844  33.363  32.378  1.00  0.00     0.135 A 
ATOM     61  F   UNL A   1      43.763  34.086  28.812  1.00  0.00    -0.206 F 
ATOM     62  C   UNL A   1      43.880  35.545  30.648  1.00  0.00     0.059 A 
ATOM     63  C   UNL A   1      43.904  34.650  32.904  1.00  0.00     0.059 A 
ATOM     64  F   UNL A   1      43.840  32.330  33.235  1.00  0.00    -0.206 F 
ATOM     65  C   UNL A   1      43.937  35.734  32.029  1.00  0.00     0.060 A 
BRANCH  65  66
ATOM     66  S   UNL A   1      44.047  37.418  32.671  1.00  0.00     0.124 S 
ATOM     67  O   UNL A   1      42.964  37.429  33.649  1.00  0.00    -0.237 OA
ATOM     68  O   UNL A   1      45.399  37.457  33.223  1.00  0.00    -0.237 OA
ATOM     69  O   UNL A   1      43.835  38.248  31.489  1.00  0.00    -0.744 OA
ENDBRANCH  65  66
ENDBRANCH  44  58
BRANCH  45  70
ATOM     70  C   UNL A   1      42.710  23.812  27.603  1.00  0.00     0.058 A 
ATOM     71  C   UNL A   1      42.717  23.551  26.225  1.00  0.00     0.135 A 
ATOM     72  C   UNL A   1      42.551  22.724  28.475  1.00  0.00     0.135 A 
ATOM     73  F   UNL A   1      42.852  24.559  25.351  1.00  0.00    -0.206 F 
ATOM     74  C   UNL A   1      42.558  22.261  25.728  1.00  0.00     0.059 A 
ATOM     75  C   UNL A   1      42.417  21.423  28.003  1.00  0.00     0.059 A 
ATOM     76  F   UNL A   1      42.546  22.921  29.802  1.00  0.00    -0.206 F 
ATOM     77  C   UNL A   1      42.409  21.203  26.626  1.00  0.00     0.060 A 
BRANCH  77  78
ATOM     78  S   UNL A   1      42.246  19.524  25.978  1.00  0.00     0.124 S 
ATOM     79  O   UNL A   1      43.161  19.560  24.844  1.00  0.00    -0.237 OA
ATOM     80  O   UNL A   1      42.668  18.712  27.115  1.00  0.00    -0.237 OA
ATOM     81  O   UNL A   1      40.828  19.432  25.645  1.00  0.00    -0.744 OA
ENDBRANCH  77  78
ENDBRANCH  45  70
BRANCH  57  82
ATOM     82  C   UNL A   1      48.223  27.670  29.408  1.00  0.00     0.058 A 
ATOM     83  C   UNL A   1      48.824  27.033  30.505  1.00  0.00     0.135 A 
ATOM     84  C   UNL A   1      49.036  27.993  28.309  1.00  0.00     0.135 A 
ATOM     85  F   UNL A   1      48.093  26.711  31.583  1.00  0.00    -0.206 F 
ATOM     86  C   UNL A   1      50.186  26.743  30.519  1.00  0.00     0.059 A 
ATOM     87  C   UNL A   1      50.394  27.693  28.294  1.00  0.00     0.059 A 
ATOM     88  F   UNL A   1      48.507  28.596  27.233  1.00  0.00    -0.206 F 
ATOM     89  C   UNL A   1      50.962  27.077  29.408  1.00  0.00     0.060 A 
BRANCH  89  90
ATOM     90  S   UNL A   1      52.720  26.664  29.422  1.00  0.00     0.124 S 
ATOM     91  O   UNL A   1      53.333  27.987  29.429  1.00  0.00    -0.237 OA
ATOM     92  O   UNL A   1      52.854  25.897  30.656  1.00  0.00    -0.237 OA
ATOM     93  O   UNL A   1      52.897  25.896  28.193  1.00  0.00    -0.744 OA
ENDBRANCH  89  90
ENDBRANCH  57  82
ENDBRANCH  31  32
ENDBRANCH  24  26
ENDBRANCH  23  24
ENDBRANCH   1  23
TORSDOF 16
ENDMDL
MODEL 3
REMARK VINA RESULT:     -10.0      4.206      6.630
REMARK SMILES C[C@@H]1[C@@H](C(=O)OCCOC(=O)c2ccc(-c3c4nc(c(-c5c(F)cc(S(=O)(=O)[O-])cc5F)c5ccc([nH]5)c(-c5c(F)cc(S(=O)(=O)[O-])cc5F)c5nc(c(-c6c(F)cc(S(=O)(=O)[O-])cc6F)c6ccc3[nH]6)C=C5)C=C4)cc2)CC[N@H+]1[C@H]1CC[C@@H](C(F)(F)F)CC1
REMARK SMILES IDX 8 1 7 2 6 3 4 4 5 5 3 6 1 7 2 8 80 9 78 10 79 11 81 13 82 14
REMARK SMILES IDX 90 15 83 16 89 17 84 18 85 19 86 20 87 21 88 22 9 23 10 24
REMARK SMILES IDX 11 25 12 26 13 27 77 28 14 29 76 30 15 31 16 32 17 33 70 34
REMARK SMILES IDX 18 35 75 36 69 37 71 38 19 39 74 40 68 41 67 42 20 44 54 45
REMARK SMILES IDX 33 46 53 47 34 48 37 49 52 50 72 51 35 52 36 53 51 55 73 56
REMARK SMILES IDX 38 57 21 58 22 59 31 60 23 61 24 62 30 63 32 64 25 65 26 66
REMARK SMILES IDX 27 67 28 68 29 69 55 70 56 71 65 72 57 73 58 74 64 75 66 76
REMARK SMILES IDX 59 77 60 78 61 79 62 80 63 81 39 82 40 83 49 84 41 85 42 86
REMARK SMILES IDX 48 87 50 88 43 89 44 90 45 91 46 92 47 93
REMARK H PARENT 80 12 71 43 37 54
REMARK Flexibility Score: inf
ROOT
ATOM      1  C   UNL A   1      33.054  28.798  26.384  1.00  0.00     0.275 C 
ENDROOT
BRANCH   1   2
ATOM      2  C   UNL A   1      34.032  28.702  25.213  1.00  0.00     0.274 C 
BRANCH   2   3
ATOM      3  O   UNL A   1      33.652  27.628  24.333  1.00  0.00    -0.462 OA
BRANCH   3   4
ATOM      4  C   UNL A   1      33.519  26.390  24.891  1.00  0.00     0.315 C 
ATOM      5  O   UNL A   1      34.297  25.899  25.694  1.00  0.00    -0.252 OA
BRANCH   4   6
ATOM      6  C   UNL A   1      32.275  25.715  24.346  1.00  0.00     0.162 C 
ATOM      7  C   UNL A   1      31.613  25.386  21.949  1.00  0.00     0.076 C 
ATOM      8  C   UNL A   1      31.720  26.410  23.084  1.00  0.00     0.195 C 
ATOM      9  N   UNL A   1      30.392  26.861  23.483  1.00  0.00    -0.330 N 
ATOM     10  C   UNL A   1      31.141  25.782  25.360  1.00  0.00     0.083 C 
ATOM     11  C   UNL A   1      30.335  26.996  24.925  1.00  0.00     0.263 C 
ATOM     12  H   UNL A   1      29.791  26.098  23.169  1.00  0.00     0.348 HD
BRANCH   9  13
ATOM     13  C   UNL A   1      29.603  27.791  22.681  1.00  0.00     0.184 C 
ATOM     14  C   UNL A   1      28.212  28.212  23.209  1.00  0.00     0.066 C 
ATOM     15  C   UNL A   1      30.536  28.996  22.481  1.00  0.00     0.066 C 
ATOM     16  C   UNL A   1      27.612  29.400  22.442  1.00  0.00     0.019 C 
ATOM     17  C   UNL A   1      29.894  30.134  21.704  1.00  0.00     0.019 C 
ATOM     18  C   UNL A   1      28.564  30.598  22.304  1.00  0.00     0.095 C 
BRANCH  18  19
ATOM     19  C   UNL A   1      28.743  31.373  23.609  1.00  0.00     0.391 C 
ATOM     20  F   UNL A   1      29.082  32.659  23.353  1.00  0.00    -0.171 F 
ATOM     21  F   UNL A   1      27.594  31.393  24.316  1.00  0.00    -0.171 F 
ATOM     22  F   UNL A   1      29.702  30.856  24.400  1.00  0.00    -0.171 F 
ENDBRANCH  18  19
ENDBRANCH   9  13
ENDBRANCH   4   6
ENDBRANCH   3   4
ENDBRANCH   2   3
ENDBRANCH   1   2
BRANCH   1  23
ATOM     23  O   UNL A   1      33.770  28.882  27.631  1.00  0.00    -0.458 OA
BRANCH  23  24
ATOM     24  C   UNL A   1      34.273  30.096  27.939  1.00  0.00     0.338 C 
ATOM     25  O   UNL A   1      33.663  31.155  28.026  1.00  0.00    -0.246 OA
BRANCH  24  26
ATOM     26  C   UNL A   1      35.696  29.965  28.278  1.00  0.00     0.060 A 
ATOM     27  C   UNL A   1      36.627  30.169  27.263  1.00  0.00     0.016 A 
ATOM     28  C   UNL A   1      36.113  29.525  29.531  1.00  0.00     0.016 A 
ATOM     29  C   UNL A   1      37.973  29.879  27.466  1.00  0.00     0.010 A 
ATOM     30  C   UNL A   1      37.478  29.298  29.757  1.00  0.00     0.010 A 
ATOM     31  C   UNL A   1      38.421  29.446  28.719  1.00  0.00    -0.014 A 
BRANCH  31  32
ATOM     32  C   UNL A   1      39.855  29.095  28.929  1.00  0.00     0.031 A 
ATOM     33  C   UNL A   1      40.807  30.124  29.484  1.00  0.00     0.074 A 
ATOM     34  C   UNL A   1      40.312  27.857  28.650  1.00  0.00     0.049 A 
ATOM     35  N   UNL A   1      42.113  30.090  29.559  1.00  0.00    -0.248 NA
ATOM     36  C   UNL A   1      40.207  31.356  30.020  1.00  0.00     0.031 C 
ATOM     37  C   UNL A   1      39.499  26.736  28.175  1.00  0.00     0.029 A 
ATOM     38  N   UNL A   1      41.581  27.334  28.725  1.00  0.00    -0.354 N 
ATOM     39  C   UNL A   1      42.495  31.311  30.105  1.00  0.00     0.074 A 
ATOM     40  C   UNL A   1      41.282  32.065  30.338  1.00  0.00     0.031 C 
ATOM     41  C   UNL A   1      40.282  25.656  28.025  1.00  0.00     0.029 A 
ATOM     42  C   UNL A   1      41.664  26.024  28.312  1.00  0.00     0.049 A 
ATOM     43  H   UNL A   1      42.357  27.848  29.045  1.00  0.00     0.167 HD
ATOM     44  C   UNL A   1      43.742  31.762  30.384  1.00  0.00     0.037 A 
ATOM     45  C   UNL A   1      42.733  25.222  28.141  1.00  0.00     0.037 A 
ATOM     46  C   UNL A   1      44.945  30.991  30.198  1.00  0.00     0.049 A 
ATOM     47  C   UNL A   1      44.113  25.761  28.405  1.00  0.00     0.074 A 
ATOM     48  C   UNL A   1      46.256  31.368  30.438  1.00  0.00     0.029 A 
ATOM     49  N   UNL A   1      44.984  29.681  29.748  1.00  0.00    -0.354 N 
ATOM     50  N   UNL A   1      44.466  26.947  28.839  1.00  0.00    -0.248 NA
ATOM     51  C   UNL A   1      45.243  24.860  28.133  1.00  0.00     0.031 C 
ATOM     52  C   UNL A   1      47.089  30.294  30.108  1.00  0.00     0.029 A 
ATOM     53  C   UNL A   1      46.295  29.236  29.697  1.00  0.00     0.049 A 
ATOM     54  H   UNL A   1      44.196  29.145  29.500  1.00  0.00     0.167 HD
ATOM     55  C   UNL A   1      45.854  26.928  28.910  1.00  0.00     0.074 A 
ATOM     56  C   UNL A   1      46.278  25.610  28.485  1.00  0.00     0.031 C 
ATOM     57  C   UNL A   1      46.703  27.916  29.286  1.00  0.00     0.037 A 
BRANCH  44  58
ATOM     58  C   UNL A   1      43.875  33.170  30.894  1.00  0.00     0.058 A 
ATOM     59  C   UNL A   1      43.893  33.465  32.265  1.00  0.00     0.135 A 
ATOM     60  C   UNL A   1      44.018  34.237  29.992  1.00  0.00     0.135 A 
ATOM     61  F   UNL A   1      43.743  32.485  33.169  1.00  0.00    -0.206 F 
ATOM     62  C   UNL A   1      44.024  34.773  32.725  1.00  0.00     0.059 A 
ATOM     63  C   UNL A   1      44.174  35.549  30.429  1.00  0.00     0.059 A 
ATOM     64  F   UNL A   1      44.008  34.010  28.668  1.00  0.00    -0.206 F 
ATOM     65  C   UNL A   1      44.160  35.808  31.799  1.00  0.00     0.060 A 
BRANCH  65  66
ATOM     66  S   UNL A   1      44.326  37.501  32.406  1.00  0.00     0.124 S 
ATOM     67  O   UNL A   1      45.741  37.546  32.759  1.00  0.00    -0.237 OA
ATOM     68  O   UNL A   1      43.939  38.292  31.242  1.00  0.00    -0.237 OA
ATOM     69  O   UNL A   1      43.396  37.552  33.530  1.00  0.00    -0.744 OA
ENDBRANCH  65  66
ENDBRANCH  44  58
BRANCH  45  70
ATOM     70  C   UNL A   1      42.550  23.830  27.644  1.00  0.00     0.058 A 
ATOM     71  C   UNL A   1      42.469  23.559  26.271  1.00  0.00     0.135 A 
ATOM     72  C   UNL A   1      42.443  22.749  28.533  1.00  0.00     0.135 A 
ATOM     73  F   UNL A   1      42.551  24.561  25.382  1.00  0.00    -0.206 F 
ATOM     74  C   UNL A   1      42.274  22.266  25.794  1.00  0.00     0.059 A 
ATOM     75  C   UNL A   1      42.275  21.445  28.080  1.00  0.00     0.059 A 
ATOM     76  F   UNL A   1      42.523  22.955  29.856  1.00  0.00    -0.206 F 
ATOM     77  C   UNL A   1      42.179  21.215  26.708  1.00  0.00     0.060 A 
BRANCH  77  78
ATOM     78  S   UNL A   1      41.971  19.533  26.084  1.00  0.00     0.124 S 
ATOM     79  O   UNL A   1      42.348  18.741  27.248  1.00  0.00    -0.237 OA
ATOM     80  O   UNL A   1      40.556  19.509  25.726  1.00  0.00    -0.237 OA
ATOM     81  O   UNL A   1      42.894  19.480  24.955  1.00  0.00    -0.744 OA
ENDBRANCH  77  78
ENDBRANCH  45  70
BRANCH  57  82
ATOM     82  C   UNL A   1      48.171  27.601  29.294  1.00  0.00     0.058 A 
ATOM     83  C   UNL A   1      48.964  27.763  28.148  1.00  0.00     0.135 A 
ATOM     84  C   UNL A   1      48.801  27.176  30.475  1.00  0.00     0.135 A 
ATOM     85  F   UNL A   1      48.408  28.160  26.992  1.00  0.00    -0.206 F 
ATOM     86  C   UNL A   1      50.330  27.498  28.167  1.00  0.00     0.059 A 
ATOM     87  C   UNL A   1      50.169  26.925  30.522  1.00  0.00     0.059 A 
ATOM     88  F   UNL A   1      48.088  27.012  31.600  1.00  0.00    -0.206 F 
ATOM     89  C   UNL A   1      50.924  27.079  29.360  1.00  0.00     0.060 A 
BRANCH  89  90
ATOM     90  S   UNL A   1      52.703  26.772  29.383  1.00  0.00     0.124 S 
ATOM     91  O   UNL A   1      52.911  26.151  28.079  1.00  0.00    -0.237 OA
ATOM     92  O   UNL A   1      53.253  28.115  29.539  1.00  0.00    -0.237 OA
ATOM     93  O   UNL A   1      52.879  25.891  30.534  1.00  0.00    -0.744 OA
ENDBRANCH  89  90
ENDBRANCH  57  82
ENDBRANCH  31  32
ENDBRANCH  24  26
ENDBRANCH  23  24
ENDBRANCH   1  23
TORSDOF 16
ENDMDL
