MODEL 1
REMARK VINA RESULT:     -10.7      0.000      0.000
REMARK SMILES O=C(CN(Cc1ccccc1Cl)S(=O)(=O)c1ccc(Cl)cc1)OCCOC(=O)c1ccc(-c2c3nc(c(-c4c(F)cc(S(=O)(=O)[O-])cc4F)c4ccc([nH]4)c(-c4c(F)cc(S(=O)(=O)[O-])cc4F)c4nc(c(-c5c(F)cc(S(=O)(=O)[O-])cc5F)c5ccc2[nH]5)C=C4)C=C3)cc1
REMARK SMILES IDX 24 1 23 2 2 3 1 4 3 5 4 6 5 7 6 8 7 9 11 10 8 11 10 12 12 13
REMARK SMILES IDX 9 14 13 15 14 16 15 17 16 18 17 19 22 20 18 21 21 22 19 23
REMARK SMILES IDX 20 24 25 25 26 26 27 27 28 28 29 29 30 30 94 31 31 32 93 33
REMARK SMILES IDX 32 34 33 35 34 36 87 37 35 38 92 39 86 40 88 41 36 42 91 43
REMARK SMILES IDX 85 44 84 45 37 47 71 48 50 49 70 50 51 51 54 52 69 53 89 54
REMARK SMILES IDX 52 55 53 56 68 58 90 59 55 60 38 61 39 62 48 63 40 64 41 65
REMARK SMILES IDX 47 66 49 67 42 68 43 69 44 70 45 71 46 72 72 73 73 74 82 75
REMARK SMILES IDX 74 76 75 77 81 78 83 79 76 80 77 81 78 82 79 83 80 84 56 85
REMARK SMILES IDX 57 86 66 87 58 88 59 89 65 90 67 91 60 92 61 93 62 94 63 95
REMARK SMILES IDX 64 96
REMARK H PARENT 88 46 54 57
REMARK Flexibility Score: inf
ROOT
ATOM      1  C   UNL A   1      31.763  29.349  26.060  1.00  0.00     0.274 C 
ENDROOT
BRANCH   1   2
ATOM      2  O   UNL A   1      31.420  28.340  25.090  1.00  0.00    -0.461 OA
BRANCH   2   3
ATOM      3  C   UNL A   1      31.248  27.027  25.389  1.00  0.00     0.321 C 
ATOM      4  O   UNL A   1      31.156  26.668  26.560  1.00  0.00    -0.251 OA
BRANCH   3   5
ATOM      5  C   UNL A   1      31.226  26.027  24.251  1.00  0.00     0.225 C 
BRANCH   5   6
ATOM      6  N   UNL A   1      32.176  24.872  24.331  1.00  0.00    -0.182 NA
BRANCH   6   7
ATOM      7  C   UNL A   1      31.470  23.554  24.240  1.00  0.00     0.140 C 
BRANCH   7   8
ATOM      8  C   UNL A   1      32.200  22.295  24.636  1.00  0.00    -0.014 A 
ATOM      9  C   UNL A   1      32.290  21.239  23.714  1.00  0.00     0.006 A 
ATOM     10  C   UNL A   1      32.757  22.090  25.910  1.00  0.00     0.045 A 
ATOM     11  C   UNL A   1      32.974  20.066  24.029  1.00  0.00     0.000 A 
ATOM     12  C   UNL A   1      33.517  20.953  26.191  1.00  0.00     0.021 A 
ATOM     13  Cl  UNL A   1      32.408  23.118  27.247  1.00  0.00    -0.084 Cl
ATOM     14  C   UNL A   1      33.628  19.944  25.247  1.00  0.00     0.002 A 
ENDBRANCH   7   8
ENDBRANCH   6   7
BRANCH   6  15
ATOM     15  S   UNL A   1      33.538  25.180  23.340  1.00  0.00     0.243 S 
ATOM     16  O   UNL A   1      33.243  24.621  22.040  1.00  0.00    -0.207 OA
ATOM     17  O   UNL A   1      33.869  26.578  23.504  1.00  0.00    -0.207 OA
BRANCH  15  18
ATOM     18  C   UNL A   1      34.907  24.288  24.016  1.00  0.00     0.082 A 
ATOM     19  C   UNL A   1      35.496  23.286  23.233  1.00  0.00     0.023 A 
ATOM     20  C   UNL A   1      35.364  24.547  25.310  1.00  0.00     0.023 A 
ATOM     21  C   UNL A   1      36.515  22.500  23.769  1.00  0.00     0.022 A 
ATOM     22  C   UNL A   1      36.370  23.742  25.849  1.00  0.00     0.022 A 
ATOM     23  C   UNL A   1      36.934  22.718  25.081  1.00  0.00     0.041 A 
ATOM     24  Cl  UNL A   1      38.140  21.704  25.771  1.00  0.00    -0.084 Cl
ENDBRANCH  15  18
ENDBRANCH   6  15
ENDBRANCH   5   6
ENDBRANCH   3   5
ENDBRANCH   2   3
ENDBRANCH   1   2
BRANCH   1  25
ATOM     25  C   UNL A   1      33.283  29.473  26.226  1.00  0.00     0.275 C 
BRANCH  25  26
ATOM     26  O   UNL A   1      33.634  29.646  27.615  1.00  0.00    -0.458 OA
BRANCH  26  27
ATOM     27  C   UNL A   1      34.478  30.676  27.895  1.00  0.00     0.338 C 
ATOM     28  O   UNL A   1      34.167  31.844  28.042  1.00  0.00    -0.246 OA
BRANCH  27  29
ATOM     29  C   UNL A   1      35.829  30.134  28.187  1.00  0.00     0.060 A 
ATOM     30  C   UNL A   1      36.118  29.716  29.493  1.00  0.00     0.016 A 
ATOM     31  C   UNL A   1      36.802  30.016  27.192  1.00  0.00     0.016 A 
ATOM     32  C   UNL A   1      37.386  29.213  29.816  1.00  0.00     0.010 A 
ATOM     33  C   UNL A   1      38.064  29.503  27.515  1.00  0.00     0.010 A 
ATOM     34  C   UNL A   1      38.382  29.122  28.836  1.00  0.00    -0.014 A 
BRANCH  34  35
ATOM     35  C   UNL A   1      39.791  28.764  29.174  1.00  0.00     0.031 A 
ATOM     36  C   UNL A   1      40.733  29.858  29.612  1.00  0.00     0.074 A 
ATOM     37  C   UNL A   1      40.271  27.509  29.062  1.00  0.00     0.049 A 
ATOM     38  N   UNL A   1      42.016  29.797  29.859  1.00  0.00    -0.248 NA
ATOM     39  C   UNL A   1      40.142  31.192  29.816  1.00  0.00     0.031 C 
ATOM     40  C   UNL A   1      39.495  26.316  28.735  1.00  0.00     0.029 A 
ATOM     41  N   UNL A   1      41.566  27.045  29.141  1.00  0.00    -0.354 N 
ATOM     42  C   UNL A   1      42.370  31.058  30.320  1.00  0.00     0.074 A 
ATOM     43  C   UNL A   1      41.197  31.897  30.195  1.00  0.00     0.031 C 
ATOM     44  C   UNL A   1      40.339  25.291  28.511  1.00  0.00     0.029 A 
ATOM     45  C   UNL A   1      41.711  25.752  28.693  1.00  0.00     0.049 A 
ATOM     46  H   UNL A   1      42.315  27.586  29.484  1.00  0.00     0.167 HD
ATOM     47  C   UNL A   1      43.539  31.466  30.869  1.00  0.00     0.037 A 
ATOM     48  C   UNL A   1      42.819  25.033  28.426  1.00  0.00     0.037 A 
ATOM     49  C   UNL A   1      44.715  30.647  30.985  1.00  0.00     0.049 A 
ATOM     50  C   UNL A   1      44.171  25.575  28.802  1.00  0.00     0.074 A 
ATOM     51  C   UNL A   1      45.923  30.953  31.588  1.00  0.00     0.029 A 
ATOM     52  N   UNL A   1      44.840  29.367  30.469  1.00  0.00    -0.354 N 
ATOM     53  N   UNL A   1      44.472  26.736  29.329  1.00  0.00    -0.248 NA
ATOM     54  C   UNL A   1      45.326  24.685  28.610  1.00  0.00     0.031 C 
ATOM     55  C   UNL A   1      46.796  29.874  31.392  1.00  0.00     0.029 A 
ATOM     56  C   UNL A   1      46.115  28.882  30.705  1.00  0.00     0.049 A 
ATOM     57  H   UNL A   1      44.126  28.875  30.002  1.00  0.00     0.167 HD
ATOM     58  C   UNL A   1      45.829  26.674  29.631  1.00  0.00     0.074 A 
ATOM     59  C   UNL A   1      46.303  25.387  29.170  1.00  0.00     0.031 C 
ATOM     60  C   UNL A   1      46.591  27.589  30.279  1.00  0.00     0.037 A 
BRANCH  47  61
ATOM     61  C   UNL A   1      43.571  32.858  31.428  1.00  0.00     0.058 A 
ATOM     62  C   UNL A   1      44.079  33.927  30.672  1.00  0.00     0.135 A 
ATOM     63  C   UNL A   1      43.101  33.131  32.721  1.00  0.00     0.135 A 
ATOM     64  F   UNL A   1      44.555  33.715  29.434  1.00  0.00    -0.206 F 
ATOM     65  C   UNL A   1      44.159  35.213  31.193  1.00  0.00     0.059 A 
ATOM     66  C   UNL A   1      43.148  34.416  33.254  1.00  0.00     0.059 A 
ATOM     67  F   UNL A   1      42.606  32.143  33.484  1.00  0.00    -0.206 F 
ATOM     68  C   UNL A   1      43.699  35.445  32.489  1.00  0.00     0.060 A 
BRANCH  68  69
ATOM     69  S   UNL A   1      43.844  37.112  33.166  1.00  0.00     0.124 S 
ATOM     70  O   UNL A   1      42.696  37.159  34.065  1.00  0.00    -0.237 OA
ATOM     71  O   UNL A   1      45.152  37.076  33.809  1.00  0.00    -0.237 OA
ATOM     72  O   UNL A   1      43.752  37.965  31.985  1.00  0.00    -0.744 OA
ENDBRANCH  68  69
ENDBRANCH  47  61
BRANCH  48  73
ATOM     73  C   UNL A   1      42.709  23.706  27.763  1.00  0.00     0.058 A 
ATOM     74  C   UNL A   1      42.556  22.527  28.503  1.00  0.00     0.135 A 
ATOM     75  C   UNL A   1      42.801  23.599  26.367  1.00  0.00     0.135 A 
ATOM     76  F   UNL A   1      42.487  22.581  29.842  1.00  0.00    -0.206 F 
ATOM     77  C   UNL A   1      42.513  21.281  27.883  1.00  0.00     0.059 A 
ATOM     78  C   UNL A   1      42.743  22.367  25.722  1.00  0.00     0.059 A 
ATOM     79  F   UNL A   1      42.958  24.700  25.616  1.00  0.00    -0.206 F 
ATOM     80  C   UNL A   1      42.608  21.212  26.491  1.00  0.00     0.060 A 
BRANCH  80  81
ATOM     81  S   UNL A   1      42.534  19.590  25.700  1.00  0.00     0.124 S 
ATOM     82  O   UNL A   1      41.119  19.493  25.358  1.00  0.00    -0.237 OA
ATOM     83  O   UNL A   1      43.453  19.757  24.580  1.00  0.00    -0.237 OA
ATOM     84  O   UNL A   1      42.992  18.684  26.749  1.00  0.00    -0.744 OA
ENDBRANCH  80  81
ENDBRANCH  48  73
BRANCH  60  85
ATOM     85  C   UNL A   1      47.998  27.199  30.637  1.00  0.00     0.058 A 
ATOM     86  C   UNL A   1      48.303  26.454  31.785  1.00  0.00     0.135 A 
ATOM     87  C   UNL A   1      49.059  27.553  29.785  1.00  0.00     0.135 A 
ATOM     88  F   UNL A   1      47.331  26.101  32.640  1.00  0.00    -0.206 F 
ATOM     89  C   UNL A   1      49.614  26.090  32.086  1.00  0.00     0.059 A 
ATOM     90  C   UNL A   1      50.371  27.177  30.052  1.00  0.00     0.059 A 
ATOM     91  F   UNL A   1      48.822  28.261  28.669  1.00  0.00    -0.206 F 
ATOM     92  C   UNL A   1      50.640  26.455  31.213  1.00  0.00     0.060 A 
BRANCH  92  93
ATOM     93  S   UNL A   1      52.331  25.944  31.593  1.00  0.00     0.124 S 
ATOM     94  O   UNL A   1      52.722  26.937  32.588  1.00  0.00    -0.237 OA
ATOM     95  O   UNL A   1      52.144  24.585  32.092  1.00  0.00    -0.237 OA
ATOM     96  O   UNL A   1      53.012  26.043  30.305  1.00  0.00    -0.744 OA
ENDBRANCH  92  93
ENDBRANCH  60  85
ENDBRANCH  34  35
ENDBRANCH  27  29
ENDBRANCH  26  27
ENDBRANCH  25  26
ENDBRANCH   1  25
TORSDOF 19
ENDMDL
MODEL 2
REMARK VINA RESULT:     -10.5      2.141      2.733
REMARK SMILES O=C(CN(Cc1ccccc1Cl)S(=O)(=O)c1ccc(Cl)cc1)OCCOC(=O)c1ccc(-c2c3nc(c(-c4c(F)cc(S(=O)(=O)[O-])cc4F)c4ccc([nH]4)c(-c4c(F)cc(S(=O)(=O)[O-])cc4F)c4nc(c(-c5c(F)cc(S(=O)(=O)[O-])cc5F)c5ccc2[nH]5)C=C4)C=C3)cc1
REMARK SMILES IDX 24 1 23 2 2 3 1 4 3 5 4 6 5 7 6 8 7 9 11 10 8 11 10 12 12 13
REMARK SMILES IDX 9 14 13 15 14 16 15 17 16 18 17 19 22 20 18 21 21 22 19 23
REMARK SMILES IDX 20 24 25 25 26 26 27 27 28 28 29 29 30 30 94 31 31 32 93 33
REMARK SMILES IDX 32 34 33 35 34 36 87 37 35 38 92 39 86 40 88 41 36 42 91 43
REMARK SMILES IDX 85 44 84 45 37 47 71 48 50 49 70 50 51 51 54 52 69 53 89 54
REMARK SMILES IDX 52 55 53 56 68 58 90 59 55 60 38 61 39 62 48 63 40 64 41 65
REMARK SMILES IDX 47 66 49 67 42 68 43 69 44 70 45 71 46 72 72 73 73 74 82 75
REMARK SMILES IDX 74 76 75 77 81 78 83 79 76 80 77 81 78 82 79 83 80 84 56 85
REMARK SMILES IDX 57 86 66 87 58 88 59 89 65 90 67 91 60 92 61 93 62 94 63 95
REMARK SMILES IDX 64 96
REMARK H PARENT 88 46 54 57
REMARK Flexibility Score: inf
ROOT
ATOM      1  C   UNL A   1      32.359  28.268  24.828  1.00  0.00     0.274 C 
ENDROOT
BRANCH   1   2
ATOM      2  O   UNL A   1      32.268  27.312  25.903  1.00  0.00    -0.461 OA
BRANCH   2   3
ATOM      3  C   UNL A   1      31.637  26.115  25.802  1.00  0.00     0.321 C 
ATOM      4  O   UNL A   1      31.120  25.605  26.793  1.00  0.00    -0.251 OA
BRANCH   3   5
ATOM      5  C   UNL A   1      31.638  25.412  24.460  1.00  0.00     0.225 C 
BRANCH   5   6
ATOM      6  N   UNL A   1      32.466  24.170  24.333  1.00  0.00    -0.182 NA
BRANCH   6   7
ATOM      7  C   UNL A   1      31.621  22.946  24.152  1.00  0.00     0.140 C 
BRANCH   7   8
ATOM      8  C   UNL A   1      32.219  21.588  24.421  1.00  0.00    -0.014 A 
ATOM      9  C   UNL A   1      32.851  21.351  25.653  1.00  0.00     0.006 A 
ATOM     10  C   UNL A   1      32.230  20.546  23.478  1.00  0.00     0.045 A 
ATOM     11  C   UNL A   1      33.396  20.105  25.953  1.00  0.00     0.000 A 
ATOM     12  C   UNL A   1      32.697  19.274  23.814  1.00  0.00     0.021 A 
ATOM     13  Cl  UNL A   1      31.841  20.797  21.819  1.00  0.00    -0.084 Cl
ATOM     14  C   UNL A   1      33.276  19.054  25.054  1.00  0.00     0.002 A 
ENDBRANCH   7   8
ENDBRANCH   6   7
BRANCH   6  15
ATOM     15  S   UNL A   1      33.781  24.463  23.277  1.00  0.00     0.243 S 
ATOM     16  O   UNL A   1      33.533  23.694  22.078  1.00  0.00    -0.207 OA
ATOM     17  O   UNL A   1      33.971  25.896  23.230  1.00  0.00    -0.207 OA
BRANCH  15  18
ATOM     18  C   UNL A   1      35.239  23.818  24.043  1.00  0.00     0.082 A 
ATOM     19  C   UNL A   1      35.992  22.868  23.340  1.00  0.00     0.023 A 
ATOM     20  C   UNL A   1      35.609  24.216  25.330  1.00  0.00     0.023 A 
ATOM     21  C   UNL A   1      37.092  22.270  23.951  1.00  0.00     0.022 A 
ATOM     22  C   UNL A   1      36.700  23.597  25.944  1.00  0.00     0.022 A 
ATOM     23  C   UNL A   1      37.430  22.622  25.257  1.00  0.00     0.041 A 
ATOM     24  Cl  UNL A   1      38.744  21.834  26.040  1.00  0.00    -0.084 Cl
ENDBRANCH  15  18
ENDBRANCH   6  15
ENDBRANCH   5   6
ENDBRANCH   3   5
ENDBRANCH   2   3
ENDBRANCH   1   2
BRANCH   1  25
ATOM     25  C   UNL A   1      33.276  29.440  25.196  1.00  0.00     0.275 C 
BRANCH  25  26
ATOM     26  O   UNL A   1      34.107  29.105  26.328  1.00  0.00    -0.458 OA
BRANCH  26  27
ATOM     27  C   UNL A   1      34.263  30.078  27.265  1.00  0.00     0.338 C 
ATOM     28  O   UNL A   1      33.425  30.893  27.607  1.00  0.00    -0.246 OA
BRANCH  27  29
ATOM     29  C   UNL A   1      35.562  29.884  27.958  1.00  0.00     0.060 A 
ATOM     30  C   UNL A   1      36.744  30.007  27.216  1.00  0.00     0.016 A 
ATOM     31  C   UNL A   1      35.629  29.603  29.324  1.00  0.00     0.016 A 
ATOM     32  C   UNL A   1      37.992  29.817  27.827  1.00  0.00     0.010 A 
ATOM     33  C   UNL A   1      36.877  29.424  29.934  1.00  0.00     0.010 A 
ATOM     34  C   UNL A   1      38.072  29.500  29.188  1.00  0.00    -0.014 A 
BRANCH  34  35
ATOM     35  C   UNL A   1      39.362  29.113  29.834  1.00  0.00     0.031 A 
ATOM     36  C   UNL A   1      39.989  30.059  30.827  1.00  0.00     0.074 A 
ATOM     37  C   UNL A   1      40.013  27.971  29.532  1.00  0.00     0.049 A 
ATOM     38  N   UNL A   1      41.145  29.976  31.433  1.00  0.00    -0.248 NA
ATOM     39  C   UNL A   1      39.197  31.243  31.199  1.00  0.00     0.031 C 
ATOM     40  C   UNL A   1      39.524  26.904  28.664  1.00  0.00     0.029 A 
ATOM     41  N   UNL A   1      41.281  27.557  29.878  1.00  0.00    -0.354 N 
ATOM     42  C   UNL A   1      41.186  31.050  32.311  1.00  0.00     0.074 A 
ATOM     43  C   UNL A   1      39.999  31.841  32.067  1.00  0.00     0.031 C 
ATOM     44  C   UNL A   1      40.523  26.029  28.439  1.00  0.00     0.029 A 
ATOM     45  C   UNL A   1      41.714  26.467  29.158  1.00  0.00     0.049 A 
ATOM     46  H   UNL A   1      41.823  27.997  30.572  1.00  0.00     0.167 HD
ATOM     47  C   UNL A   1      42.088  31.318  33.286  1.00  0.00     0.037 A 
ATOM     48  C   UNL A   1      42.936  25.907  29.060  1.00  0.00     0.037 A 
ATOM     49  C   UNL A   1      43.278  30.550  33.531  1.00  0.00     0.049 A 
ATOM     50  C   UNL A   1      44.043  26.363  29.972  1.00  0.00     0.074 A 
ATOM     51  C   UNL A   1      44.214  30.706  34.538  1.00  0.00     0.029 A 
ATOM     52  N   UNL A   1      43.710  29.493  32.746  1.00  0.00    -0.354 N 
ATOM     53  N   UNL A   1      44.027  27.319  30.866  1.00  0.00    -0.248 NA
ATOM     54  C   UNL A   1      45.310  25.619  29.909  1.00  0.00     0.031 C 
ATOM     55  C   UNL A   1      45.239  29.773  34.333  1.00  0.00     0.029 A 
ATOM     56  C   UNL A   1      44.917  29.010  33.222  1.00  0.00     0.049 A 
ATOM     57  H   UNL A   1      43.229  29.138  31.963  1.00  0.00     0.167 HD
ATOM     58  C   UNL A   1      45.238  27.223  31.545  1.00  0.00     0.074 A 
ATOM     59  C   UNL A   1      45.987  26.156  30.916  1.00  0.00     0.031 C 
ATOM     60  C   UNL A   1      45.658  27.927  32.624  1.00  0.00     0.037 A 
BRANCH  47  61
ATOM     61  C   UNL A   1      41.778  32.475  34.191  1.00  0.00     0.058 A 
ATOM     62  C   UNL A   1      40.933  32.315  35.302  1.00  0.00     0.135 A 
ATOM     63  C   UNL A   1      42.317  33.747  33.953  1.00  0.00     0.135 A 
ATOM     64  F   UNL A   1      40.379  31.119  35.565  1.00  0.00    -0.206 F 
ATOM     65  C   UNL A   1      40.598  33.386  36.121  1.00  0.00     0.059 A 
ATOM     66  C   UNL A   1      42.015  34.829  34.775  1.00  0.00     0.059 A 
ATOM     67  F   UNL A   1      43.130  33.952  32.904  1.00  0.00    -0.206 F 
ATOM     68  C   UNL A   1      41.138  34.642  35.844  1.00  0.00     0.060 A 
BRANCH  68  69
ATOM     69  S   UNL A   1      40.664  36.031  36.894  1.00  0.00     0.124 S 
ATOM     70  O   UNL A   1      39.712  36.729  36.037  1.00  0.00    -0.237 OA
ATOM     71  O   UNL A   1      40.096  35.363  38.060  1.00  0.00    -0.237 OA
ATOM     72  O   UNL A   1      41.928  36.725  37.126  1.00  0.00    -0.744 OA
ENDBRANCH  68  69
ENDBRANCH  47  61
BRANCH  48  73
ATOM     73  C   UNL A   1      43.192  24.841  28.055  1.00  0.00     0.058 A 
ATOM     74  C   UNL A   1      43.036  23.485  28.368  1.00  0.00     0.135 A 
ATOM     75  C   UNL A   1      43.645  25.170  26.768  1.00  0.00     0.135 A 
ATOM     76  F   UNL A   1      42.628  23.124  29.594  1.00  0.00    -0.206 F 
ATOM     77  C   UNL A   1      43.335  22.487  27.445  1.00  0.00     0.059 A 
ATOM     78  C   UNL A   1      43.933  24.192  25.821  1.00  0.00     0.059 A 
ATOM     79  F   UNL A   1      43.819  26.456  26.424  1.00  0.00    -0.206 F 
ATOM     80  C   UNL A   1      43.783  22.852  26.173  1.00  0.00     0.060 A 
BRANCH  80  81
ATOM     81  S   UNL A   1      44.150  21.546  24.980  1.00  0.00     0.124 S 
ATOM     82  O   UNL A   1      44.086  22.275  23.717  1.00  0.00    -0.237 OA
ATOM     83  O   UNL A   1      45.477  21.114  25.403  1.00  0.00    -0.237 OA
ATOM     84  O   UNL A   1      43.081  20.578  25.203  1.00  0.00    -0.744 OA
ENDBRANCH  80  81
ENDBRANCH  48  73
BRANCH  60  85
ATOM     85  C   UNL A   1      46.944  27.503  33.278  1.00  0.00     0.058 A 
ATOM     86  C   UNL A   1      46.992  26.511  34.268  1.00  0.00     0.135 A 
ATOM     87  C   UNL A   1      48.158  28.083  32.872  1.00  0.00     0.135 A 
ATOM     88  F   UNL A   1      45.861  25.933  34.702  1.00  0.00    -0.206 F 
ATOM     89  C   UNL A   1      48.198  26.123  34.848  1.00  0.00     0.059 A 
ATOM     90  C   UNL A   1      49.376  27.691  33.418  1.00  0.00     0.059 A 
ATOM     91  F   UNL A   1      48.170  29.034  31.924  1.00  0.00    -0.206 F 
ATOM     92  C   UNL A   1      49.385  26.718  34.414  1.00  0.00     0.060 A 
BRANCH  92  93
ATOM     93  S   UNL A   1      50.947  26.179  35.144  1.00  0.00     0.124 S 
ATOM     94  O   UNL A   1      50.584  26.046  36.551  1.00  0.00    -0.237 OA
ATOM     95  O   UNL A   1      51.210  24.930  34.436  1.00  0.00    -0.237 OA
ATOM     96  O   UNL A   1      51.862  27.273  34.832  1.00  0.00    -0.744 OA
ENDBRANCH  92  93
ENDBRANCH  60  85
ENDBRANCH  34  35
ENDBRANCH  27  29
ENDBRANCH  26  27
ENDBRANCH  25  26
ENDBRANCH   1  25
TORSDOF 19
ENDMDL
MODEL 3
REMARK VINA RESULT:     -10.3      2.496      8.267
REMARK SMILES O=C(CN(Cc1ccccc1Cl)S(=O)(=O)c1ccc(Cl)cc1)OCCOC(=O)c1ccc(-c2c3nc(c(-c4c(F)cc(S(=O)(=O)[O-])cc4F)c4ccc([nH]4)c(-c4c(F)cc(S(=O)(=O)[O-])cc4F)c4nc(c(-c5c(F)cc(S(=O)(=O)[O-])cc5F)c5ccc2[nH]5)C=C4)C=C3)cc1
REMARK SMILES IDX 24 1 23 2 2 3 1 4 3 5 4 6 5 7 6 8 7 9 11 10 8 11 10 12 12 13
REMARK SMILES IDX 9 14 13 15 14 16 15 17 16 18 17 19 22 20 18 21 21 22 19 23
REMARK SMILES IDX 20 24 25 25 26 26 27 27 28 28 29 29 30 30 94 31 31 32 93 33
REMARK SMILES IDX 32 34 33 35 34 36 87 37 35 38 92 39 86 40 88 41 36 42 91 43
REMARK SMILES IDX 85 44 84 45 37 47 71 48 50 49 70 50 51 51 54 52 69 53 89 54
REMARK SMILES IDX 52 55 53 56 68 58 90 59 55 60 38 61 39 62 48 63 40 64 41 65
REMARK SMILES IDX 47 66 49 67 42 68 43 69 44 70 45 71 46 72 72 73 73 74 82 75
REMARK SMILES IDX 74 76 75 77 81 78 83 79 76 80 77 81 78 82 79 83 80 84 56 85
REMARK SMILES IDX 57 86 66 87 58 88 59 89 65 90 67 91 60 92 61 93 62 94 63 95
REMARK SMILES IDX 64 96
REMARK H PARENT 88 46 54 57
REMARK Flexibility Score: inf
ROOT
ATOM      1  C   UNL A   1      32.152  28.457  24.936  1.00  0.00     0.274 C 
ENDROOT
BRANCH   1   2
ATOM      2  O   UNL A   1      32.222  27.389  25.902  1.00  0.00    -0.461 OA
BRANCH   2   3
ATOM      3  C   UNL A   1      31.520  26.232  25.806  1.00  0.00     0.321 C 
ATOM      4  O   UNL A   1      30.947  25.773  26.792  1.00  0.00    -0.251 OA
BRANCH   3   5
ATOM      5  C   UNL A   1      31.510  25.505  24.477  1.00  0.00     0.225 C 
BRANCH   5   6
ATOM      6  N   UNL A   1      32.384  24.296  24.346  1.00  0.00    -0.182 NA
BRANCH   6   7
ATOM      7  C   UNL A   1      31.587  23.045  24.135  1.00  0.00     0.140 C 
BRANCH   7   8
ATOM      8  C   UNL A   1      32.221  21.707  24.422  1.00  0.00    -0.014 A 
ATOM      9  C   UNL A   1      32.865  21.506  25.654  1.00  0.00     0.006 A 
ATOM     10  C   UNL A   1      32.255  20.651  23.495  1.00  0.00     0.045 A 
ATOM     11  C   UNL A   1      33.444  20.278  25.971  1.00  0.00     0.000 A 
ATOM     12  C   UNL A   1      32.756  19.397  23.848  1.00  0.00     0.021 A 
ATOM     13  Cl  UNL A   1      31.850  20.866  21.835  1.00  0.00    -0.084 Cl
ATOM     14  C   UNL A   1      33.346  19.211  25.088  1.00  0.00     0.002 A 
ENDBRANCH   7   8
ENDBRANCH   6   7
BRANCH   6  15
ATOM     15  S   UNL A   1      33.703  24.651  23.314  1.00  0.00     0.243 S 
ATOM     16  O   UNL A   1      33.446  23.979  22.060  1.00  0.00    -0.207 OA
ATOM     17  O   UNL A   1      33.912  26.081  23.375  1.00  0.00    -0.207 OA
BRANCH  15  18
ATOM     18  C   UNL A   1      35.152  23.931  24.027  1.00  0.00     0.082 A 
ATOM     19  C   UNL A   1      35.842  22.959  23.289  1.00  0.00     0.023 A 
ATOM     20  C   UNL A   1      35.577  24.291  25.308  1.00  0.00     0.023 A 
ATOM     21  C   UNL A   1      36.932  22.304  23.859  1.00  0.00     0.022 A 
ATOM     22  C   UNL A   1      36.656  23.616  25.881  1.00  0.00     0.022 A 
ATOM     23  C   UNL A   1      37.322  22.621  25.159  1.00  0.00     0.041 A 
ATOM     24  Cl  UNL A   1      38.622  21.764  25.893  1.00  0.00    -0.084 Cl
ENDBRANCH  15  18
ENDBRANCH   6  15
ENDBRANCH   5   6
ENDBRANCH   3   5
ENDBRANCH   2   3
ENDBRANCH   1   2
BRANCH   1  25
ATOM     25  C   UNL A   1      32.860  29.719  25.444  1.00  0.00     0.275 C 
BRANCH  25  26
ATOM     26  O   UNL A   1      33.850  29.386  26.439  1.00  0.00    -0.458 OA
BRANCH  26  27
ATOM     27  C   UNL A   1      34.186  30.380  27.305  1.00  0.00     0.338 C 
ATOM     28  O   UNL A   1      33.471  31.299  27.662  1.00  0.00    -0.246 OA
BRANCH  27  29
ATOM     29  C   UNL A   1      35.509  30.075  27.909  1.00  0.00     0.060 A 
ATOM     30  C   UNL A   1      35.556  29.653  29.244  1.00  0.00     0.016 A 
ATOM     31  C   UNL A   1      36.691  30.181  27.173  1.00  0.00     0.016 A 
ATOM     32  C   UNL A   1      36.785  29.369  29.858  1.00  0.00     0.010 A 
ATOM     33  C   UNL A   1      37.915  29.886  27.786  1.00  0.00     0.010 A 
ATOM     34  C   UNL A   1      37.980  29.505  29.144  1.00  0.00    -0.014 A 
BRANCH  34  35
ATOM     35  C   UNL A   1      39.313  29.390  29.806  1.00  0.00     0.031 A 
ATOM     36  C   UNL A   1      40.189  28.208  29.475  1.00  0.00     0.074 A 
ATOM     37  C   UNL A   1      39.749  30.277  30.725  1.00  0.00     0.049 A 
ATOM     38  N   UNL A   1      41.335  27.854  29.997  1.00  0.00    -0.248 NA
ATOM     39  C   UNL A   1      39.718  27.322  28.397  1.00  0.00     0.031 C 
ATOM     40  C   UNL A   1      39.081  31.516  31.110  1.00  0.00     0.029 A 
ATOM     41  N   UNL A   1      40.842  30.220  31.562  1.00  0.00    -0.354 N 
ATOM     42  C   UNL A   1      41.757  26.753  29.264  1.00  0.00     0.074 A 
ATOM     43  C   UNL A   1      40.688  26.421  28.348  1.00  0.00     0.031 C 
ATOM     44  C   UNL A   1      39.699  32.031  32.190  1.00  0.00     0.029 A 
ATOM     45  C   UNL A   1      40.813  31.165  32.561  1.00  0.00     0.049 A 
ATOM     46  H   UNL A   1      41.572  29.567  31.455  1.00  0.00     0.167 HD
ATOM     47  C   UNL A   1      42.955  26.120  29.293  1.00  0.00     0.037 A 
ATOM     48  C   UNL A   1      41.572  31.299  33.667  1.00  0.00     0.037 A 
ATOM     49  C   UNL A   1      44.020  26.431  30.207  1.00  0.00     0.049 A 
ATOM     50  C   UNL A   1      42.785  30.428  33.852  1.00  0.00     0.074 A 
ATOM     51  C   UNL A   1      45.292  25.889  30.266  1.00  0.00     0.029 A 
ATOM     52  N   UNL A   1      43.931  27.351  31.239  1.00  0.00    -0.354 N 
ATOM     53  N   UNL A   1      43.220  29.456  33.090  1.00  0.00    -0.248 NA
ATOM     54  C   UNL A   1      43.646  30.717  35.008  1.00  0.00     0.031 C 
ATOM     55  C   UNL A   1      45.956  26.448  31.365  1.00  0.00     0.029 A 
ATOM     56  C   UNL A   1      45.111  27.368  31.964  1.00  0.00     0.049 A 
ATOM     57  H   UNL A   1      43.143  27.911  31.429  1.00  0.00     0.167 HD
ATOM     58  C   UNL A   1      44.457  29.090  33.612  1.00  0.00     0.074 A 
ATOM     59  C   UNL A   1      44.671  29.902  34.791  1.00  0.00     0.031 C 
ATOM     60  C   UNL A   1      45.349  28.195  33.120  1.00  0.00     0.037 A 
BRANCH  47  61
ATOM     61  C   UNL A   1      43.179  25.055  28.260  1.00  0.00     0.058 A 
ATOM     62  C   UNL A   1      42.951  23.701  28.559  1.00  0.00     0.135 A 
ATOM     63  C   UNL A   1      43.624  25.378  26.970  1.00  0.00     0.135 A 
ATOM     64  F   UNL A   1      42.538  23.339  29.784  1.00  0.00    -0.206 F 
ATOM     65  C   UNL A   1      43.200  22.700  27.628  1.00  0.00     0.059 A 
ATOM     66  C   UNL A   1      43.856  24.393  26.014  1.00  0.00     0.059 A 
ATOM     67  F   UNL A   1      43.856  26.657  26.634  1.00  0.00    -0.206 F 
ATOM     68  C   UNL A   1      43.660  23.056  26.360  1.00  0.00     0.060 A 
BRANCH  68  69
ATOM     69  S   UNL A   1      44.013  21.742  25.175  1.00  0.00     0.124 S 
ATOM     70  O   UNL A   1      43.847  22.445  23.907  1.00  0.00    -0.237 OA
ATOM     71  O   UNL A   1      45.381  21.369  25.519  1.00  0.00    -0.237 OA
ATOM     72  O   UNL A   1      42.999  20.735  25.473  1.00  0.00    -0.744 OA
ENDBRANCH  68  69
ENDBRANCH  47  61
BRANCH  48  73
ATOM     73  C   UNL A   1      41.215  32.305  34.702  1.00  0.00     0.058 A 
ATOM     74  C   UNL A   1      41.754  33.598  34.686  1.00  0.00     0.135 A 
ATOM     75  C   UNL A   1      40.355  31.966  35.758  1.00  0.00     0.135 A 
ATOM     76  F   UNL A   1      42.599  33.958  33.708  1.00  0.00    -0.206 F 
ATOM     77  C   UNL A   1      41.465  34.518  35.689  1.00  0.00     0.059 A 
ATOM     78  C   UNL A   1      40.036  32.873  36.764  1.00  0.00     0.059 A 
ATOM     79  F   UNL A   1      39.821  30.735  35.822  1.00  0.00    -0.206 F 
ATOM     80  C   UNL A   1      40.605  34.145  36.725  1.00  0.00     0.060 A 
BRANCH  80  81
ATOM     81  S   UNL A   1      40.226  35.356  38.011  1.00  0.00     0.124 S 
ATOM     82  O   UNL A   1      41.488  35.416  38.740  1.00  0.00    -0.237 OA
ATOM     83  O   UNL A   1      39.883  36.536  37.225  1.00  0.00    -0.237 OA
ATOM     84  O   UNL A   1      39.112  34.743  38.729  1.00  0.00    -0.744 OA
ENDBRANCH  80  81
ENDBRANCH  48  73
BRANCH  60  85
ATOM     85  C   UNL A   1      46.696  28.115  33.783  1.00  0.00     0.058 A 
ATOM     86  C   UNL A   1      46.976  27.202  34.809  1.00  0.00     0.135 A 
ATOM     87  C   UNL A   1      47.738  28.954  33.350  1.00  0.00     0.135 A 
ATOM     88  F   UNL A   1      46.014  26.387  35.270  1.00  0.00    -0.206 F 
ATOM     89  C   UNL A   1      48.238  27.135  35.396  1.00  0.00     0.059 A 
ATOM     90  C   UNL A   1      49.012  28.885  33.903  1.00  0.00     0.059 A 
ATOM     91  F   UNL A   1      47.526  29.843  32.366  1.00  0.00    -0.206 F 
ATOM     92  C   UNL A   1      49.249  27.979  34.935  1.00  0.00     0.060 A 
BRANCH  92  93
ATOM     93  S   UNL A   1      50.892  27.857  35.677  1.00  0.00     0.124 S 
ATOM     94  O   UNL A   1      51.736  27.698  34.497  1.00  0.00    -0.237 OA
ATOM     95  O   UNL A   1      51.016  29.132  36.377  1.00  0.00    -0.237 OA
ATOM     96  O   UNL A   1      50.788  26.684  36.539  1.00  0.00    -0.744 OA
ENDBRANCH  92  93
ENDBRANCH  60  85
ENDBRANCH  34  35
ENDBRANCH  27  29
ENDBRANCH  26  27
ENDBRANCH  25  26
ENDBRANCH   1  25
TORSDOF 19
ENDMDL
