MODEL 1
REMARK VINA RESULT:     -10.0      0.000      0.000
REMARK SMILES CC(C)(C)c1cc2c(cc1Cl)C=C(C(=O)OCCOC(=O)c1ccc(-c3c4nc(c(-c5c(F)cc(S(=O)(=O)[O-])cc5F)c5ccc([nH]5)c(-c5c(F)cc(S(=O)(=O)[O-])cc5F)c5nc(c(-c6c(F)cc(S(=O)(=O)[O-])cc6F)c6ccc3[nH]6)C=C5)C=C4)cc1)[C@@H](C(F)(F)F)O2
REMARK SMILES IDX 18 1 17 2 16 3 14 4 15 5 13 6 5 7 6 8 10 9 7 10 9 11 11 12
REMARK SMILES IDX 8 13 93 14 12 15 88 16 2 17 1 18 3 19 4 20 89 21 90 22 91 23
REMARK SMILES IDX 92 24 19 25 20 26 21 27 22 28 23 29 87 30 24 31 86 32 25 33
REMARK SMILES IDX 26 34 27 35 80 36 28 37 85 38 79 39 81 40 29 41 84 42 78 43
REMARK SMILES IDX 77 44 30 46 64 47 43 48 63 49 44 50 47 51 62 52 82 53 45 54
REMARK SMILES IDX 46 55 61 57 83 58 48 59 31 60 32 61 41 62 33 63 34 64 40 65
REMARK SMILES IDX 42 66 35 67 36 68 37 69 38 70 39 71 65 72 66 73 75 74 67 75
REMARK SMILES IDX 68 76 74 77 76 78 69 79 70 80 71 81 72 82 73 83 49 84 50 85
REMARK SMILES IDX 59 86 51 87 52 88 58 89 60 90 53 91 54 92 55 93 56 94 57 95
REMARK H PARENT 81 45 47 56
REMARK Flexibility Score: inf
ROOT
ATOM      1  C   UNL A   1      33.256  33.498  27.951  1.00  0.00     0.275 C 
ENDROOT
BRANCH   1   2
ATOM      2  C   UNL A   1      33.644  34.376  29.141  1.00  0.00     0.275 C 
BRANCH   2   3
ATOM      3  O   UNL A   1      34.612  33.721  29.990  1.00  0.00    -0.459 OA
BRANCH   3   4
ATOM      4  C   UNL A   1      34.627  34.139  31.278  1.00  0.00     0.338 C 
ATOM      5  O   UNL A   1      33.656  34.289  32.003  1.00  0.00    -0.246 OA
BRANCH   4   6
ATOM      6  C   UNL A   1      36.010  34.350  31.743  1.00  0.00     0.087 C 
ATOM      7  C   UNL A   1      41.071  34.410  32.067  1.00  0.00    -0.020 A 
ATOM      8  C   UNL A   1      39.995  34.589  32.980  1.00  0.00     0.053 A 
ATOM      9  C   UNL A   1      40.715  34.203  30.714  1.00  0.00     0.045 A 
ATOM     10  C   UNL A   1      38.654  34.544  32.583  1.00  0.00     0.128 A 
ATOM     11  C   UNL A   1      39.374  34.163  30.320  1.00  0.00     0.032 A 
ATOM     12  Cl  UNL A   1      41.837  33.968  29.418  1.00  0.00    -0.084 Cl
ATOM     13  C   UNL A   1      38.352  34.320  31.253  1.00  0.00     0.019 A 
ATOM     14  O   UNL A   1      37.703  34.738  33.548  1.00  0.00    -0.475 OA
ATOM     15  C   UNL A   1      36.976  34.220  30.831  1.00  0.00     0.027 C 
ATOM     16  C   UNL A   1      36.293  34.559  33.202  1.00  0.00     0.316 C 
BRANCH   7  17
ATOM     17  C   UNL A   1      42.535  34.444  32.570  1.00  0.00    -0.012 C 
ATOM     18  C   UNL A   1      43.137  33.021  32.610  1.00  0.00     0.016 C 
ATOM     19  C   UNL A   1      42.676  34.991  34.016  1.00  0.00     0.016 C 
ATOM     20  C   UNL A   1      43.400  35.373  31.689  1.00  0.00     0.016 C 
ENDBRANCH   7  17
BRANCH  16  21
ATOM     21  C   UNL A   1      35.723  33.406  34.045  1.00  0.00     0.430 C 
ATOM     22  F   UNL A   1      36.557  33.082  35.063  1.00  0.00    -0.167 F 
ATOM     23  F   UNL A   1      34.540  33.741  34.614  1.00  0.00    -0.167 F 
ATOM     24  F   UNL A   1      35.521  32.286  33.315  1.00  0.00    -0.167 F 
ENDBRANCH  16  21
ENDBRANCH   4   6
ENDBRANCH   3   4
ENDBRANCH   2   3
ENDBRANCH   1   2
BRANCH   1  25
ATOM     25  O   UNL A   1      34.418  32.854  27.398  1.00  0.00    -0.458 OA
BRANCH  25  26
ATOM     26  C   UNL A   1      34.392  31.503  27.400  1.00  0.00     0.338 C 
ATOM     27  O   UNL A   1      33.525  30.777  26.944  1.00  0.00    -0.246 OA
BRANCH  26  28
ATOM     28  C   UNL A   1      35.642  30.990  27.982  1.00  0.00     0.060 A 
ATOM     29  C   UNL A   1      36.784  31.777  28.059  1.00  0.00     0.016 A 
ATOM     30  C   UNL A   1      35.620  29.739  28.586  1.00  0.00     0.016 A 
ATOM     31  C   UNL A   1      37.909  31.285  28.735  1.00  0.00     0.010 A 
ATOM     32  C   UNL A   1      36.672  29.328  29.397  1.00  0.00     0.010 A 
ATOM     33  C   UNL A   1      37.857  30.070  29.448  1.00  0.00    -0.014 A 
BRANCH  33  34
ATOM     34  C   UNL A   1      39.031  29.538  30.205  1.00  0.00     0.031 A 
ATOM     35  C   UNL A   1      39.277  29.966  31.638  1.00  0.00     0.074 A 
ATOM     36  C   UNL A   1      39.910  28.707  29.605  1.00  0.00     0.049 A 
ATOM     37  N   UNL A   1      40.287  29.691  32.426  1.00  0.00    -0.248 NA
ATOM     38  C   UNL A   1      38.282  30.863  32.253  1.00  0.00     0.031 C 
ATOM     39  C   UNL A   1      39.848  28.266  28.209  1.00  0.00     0.029 A 
ATOM     40  N   UNL A   1      41.026  28.073  30.098  1.00  0.00    -0.354 N 
ATOM     41  C   UNL A   1      40.068  30.412  33.597  1.00  0.00     0.074 A 
ATOM     42  C   UNL A   1      38.871  31.193  33.391  1.00  0.00     0.031 C 
ATOM     43  C   UNL A   1      40.834  27.385  27.979  1.00  0.00     0.029 A 
ATOM     44  C   UNL A   1      41.631  27.233  29.191  1.00  0.00     0.049 A 
ATOM     45  H   UNL A   1      41.361  28.208  31.013  1.00  0.00     0.167 HD
ATOM     46  C   UNL A   1      40.766  30.395  34.758  1.00  0.00     0.037 A 
ATOM     47  C   UNL A   1      42.702  26.425  29.321  1.00  0.00     0.037 A 
ATOM     48  C   UNL A   1      41.908  29.552  34.996  1.00  0.00     0.049 A 
ATOM     49  C   UNL A   1      43.427  26.374  30.637  1.00  0.00     0.074 A 
ATOM     50  C   UNL A   1      42.640  29.402  36.161  1.00  0.00     0.029 A 
ATOM     51  N   UNL A   1      42.467  28.695  34.060  1.00  0.00    -0.354 N 
ATOM     52  N   UNL A   1      43.182  27.041  31.740  1.00  0.00    -0.248 NA
ATOM     53  C   UNL A   1      44.572  25.457  30.729  1.00  0.00     0.031 C 
ATOM     54  C   UNL A   1      43.656  28.470  35.923  1.00  0.00     0.029 A 
ATOM     55  C   UNL A   1      43.534  28.014  34.620  1.00  0.00     0.049 A 
ATOM     56  H   UNL A   1      42.151  28.588  33.134  1.00  0.00     0.167 HD
ATOM     57  C   UNL A   1      44.135  26.618  32.659  1.00  0.00     0.074 A 
ATOM     58  C   UNL A   1      44.943  25.617  31.992  1.00  0.00     0.031 C 
ATOM     59  C   UNL A   1      44.329  27.024  33.938  1.00  0.00     0.037 A 
BRANCH  46  60
ATOM     60  C   UNL A   1      40.287  31.283  35.878  1.00  0.00     0.058 A 
ATOM     61  C   UNL A   1      39.053  31.065  36.512  1.00  0.00     0.135 A 
ATOM     62  C   UNL A   1      41.082  32.343  36.347  1.00  0.00     0.135 A 
ATOM     63  F   UNL A   1      38.244  30.078  36.096  1.00  0.00    -0.206 F 
ATOM     64  C   UNL A   1      38.609  31.884  37.546  1.00  0.00     0.059 A 
ATOM     65  C   UNL A   1      40.671  33.155  37.402  1.00  0.00     0.059 A 
ATOM     66  F   UNL A   1      42.273  32.597  35.783  1.00  0.00    -0.206 F 
ATOM     67  C   UNL A   1      39.426  32.925  37.985  1.00  0.00     0.060 A 
BRANCH  67  68
ATOM     68  S   UNL A   1      38.837  33.965  39.339  1.00  0.00     0.124 S 
ATOM     69  O   UNL A   1      39.822  33.679  40.377  1.00  0.00    -0.237 OA
ATOM     70  O   UNL A   1      38.904  35.302  38.756  1.00  0.00    -0.237 OA
ATOM     71  O   UNL A   1      37.490  33.463  39.595  1.00  0.00    -0.744 OA
ENDBRANCH  67  68
ENDBRANCH  46  60
BRANCH  47  72
ATOM     72  C   UNL A   1      43.120  25.561  28.184  1.00  0.00     0.058 A 
ATOM     73  C   UNL A   1      44.155  25.961  27.324  1.00  0.00     0.135 A 
ATOM     74  C   UNL A   1      42.524  24.312  27.951  1.00  0.00     0.135 A 
ATOM     75  F   UNL A   1      44.750  27.151  27.501  1.00  0.00    -0.206 F 
ATOM     76  C   UNL A   1      44.582  25.159  26.272  1.00  0.00     0.059 A 
ATOM     77  C   UNL A   1      42.951  23.480  26.918  1.00  0.00     0.059 A 
ATOM     78  F   UNL A   1      41.542  23.876  28.753  1.00  0.00    -0.206 F 
ATOM     79  C   UNL A   1      43.978  23.915  26.081  1.00  0.00     0.060 A 
BRANCH  79  80
ATOM     80  S   UNL A   1      44.590  22.852  24.754  1.00  0.00     0.124 S 
ATOM     81  O   UNL A   1      45.612  23.697  24.148  1.00  0.00    -0.237 OA
ATOM     82  O   UNL A   1      45.079  21.692  25.495  1.00  0.00    -0.237 OA
ATOM     83  O   UNL A   1      43.403  22.613  23.940  1.00  0.00    -0.744 OA
ENDBRANCH  79  80
ENDBRANCH  47  72
BRANCH  59  84
ATOM     84  C   UNL A   1      45.451  26.378  34.701  1.00  0.00     0.058 A 
ATOM     85  C   UNL A   1      46.737  26.939  34.728  1.00  0.00     0.135 A 
ATOM     86  C   UNL A   1      45.230  25.204  35.437  1.00  0.00     0.135 A 
ATOM     87  F   UNL A   1      47.000  28.060  34.037  1.00  0.00    -0.206 F 
ATOM     88  C   UNL A   1      47.775  26.339  35.431  1.00  0.00     0.059 A 
ATOM     89  C   UNL A   1      46.247  24.600  36.170  1.00  0.00     0.059 A 
ATOM     90  F   UNL A   1      44.014  24.634  35.456  1.00  0.00    -0.206 F 
ATOM     91  C   UNL A   1      47.521  25.168  36.148  1.00  0.00     0.060 A 
BRANCH  91  92
ATOM     92  S   UNL A   1      48.877  24.402  37.059  1.00  0.00     0.124 S 
ATOM     93  O   UNL A   1      48.573  22.984  36.901  1.00  0.00    -0.237 OA
ATOM     94  O   UNL A   1      50.050  24.883  36.338  1.00  0.00    -0.237 OA
ATOM     95  O   UNL A   1      48.720  24.931  38.412  1.00  0.00    -0.744 OA
ENDBRANCH  91  92
ENDBRANCH  59  84
ENDBRANCH  33  34
ENDBRANCH  26  28
ENDBRANCH  25  26
ENDBRANCH   1  25
TORSDOF 16
ENDMDL
MODEL 2
REMARK VINA RESULT:     -10.0      4.417     12.365
REMARK SMILES CC(C)(C)c1cc2c(cc1Cl)C=C(C(=O)OCCOC(=O)c1ccc(-c3c4nc(c(-c5c(F)cc(S(=O)(=O)[O-])cc5F)c5ccc([nH]5)c(-c5c(F)cc(S(=O)(=O)[O-])cc5F)c5nc(c(-c6c(F)cc(S(=O)(=O)[O-])cc6F)c6ccc3[nH]6)C=C5)C=C4)cc1)[C@@H](C(F)(F)F)O2
REMARK SMILES IDX 18 1 17 2 16 3 14 4 15 5 13 6 5 7 6 8 10 9 7 10 9 11 11 12
REMARK SMILES IDX 8 13 93 14 12 15 88 16 2 17 1 18 3 19 4 20 89 21 90 22 91 23
REMARK SMILES IDX 92 24 19 25 20 26 21 27 22 28 23 29 87 30 24 31 86 32 25 33
REMARK SMILES IDX 26 34 27 35 80 36 28 37 85 38 79 39 81 40 29 41 84 42 78 43
REMARK SMILES IDX 77 44 30 46 64 47 43 48 63 49 44 50 47 51 62 52 82 53 45 54
REMARK SMILES IDX 46 55 61 57 83 58 48 59 31 60 32 61 41 62 33 63 34 64 40 65
REMARK SMILES IDX 42 66 35 67 36 68 37 69 38 70 39 71 65 72 66 73 75 74 67 75
REMARK SMILES IDX 68 76 74 77 76 78 69 79 70 80 71 81 72 82 73 83 49 84 50 85
REMARK SMILES IDX 59 86 51 87 52 88 58 89 60 90 53 91 54 92 55 93 56 94 57 95
REMARK H PARENT 81 45 47 56
REMARK Flexibility Score: inf
ROOT
ATOM      1  C   UNL A   1      40.413  20.111  26.147  1.00  0.00     0.275 C 
ENDROOT
BRANCH   1   2
ATOM      2  C   UNL A   1      41.941  20.072  26.089  1.00  0.00     0.275 C 
BRANCH   2   3
ATOM      3  O   UNL A   1      42.504  21.402  26.032  1.00  0.00    -0.459 OA
BRANCH   3   4
ATOM      4  C   UNL A   1      43.774  21.471  25.569  1.00  0.00     0.338 C 
ATOM      5  O   UNL A   1      44.202  20.960  24.546  1.00  0.00    -0.246 OA
BRANCH   4   6
ATOM      6  C   UNL A   1      44.605  22.314  26.447  1.00  0.00     0.087 C 
ATOM      7  C   UNL A   1      46.185  25.361  30.181  1.00  0.00    -0.020 A 
ATOM      8  C   UNL A   1      46.694  24.963  28.915  1.00  0.00     0.053 A 
ATOM      9  C   UNL A   1      44.964  24.767  30.579  1.00  0.00     0.045 A 
ATOM     10  C   UNL A   1      46.028  24.054  28.085  1.00  0.00     0.128 A 
ATOM     11  C   UNL A   1      44.303  23.856  29.750  1.00  0.00     0.032 A 
ATOM     12  Cl  UNL A   1      44.149  25.081  32.073  1.00  0.00    -0.084 Cl
ATOM     13  C   UNL A   1      44.827  23.513  28.506  1.00  0.00     0.019 A 
ATOM     14  O   UNL A   1      46.617  23.739  26.891  1.00  0.00    -0.475 OA
ATOM     15  C   UNL A   1      44.099  22.613  27.646  1.00  0.00     0.027 C 
ATOM     16  C   UNL A   1      45.886  22.905  25.937  1.00  0.00     0.316 C 
BRANCH   7  17
ATOM     17  C   UNL A   1      46.955  26.391  31.043  1.00  0.00    -0.012 C 
ATOM     18  C   UNL A   1      46.340  27.802  30.896  1.00  0.00     0.016 C 
ATOM     19  C   UNL A   1      48.444  26.547  30.633  1.00  0.00     0.016 C 
ATOM     20  C   UNL A   1      46.978  25.963  32.527  1.00  0.00     0.016 C 
ENDBRANCH   7  17
BRANCH  16  21
ATOM     21  C   UNL A   1      45.645  23.721  24.656  1.00  0.00     0.430 C 
ATOM     22  F   UNL A   1      46.373  24.865  24.656  1.00  0.00    -0.167 F 
ATOM     23  F   UNL A   1      46.018  23.033  23.549  1.00  0.00    -0.167 F 
ATOM     24  F   UNL A   1      44.348  24.066  24.502  1.00  0.00    -0.167 F 
ENDBRANCH  16  21
ENDBRANCH   4   6
ENDBRANCH   3   4
ENDBRANCH   2   3
ENDBRANCH   1   2
BRANCH   1  25
ATOM     25  O   UNL A   1      39.969  21.129  27.063  1.00  0.00    -0.458 OA
BRANCH  25  26
ATOM     26  C   UNL A   1      39.248  22.133  26.514  1.00  0.00     0.338 C 
ATOM     27  O   UNL A   1      38.286  22.035  25.773  1.00  0.00    -0.246 OA
BRANCH  26  28
ATOM     28  C   UNL A   1      39.751  23.423  27.009  1.00  0.00     0.060 A 
ATOM     29  C   UNL A   1      40.622  23.497  28.089  1.00  0.00     0.016 A 
ATOM     30  C   UNL A   1      39.446  24.568  26.284  1.00  0.00     0.016 A 
ATOM     31  C   UNL A   1      41.170  24.739  28.441  1.00  0.00     0.010 A 
ATOM     32  C   UNL A   1      40.120  25.759  26.530  1.00  0.00     0.010 A 
ATOM     33  C   UNL A   1      40.958  25.882  27.643  1.00  0.00    -0.014 A 
BRANCH  33  34
ATOM     34  C   UNL A   1      41.556  27.210  27.977  1.00  0.00     0.031 A 
ATOM     35  C   UNL A   1      42.980  27.534  27.570  1.00  0.00     0.074 A 
ATOM     36  C   UNL A   1      40.851  28.118  28.685  1.00  0.00     0.049 A 
ATOM     37  N   UNL A   1      43.705  28.589  27.849  1.00  0.00    -0.248 NA
ATOM     38  C   UNL A   1      43.703  26.517  26.786  1.00  0.00     0.031 C 
ATOM     39  C   UNL A   1      39.498  27.921  29.213  1.00  0.00     0.029 A 
ATOM     40  N   UNL A   1      41.170  29.396  29.076  1.00  0.00    -0.354 N 
ATOM     41  C   UNL A   1      44.967  28.338  27.318  1.00  0.00     0.074 A 
ATOM     42  C   UNL A   1      44.933  27.005  26.765  1.00  0.00     0.031 C 
ATOM     43  C   UNL A   1      39.080  29.055  29.794  1.00  0.00     0.029 A 
ATOM     44  C   UNL A   1      40.148  30.047  29.729  1.00  0.00     0.049 A 
ATOM     45  H   UNL A   1      42.048  29.807  28.907  1.00  0.00     0.167 HD
ATOM     46  C   UNL A   1      46.046  29.156  27.249  1.00  0.00     0.037 A 
ATOM     47  C   UNL A   1      40.074  31.302  30.214  1.00  0.00     0.037 A 
ATOM     48  C   UNL A   1      46.056  30.515  27.720  1.00  0.00     0.049 A 
ATOM     49  C   UNL A   1      41.261  32.214  30.073  1.00  0.00     0.074 A 
ATOM     50  C   UNL A   1      47.071  31.452  27.630  1.00  0.00     0.029 A 
ATOM     51  N   UNL A   1      44.988  31.142  28.346  1.00  0.00    -0.354 N 
ATOM     52  N   UNL A   1      42.433  31.966  29.539  1.00  0.00    -0.248 NA
ATOM     53  C   UNL A   1      41.115  33.579  30.598  1.00  0.00     0.031 C 
ATOM     54  C   UNL A   1      46.625  32.639  28.222  1.00  0.00     0.029 A 
ATOM     55  C   UNL A   1      45.320  32.452  28.648  1.00  0.00     0.049 A 
ATOM     56  H   UNL A   1      44.123  30.718  28.547  1.00  0.00     0.167 HD
ATOM     57  C   UNL A   1      43.161  33.144  29.654  1.00  0.00     0.074 A 
ATOM     58  C   UNL A   1      42.287  34.114  30.284  1.00  0.00     0.031 C 
ATOM     59  C   UNL A   1      44.438  33.401  29.279  1.00  0.00     0.037 A 
BRANCH  46  60
ATOM     60  C   UNL A   1      47.296  28.616  26.600  1.00  0.00     0.058 A 
ATOM     61  C   UNL A   1      47.346  28.334  25.225  1.00  0.00     0.135 A 
ATOM     62  C   UNL A   1      48.465  28.408  27.351  1.00  0.00     0.135 A 
ATOM     63  F   UNL A   1      46.255  28.498  24.460  1.00  0.00    -0.206 F 
ATOM     64  C   UNL A   1      48.498  27.835  24.624  1.00  0.00     0.059 A 
ATOM     65  C   UNL A   1      49.639  27.939  26.764  1.00  0.00     0.059 A 
ATOM     66  F   UNL A   1      48.477  28.663  28.669  1.00  0.00    -0.206 F 
ATOM     67  C   UNL A   1      49.639  27.643  25.402  1.00  0.00     0.060 A 
BRANCH  67  68
ATOM     68  S   UNL A   1      51.128  27.010  24.598  1.00  0.00     0.124 S 
ATOM     69  O   UNL A   1      51.341  25.760  25.320  1.00  0.00    -0.237 OA
ATOM     70  O   UNL A   1      50.698  26.874  23.210  1.00  0.00    -0.237 OA
ATOM     71  O   UNL A   1      52.119  28.054  24.844  1.00  0.00    -0.744 OA
ENDBRANCH  67  68
ENDBRANCH  46  60
BRANCH  47  72
ATOM     72  C   UNL A   1      38.809  31.784  30.832  1.00  0.00     0.058 A 
ATOM     73  C   UNL A   1      38.565  31.595  32.202  1.00  0.00     0.135 A 
ATOM     74  C   UNL A   1      37.838  32.468  30.085  1.00  0.00     0.135 A 
ATOM     75  F   UNL A   1      39.459  30.938  32.957  1.00  0.00    -0.206 F 
ATOM     76  C   UNL A   1      37.403  32.060  32.808  1.00  0.00     0.059 A 
ATOM     77  C   UNL A   1      36.678  32.964  30.674  1.00  0.00     0.059 A 
ATOM     78  F   UNL A   1      38.030  32.688  28.776  1.00  0.00    -0.206 F 
ATOM     79  C   UNL A   1      36.468  32.751  32.036  1.00  0.00     0.060 A 
BRANCH  79  80
ATOM     80  S   UNL A   1      34.997  33.412  32.851  1.00  0.00     0.124 S 
ATOM     81  O   UNL A   1      35.259  33.082  34.247  1.00  0.00    -0.237 OA
ATOM     82  O   UNL A   1      35.069  34.829  32.507  1.00  0.00    -0.237 OA
ATOM     83  O   UNL A   1      33.904  32.676  32.222  1.00  0.00    -0.744 OA
ENDBRANCH  79  80
ENDBRANCH  47  72
BRANCH  59  84
ATOM     84  C   UNL A   1      44.962  34.787  29.529  1.00  0.00     0.058 A 
ATOM     85  C   UNL A   1      45.621  35.116  30.724  1.00  0.00     0.135 A 
ATOM     86  C   UNL A   1      44.831  35.787  28.553  1.00  0.00     0.135 A 
ATOM     87  F   UNL A   1      45.769  34.196  31.690  1.00  0.00    -0.206 F 
ATOM     88  C   UNL A   1      46.102  36.400  30.955  1.00  0.00     0.059 A 
ATOM     89  C   UNL A   1      45.328  37.071  28.753  1.00  0.00     0.059 A 
ATOM     90  F   UNL A   1      44.220  35.520  27.387  1.00  0.00    -0.206 F 
ATOM     91  C   UNL A   1      45.949  37.371  29.965  1.00  0.00     0.060 A 
BRANCH  91  92
ATOM     92  S   UNL A   1      46.582  39.032  30.278  1.00  0.00     0.124 S 
ATOM     93  O   UNL A   1      45.655  39.512  31.296  1.00  0.00    -0.237 OA
ATOM     94  O   UNL A   1      47.943  38.767  30.734  1.00  0.00    -0.237 OA
ATOM     95  O   UNL A   1      46.480  39.687  28.977  1.00  0.00    -0.744 OA
ENDBRANCH  91  92
ENDBRANCH  59  84
ENDBRANCH  33  34
ENDBRANCH  26  28
ENDBRANCH  25  26
ENDBRANCH   1  25
TORSDOF 16
ENDMDL
MODEL 3
REMARK VINA RESULT:     -10.0      5.667      8.863
REMARK SMILES CC(C)(C)c1cc2c(cc1Cl)C=C(C(=O)OCCOC(=O)c1ccc(-c3c4nc(c(-c5c(F)cc(S(=O)(=O)[O-])cc5F)c5ccc([nH]5)c(-c5c(F)cc(S(=O)(=O)[O-])cc5F)c5nc(c(-c6c(F)cc(S(=O)(=O)[O-])cc6F)c6ccc3[nH]6)C=C5)C=C4)cc1)[C@@H](C(F)(F)F)O2
REMARK SMILES IDX 18 1 17 2 16 3 14 4 15 5 13 6 5 7 6 8 10 9 7 10 9 11 11 12
REMARK SMILES IDX 8 13 93 14 12 15 88 16 2 17 1 18 3 19 4 20 89 21 90 22 91 23
REMARK SMILES IDX 92 24 19 25 20 26 21 27 22 28 23 29 87 30 24 31 86 32 25 33
REMARK SMILES IDX 26 34 27 35 80 36 28 37 85 38 79 39 81 40 29 41 84 42 78 43
REMARK SMILES IDX 77 44 30 46 64 47 43 48 63 49 44 50 47 51 62 52 82 53 45 54
REMARK SMILES IDX 46 55 61 57 83 58 48 59 31 60 32 61 41 62 33 63 34 64 40 65
REMARK SMILES IDX 42 66 35 67 36 68 37 69 38 70 39 71 65 72 66 73 75 74 67 75
REMARK SMILES IDX 68 76 74 77 76 78 69 79 70 80 71 81 72 82 73 83 49 84 50 85
REMARK SMILES IDX 59 86 51 87 52 88 58 89 60 90 53 91 54 92 55 93 56 94 57 95
REMARK H PARENT 81 45 47 56
REMARK Flexibility Score: inf
ROOT
ATOM      1  C   UNL A   1      32.449  28.945  27.223  1.00  0.00     0.275 C 
ENDROOT
BRANCH   1   2
ATOM      2  C   UNL A   1      32.035  27.622  26.577  1.00  0.00     0.275 C 
BRANCH   2   3
ATOM      3  O   UNL A   1      33.156  26.719  26.453  1.00  0.00    -0.459 OA
BRANCH   3   4
ATOM      4  C   UNL A   1      33.374  26.238  25.206  1.00  0.00     0.338 C 
ATOM      5  O   UNL A   1      33.782  26.872  24.246  1.00  0.00    -0.246 OA
BRANCH   4   6
ATOM      6  C   UNL A   1      33.102  24.790  25.149  1.00  0.00     0.087 C 
ATOM      7  C   UNL A   1      33.604  19.769  24.642  1.00  0.00    -0.020 A 
ATOM      8  C   UNL A   1      32.513  20.681  24.662  1.00  0.00     0.053 A 
ATOM      9  C   UNL A   1      34.888  20.324  24.853  1.00  0.00     0.045 A 
ATOM     10  C   UNL A   1      32.683  22.057  24.855  1.00  0.00     0.128 A 
ATOM     11  C   UNL A   1      35.053  21.699  25.050  1.00  0.00     0.032 A 
ATOM     12  Cl  UNL A   1      36.365  19.425  24.883  1.00  0.00    -0.084 Cl
ATOM     13  C   UNL A   1      33.958  22.559  25.037  1.00  0.00     0.019 A 
ATOM     14  O   UNL A   1      31.559  22.838  24.862  1.00  0.00    -0.475 OA
ATOM     15  C   UNL A   1      34.162  23.979  25.188  1.00  0.00     0.027 C 
ATOM     16  C   UNL A   1      31.705  24.292  24.919  1.00  0.00     0.316 C 
BRANCH   7  17
ATOM     17  C   UNL A   1      33.355  18.260  24.399  1.00  0.00    -0.012 C 
ATOM     18  C   UNL A   1      32.670  17.610  25.623  1.00  0.00     0.016 C 
ATOM     19  C   UNL A   1      34.660  17.449  24.179  1.00  0.00     0.016 C 
ATOM     20  C   UNL A   1      32.510  18.038  23.125  1.00  0.00     0.016 C 
ENDBRANCH   7  17
BRANCH  16  21
ATOM     21  C   UNL A   1      31.110  24.896  23.635  1.00  0.00     0.430 C 
ATOM     22  F   UNL A   1      32.016  24.903  22.628  1.00  0.00    -0.167 F 
ATOM     23  F   UNL A   1      30.052  24.175  23.191  1.00  0.00    -0.167 F 
ATOM     24  F   UNL A   1      30.689  26.168  23.812  1.00  0.00    -0.167 F 
ENDBRANCH  16  21
ENDBRANCH   4   6
ENDBRANCH   3   4
ENDBRANCH   2   3
ENDBRANCH   1   2
BRANCH   1  25
ATOM     25  O   UNL A   1      33.850  28.929  27.553  1.00  0.00    -0.458 OA
BRANCH  25  26
ATOM     26  C   UNL A   1      34.389  30.128  27.867  1.00  0.00     0.338 C 
ATOM     27  O   UNL A   1      33.821  31.205  27.919  1.00  0.00    -0.246 OA
BRANCH  26  28
ATOM     28  C   UNL A   1      35.802  29.950  28.233  1.00  0.00     0.060 A 
ATOM     29  C   UNL A   1      36.173  29.445  29.473  1.00  0.00     0.016 A 
ATOM     30  C   UNL A   1      36.765  30.164  27.255  1.00  0.00     0.016 A 
ATOM     31  C   UNL A   1      37.526  29.176  29.725  1.00  0.00     0.010 A 
ATOM     32  C   UNL A   1      38.074  29.737  27.448  1.00  0.00     0.010 A 
ATOM     33  C   UNL A   1      38.492  29.281  28.703  1.00  0.00    -0.014 A 
BRANCH  33  34
ATOM     34  C   UNL A   1      39.935  28.969  28.934  1.00  0.00     0.031 A 
ATOM     35  C   UNL A   1      40.848  29.993  29.578  1.00  0.00     0.074 A 
ATOM     36  C   UNL A   1      40.452  27.789  28.528  1.00  0.00     0.049 A 
ATOM     37  N   UNL A   1      42.142  29.947  29.774  1.00  0.00    -0.248 NA
ATOM     38  C   UNL A   1      40.234  31.260  30.016  1.00  0.00     0.031 C 
ATOM     39  C   UNL A   1      39.716  26.735  27.826  1.00  0.00     0.029 A 
ATOM     40  N   UNL A   1      41.718  27.271  28.658  1.00  0.00    -0.354 N 
ATOM     41  C   UNL A   1      42.494  31.183  30.310  1.00  0.00     0.074 A 
ATOM     42  C   UNL A   1      41.293  31.985  30.341  1.00  0.00     0.031 C 
ATOM     43  C   UNL A   1      40.520  25.675  27.650  1.00  0.00     0.029 A 
ATOM     44  C   UNL A   1      41.844  25.987  28.179  1.00  0.00     0.049 A 
ATOM     45  H   UNL A   1      42.466  27.773  29.056  1.00  0.00     0.167 HD
ATOM     46  C   UNL A   1      43.693  31.604  30.781  1.00  0.00     0.037 A 
ATOM     47  C   UNL A   1      42.901  25.151  28.172  1.00  0.00     0.037 A 
ATOM     48  C   UNL A   1      44.870  30.778  30.833  1.00  0.00     0.049 A 
ATOM     49  C   UNL A   1      44.207  25.616  28.756  1.00  0.00     0.074 A 
ATOM     50  C   UNL A   1      46.114  31.082  31.361  1.00  0.00     0.029 A 
ATOM     51  N   UNL A   1      44.942  29.474  30.366  1.00  0.00    -0.354 N 
ATOM     52  N   UNL A   1      44.506  26.777  29.286  1.00  0.00    -0.248 NA
ATOM     53  C   UNL A   1      45.317  24.653  28.743  1.00  0.00     0.031 C 
ATOM     54  C   UNL A   1      46.945  29.969  31.191  1.00  0.00     0.029 A 
ATOM     55  C   UNL A   1      46.208  28.960  30.591  1.00  0.00     0.049 A 
ATOM     56  H   UNL A   1      44.203  28.987  29.936  1.00  0.00     0.167 HD
ATOM     57  C   UNL A   1      45.836  26.683  29.679  1.00  0.00     0.074 A 
ATOM     58  C   UNL A   1      46.275  25.342  29.351  1.00  0.00     0.031 C 
ATOM     59  C   UNL A   1      46.627  27.623  30.254  1.00  0.00     0.037 A 
BRANCH  46  60
ATOM     60  C   UNL A   1      43.781  33.009  31.321  1.00  0.00     0.058 A 
ATOM     61  C   UNL A   1      44.164  34.086  30.504  1.00  0.00     0.135 A 
ATOM     62  C   UNL A   1      43.449  33.291  32.656  1.00  0.00     0.135 A 
ATOM     63  F   UNL A   1      44.509  33.876  29.224  1.00  0.00    -0.206 F 
ATOM     64  C   UNL A   1      44.247  35.384  31.000  1.00  0.00     0.059 A 
ATOM     65  C   UNL A   1      43.493  34.587  33.165  1.00  0.00     0.059 A 
ATOM     66  F   UNL A   1      43.072  32.302  33.482  1.00  0.00    -0.206 F 
ATOM     67  C   UNL A   1      43.908  35.625  32.331  1.00  0.00     0.060 A 
BRANCH  67  68
ATOM     68  S   UNL A   1      44.006  37.319  32.948  1.00  0.00     0.124 S 
ATOM     69  O   UNL A   1      42.916  37.340  33.918  1.00  0.00    -0.237 OA
ATOM     70  O   UNL A   1      45.352  37.368  33.510  1.00  0.00    -0.237 OA
ATOM     71  O   UNL A   1      43.799  38.131  31.753  1.00  0.00    -0.744 OA
ENDBRANCH  67  68
ENDBRANCH  46  60
BRANCH  47  72
ATOM     72  C   UNL A   1      42.750  23.770  27.638  1.00  0.00     0.058 A 
ATOM     73  C   UNL A   1      42.552  22.686  28.509  1.00  0.00     0.135 A 
ATOM     74  C   UNL A   1      42.765  23.507  26.260  1.00  0.00     0.135 A 
ATOM     75  F   UNL A   1      42.539  22.886  29.835  1.00  0.00    -0.206 F 
ATOM     76  C   UNL A   1      42.381  21.391  28.033  1.00  0.00     0.059 A 
ATOM     77  C   UNL A   1      42.572  22.222  25.760  1.00  0.00     0.059 A 
ATOM     78  F   UNL A   1      42.935  24.510  25.387  1.00  0.00    -0.206 F 
ATOM     79  C   UNL A   1      42.385  21.169  26.655  1.00  0.00     0.060 A 
BRANCH  79  80
ATOM     80  S   UNL A   1      42.090  19.493  26.050  1.00  0.00     0.124 S 
ATOM     81  O   UNL A   1      42.502  18.689  27.194  1.00  0.00    -0.237 OA
ATOM     82  O   UNL A   1      40.658  19.518  25.770  1.00  0.00    -0.237 OA
ATOM     83  O   UNL A   1      42.950  19.404  24.873  1.00  0.00    -0.744 OA
ENDBRANCH  79  80
ENDBRANCH  47  72
BRANCH  59  84
ATOM     84  C   UNL A   1      48.040  27.229  30.574  1.00  0.00     0.058 A 
ATOM     85  C   UNL A   1      48.378  26.649  31.807  1.00  0.00     0.135 A 
ATOM     86  C   UNL A   1      49.062  27.404  29.628  1.00  0.00     0.135 A 
ATOM     87  F   UNL A   1      47.437  26.463  32.747  1.00  0.00    -0.206 F 
ATOM     88  C   UNL A   1      49.687  26.287  32.104  1.00  0.00     0.059 A 
ATOM     89  C   UNL A   1      50.375  27.025  29.894  1.00  0.00     0.059 A 
ATOM     90  F   UNL A   1      48.790  27.942  28.428  1.00  0.00    -0.206 F 
ATOM     91  C   UNL A   1      50.679  26.482  31.141  1.00  0.00     0.060 A 
BRANCH  91  92
ATOM     92  S   UNL A   1      52.373  26.004  31.539  1.00  0.00     0.124 S 
ATOM     93  O   UNL A   1      53.027  26.133  30.242  1.00  0.00    -0.237 OA
ATOM     94  O   UNL A   1      52.751  26.995  32.541  1.00  0.00    -0.237 OA
ATOM     95  O   UNL A   1      52.234  24.638  32.039  1.00  0.00    -0.744 OA
ENDBRANCH  91  92
ENDBRANCH  59  84
ENDBRANCH  33  34
ENDBRANCH  26  28
ENDBRANCH  25  26
ENDBRANCH   1  25
TORSDOF 16
ENDMDL
