MODEL 1
REMARK VINA RESULT:     -10.2      0.000      0.000
REMARK SMILES Cc1cc(-c2ccc(/C=C/C(=O)OCCOC(=O)c3ccc(-c4c5nc(c(-c6c(F)cc(S(=O)(=O)[O-])cc6F)c6ccc([nH]6)c(-c6c(F)cc(S(=O)(=O)[O-])cc6F)c6nc(c(-c7c(F)cc(S(=O)(=O)[O-])cc7F)c7ccc4[nH]7)C=C6)C=C5)cc3)o2)c(C)cc1Br
REMARK SMILES IDX 15 1 14 2 13 3 11 4 12 5 10 6 9 7 8 8 5 9 6 10 85 11 7 12
REMARK SMILES IDX 4 13 1 14 2 15 3 16 89 17 88 18 90 19 86 20 87 21 16 22
REMARK SMILES IDX 17 23 18 24 19 25 20 26 84 27 21 28 83 29 22 30 23 31 24 32
REMARK SMILES IDX 77 33 25 34 82 35 76 36 78 37 26 38 81 39 75 40 74 41 27 43
REMARK SMILES IDX 61 44 40 45 60 46 41 47 44 48 59 49 79 50 42 51 43 52 58 54
REMARK SMILES IDX 80 55 45 56 28 57 29 58 38 59 30 60 31 61 37 62 39 63 32 64
REMARK SMILES IDX 33 65 34 66 35 67 36 68 62 69 63 70 72 71 64 72 65 73 71 74
REMARK SMILES IDX 73 75 66 76 67 77 68 78 69 79 70 80 46 81 47 82 56 83 48 84
REMARK SMILES IDX 49 85 55 86 57 87 50 88 51 89 52 90 53 91 54 92
REMARK H PARENT 78 42 44 53
REMARK Flexibility Score: inf
ROOT
ATOM      1  C   UNL A   1      33.727  32.443  27.653  1.00  0.00     0.275 C 
ENDROOT
BRANCH   1   2
ATOM      2  C   UNL A   1      34.112  33.833  28.173  1.00  0.00     0.275 C 
BRANCH   2   3
ATOM      3  O   UNL A   1      32.949  34.621  28.491  1.00  0.00    -0.459 OA
BRANCH   3   4
ATOM      4  C   UNL A   1      33.066  35.441  29.564  1.00  0.00     0.331 C 
ATOM      5  O   UNL A   1      32.528  36.531  29.694  1.00  0.00    -0.247 OA
BRANCH   4   6
ATOM      6  C   UNL A   1      33.888  34.855  30.638  1.00  0.00     0.097 C 
ATOM      7  C   UNL A   1      34.047  35.392  31.855  1.00  0.00     0.054 C 
BRANCH   7   8
ATOM      8  C   UNL A   1      34.882  34.760  32.818  1.00  0.00     0.127 A 
ATOM      9  C   UNL A   1      36.473  33.458  33.669  1.00  0.00     0.135 A 
ATOM     10  C   UNL A   1      35.881  34.083  34.740  1.00  0.00     0.051 A 
ATOM     11  O   UNL A   1      35.872  33.847  32.512  1.00  0.00    -0.457 OA
ATOM     12  C   UNL A   1      34.885  34.928  34.198  1.00  0.00     0.051 A 
BRANCH   9  13
ATOM     13  C   UNL A   1      37.552  32.488  33.551  1.00  0.00     0.020 A 
ATOM     14  C   UNL A   1      37.766  28.721  32.996  1.00  0.00     0.045 C 
ATOM     15  C   UNL A   1      38.198  30.134  33.271  1.00  0.00    -0.036 A 
ATOM     16  C   UNL A   1      37.218  31.139  33.340  1.00  0.00     0.016 A 
ATOM     17  C   UNL A   1      39.541  30.508  33.400  1.00  0.00     0.021 A 
ATOM     18  C   UNL A   1      39.888  31.848  33.606  1.00  0.00     0.020 A 
ATOM     19  Br  UNL A   1      40.955  29.244  33.305  1.00  0.00    -0.051 Br
ATOM     20  C   UNL A   1      38.905  32.849  33.688  1.00  0.00    -0.039 A 
ATOM     21  C   UNL A   1      39.330  34.276  33.908  1.00  0.00     0.045 C 
ENDBRANCH   9  13
ENDBRANCH   7   8
ENDBRANCH   4   6
ENDBRANCH   3   4
ENDBRANCH   2   3
ENDBRANCH   1   2
BRANCH   1  22
ATOM     22  O   UNL A   1      34.139  31.403  28.556  1.00  0.00    -0.458 OA
BRANCH  22  23
ATOM     23  C   UNL A   1      34.444  30.214  27.978  1.00  0.00     0.338 C 
ATOM     24  O   UNL A   1      33.731  29.553  27.247  1.00  0.00    -0.246 OA
BRANCH  23  25
ATOM     25  C   UNL A   1      35.860  29.897  28.251  1.00  0.00     0.060 A 
ATOM     26  C   UNL A   1      36.274  29.442  29.505  1.00  0.00     0.016 A 
ATOM     27  C   UNL A   1      36.785  30.052  27.213  1.00  0.00     0.016 A 
ATOM     28  C   UNL A   1      37.625  29.162  29.724  1.00  0.00     0.010 A 
ATOM     29  C   UNL A   1      38.133  29.776  27.434  1.00  0.00     0.010 A 
ATOM     30  C   UNL A   1      38.564  29.335  28.692  1.00  0.00    -0.014 A 
BRANCH  30  31
ATOM     31  C   UNL A   1      39.996  29.021  28.917  1.00  0.00     0.031 A 
ATOM     32  C   UNL A   1      40.905  30.024  29.566  1.00  0.00     0.074 A 
ATOM     33  C   UNL A   1      40.472  27.824  28.529  1.00  0.00     0.049 A 
ATOM     34  N   UNL A   1      42.166  29.899  29.894  1.00  0.00    -0.248 NA
ATOM     35  C   UNL A   1      40.325  31.337  29.884  1.00  0.00     0.031 C 
ATOM     36  C   UNL A   1      39.684  26.781  27.873  1.00  0.00     0.029 A 
ATOM     37  N   UNL A   1      41.725  27.280  28.639  1.00  0.00    -0.354 N 
ATOM     38  C   UNL A   1      42.526  31.107  30.482  1.00  0.00     0.074 A 
ATOM     39  C   UNL A   1      41.365  31.970  30.409  1.00  0.00     0.031 C 
ATOM     40  C   UNL A   1      40.463  25.707  27.671  1.00  0.00     0.029 A 
ATOM     41  C   UNL A   1      41.809  25.994  28.161  1.00  0.00     0.049 A 
ATOM     42  H   UNL A   1      42.492  27.762  29.025  1.00  0.00     0.167 HD
ATOM     43  C   UNL A   1      43.706  31.451  31.051  1.00  0.00     0.037 A 
ATOM     44  C   UNL A   1      42.850  25.140  28.133  1.00  0.00     0.037 A 
ATOM     45  C   UNL A   1      44.865  30.595  31.093  1.00  0.00     0.049 A 
ATOM     46  C   UNL A   1      44.170  25.568  28.709  1.00  0.00     0.074 A 
ATOM     47  C   UNL A   1      46.107  30.851  31.648  1.00  0.00     0.029 A 
ATOM     48  N   UNL A   1      44.930  29.320  30.546  1.00  0.00    -0.354 N 
ATOM     49  N   UNL A   1      44.485  26.698  29.297  1.00  0.00    -0.248 NA
ATOM     50  C   UNL A   1      45.278  24.608  28.617  1.00  0.00     0.031 C 
ATOM     51  C   UNL A   1      46.933  29.747  31.404  1.00  0.00     0.029 A 
ATOM     52  C   UNL A   1      46.194  28.785  30.735  1.00  0.00     0.049 A 
ATOM     53  H   UNL A   1      44.187  28.864  30.091  1.00  0.00     0.167 HD
ATOM     54  C   UNL A   1      45.820  26.577  29.665  1.00  0.00     0.074 A 
ATOM     55  C   UNL A   1      46.251  25.260  29.241  1.00  0.00     0.031 C 
ATOM     56  C   UNL A   1      46.614  27.475  30.298  1.00  0.00     0.037 A 
BRANCH  43  57
ATOM     57  C   UNL A   1      43.794  32.813  31.686  1.00  0.00     0.058 A 
ATOM     58  C   UNL A   1      43.527  32.995  33.053  1.00  0.00     0.135 A 
ATOM     59  C   UNL A   1      44.172  33.939  30.938  1.00  0.00     0.135 A 
ATOM     60  F   UNL A   1      43.153  31.954  33.813  1.00  0.00    -0.206 F 
ATOM     61  C   UNL A   1      43.597  34.250  33.648  1.00  0.00     0.059 A 
ATOM     62  C   UNL A   1      44.273  35.201  31.519  1.00  0.00     0.059 A 
ATOM     63  F   UNL A   1      44.443  33.822  29.629  1.00  0.00    -0.206 F 
ATOM     64  C   UNL A   1      43.967  35.349  32.872  1.00  0.00     0.060 A 
BRANCH  64  65
ATOM     65  S   UNL A   1      44.041  36.972  33.659  1.00  0.00     0.124 S 
ATOM     66  O   UNL A   1      45.011  36.736  34.724  1.00  0.00    -0.237 OA
ATOM     67  O   UNL A   1      44.495  37.829  32.569  1.00  0.00    -0.237 OA
ATOM     68  O   UNL A   1      42.669  37.199  34.102  1.00  0.00    -0.744 OA
ENDBRANCH  64  65
ENDBRANCH  43  57
BRANCH  44  69
ATOM     69  C   UNL A   1      42.656  23.770  27.592  1.00  0.00     0.058 A 
ATOM     70  C   UNL A   1      42.763  23.528  26.215  1.00  0.00     0.135 A 
ATOM     71  C   UNL A   1      42.418  22.674  28.435  1.00  0.00     0.135 A 
ATOM     72  F   UNL A   1      42.982  24.546  25.370  1.00  0.00    -0.206 F 
ATOM     73  C   UNL A   1      42.648  22.246  25.690  1.00  0.00     0.059 A 
ATOM     74  C   UNL A   1      42.319  21.379  27.936  1.00  0.00     0.059 A 
ATOM     75  F   UNL A   1      42.320  22.854  29.761  1.00  0.00    -0.206 F 
ATOM     76  C   UNL A   1      42.436  21.175  26.562  1.00  0.00     0.060 A 
BRANCH  76  77
ATOM     77  S   UNL A   1      42.371  19.506  25.874  1.00  0.00     0.124 S 
ATOM     78  O   UNL A   1      40.987  19.427  25.421  1.00  0.00    -0.237 OA
ATOM     79  O   UNL A   1      43.383  19.571  24.824  1.00  0.00    -0.237 OA
ATOM     80  O   UNL A   1      42.712  18.660  27.013  1.00  0.00    -0.744 OA
ENDBRANCH  76  77
ENDBRANCH  44  69
BRANCH  56  81
ATOM     81  C   UNL A   1      48.034  27.065  30.581  1.00  0.00     0.058 A 
ATOM     82  C   UNL A   1      49.085  27.424  29.723  1.00  0.00     0.135 A 
ATOM     83  C   UNL A   1      48.355  26.360  31.752  1.00  0.00     0.135 A 
ATOM     84  F   UNL A   1      48.831  28.091  28.586  1.00  0.00    -0.206 F 
ATOM     85  C   UNL A   1      50.403  27.086  30.009  1.00  0.00     0.059 A 
ATOM     86  C   UNL A   1      49.670  26.032  32.071  1.00  0.00     0.059 A 
ATOM     87  F   UNL A   1      47.387  25.999  32.610  1.00  0.00    -0.206 F 
ATOM     88  C   UNL A   1      50.687  26.393  31.188  1.00  0.00     0.060 A 
BRANCH  88  89
ATOM     89  S   UNL A   1      52.408  26.001  31.567  1.00  0.00     0.124 S 
ATOM     90  O   UNL A   1      53.033  26.118  30.253  1.00  0.00    -0.237 OA
ATOM     91  O   UNL A   1      52.760  27.039  32.530  1.00  0.00    -0.237 OA
ATOM     92  O   UNL A   1      52.338  24.647  32.110  1.00  0.00    -0.744 OA
ENDBRANCH  88  89
ENDBRANCH  56  81
ENDBRANCH  30  31
ENDBRANCH  23  25
ENDBRANCH  22  23
ENDBRANCH   1  22
TORSDOF 16
ENDMDL
MODEL 2
REMARK VINA RESULT:     -10.1      4.800     12.063
REMARK SMILES Cc1cc(-c2ccc(/C=C/C(=O)OCCOC(=O)c3ccc(-c4c5nc(c(-c6c(F)cc(S(=O)(=O)[O-])cc6F)c6ccc([nH]6)c(-c6c(F)cc(S(=O)(=O)[O-])cc6F)c6nc(c(-c7c(F)cc(S(=O)(=O)[O-])cc7F)c7ccc4[nH]7)C=C6)C=C5)cc3)o2)c(C)cc1Br
REMARK SMILES IDX 15 1 14 2 13 3 11 4 12 5 10 6 9 7 8 8 5 9 6 10 85 11 7 12
REMARK SMILES IDX 4 13 1 14 2 15 3 16 89 17 88 18 90 19 86 20 87 21 16 22
REMARK SMILES IDX 17 23 18 24 19 25 20 26 84 27 21 28 83 29 22 30 23 31 24 32
REMARK SMILES IDX 77 33 25 34 82 35 76 36 78 37 26 38 81 39 75 40 74 41 27 43
REMARK SMILES IDX 61 44 40 45 60 46 41 47 44 48 59 49 79 50 42 51 43 52 58 54
REMARK SMILES IDX 80 55 45 56 28 57 29 58 38 59 30 60 31 61 37 62 39 63 32 64
REMARK SMILES IDX 33 65 34 66 35 67 36 68 62 69 63 70 72 71 64 72 65 73 71 74
REMARK SMILES IDX 73 75 66 76 67 77 68 78 69 79 70 80 46 81 47 82 56 83 48 84
REMARK SMILES IDX 49 85 55 86 57 87 50 88 51 89 52 90 53 91 54 92
REMARK H PARENT 78 42 44 53
REMARK Flexibility Score: inf
ROOT
ATOM      1  C   UNL A   1      42.918  23.171  25.280  1.00  0.00     0.275 C 
ENDROOT
BRANCH   1   2
ATOM      2  C   UNL A   1      43.365  21.822  25.854  1.00  0.00     0.275 C 
BRANCH   2   3
ATOM      3  O   UNL A   1      42.390  20.792  25.609  1.00  0.00    -0.459 OA
BRANCH   3   4
ATOM      4  C   UNL A   1      41.480  20.592  26.594  1.00  0.00     0.331 C 
ATOM      5  O   UNL A   1      41.732  20.399  27.774  1.00  0.00    -0.247 OA
BRANCH   4   6
ATOM      6  C   UNL A   1      40.090  20.693  26.110  1.00  0.00     0.097 C 
ATOM      7  C   UNL A   1      39.358  21.814  26.127  1.00  0.00     0.054 C 
BRANCH   7   8
ATOM      8  C   UNL A   1      38.015  21.804  25.658  1.00  0.00     0.127 A 
ATOM      9  C   UNL A   1      35.914  22.458  25.327  1.00  0.00     0.135 A 
ATOM     10  C   UNL A   1      36.051  21.266  24.656  1.00  0.00     0.051 A 
ATOM     11  O   UNL A   1      37.082  22.782  25.944  1.00  0.00    -0.457 OA
ATOM     12  C   UNL A   1      37.393  20.862  24.847  1.00  0.00     0.051 A 
BRANCH   9  13
ATOM     13  C   UNL A   1      34.800  23.376  25.512  1.00  0.00     0.020 A 
ATOM     14  C   UNL A   1      33.653  26.619  23.864  1.00  0.00     0.045 C 
ATOM     15  C   UNL A   1      33.703  25.466  24.826  1.00  0.00    -0.036 A 
ATOM     16  C   UNL A   1      34.717  24.503  24.675  1.00  0.00     0.016 A 
ATOM     17  C   UNL A   1      32.749  25.271  25.831  1.00  0.00     0.021 A 
ATOM     18  C   UNL A   1      32.818  24.151  26.669  1.00  0.00     0.020 A 
ATOM     19  Br  UNL A   1      31.322  26.491  26.121  1.00  0.00    -0.051 Br
ATOM     20  C   UNL A   1      33.840  23.197  26.524  1.00  0.00    -0.039 A 
ATOM     21  C   UNL A   1      33.867  22.009  27.448  1.00  0.00     0.045 C 
ENDBRANCH   9  13
ENDBRANCH   7   8
ENDBRANCH   4   6
ENDBRANCH   3   4
ENDBRANCH   2   3
ENDBRANCH   1   2
BRANCH   1  22
ATOM     22  O   UNL A   1      42.418  24.047  26.303  1.00  0.00    -0.458 OA
BRANCH  22  23
ATOM     23  C   UNL A   1      42.164  25.321  25.910  1.00  0.00     0.338 C 
ATOM     24  O   UNL A   1      42.069  25.728  24.768  1.00  0.00    -0.246 OA
BRANCH  23  25
ATOM     25  C   UNL A   1      41.867  26.141  27.102  1.00  0.00     0.060 A 
ATOM     26  C   UNL A   1      40.886  25.759  28.020  1.00  0.00     0.016 A 
ATOM     27  C   UNL A   1      42.603  27.314  27.298  1.00  0.00     0.016 A 
ATOM     28  C   UNL A   1      40.630  26.569  29.129  1.00  0.00     0.010 A 
ATOM     29  C   UNL A   1      42.344  28.123  28.404  1.00  0.00     0.010 A 
ATOM     30  C   UNL A   1      41.352  27.760  29.324  1.00  0.00    -0.014 A 
BRANCH  30  31
ATOM     31  C   UNL A   1      41.093  28.611  30.509  1.00  0.00     0.031 A 
ATOM     32  C   UNL A   1      41.959  28.505  31.731  1.00  0.00     0.074 A 
ATOM     33  C   UNL A   1      40.066  29.480  30.479  1.00  0.00     0.049 A 
ATOM     34  N   UNL A   1      41.916  29.209  32.833  1.00  0.00    -0.248 NA
ATOM     35  C   UNL A   1      43.006  27.474  31.713  1.00  0.00     0.031 C 
ATOM     36  C   UNL A   1      39.148  29.655  29.354  1.00  0.00     0.029 A 
ATOM     37  N   UNL A   1      39.630  30.385  31.412  1.00  0.00    -0.354 N 
ATOM     38  C   UNL A   1      42.947  28.726  33.632  1.00  0.00     0.074 A 
ATOM     39  C   UNL A   1      43.557  27.628  32.910  1.00  0.00     0.031 C 
ATOM     40  C   UNL A   1      38.278  30.634  29.647  1.00  0.00     0.029 A 
ATOM     41  C   UNL A   1      38.563  31.140  30.988  1.00  0.00     0.049 A 
ATOM     42  H   UNL A   1      40.043  30.486  32.301  1.00  0.00     0.167 HD
ATOM     43  C   UNL A   1      43.360  29.174  34.842  1.00  0.00     0.037 A 
ATOM     44  C   UNL A   1      37.897  32.134  31.606  1.00  0.00     0.037 A 
ATOM     45  C   UNL A   1      42.728  30.248  35.567  1.00  0.00     0.049 A 
ATOM     46  C   UNL A   1      38.329  32.569  32.978  1.00  0.00     0.074 A 
ATOM     47  C   UNL A   1      43.072  30.777  36.798  1.00  0.00     0.029 A 
ATOM     48  N   UNL A   1      41.613  30.950  35.130  1.00  0.00    -0.354 N 
ATOM     49  N   UNL A   1      39.330  32.130  33.704  1.00  0.00    -0.248 NA
ATOM     50  C   UNL A   1      37.543  33.634  33.616  1.00  0.00     0.031 C 
ATOM     51  C   UNL A   1      42.143  31.772  37.124  1.00  0.00     0.029 A 
ATOM     52  C   UNL A   1      41.245  31.894  36.075  1.00  0.00     0.049 A 
ATOM     53  H   UNL A   1      41.150  30.800  34.274  1.00  0.00     0.167 HD
ATOM     54  C   UNL A   1      39.307  32.878  34.876  1.00  0.00     0.074 A 
ATOM     55  C   UNL A   1      38.199  33.804  34.756  1.00  0.00     0.031 C 
ATOM     56  C   UNL A   1      40.132  32.805  35.949  1.00  0.00     0.037 A 
BRANCH  43  57
ATOM     57  C   UNL A   1      44.562  28.504  35.451  1.00  0.00     0.058 A 
ATOM     58  C   UNL A   1      44.421  27.410  36.322  1.00  0.00     0.135 A 
ATOM     59  C   UNL A   1      45.864  28.935  35.150  1.00  0.00     0.135 A 
ATOM     60  F   UNL A   1      43.199  26.964  36.652  1.00  0.00    -0.206 F 
ATOM     61  C   UNL A   1      45.524  26.790  36.898  1.00  0.00     0.059 A 
ATOM     62  C   UNL A   1      46.984  28.313  35.695  1.00  0.00     0.059 A 
ATOM     63  F   UNL A   1      46.058  29.973  34.320  1.00  0.00    -0.206 F 
ATOM     64  C   UNL A   1      46.803  27.251  36.581  1.00  0.00     0.060 A 
BRANCH  64  65
ATOM     65  S   UNL A   1      48.222  26.440  37.348  1.00  0.00     0.124 S 
ATOM     66  O   UNL A   1      47.723  25.080  37.523  1.00  0.00    -0.237 OA
ATOM     67  O   UNL A   1      49.262  26.607  36.338  1.00  0.00    -0.237 OA
ATOM     68  O   UNL A   1      48.423  27.196  38.580  1.00  0.00    -0.744 OA
ENDBRANCH  64  65
ENDBRANCH  43  57
BRANCH  44  69
ATOM     69  C   UNL A   1      36.790  32.824  30.894  1.00  0.00     0.058 A 
ATOM     70  C   UNL A   1      35.455  32.554  31.225  1.00  0.00     0.135 A 
ATOM     71  C   UNL A   1      37.040  33.800  29.918  1.00  0.00     0.135 A 
ATOM     72  F   UNL A   1      35.167  31.624  32.148  1.00  0.00    -0.206 F 
ATOM     73  C   UNL A   1      34.403  33.231  30.619  1.00  0.00     0.059 A 
ATOM     74  C   UNL A   1      36.007  34.506  29.311  1.00  0.00     0.059 A 
ATOM     75  F   UNL A   1      38.303  34.101  29.577  1.00  0.00    -0.206 F 
ATOM     76  C   UNL A   1      34.690  34.214  29.668  1.00  0.00     0.060 A 
BRANCH  76  77
ATOM     77  S   UNL A   1      33.319  35.142  28.949  1.00  0.00     0.124 S 
ATOM     78  O   UNL A   1      34.010  36.284  28.362  1.00  0.00    -0.237 OA
ATOM     79  O   UNL A   1      32.761  34.178  28.006  1.00  0.00    -0.237 OA
ATOM     80  O   UNL A   1      32.474  35.441  30.102  1.00  0.00    -0.744 OA
ENDBRANCH  76  77
ENDBRANCH  44  69
BRANCH  56  81
ATOM     81  C   UNL A   1      39.874  33.757  37.086  1.00  0.00     0.058 A 
ATOM     82  C   UNL A   1      40.410  35.054  37.092  1.00  0.00     0.135 A 
ATOM     83  C   UNL A   1      39.033  33.389  38.149  1.00  0.00     0.135 A 
ATOM     84  F   UNL A   1      41.227  35.451  36.104  1.00  0.00    -0.206 F 
ATOM     85  C   UNL A   1      40.133  35.949  38.119  1.00  0.00     0.059 A 
ATOM     86  C   UNL A   1      38.723  34.278  39.175  1.00  0.00     0.059 A 
ATOM     87  F   UNL A   1      38.489  32.163  38.188  1.00  0.00    -0.206 F 
ATOM     88  C   UNL A   1      39.285  35.553  39.155  1.00  0.00     0.060 A 
BRANCH  88  89
ATOM     89  S   UNL A   1      38.899  36.743  40.458  1.00  0.00     0.124 S 
ATOM     90  O   UNL A   1      38.514  37.917  39.681  1.00  0.00    -0.237 OA
ATOM     91  O   UNL A   1      37.818  36.077  41.178  1.00  0.00    -0.237 OA
ATOM     92  O   UNL A   1      40.155  36.861  41.194  1.00  0.00    -0.744 OA
ENDBRANCH  88  89
ENDBRANCH  56  81
ENDBRANCH  30  31
ENDBRANCH  23  25
ENDBRANCH  22  23
ENDBRANCH   1  22
TORSDOF 16
ENDMDL
MODEL 3
REMARK VINA RESULT:     -10.1      4.901     11.846
REMARK SMILES Cc1cc(-c2ccc(/C=C/C(=O)OCCOC(=O)c3ccc(-c4c5nc(c(-c6c(F)cc(S(=O)(=O)[O-])cc6F)c6ccc([nH]6)c(-c6c(F)cc(S(=O)(=O)[O-])cc6F)c6nc(c(-c7c(F)cc(S(=O)(=O)[O-])cc7F)c7ccc4[nH]7)C=C6)C=C5)cc3)o2)c(C)cc1Br
REMARK SMILES IDX 15 1 14 2 13 3 11 4 12 5 10 6 9 7 8 8 5 9 6 10 85 11 7 12
REMARK SMILES IDX 4 13 1 14 2 15 3 16 89 17 88 18 90 19 86 20 87 21 16 22
REMARK SMILES IDX 17 23 18 24 19 25 20 26 84 27 21 28 83 29 22 30 23 31 24 32
REMARK SMILES IDX 77 33 25 34 82 35 76 36 78 37 26 38 81 39 75 40 74 41 27 43
REMARK SMILES IDX 61 44 40 45 60 46 41 47 44 48 59 49 79 50 42 51 43 52 58 54
REMARK SMILES IDX 80 55 45 56 28 57 29 58 38 59 30 60 31 61 37 62 39 63 32 64
REMARK SMILES IDX 33 65 34 66 35 67 36 68 62 69 63 70 72 71 64 72 65 73 71 74
REMARK SMILES IDX 73 75 66 76 67 77 68 78 69 79 70 80 46 81 47 82 56 83 48 84
REMARK SMILES IDX 49 85 55 86 57 87 50 88 51 89 52 90 53 91 54 92
REMARK H PARENT 78 42 44 53
REMARK Flexibility Score: inf
ROOT
ATOM      1  C   UNL A   1      39.772  22.799  26.197  1.00  0.00     0.275 C 
ENDROOT
BRANCH   1   2
ATOM      2  C   UNL A   1      38.358  22.209  26.189  1.00  0.00     0.275 C 
BRANCH   2   3
ATOM      3  O   UNL A   1      38.044  21.602  24.921  1.00  0.00    -0.459 OA
BRANCH   3   4
ATOM      4  C   UNL A   1      36.823  21.020  24.831  1.00  0.00     0.331 C 
ATOM      5  O   UNL A   1      36.583  19.831  24.981  1.00  0.00    -0.247 OA
BRANCH   4   6
ATOM      6  C   UNL A   1      35.746  21.997  24.583  1.00  0.00     0.097 C 
ATOM      7  C   UNL A   1      35.788  22.957  23.650  1.00  0.00     0.054 C 
BRANCH   7   8
ATOM      8  C   UNL A   1      34.706  23.868  23.504  1.00  0.00     0.127 A 
ATOM      9  C   UNL A   1      33.433  25.667  23.817  1.00  0.00     0.135 A 
ATOM     10  C   UNL A   1      32.792  24.909  22.866  1.00  0.00     0.051 A 
ATOM     11  O   UNL A   1      34.575  25.044  24.217  1.00  0.00    -0.457 OA
ATOM     12  C   UNL A   1      33.612  23.777  22.650  1.00  0.00     0.051 A 
BRANCH   9  13
ATOM     13  C   UNL A   1      33.120  26.934  24.462  1.00  0.00     0.020 A 
ATOM     14  C   UNL A   1      31.518  27.977  27.763  1.00  0.00     0.045 C 
ATOM     15  C   UNL A   1      32.123  28.085  26.391  1.00  0.00    -0.036 A 
ATOM     16  C   UNL A   1      32.508  26.906  25.728  1.00  0.00     0.016 A 
ATOM     17  C   UNL A   1      32.381  29.311  25.767  1.00  0.00     0.021 A 
ATOM     18  C   UNL A   1      32.992  29.352  24.508  1.00  0.00     0.020 A 
ATOM     19  Br  UNL A   1      31.925  30.970  26.571  1.00  0.00    -0.051 Br
ATOM     20  C   UNL A   1      33.364  28.172  23.841  1.00  0.00    -0.039 A 
ATOM     21  C   UNL A   1      34.021  28.271  22.491  1.00  0.00     0.045 C 
ENDBRANCH   9  13
ENDBRANCH   7   8
ENDBRANCH   4   6
ENDBRANCH   3   4
ENDBRANCH   2   3
ENDBRANCH   1   2
BRANCH   1  22
ATOM     22  O   UNL A   1      39.752  24.230  26.333  1.00  0.00    -0.458 OA
BRANCH  22  23
ATOM     23  C   UNL A   1      40.962  24.817  26.517  1.00  0.00     0.338 C 
ATOM     24  O   UNL A   1      41.954  24.676  25.828  1.00  0.00    -0.246 OA
BRANCH  23  25
ATOM     25  C   UNL A   1      40.859  25.793  27.620  1.00  0.00     0.060 A 
ATOM     26  C   UNL A   1      41.839  26.767  27.823  1.00  0.00     0.016 A 
ATOM     27  C   UNL A   1      39.740  25.728  28.458  1.00  0.00     0.016 A 
ATOM     28  C   UNL A   1      41.707  27.665  28.885  1.00  0.00     0.010 A 
ATOM     29  C   UNL A   1      39.612  26.623  29.519  1.00  0.00     0.010 A 
ATOM     30  C   UNL A   1      40.597  27.594  29.744  1.00  0.00    -0.014 A 
BRANCH  30  31
ATOM     31  C   UNL A   1      40.447  28.558  30.860  1.00  0.00     0.031 A 
ATOM     32  C   UNL A   1      41.345  28.486  32.059  1.00  0.00     0.074 A 
ATOM     33  C   UNL A   1      39.489  29.501  30.786  1.00  0.00     0.049 A 
ATOM     34  N   UNL A   1      41.396  29.280  33.099  1.00  0.00    -0.248 NA
ATOM     35  C   UNL A   1      42.309  27.377  32.099  1.00  0.00     0.031 C 
ATOM     36  C   UNL A   1      38.547  29.653  29.677  1.00  0.00     0.029 A 
ATOM     37  N   UNL A   1      39.157  30.512  31.650  1.00  0.00    -0.354 N 
ATOM     38  C   UNL A   1      42.415  28.784  33.905  1.00  0.00     0.074 A 
ATOM     39  C   UNL A   1      42.913  27.586  33.262  1.00  0.00     0.031 C 
ATOM     40  C   UNL A   1      37.765  30.720  29.911  1.00  0.00     0.029 A 
ATOM     41  C   UNL A   1      38.135  31.310  31.195  1.00  0.00     0.049 A 
ATOM     42  H   UNL A   1      39.607  30.653  32.514  1.00  0.00     0.167 HD
ATOM     43  C   UNL A   1      42.903  29.297  35.060  1.00  0.00     0.037 A 
ATOM     44  C   UNL A   1      37.571  32.402  31.745  1.00  0.00     0.037 A 
ATOM     45  C   UNL A   1      42.382  30.474  35.708  1.00  0.00     0.049 A 
ATOM     46  C   UNL A   1      38.083  32.913  33.061  1.00  0.00     0.074 A 
ATOM     47  C   UNL A   1      42.810  31.075  36.880  1.00  0.00     0.029 A 
ATOM     48  N   UNL A   1      41.309  31.224  35.246  1.00  0.00    -0.354 N 
ATOM     49  N   UNL A   1      39.073  32.458  33.793  1.00  0.00    -0.248 NA
ATOM     50  C   UNL A   1      37.404  34.086  33.628  1.00  0.00     0.031 C 
ATOM     51  C   UNL A   1      41.971  32.164  37.146  1.00  0.00     0.029 A 
ATOM     52  C   UNL A   1      41.048  32.269  36.118  1.00  0.00     0.049 A 
ATOM     53  H   UNL A   1      40.806  31.040  34.421  1.00  0.00     0.167 HD
ATOM     54  C   UNL A   1      39.149  33.300  34.896  1.00  0.00     0.074 A 
ATOM     55  C   UNL A   1      38.112  34.298  34.731  1.00  0.00     0.031 C 
ATOM     56  C   UNL A   1      40.004  33.251  35.947  1.00  0.00     0.037 A 
BRANCH  43  57
ATOM     57  C   UNL A   1      44.073  28.588  35.689  1.00  0.00     0.058 A 
ATOM     58  C   UNL A   1      43.879  27.546  36.611  1.00  0.00     0.135 A 
ATOM     59  C   UNL A   1      45.393  28.926  35.355  1.00  0.00     0.135 A 
ATOM     60  F   UNL A   1      42.637  27.187  36.974  1.00  0.00    -0.206 F 
ATOM     61  C   UNL A   1      44.951  26.889  37.205  1.00  0.00     0.059 A 
ATOM     62  C   UNL A   1      46.482  28.265  35.917  1.00  0.00     0.059 A 
ATOM     63  F   UNL A   1      45.637  29.911  34.475  1.00  0.00    -0.206 F 
ATOM     64  C   UNL A   1      46.251  27.259  36.855  1.00  0.00     0.060 A 
BRANCH  64  65
ATOM     65  S   UNL A   1      47.630  26.403  37.646  1.00  0.00     0.124 S 
ATOM     66  O   UNL A   1      47.098  25.050  37.776  1.00  0.00    -0.237 OA
ATOM     67  O   UNL A   1      48.702  26.569  36.671  1.00  0.00    -0.237 OA
ATOM     68  O   UNL A   1      47.809  27.129  38.899  1.00  0.00    -0.744 OA
ENDBRANCH  64  65
ENDBRANCH  43  57
BRANCH  44  69
ATOM     69  C   UNL A   1      36.495  33.116  31.009  1.00  0.00     0.058 A 
ATOM     70  C   UNL A   1      35.166  33.049  31.451  1.00  0.00     0.135 A 
ATOM     71  C   UNL A   1      36.776  33.919  29.894  1.00  0.00     0.135 A 
ATOM     72  F   UNL A   1      34.849  32.288  32.510  1.00  0.00    -0.206 F 
ATOM     73  C   UNL A   1      34.151  33.758  30.819  1.00  0.00     0.059 A 
ATOM     74  C   UNL A   1      35.781  34.654  29.256  1.00  0.00     0.059 A 
ATOM     75  F   UNL A   1      38.034  34.025  29.441  1.00  0.00    -0.206 F 
ATOM     76  C   UNL A   1      34.471  34.567  29.726  1.00  0.00     0.060 A 
BRANCH  76  77
ATOM     77  S   UNL A   1      33.158  35.545  28.966  1.00  0.00     0.124 S 
ATOM     78  O   UNL A   1      32.483  34.547  28.144  1.00  0.00    -0.237 OA
ATOM     79  O   UNL A   1      32.418  36.018  30.132  1.00  0.00    -0.237 OA
ATOM     80  O   UNL A   1      33.887  36.577  28.235  1.00  0.00    -0.744 OA
ENDBRANCH  76  77
ENDBRANCH  44  69
BRANCH  56  81
ATOM     81  C   UNL A   1      39.861  34.312  37.006  1.00  0.00     0.058 A 
ATOM     82  C   UNL A   1      40.408  35.593  36.838  1.00  0.00     0.135 A 
ATOM     83  C   UNL A   1      39.117  34.062  38.170  1.00  0.00     0.135 A 
ATOM     84  F   UNL A   1      41.134  35.880  35.747  1.00  0.00    -0.206 F 
ATOM     85  C   UNL A   1      40.235  36.587  37.795  1.00  0.00     0.059 A 
ATOM     86  C   UNL A   1      38.911  35.050  39.130  1.00  0.00     0.059 A 
ATOM     87  F   UNL A   1      38.567  32.855  38.377  1.00  0.00    -0.206 F 
ATOM     88  C   UNL A   1      39.481  36.307  38.937  1.00  0.00     0.060 A 
BRANCH  88  89
ATOM     89  S   UNL A   1      39.228  37.622  40.149  1.00  0.00     0.124 S 
ATOM     90  O   UNL A   1      40.546  38.249  40.183  1.00  0.00    -0.237 OA
ATOM     91  O   UNL A   1      38.167  38.413  39.533  1.00  0.00    -0.237 OA
ATOM     92  O   UNL A   1      38.844  36.901  41.359  1.00  0.00    -0.744 OA
ENDBRANCH  88  89
ENDBRANCH  56  81
ENDBRANCH  30  31
ENDBRANCH  23  25
ENDBRANCH  22  23
ENDBRANCH   1  22
TORSDOF 16
ENDMDL
