MODEL 1
REMARK VINA RESULT:     -11.0      0.000      0.000
REMARK SMILES CC[C@@](C)(NC(=O)c1c(C)cc(C)[nH]c1=O)C(=O)OCCOC(=O)c1ccc(-c2c3nc(c(-c4c(F)cc(S(=O)(=O)[O-])cc4F)c4ccc([nH]4)c(-c4c(F)cc(S(=O)(=O)[O-])cc4F)c4nc(c(-c5c(F)cc(S(=O)(=O)[O-])cc5F)c5ccc2[nH]5)C=C4)C=C3)cc1
REMARK SMILES IDX 21 1 20 2 19 3 17 4 18 5 3 6 4 7 2 8 1 9 5 10 6 11 7 13 8 14
REMARK SMILES IDX 9 15 15 16 10 17 11 18 14 19 16 20 12 21 13 23 22 24 23 25
REMARK SMILES IDX 24 26 25 27 26 28 90 29 27 30 89 31 28 32 29 33 30 34 83 35
REMARK SMILES IDX 31 36 88 37 82 38 84 39 32 40 87 41 81 42 80 43 33 45 67 46
REMARK SMILES IDX 46 47 66 48 47 49 50 50 65 51 85 52 48 53 49 54 64 56 86 57
REMARK SMILES IDX 51 58 34 59 35 60 44 61 36 62 37 63 43 64 45 65 38 66 39 67
REMARK SMILES IDX 40 68 41 69 42 70 68 71 69 72 78 73 70 74 71 75 77 76 79 77
REMARK SMILES IDX 72 78 73 79 74 80 75 81 76 82 52 83 53 84 62 85 54 86 55 87
REMARK SMILES IDX 61 88 63 89 56 90 57 91 58 92 59 93 60 94
REMARK H PARENT 5 12 14 22 84 44 50 55
REMARK Flexibility Score: inf
ROOT
ATOM      1  C   UNL A   1      32.837  30.245  26.849  1.00  0.00     0.275 C 
ENDROOT
BRANCH   1   2
ATOM      2  C   UNL A   1      32.400  29.198  25.836  1.00  0.00     0.274 C 
BRANCH   2   3
ATOM      3  O   UNL A   1      32.951  27.907  26.188  1.00  0.00    -0.460 OA
BRANCH   3   4
ATOM      4  C   UNL A   1      32.051  26.937  26.472  1.00  0.00     0.331 C 
ATOM      5  O   UNL A   1      31.086  27.123  27.209  1.00  0.00    -0.249 OA
BRANCH   4   6
ATOM      6  C   UNL A   1      32.420  25.528  25.911  1.00  0.00     0.135 C 
ATOM      7  C   UNL A   1      31.446  24.561  26.611  1.00  0.00     0.047 C 
BRANCH   6   8
ATOM      8  C   UNL A   1      32.147  25.514  24.361  1.00  0.00     0.037 C 
ATOM      9  C   UNL A   1      30.716  25.606  23.843  1.00  0.00     0.007 C 
ENDBRANCH   6   8
BRANCH   6  10
ATOM     10  N   UNL A   1      33.809  24.951  26.013  1.00  0.00    -0.336 N 
ATOM     11  C   UNL A   1      34.481  23.955  25.369  1.00  0.00     0.258 C 
ATOM     12  H   UNL A   1      34.356  25.393  26.703  1.00  0.00     0.165 HD
ATOM     13  O   UNL A   1      35.633  24.183  24.991  1.00  0.00    -0.269 OA
BRANCH  11  14
ATOM     14  C   UNL A   1      33.986  22.570  25.414  1.00  0.00     0.107 A 
ATOM     15  C   UNL A   1      33.519  21.991  24.282  1.00  0.00    -0.031 A 
ATOM     16  C   UNL A   1      33.861  21.843  26.704  1.00  0.00     0.261 A 
ATOM     17  C   UNL A   1      33.435  22.632  22.921  1.00  0.00     0.045 C 
ATOM     18  C   UNL A   1      33.081  20.601  24.316  1.00  0.00     0.025 A 
ATOM     19  N   UNL A   1      33.411  20.541  26.632  1.00  0.00    -0.326 N 
ATOM     20  O   UNL A   1      34.174  22.343  27.782  1.00  0.00    -0.269 OA
ATOM     21  C   UNL A   1      33.063  19.907  25.463  1.00  0.00     0.015 A 
ATOM     22  H   UNL A   1      33.334  20.033  27.472  1.00  0.00     0.169 HD
ATOM     23  C   UNL A   1      32.779  18.439  25.522  1.00  0.00     0.064 C 
ENDBRANCH  11  14
ENDBRANCH   6  10
ENDBRANCH   4   6
ENDBRANCH   3   4
ENDBRANCH   2   3
ENDBRANCH   1   2
BRANCH   1  24
ATOM     24  O   UNL A   1      33.944  29.721  27.588  1.00  0.00    -0.458 OA
BRANCH  24  25
ATOM     25  C   UNL A   1      34.630  30.629  28.316  1.00  0.00     0.338 C 
ATOM     26  O   UNL A   1      34.243  31.689  28.768  1.00  0.00    -0.246 OA
BRANCH  25  27
ATOM     27  C   UNL A   1      36.001  30.144  28.456  1.00  0.00     0.060 A 
ATOM     28  C   UNL A   1      36.854  30.140  27.352  1.00  0.00     0.016 A 
ATOM     29  C   UNL A   1      36.422  29.692  29.703  1.00  0.00     0.016 A 
ATOM     30  C   UNL A   1      38.149  29.665  27.491  1.00  0.00     0.010 A 
ATOM     31  C   UNL A   1      37.743  29.294  29.861  1.00  0.00     0.010 A 
ATOM     32  C   UNL A   1      38.613  29.288  28.758  1.00  0.00    -0.014 A 
BRANCH  32  33
ATOM     33  C   UNL A   1      40.041  28.973  28.955  1.00  0.00     0.031 A 
ATOM     34  C   UNL A   1      40.971  30.018  29.485  1.00  0.00     0.074 A 
ATOM     35  C   UNL A   1      40.471  27.742  28.622  1.00  0.00     0.049 A 
ATOM     36  N   UNL A   1      42.271  29.983  29.585  1.00  0.00    -0.248 NA
ATOM     37  C   UNL A   1      40.361  31.272  29.956  1.00  0.00     0.031 C 
ATOM     38  C   UNL A   1      39.617  26.656  28.126  1.00  0.00     0.029 A 
ATOM     39  N   UNL A   1      41.722  27.187  28.650  1.00  0.00    -0.354 N 
ATOM     40  C   UNL A   1      42.642  31.215  30.109  1.00  0.00     0.074 A 
ATOM     41  C   UNL A   1      41.429  31.981  30.296  1.00  0.00     0.031 C 
ATOM     42  C   UNL A   1      40.362  25.558  27.936  1.00  0.00     0.029 A 
ATOM     43  C   UNL A   1      41.754  25.883  28.217  1.00  0.00     0.049 A 
ATOM     44  H   UNL A   1      42.522  27.676  28.952  1.00  0.00     0.167 HD
ATOM     45  C   UNL A   1      43.889  31.654  30.398  1.00  0.00     0.037 A 
ATOM     46  C   UNL A   1      42.798  25.054  28.035  1.00  0.00     0.037 A 
ATOM     47  C   UNL A   1      45.073  30.860  30.196  1.00  0.00     0.049 A 
ATOM     48  C   UNL A   1      44.172  25.584  28.318  1.00  0.00     0.074 A 
ATOM     49  C   UNL A   1      46.393  31.204  30.416  1.00  0.00     0.029 A 
ATOM     50  N   UNL A   1      45.071  29.552  29.726  1.00  0.00    -0.354 N 
ATOM     51  N   UNL A   1      44.518  26.770  28.763  1.00  0.00    -0.248 NA
ATOM     52  C   UNL A   1      45.300  24.684  28.052  1.00  0.00     0.031 C 
ATOM     53  C   UNL A   1      47.192  30.114  30.051  1.00  0.00     0.029 A 
ATOM     54  C   UNL A   1      46.368  29.077  29.640  1.00  0.00     0.049 A 
ATOM     55  H   UNL A   1      44.265  29.038  29.489  1.00  0.00     0.167 HD
ATOM     56  C   UNL A   1      45.903  26.762  28.830  1.00  0.00     0.074 A 
ATOM     57  C   UNL A   1      46.330  25.443  28.402  1.00  0.00     0.031 C 
ATOM     58  C   UNL A   1      46.748  27.756  29.200  1.00  0.00     0.037 A 
BRANCH  45  59
ATOM     59  C   UNL A   1      44.028  33.054  30.925  1.00  0.00     0.058 A 
ATOM     60  C   UNL A   1      44.192  34.154  30.068  1.00  0.00     0.135 A 
ATOM     61  C   UNL A   1      43.986  33.303  32.307  1.00  0.00     0.135 A 
ATOM     62  F   UNL A   1      44.262  33.970  28.740  1.00  0.00    -0.206 F 
ATOM     63  C   UNL A   1      44.333  35.447  30.562  1.00  0.00     0.059 A 
ATOM     64  C   UNL A   1      44.103  34.592  32.822  1.00  0.00     0.059 A 
ATOM     65  F   UNL A   1      43.839  32.288  33.172  1.00  0.00    -0.206 F 
ATOM     66  C   UNL A   1      44.290  35.656  31.941  1.00  0.00     0.060 A 
BRANCH  66  67
ATOM     67  S   UNL A   1      44.484  37.340  32.566  1.00  0.00     0.124 S 
ATOM     68  O   UNL A   1      43.894  38.122  31.483  1.00  0.00    -0.237 OA
ATOM     69  O   UNL A   1      43.718  37.302  33.808  1.00  0.00    -0.237 OA
ATOM     70  O   UNL A   1      45.927  37.481  32.725  1.00  0.00    -0.744 OA
ENDBRANCH  66  67
ENDBRANCH  45  59
BRANCH  46  71
ATOM     71  C   UNL A   1      42.569  23.669  27.546  1.00  0.00     0.058 A 
ATOM     72  C   UNL A   1      42.517  23.391  26.172  1.00  0.00     0.135 A 
ATOM     73  C   UNL A   1      42.462  22.587  28.435  1.00  0.00     0.135 A 
ATOM     74  F   UNL A   1      42.610  24.390  25.282  1.00  0.00    -0.206 F 
ATOM     75  C   UNL A   1      42.370  22.091  25.697  1.00  0.00     0.059 A 
ATOM     76  C   UNL A   1      42.340  21.276  27.984  1.00  0.00     0.059 A 
ATOM     77  F   UNL A   1      42.523  22.797  29.760  1.00  0.00    -0.206 F 
ATOM     78  C   UNL A   1      42.291  21.038  26.611  1.00  0.00     0.060 A 
BRANCH  78  79
ATOM     79  S   UNL A   1      42.174  19.349  25.983  1.00  0.00     0.124 S 
ATOM     80  O   UNL A   1      43.017  19.419  24.796  1.00  0.00    -0.237 OA
ATOM     81  O   UNL A   1      42.705  18.570  27.098  1.00  0.00    -0.237 OA
ATOM     82  O   UNL A   1      40.745  19.180  25.735  1.00  0.00    -0.744 OA
ENDBRANCH  78  79
ENDBRANCH  46  71
BRANCH  58  83
ATOM     83  C   UNL A   1      48.213  27.445  29.157  1.00  0.00     0.058 A 
ATOM     84  C   UNL A   1      48.997  27.791  28.046  1.00  0.00     0.135 A 
ATOM     85  C   UNL A   1      48.849  26.858  30.261  1.00  0.00     0.135 A 
ATOM     86  F   UNL A   1      48.427  28.344  26.963  1.00  0.00    -0.206 F 
ATOM     87  C   UNL A   1      50.366  27.557  28.028  1.00  0.00     0.059 A 
ATOM     88  C   UNL A   1      50.221  26.635  30.274  1.00  0.00     0.059 A 
ATOM     89  F   UNL A   1      48.139  26.517  31.348  1.00  0.00    -0.206 F 
ATOM     90  C   UNL A   1      50.969  26.982  29.148  1.00  0.00     0.060 A 
BRANCH  90  91
ATOM     91  S   UNL A   1      52.756  26.733  29.132  1.00  0.00     0.124 S 
ATOM     92  O   UNL A   1      52.921  25.880  27.960  1.00  0.00    -0.237 OA
ATOM     93  O   UNL A   1      53.260  28.096  29.000  1.00  0.00    -0.237 OA
ATOM     94  O   UNL A   1      53.022  26.094  30.418  1.00  0.00    -0.744 OA
ENDBRANCH  90  91
ENDBRANCH  58  83
ENDBRANCH  32  33
ENDBRANCH  25  27
ENDBRANCH  24  25
ENDBRANCH   1  24
TORSDOF 17
ENDMDL
MODEL 2
REMARK VINA RESULT:     -10.9      1.353      2.863
REMARK SMILES CC[C@@](C)(NC(=O)c1c(C)cc(C)[nH]c1=O)C(=O)OCCOC(=O)c1ccc(-c2c3nc(c(-c4c(F)cc(S(=O)(=O)[O-])cc4F)c4ccc([nH]4)c(-c4c(F)cc(S(=O)(=O)[O-])cc4F)c4nc(c(-c5c(F)cc(S(=O)(=O)[O-])cc5F)c5ccc2[nH]5)C=C4)C=C3)cc1
REMARK SMILES IDX 21 1 20 2 19 3 17 4 18 5 3 6 4 7 2 8 1 9 5 10 6 11 7 13 8 14
REMARK SMILES IDX 9 15 15 16 10 17 11 18 14 19 16 20 12 21 13 23 22 24 23 25
REMARK SMILES IDX 24 26 25 27 26 28 90 29 27 30 89 31 28 32 29 33 30 34 83 35
REMARK SMILES IDX 31 36 88 37 82 38 84 39 32 40 87 41 81 42 80 43 33 45 67 46
REMARK SMILES IDX 46 47 66 48 47 49 50 50 65 51 85 52 48 53 49 54 64 56 86 57
REMARK SMILES IDX 51 58 34 59 35 60 44 61 36 62 37 63 43 64 45 65 38 66 39 67
REMARK SMILES IDX 40 68 41 69 42 70 68 71 69 72 78 73 70 74 71 75 77 76 79 77
REMARK SMILES IDX 72 78 73 79 74 80 75 81 76 82 52 83 53 84 62 85 54 86 55 87
REMARK SMILES IDX 61 88 63 89 56 90 57 91 58 92 59 93 60 94
REMARK H PARENT 5 12 14 22 84 44 50 55
REMARK Flexibility Score: inf
ROOT
ATOM      1  C   UNL A   1      32.443  28.441  27.630  1.00  0.00     0.275 C 
ENDROOT
BRANCH   1   2
ATOM      2  C   UNL A   1      31.984  27.496  26.531  1.00  0.00     0.274 C 
BRANCH   2   3
ATOM      3  O   UNL A   1      32.985  26.476  26.303  1.00  0.00    -0.460 OA
BRANCH   3   4
ATOM      4  C   UNL A   1      32.519  25.223  26.097  1.00  0.00     0.331 C 
ATOM      5  O   UNL A   1      31.625  24.728  26.780  1.00  0.00    -0.249 OA
BRANCH   4   6
ATOM      6  C   UNL A   1      33.306  24.407  25.025  1.00  0.00     0.135 C 
ATOM      7  C   UNL A   1      34.788  24.712  25.312  1.00  0.00     0.047 C 
BRANCH   6   8
ATOM      8  C   UNL A   1      33.033  22.874  25.255  1.00  0.00     0.037 C 
ATOM      9  C   UNL A   1      34.000  21.840  24.688  1.00  0.00     0.007 C 
ENDBRANCH   6   8
BRANCH   6  10
ATOM     10  N   UNL A   1      33.071  24.571  23.544  1.00  0.00    -0.336 N 
ATOM     11  C   UNL A   1      33.049  25.634  22.691  1.00  0.00     0.258 C 
ATOM     12  H   UNL A   1      32.891  23.716  23.090  1.00  0.00     0.165 HD
ATOM     13  O   UNL A   1      33.649  25.528  21.618  1.00  0.00    -0.269 OA
BRANCH  11  14
ATOM     14  C   UNL A   1      32.086  26.729  22.887  1.00  0.00     0.107 A 
ATOM     15  C   UNL A   1      32.528  28.008  22.928  1.00  0.00    -0.031 A 
ATOM     16  C   UNL A   1      30.655  26.447  23.178  1.00  0.00     0.261 A 
ATOM     17  C   UNL A   1      33.960  28.462  22.799  1.00  0.00     0.045 C 
ATOM     18  C   UNL A   1      31.566  29.096  23.066  1.00  0.00     0.025 A 
ATOM     19  N   UNL A   1      29.832  27.545  23.319  1.00  0.00    -0.326 N 
ATOM     20  O   UNL A   1      30.204  25.307  23.254  1.00  0.00    -0.269 OA
ATOM     21  C   UNL A   1      30.259  28.848  23.227  1.00  0.00     0.015 A 
ATOM     22  H   UNL A   1      28.877  27.385  23.497  1.00  0.00     0.169 HD
ATOM     23  C   UNL A   1      29.219  29.925  23.210  1.00  0.00     0.064 C 
ENDBRANCH  11  14
ENDBRANCH   6  10
ENDBRANCH   4   6
ENDBRANCH   3   4
ENDBRANCH   2   3
ENDBRANCH   1   2
BRANCH   1  24
ATOM     24  O   UNL A   1      33.854  28.638  27.494  1.00  0.00    -0.458 OA
BRANCH  24  25
ATOM     25  C   UNL A   1      34.307  29.845  27.897  1.00  0.00     0.338 C 
ATOM     26  O   UNL A   1      33.698  30.892  27.989  1.00  0.00    -0.246 OA
BRANCH  25  27
ATOM     27  C   UNL A   1      35.734  29.712  28.184  1.00  0.00     0.060 A 
ATOM     28  C   UNL A   1      36.156  29.367  29.468  1.00  0.00     0.016 A 
ATOM     29  C   UNL A   1      36.642  29.939  27.155  1.00  0.00     0.016 A 
ATOM     30  C   UNL A   1      37.512  29.257  29.734  1.00  0.00     0.010 A 
ATOM     31  C   UNL A   1      37.996  29.748  27.401  1.00  0.00     0.010 A 
ATOM     32  C   UNL A   1      38.433  29.397  28.689  1.00  0.00    -0.014 A 
BRANCH  32  33
ATOM     33  C   UNL A   1      39.858  29.086  28.916  1.00  0.00     0.031 A 
ATOM     34  C   UNL A   1      40.777  30.138  29.450  1.00  0.00     0.074 A 
ATOM     35  C   UNL A   1      40.296  27.851  28.604  1.00  0.00     0.049 A 
ATOM     36  N   UNL A   1      42.075  30.107  29.574  1.00  0.00    -0.248 NA
ATOM     37  C   UNL A   1      40.157  31.397  29.896  1.00  0.00     0.031 C 
ATOM     38  C   UNL A   1      39.452  26.759  28.105  1.00  0.00     0.029 A 
ATOM     39  N   UNL A   1      41.547  27.299  28.662  1.00  0.00    -0.354 N 
ATOM     40  C   UNL A   1      42.435  31.344  30.090  1.00  0.00     0.074 A 
ATOM     41  C   UNL A   1      41.218  32.112  30.246  1.00  0.00     0.031 C 
ATOM     42  C   UNL A   1      40.202  25.660  27.942  1.00  0.00     0.029 A 
ATOM     43  C   UNL A   1      41.588  25.990  28.244  1.00  0.00     0.049 A 
ATOM     44  H   UNL A   1      42.340  27.792  28.973  1.00  0.00     0.167 HD
ATOM     45  C   UNL A   1      43.676  31.789  30.397  1.00  0.00     0.037 A 
ATOM     46  C   UNL A   1      42.636  25.160  28.091  1.00  0.00     0.037 A 
ATOM     47  C   UNL A   1      44.864  30.994  30.226  1.00  0.00     0.049 A 
ATOM     48  C   UNL A   1      44.005  25.695  28.393  1.00  0.00     0.074 A 
ATOM     49  C   UNL A   1      46.180  31.343  30.466  1.00  0.00     0.029 A 
ATOM     50  N   UNL A   1      44.873  29.681  29.771  1.00  0.00    -0.354 N 
ATOM     51  N   UNL A   1      44.341  26.887  28.831  1.00  0.00    -0.248 NA
ATOM     52  C   UNL A   1      45.138  24.795  28.158  1.00  0.00     0.031 C 
ATOM     53  C   UNL A   1      46.987  30.250  30.128  1.00  0.00     0.029 A 
ATOM     54  C   UNL A   1      46.172  29.206  29.714  1.00  0.00     0.049 A 
ATOM     55  H   UNL A   1      44.072  29.163  29.526  1.00  0.00     0.167 HD
ATOM     56  C   UNL A   1      45.725  26.882  28.923  1.00  0.00     0.074 A 
ATOM     57  C   UNL A   1      46.160  25.559  28.518  1.00  0.00     0.031 C 
ATOM     58  C   UNL A   1      46.561  27.882  29.297  1.00  0.00     0.037 A 
BRANCH  45  59
ATOM     59  C   UNL A   1      43.804  33.195  30.910  1.00  0.00     0.058 A 
ATOM     60  C   UNL A   1      44.012  34.281  30.046  1.00  0.00     0.135 A 
ATOM     61  C   UNL A   1      43.706  33.464  32.286  1.00  0.00     0.135 A 
ATOM     62  F   UNL A   1      44.135  34.078  28.725  1.00  0.00    -0.206 F 
ATOM     63  C   UNL A   1      44.142  35.581  30.528  1.00  0.00     0.059 A 
ATOM     64  C   UNL A   1      43.812  34.759  32.788  1.00  0.00     0.059 A 
ATOM     65  F   UNL A   1      43.516  32.462  33.158  1.00  0.00    -0.206 F 
ATOM     66  C   UNL A   1      44.044  35.810  31.901  1.00  0.00     0.060 A 
BRANCH  66  67
ATOM     67  S   UNL A   1      44.224  37.500  32.511  1.00  0.00     0.124 S 
ATOM     68  O   UNL A   1      43.892  38.276  31.319  1.00  0.00    -0.237 OA
ATOM     69  O   UNL A   1      43.243  37.549  33.590  1.00  0.00    -0.237 OA
ATOM     70  O   UNL A   1      45.620  37.564  32.930  1.00  0.00    -0.744 OA
ENDBRANCH  66  67
ENDBRANCH  45  59
BRANCH  46  71
ATOM     71  C   UNL A   1      42.418  23.770  27.614  1.00  0.00     0.058 A 
ATOM     72  C   UNL A   1      42.405  23.473  26.243  1.00  0.00     0.135 A 
ATOM     73  C   UNL A   1      42.283  22.700  28.514  1.00  0.00     0.135 A 
ATOM     74  F   UNL A   1      42.527  24.460  25.343  1.00  0.00    -0.206 F 
ATOM     75  C   UNL A   1      42.269  22.167  25.782  1.00  0.00     0.059 A 
ATOM     76  C   UNL A   1      42.171  21.383  28.078  1.00  0.00     0.059 A 
ATOM     77  F   UNL A   1      42.305  22.927  29.837  1.00  0.00    -0.206 F 
ATOM     78  C   UNL A   1      42.160  21.127  26.707  1.00  0.00     0.060 A 
BRANCH  78  79
ATOM     79  S   UNL A   1      42.058  19.430  26.098  1.00  0.00     0.124 S 
ATOM     80  O   UNL A   1      42.494  18.674  27.266  1.00  0.00    -0.237 OA
ATOM     81  O   UNL A   1      40.645  19.312  25.753  1.00  0.00    -0.237 OA
ATOM     82  O   UNL A   1      42.975  19.424  24.962  1.00  0.00    -0.744 OA
ENDBRANCH  78  79
ENDBRANCH  46  71
BRANCH  58  83
ATOM     83  C   UNL A   1      48.028  27.572  29.284  1.00  0.00     0.058 A 
ATOM     84  C   UNL A   1      48.810  27.808  28.143  1.00  0.00     0.135 A 
ATOM     85  C   UNL A   1      48.665  27.100  30.441  1.00  0.00     0.135 A 
ATOM     86  F   UNL A   1      48.238  28.249  27.011  1.00  0.00    -0.206 F 
ATOM     87  C   UNL A   1      50.180  27.577  28.148  1.00  0.00     0.059 A 
ATOM     88  C   UNL A   1      50.038  26.883  30.475  1.00  0.00     0.059 A 
ATOM     89  F   UNL A   1      47.957  26.867  31.557  1.00  0.00    -0.206 F 
ATOM     90  C   UNL A   1      50.785  27.119  29.320  1.00  0.00     0.060 A 
BRANCH  90  91
ATOM     91  S   UNL A   1      52.573  26.875  29.328  1.00  0.00     0.124 S 
ATOM     92  O   UNL A   1      52.796  26.314  27.999  1.00  0.00    -0.237 OA
ATOM     93  O   UNL A   1      53.072  28.230  29.536  1.00  0.00    -0.237 OA
ATOM     94  O   UNL A   1      52.785  25.956  30.442  1.00  0.00    -0.744 OA
ENDBRANCH  90  91
ENDBRANCH  58  83
ENDBRANCH  32  33
ENDBRANCH  25  27
ENDBRANCH  24  25
ENDBRANCH   1  24
TORSDOF 17
ENDMDL
MODEL 3
REMARK VINA RESULT:     -10.9      1.580      2.567
REMARK SMILES CC[C@@](C)(NC(=O)c1c(C)cc(C)[nH]c1=O)C(=O)OCCOC(=O)c1ccc(-c2c3nc(c(-c4c(F)cc(S(=O)(=O)[O-])cc4F)c4ccc([nH]4)c(-c4c(F)cc(S(=O)(=O)[O-])cc4F)c4nc(c(-c5c(F)cc(S(=O)(=O)[O-])cc5F)c5ccc2[nH]5)C=C4)C=C3)cc1
REMARK SMILES IDX 21 1 20 2 19 3 17 4 18 5 3 6 4 7 2 8 1 9 5 10 6 11 7 13 8 14
REMARK SMILES IDX 9 15 15 16 10 17 11 18 14 19 16 20 12 21 13 23 22 24 23 25
REMARK SMILES IDX 24 26 25 27 26 28 90 29 27 30 89 31 28 32 29 33 30 34 83 35
REMARK SMILES IDX 31 36 88 37 82 38 84 39 32 40 87 41 81 42 80 43 33 45 67 46
REMARK SMILES IDX 46 47 66 48 47 49 50 50 65 51 85 52 48 53 49 54 64 56 86 57
REMARK SMILES IDX 51 58 34 59 35 60 44 61 36 62 37 63 43 64 45 65 38 66 39 67
REMARK SMILES IDX 40 68 41 69 42 70 68 71 69 72 78 73 70 74 71 75 77 76 79 77
REMARK SMILES IDX 72 78 73 79 74 80 75 81 76 82 52 83 53 84 62 85 54 86 55 87
REMARK SMILES IDX 61 88 63 89 56 90 57 91 58 92 59 93 60 94
REMARK H PARENT 5 12 14 22 84 44 50 55
REMARK Flexibility Score: inf
ROOT
ATOM      1  C   UNL A   1      32.978  30.129  26.461  1.00  0.00     0.275 C 
ENDROOT
BRANCH   1   2
ATOM      2  C   UNL A   1      31.769  29.212  26.358  1.00  0.00     0.274 C 
BRANCH   2   3
ATOM      3  O   UNL A   1      31.624  28.734  25.001  1.00  0.00    -0.460 OA
BRANCH   3   4
ATOM      4  C   UNL A   1      30.758  29.421  24.220  1.00  0.00     0.331 C 
ATOM      5  O   UNL A   1      30.328  30.531  24.525  1.00  0.00    -0.249 OA
BRANCH   4   6
ATOM      6  C   UNL A   1      30.236  28.631  22.980  1.00  0.00     0.135 C 
ATOM      7  C   UNL A   1      29.227  27.620  23.556  1.00  0.00     0.047 C 
BRANCH   6   8
ATOM      8  C   UNL A   1      29.487  29.630  22.021  1.00  0.00     0.037 C 
ATOM      9  C   UNL A   1      27.970  29.761  22.101  1.00  0.00     0.007 C 
ENDBRANCH   6   8
BRANCH   6  10
ATOM     10  N   UNL A   1      31.157  27.892  22.041  1.00  0.00    -0.336 N 
ATOM     11  C   UNL A   1      31.575  26.599  21.932  1.00  0.00     0.258 C 
ATOM     12  H   UNL A   1      31.545  28.476  21.350  1.00  0.00     0.165 HD
ATOM     13  O   UNL A   1      31.572  26.081  20.812  1.00  0.00    -0.269 OA
BRANCH  11  14
ATOM     14  C   UNL A   1      32.309  25.956  23.034  1.00  0.00     0.107 A 
ATOM     15  C   UNL A   1      31.785  24.864  23.638  1.00  0.00    -0.031 A 
ATOM     16  C   UNL A   1      33.548  26.565  23.586  1.00  0.00     0.261 A 
ATOM     17  C   UNL A   1      30.471  24.204  23.305  1.00  0.00     0.045 C 
ATOM     18  C   UNL A   1      32.539  24.195  24.692  1.00  0.00     0.025 A 
ATOM     19  N   UNL A   1      34.172  25.868  24.600  1.00  0.00    -0.326 N 
ATOM     20  O   UNL A   1      34.028  27.609  23.151  1.00  0.00    -0.269 OA
ATOM     21  C   UNL A   1      33.709  24.685  25.124  1.00  0.00     0.015 A 
ATOM     22  H   UNL A   1      35.003  26.243  24.972  1.00  0.00     0.169 HD
ATOM     23  C   UNL A   1      34.595  23.952  26.083  1.00  0.00     0.064 C 
ENDBRANCH  11  14
ENDBRANCH   6  10
ENDBRANCH   4   6
ENDBRANCH   3   4
ENDBRANCH   2   3
ENDBRANCH   1   2
BRANCH   1  24
ATOM     24  O   UNL A   1      33.824  29.642  27.508  1.00  0.00    -0.458 OA
BRANCH  24  25
ATOM     25  C   UNL A   1      34.507  30.591  28.184  1.00  0.00     0.338 C 
ATOM     26  O   UNL A   1      34.119  31.676  28.568  1.00  0.00    -0.246 OA
BRANCH  25  27
ATOM     27  C   UNL A   1      35.877  30.114  28.360  1.00  0.00     0.060 A 
ATOM     28  C   UNL A   1      36.770  30.150  27.289  1.00  0.00     0.016 A 
ATOM     29  C   UNL A   1      36.255  29.627  29.608  1.00  0.00     0.016 A 
ATOM     30  C   UNL A   1      38.063  29.681  27.462  1.00  0.00     0.010 A 
ATOM     31  C   UNL A   1      37.573  29.236  29.803  1.00  0.00     0.010 A 
ATOM     32  C   UNL A   1      38.483  29.271  28.733  1.00  0.00    -0.014 A 
BRANCH  32  33
ATOM     33  C   UNL A   1      39.906  28.961  28.975  1.00  0.00     0.031 A 
ATOM     34  C   UNL A   1      40.812  30.007  29.543  1.00  0.00     0.074 A 
ATOM     35  C   UNL A   1      40.354  27.735  28.645  1.00  0.00     0.049 A 
ATOM     36  N   UNL A   1      42.109  29.978  29.685  1.00  0.00    -0.248 NA
ATOM     37  C   UNL A   1      40.180  31.254  30.004  1.00  0.00     0.031 C 
ATOM     38  C   UNL A   1      39.522  26.649  28.113  1.00  0.00     0.029 A 
ATOM     39  N   UNL A   1      41.606  27.187  28.710  1.00  0.00    -0.354 N 
ATOM     40  C   UNL A   1      42.455  31.207  30.230  1.00  0.00     0.074 A 
ATOM     41  C   UNL A   1      41.233  31.966  30.384  1.00  0.00     0.031 C 
ATOM     42  C   UNL A   1      40.279  25.557  27.939  1.00  0.00     0.029 A 
ATOM     43  C   UNL A   1      41.659  25.887  28.267  1.00  0.00     0.049 A 
ATOM     44  H   UNL A   1      42.393  27.677  29.042  1.00  0.00     0.167 HD
ATOM     45  C   UNL A   1      43.690  31.651  30.563  1.00  0.00     0.037 A 
ATOM     46  C   UNL A   1      42.713  25.065  28.113  1.00  0.00     0.037 A 
ATOM     47  C   UNL A   1      44.884  30.865  30.393  1.00  0.00     0.049 A 
ATOM     48  C   UNL A   1      44.075  25.600  28.444  1.00  0.00     0.074 A 
ATOM     49  C   UNL A   1      46.194  31.214  30.659  1.00  0.00     0.029 A 
ATOM     50  N   UNL A   1      44.905  29.561  29.912  1.00  0.00    -0.354 N 
ATOM     51  N   UNL A   1      44.399  26.784  28.910  1.00  0.00    -0.248 NA
ATOM     52  C   UNL A   1      45.216  24.709  28.208  1.00  0.00     0.031 C 
ATOM     53  C   UNL A   1      47.011  30.132  30.311  1.00  0.00     0.029 A 
ATOM     54  C   UNL A   1      46.207  29.093  29.865  1.00  0.00     0.049 A 
ATOM     55  H   UNL A   1      44.110  29.045  29.646  1.00  0.00     0.167 HD
ATOM     56  C   UNL A   1      45.782  26.783  29.022  1.00  0.00     0.074 A 
ATOM     57  C   UNL A   1      46.229  25.470  28.597  1.00  0.00     0.031 C 
ATOM     58  C   UNL A   1      46.608  27.779  29.427  1.00  0.00     0.037 A 
BRANCH  45  59
ATOM     59  C   UNL A   1      43.804  33.047  31.106  1.00  0.00     0.058 A 
ATOM     60  C   UNL A   1      43.766  33.309  32.485  1.00  0.00     0.135 A 
ATOM     61  C   UNL A   1      43.962  34.140  30.237  1.00  0.00     0.135 A 
ATOM     62  F   UNL A   1      43.593  32.305  33.358  1.00  0.00    -0.206 F 
ATOM     63  C   UNL A   1      43.859  34.606  32.982  1.00  0.00     0.059 A 
ATOM     64  C   UNL A   1      44.079  35.443  30.714  1.00  0.00     0.059 A 
ATOM     65  F   UNL A   1      43.996  33.948  28.910  1.00  0.00    -0.206 F 
ATOM     66  C   UNL A   1      44.012  35.667  32.089  1.00  0.00     0.060 A 
BRANCH  66  67
ATOM     67  S   UNL A   1      44.122  37.345  32.750  1.00  0.00     0.124 S 
ATOM     68  O   UNL A   1      43.038  37.343  33.728  1.00  0.00    -0.237 OA
ATOM     69  O   UNL A   1      45.472  37.375  33.302  1.00  0.00    -0.237 OA
ATOM     70  O   UNL A   1      43.906  38.188  31.578  1.00  0.00    -0.744 OA
ENDBRANCH  66  67
ENDBRANCH  45  59
BRANCH  46  71
ATOM     71  C   UNL A   1      42.508  23.683  27.605  1.00  0.00     0.058 A 
ATOM     72  C   UNL A   1      42.488  23.418  26.228  1.00  0.00     0.135 A 
ATOM     73  C   UNL A   1      42.393  22.591  28.481  1.00  0.00     0.135 A 
ATOM     74  F   UNL A   1      42.590  24.427  25.350  1.00  0.00    -0.206 F 
ATOM     75  C   UNL A   1      42.364  22.122  25.738  1.00  0.00     0.059 A 
ATOM     76  C   UNL A   1      42.294  21.284  28.015  1.00  0.00     0.059 A 
ATOM     77  F   UNL A   1      42.423  22.788  29.809  1.00  0.00    -0.206 F 
ATOM     78  C   UNL A   1      42.275  21.059  26.639  1.00  0.00     0.060 A 
BRANCH  78  79
ATOM     79  S   UNL A   1      42.189  19.375  25.992  1.00  0.00     0.124 S 
ATOM     80  O   UNL A   1      40.760  19.231  25.742  1.00  0.00    -0.237 OA
ATOM     81  O   UNL A   1      43.039  19.457  24.810  1.00  0.00    -0.237 OA
ATOM     82  O   UNL A   1      42.723  18.567  27.085  1.00  0.00    -0.744 OA
ENDBRANCH  78  79
ENDBRANCH  46  71
BRANCH  58  83
ATOM     83  C   UNL A   1      48.076  27.476  29.429  1.00  0.00     0.058 A 
ATOM     84  C   UNL A   1      48.855  27.651  28.276  1.00  0.00     0.135 A 
ATOM     85  C   UNL A   1      48.717  27.073  30.610  1.00  0.00     0.135 A 
ATOM     86  F   UNL A   1      48.280  28.026  27.122  1.00  0.00    -0.206 F 
ATOM     87  C   UNL A   1      50.226  27.428  28.291  1.00  0.00     0.059 A 
ATOM     88  C   UNL A   1      50.091  26.864  30.653  1.00  0.00     0.059 A 
ATOM     89  F   UNL A   1      48.012  26.899  31.738  1.00  0.00    -0.206 F 
ATOM     90  C   UNL A   1      50.835  27.039  29.486  1.00  0.00     0.060 A 
BRANCH  90  91
ATOM     91  S   UNL A   1      52.625  26.804  29.504  1.00  0.00     0.124 S 
ATOM     92  O   UNL A   1      53.093  28.152  29.806  1.00  0.00    -0.237 OA
ATOM     93  O   UNL A   1      52.799  25.819  30.566  1.00  0.00    -0.237 OA
ATOM     94  O   UNL A   1      52.918  26.324  28.156  1.00  0.00    -0.744 OA
ENDBRANCH  90  91
ENDBRANCH  58  83
ENDBRANCH  32  33
ENDBRANCH  25  27
ENDBRANCH  24  25
ENDBRANCH   1  24
TORSDOF 17
ENDMDL
