MODEL 1
REMARK VINA RESULT:     -12.3      0.000      0.000
REMARK SMILES O=C(OCCOC(=O)c1ccc(-c2c3nc(c(-c4c(F)cc(S(=O)(=O)[O-])cc4F)c4ccc([nH]4)c(-c4c(F)cc(S(=O)(=O)[O-])cc4F)c4nc(c(-c5c(F)cc(S(=O)(=O)[O-])cc5F)c5ccc2[nH]5)C=C4)C=C3)cc1)C1=N[C@@H]2NC=NN2[C@@H]([C@H]2C=NN=C2c2ccc(F)cc2)C1
REMARK SMILES IDX 5 1 4 2 3 3 2 4 1 5 75 6 76 7 95 8 77 9 82 10 78 11 81 12
REMARK SMILES IDX 79 13 80 15 83 16 84 17 87 18 85 19 86 20 88 21 89 22 94 23
REMARK SMILES IDX 90 24 93 25 91 26 92 27 6 28 7 29 8 30 9 31 10 32 74 33
REMARK SMILES IDX 11 34 73 35 12 36 13 37 14 38 67 39 15 40 72 41 66 42 68 43
REMARK SMILES IDX 16 44 71 45 65 46 64 47 17 49 51 50 30 51 50 52 31 53 34 54
REMARK SMILES IDX 49 55 69 56 32 57 33 58 48 60 70 61 35 62 18 63 19 64 28 65
REMARK SMILES IDX 20 66 21 67 27 68 29 69 22 70 23 71 24 72 25 73 26 74 52 75
REMARK SMILES IDX 53 76 62 77 54 78 55 79 61 80 63 81 56 82 57 83 58 84 59 85
REMARK SMILES IDX 60 86 36 87 37 88 46 89 38 90 39 91 45 92 47 93 40 94 41 95
REMARK SMILES IDX 42 96 43 97 44 98
REMARK H PARENT 78 14 68 48 34 59
REMARK Flexibility Score: inf
ROOT
ATOM      1  C   UNL A   1      32.435  29.102  26.870  1.00  0.00     0.275 C 
ENDROOT
BRANCH   1   2
ATOM      2  C   UNL A   1      31.807  27.781  27.308  1.00  0.00     0.275 C 
BRANCH   2   3
ATOM      3  O   UNL A   1      30.989  27.172  26.299  1.00  0.00    -0.458 OA
BRANCH   3   4
ATOM      4  C   UNL A   1      30.587  25.903  26.204  1.00  0.00     0.352 C 
ATOM      5  O   UNL A   1      29.387  25.643  26.250  1.00  0.00    -0.245 OA
BRANCH   4   6
ATOM      6  C   UNL A   1      31.546  24.684  26.147  1.00  0.00     0.126 C 
ATOM      7  N   UNL A   1      31.855  24.154  27.285  1.00  0.00    -0.236 NA
ATOM      8  C   UNL A   1      31.901  24.056  24.828  1.00  0.00     0.092 C 
ATOM      9  C   UNL A   1      32.348  22.786  27.309  1.00  0.00     0.319 C 
ATOM     10  C   UNL A   1      33.052  23.077  25.065  1.00  0.00     0.127 C 
ATOM     11  N   UNL A   1      33.570  22.547  28.008  1.00  0.00    -0.335 N 
ATOM     12  N   UNL A   1      32.572  22.069  26.025  1.00  0.00    -0.249 NA
ATOM     13  C   UNL A   1      34.076  21.424  27.445  1.00  0.00     0.217 C 
ATOM     14  H   UNL A   1      33.959  23.082  28.737  1.00  0.00     0.165 HD
ATOM     15  N   UNL A   1      33.555  21.085  26.296  1.00  0.00    -0.164 NA
BRANCH  10  16
ATOM     16  C   UNL A   1      33.642  22.403  23.824  1.00  0.00     0.109 C 
ATOM     17  C   UNL A   1      32.941  22.810  22.580  1.00  0.00     0.120 C 
ATOM     18  C   UNL A   1      34.998  22.930  23.478  1.00  0.00     0.081 C 
ATOM     19  N   UNL A   1      33.690  23.500  21.782  1.00  0.00    -0.162 NA
ATOM     20  N   UNL A   1      34.998  23.585  22.354  1.00  0.00    -0.155 NA
BRANCH  18  21
ATOM     21  C   UNL A   1      36.186  22.755  24.344  1.00  0.00    -0.001 A 
ATOM     22  C   UNL A   1      36.877  21.537  24.427  1.00  0.00     0.013 A 
ATOM     23  C   UNL A   1      36.613  23.849  25.110  1.00  0.00     0.013 A 
ATOM     24  C   UNL A   1      37.970  21.412  25.290  1.00  0.00     0.040 A 
ATOM     25  C   UNL A   1      37.705  23.719  25.969  1.00  0.00     0.040 A 
ATOM     26  C   UNL A   1      38.371  22.501  26.055  1.00  0.00     0.123 A 
ATOM     27  F   UNL A   1      39.414  22.380  26.884  1.00  0.00    -0.207 F 
ENDBRANCH  18  21
ENDBRANCH  10  16
ENDBRANCH   4   6
ENDBRANCH   3   4
ENDBRANCH   2   3
ENDBRANCH   1   2
BRANCH   1  28
ATOM     28  O   UNL A   1      33.859  29.095  27.036  1.00  0.00    -0.458 OA
BRANCH  28  29
ATOM     29  C   UNL A   1      34.360  30.205  27.653  1.00  0.00     0.338 C 
ATOM     30  O   UNL A   1      33.740  31.212  27.953  1.00  0.00    -0.246 OA
BRANCH  29  31
ATOM     31  C   UNL A   1      35.756  29.944  28.055  1.00  0.00     0.060 A 
ATOM     32  C   UNL A   1      36.015  29.557  29.375  1.00  0.00     0.016 A 
ATOM     33  C   UNL A   1      36.798  30.033  27.132  1.00  0.00     0.016 A 
ATOM     34  C   UNL A   1      37.316  29.214  29.766  1.00  0.00     0.010 A 
ATOM     35  C   UNL A   1      38.092  29.681  27.525  1.00  0.00     0.010 A 
ATOM     36  C   UNL A   1      38.368  29.249  28.843  1.00  0.00    -0.014 A 
BRANCH  36  37
ATOM     37  C   UNL A   1      39.761  28.837  29.201  1.00  0.00     0.031 A 
ATOM     38  C   UNL A   1      40.740  29.884  29.663  1.00  0.00     0.074 A 
ATOM     39  C   UNL A   1      40.201  27.573  29.002  1.00  0.00     0.049 A 
ATOM     40  N   UNL A   1      42.029  29.778  29.859  1.00  0.00    -0.248 NA
ATOM     41  C   UNL A   1      40.198  31.224  29.937  1.00  0.00     0.031 C 
ATOM     42  C   UNL A   1      39.388  26.431  28.577  1.00  0.00     0.029 A 
ATOM     43  N   UNL A   1      41.477  27.056  29.047  1.00  0.00    -0.354 N 
ATOM     44  C   UNL A   1      42.447  31.026  30.299  1.00  0.00     0.074 A 
ATOM     45  C   UNL A   1      41.293  31.898  30.260  1.00  0.00     0.031 C 
ATOM     46  C   UNL A   1      40.192  25.395  28.283  1.00  0.00     0.029 A 
ATOM     47  C   UNL A   1      41.576  25.772  28.552  1.00  0.00     0.049 A 
ATOM     48  H   UNL A   1      42.249  27.556  29.400  1.00  0.00     0.167 HD
ATOM     49  C   UNL A   1      43.666  31.403  30.749  1.00  0.00     0.037 A 
ATOM     50  C   UNL A   1      42.651  24.989  28.331  1.00  0.00     0.037 A 
ATOM     51  C   UNL A   1      44.810  30.537  30.840  1.00  0.00     0.049 A 
ATOM     52  C   UNL A   1      44.021  25.462  28.745  1.00  0.00     0.074 A 
ATOM     53  C   UNL A   1      46.047  30.809  31.400  1.00  0.00     0.029 A 
ATOM     54  N   UNL A   1      44.867  29.243  30.353  1.00  0.00    -0.354 N 
ATOM     55  N   UNL A   1      44.367  26.604  29.287  1.00  0.00    -0.248 NA
ATOM     56  C   UNL A   1      45.143  24.527  28.555  1.00  0.00     0.031 C 
ATOM     57  C   UNL A   1      46.870  29.694  31.206  1.00  0.00     0.029 A 
ATOM     58  C   UNL A   1      46.132  28.717  30.560  1.00  0.00     0.049 A 
ATOM     59  H   UNL A   1      44.121  28.767  29.924  1.00  0.00     0.167 HD
ATOM     60  C   UNL A   1      45.729  26.498  29.555  1.00  0.00     0.074 A 
ATOM     61  C   UNL A   1      46.149  25.190  29.106  1.00  0.00     0.031 C 
ATOM     62  C   UNL A   1      46.550  27.406  30.137  1.00  0.00     0.037 A 
BRANCH  49  63
ATOM     63  C   UNL A   1      43.820  32.815  31.230  1.00  0.00     0.058 A 
ATOM     64  C   UNL A   1      44.222  33.838  30.357  1.00  0.00     0.135 A 
ATOM     65  C   UNL A   1      43.500  33.159  32.551  1.00  0.00     0.135 A 
ATOM     66  F   UNL A   1      44.553  33.553  29.088  1.00  0.00    -0.206 F 
ATOM     67  C   UNL A   1      44.319  35.155  30.784  1.00  0.00     0.059 A 
ATOM     68  C   UNL A   1      43.567  34.476  32.994  1.00  0.00     0.059 A 
ATOM     69  F   UNL A   1      43.113  32.214  33.422  1.00  0.00    -0.206 F 
ATOM     70  C   UNL A   1      43.986  35.465  32.104  1.00  0.00     0.060 A 
BRANCH  70  71
ATOM     71  S   UNL A   1      44.092  37.186  32.633  1.00  0.00     0.124 S 
ATOM     72  O   UNL A   1      45.446  37.238  33.177  1.00  0.00    -0.237 OA
ATOM     73  O   UNL A   1      43.883  37.910  31.383  1.00  0.00    -0.237 OA
ATOM     74  O   UNL A   1      43.017  37.307  33.612  1.00  0.00    -0.744 OA
ENDBRANCH  70  71
ENDBRANCH  49  63
BRANCH  50  75
ATOM     75  C   UNL A   1      42.504  23.648  27.698  1.00  0.00     0.058 A 
ATOM     76  C   UNL A   1      42.379  22.490  28.478  1.00  0.00     0.135 A 
ATOM     77  C   UNL A   1      42.580  23.494  26.304  1.00  0.00     0.135 A 
ATOM     78  F   UNL A   1      42.316  22.589  29.815  1.00  0.00    -0.206 F 
ATOM     79  C   UNL A   1      42.382  21.222  27.907  1.00  0.00     0.059 A 
ATOM     80  C   UNL A   1      42.565  22.235  25.707  1.00  0.00     0.059 A 
ATOM     81  F   UNL A   1      42.691  24.573  25.514  1.00  0.00    -0.206 F 
ATOM     82  C   UNL A   1      42.488  21.105  26.520  1.00  0.00     0.060 A 
BRANCH  82  83
ATOM     83  S   UNL A   1      42.523  19.450  25.794  1.00  0.00     0.124 S 
ATOM     84  O   UNL A   1      41.121  19.252  25.447  1.00  0.00    -0.237 OA
ATOM     85  O   UNL A   1      43.440  19.628  24.671  1.00  0.00    -0.237 OA
ATOM     86  O   UNL A   1      43.029  18.618  26.881  1.00  0.00    -0.744 OA
ENDBRANCH  82  83
ENDBRANCH  50  75
BRANCH  62  87
ATOM     87  C   UNL A   1      47.985  27.018  30.371  1.00  0.00     0.058 A 
ATOM     88  C   UNL A   1      49.006  27.411  29.494  1.00  0.00     0.135 A 
ATOM     89  C   UNL A   1      48.351  26.317  31.533  1.00  0.00     0.135 A 
ATOM     90  F   UNL A   1      48.708  28.074  28.366  1.00  0.00    -0.206 F 
ATOM     91  C   UNL A   1      50.342  27.121  29.758  1.00  0.00     0.059 A 
ATOM     92  C   UNL A   1      49.682  26.039  31.830  1.00  0.00     0.059 A 
ATOM     93  F   UNL A   1      47.413  25.924  32.409  1.00  0.00    -0.206 F 
ATOM     94  C   UNL A   1      50.670  26.443  30.934  1.00  0.00     0.060 A 
BRANCH  94  95
ATOM     95  S   UNL A   1      52.413  26.138  31.300  1.00  0.00     0.124 S 
ATOM     96  O   UNL A   1      53.003  26.160  29.966  1.00  0.00    -0.237 OA
ATOM     97  O   UNL A   1      52.753  27.266  32.161  1.00  0.00    -0.237 OA
ATOM     98  O   UNL A   1      52.399  24.836  31.961  1.00  0.00    -0.744 OA
ENDBRANCH  94  95
ENDBRANCH  62  87
ENDBRANCH  36  37
ENDBRANCH  29  31
ENDBRANCH  28  29
ENDBRANCH   1  28
TORSDOF 16
ENDMDL
MODEL 2
REMARK VINA RESULT:     -12.0      3.349      9.483
REMARK SMILES O=C(OCCOC(=O)c1ccc(-c2c3nc(c(-c4c(F)cc(S(=O)(=O)[O-])cc4F)c4ccc([nH]4)c(-c4c(F)cc(S(=O)(=O)[O-])cc4F)c4nc(c(-c5c(F)cc(S(=O)(=O)[O-])cc5F)c5ccc2[nH]5)C=C4)C=C3)cc1)C1=N[C@@H]2NC=NN2[C@@H]([C@H]2C=NN=C2c2ccc(F)cc2)C1
REMARK SMILES IDX 5 1 4 2 3 3 2 4 1 5 75 6 76 7 95 8 77 9 82 10 78 11 81 12
REMARK SMILES IDX 79 13 80 15 83 16 84 17 87 18 85 19 86 20 88 21 89 22 94 23
REMARK SMILES IDX 90 24 93 25 91 26 92 27 6 28 7 29 8 30 9 31 10 32 74 33
REMARK SMILES IDX 11 34 73 35 12 36 13 37 14 38 67 39 15 40 72 41 66 42 68 43
REMARK SMILES IDX 16 44 71 45 65 46 64 47 17 49 51 50 30 51 50 52 31 53 34 54
REMARK SMILES IDX 49 55 69 56 32 57 33 58 48 60 70 61 35 62 18 63 19 64 28 65
REMARK SMILES IDX 20 66 21 67 27 68 29 69 22 70 23 71 24 72 25 73 26 74 52 75
REMARK SMILES IDX 53 76 62 77 54 78 55 79 61 80 63 81 56 82 57 83 58 84 59 85
REMARK SMILES IDX 60 86 36 87 37 88 46 89 38 90 39 91 45 92 47 93 40 94 41 95
REMARK SMILES IDX 42 96 43 97 44 98
REMARK H PARENT 78 14 68 48 34 59
REMARK Flexibility Score: inf
ROOT
ATOM      1  C   UNL A   1      37.015  23.219  24.315  1.00  0.00     0.275 C 
ENDROOT
BRANCH   1   2
ATOM      2  C   UNL A   1      35.631  22.627  24.065  1.00  0.00     0.275 C 
BRANCH   2   3
ATOM      3  O   UNL A   1      35.076  22.984  22.790  1.00  0.00    -0.458 OA
BRANCH   3   4
ATOM      4  C   UNL A   1      33.859  23.454  22.512  1.00  0.00     0.352 C 
ATOM      5  O   UNL A   1      33.063  22.748  21.896  1.00  0.00    -0.245 OA
BRANCH   4   6
ATOM      6  C   UNL A   1      33.388  24.900  22.820  1.00  0.00     0.126 C 
ATOM      7  N   UNL A   1      34.022  25.844  22.204  1.00  0.00    -0.236 NA
ATOM      8  C   UNL A   1      32.137  25.140  23.619  1.00  0.00     0.092 C 
ATOM      9  C   UNL A   1      33.384  27.143  22.069  1.00  0.00     0.319 C 
ATOM     10  C   UNL A   1      32.088  26.625  23.984  1.00  0.00     0.127 C 
ATOM     11  N   UNL A   1      34.138  28.284  22.482  1.00  0.00    -0.335 N 
ATOM     12  N   UNL A   1      32.068  27.380  22.721  1.00  0.00    -0.249 NA
ATOM     13  C   UNL A   1      33.207  29.222  22.782  1.00  0.00     0.217 C 
ATOM     14  H   UNL A   1      35.116  28.369  22.538  1.00  0.00     0.165 HD
ATOM     15  N   UNL A   1      31.989  28.779  22.940  1.00  0.00    -0.164 NA
BRANCH  10  16
ATOM     16  C   UNL A   1      30.939  27.066  24.895  1.00  0.00     0.109 C 
ATOM     17  C   UNL A   1      30.019  25.946  25.217  1.00  0.00     0.120 C 
ATOM     18  C   UNL A   1      31.397  27.362  26.288  1.00  0.00     0.081 C 
ATOM     19  N   UNL A   1      30.042  25.617  26.467  1.00  0.00    -0.162 NA
ATOM     20  N   UNL A   1      30.925  26.512  27.151  1.00  0.00    -0.155 NA
BRANCH  18  21
ATOM     21  C   UNL A   1      32.315  28.474  26.625  1.00  0.00    -0.001 A 
ATOM     22  C   UNL A   1      31.878  29.804  26.708  1.00  0.00     0.013 A 
ATOM     23  C   UNL A   1      33.665  28.171  26.854  1.00  0.00     0.013 A 
ATOM     24  C   UNL A   1      32.793  30.824  26.991  1.00  0.00     0.040 A 
ATOM     25  C   UNL A   1      34.574  29.192  27.137  1.00  0.00     0.040 A 
ATOM     26  C   UNL A   1      34.130  30.508  27.199  1.00  0.00     0.123 A 
ATOM     27  F   UNL A   1      35.007  31.483  27.467  1.00  0.00    -0.207 F 
ENDBRANCH  18  21
ENDBRANCH  10  16
ENDBRANCH   4   6
ENDBRANCH   3   4
ENDBRANCH   2   3
ENDBRANCH   1   2
BRANCH   1  28
ATOM     28  O   UNL A   1      37.291  23.356  25.715  1.00  0.00    -0.458 OA
BRANCH  28  29
ATOM     29  C   UNL A   1      38.580  23.077  26.066  1.00  0.00     0.338 C 
ATOM     30  O   UNL A   1      39.229  22.099  25.731  1.00  0.00    -0.246 OA
BRANCH  29  31
ATOM     31  C   UNL A   1      39.141  24.230  26.797  1.00  0.00     0.060 A 
ATOM     32  C   UNL A   1      39.996  25.106  26.116  1.00  0.00     0.016 A 
ATOM     33  C   UNL A   1      38.796  24.476  28.125  1.00  0.00     0.016 A 
ATOM     34  C   UNL A   1      40.474  26.259  26.752  1.00  0.00     0.010 A 
ATOM     35  C   UNL A   1      39.268  25.633  28.751  1.00  0.00     0.010 A 
ATOM     36  C   UNL A   1      40.099  26.551  28.069  1.00  0.00    -0.014 A 
BRANCH  36  37
ATOM     37  C   UNL A   1      40.539  27.799  28.769  1.00  0.00     0.031 A 
ATOM     38  C   UNL A   1      41.802  27.774  29.589  1.00  0.00     0.074 A 
ATOM     39  C   UNL A   1      39.769  28.911  28.787  1.00  0.00     0.049 A 
ATOM     40  N   UNL A   1      42.271  28.681  30.405  1.00  0.00    -0.248 NA
ATOM     41  C   UNL A   1      42.642  26.572  29.477  1.00  0.00     0.031 C 
ATOM     42  C   UNL A   1      38.527  29.116  28.037  1.00  0.00     0.029 A 
ATOM     43  N   UNL A   1      39.878  30.058  29.542  1.00  0.00    -0.354 N 
ATOM     44  C   UNL A   1      43.470  28.171  30.886  1.00  0.00     0.074 A 
ATOM     45  C   UNL A   1      43.613  26.840  30.338  1.00  0.00     0.031 C 
ATOM     46  C   UNL A   1      37.932  30.245  28.459  1.00  0.00     0.029 A 
ATOM     47  C   UNL A   1      38.773  30.881  29.467  1.00  0.00     0.049 A 
ATOM     48  H   UNL A   1      40.671  30.272  30.085  1.00  0.00     0.167 HD
ATOM     49  C   UNL A   1      44.395  28.773  31.668  1.00  0.00     0.037 A 
ATOM     50  C   UNL A   1      38.464  32.012  30.135  1.00  0.00     0.037 A 
ATOM     51  C   UNL A   1      44.291  30.112  32.181  1.00  0.00     0.049 A 
ATOM     52  C   UNL A   1      39.468  32.620  31.082  1.00  0.00     0.074 A 
ATOM     53  C   UNL A   1      45.242  30.838  32.878  1.00  0.00     0.029 A 
ATOM     54  N   UNL A   1      43.174  30.921  32.066  1.00  0.00    -0.354 N 
ATOM     55  N   UNL A   1      40.656  32.180  31.415  1.00  0.00    -0.248 NA
ATOM     56  C   UNL A   1      39.104  33.899  31.716  1.00  0.00     0.031 C 
ATOM     57  C   UNL A   1      44.680  32.070  33.229  1.00  0.00     0.029 A 
ATOM     58  C   UNL A   1      43.394  32.123  32.718  1.00  0.00     0.049 A 
ATOM     59  H   UNL A   1      42.346  30.678  31.593  1.00  0.00     0.167 HD
ATOM     60  C   UNL A   1      41.201  33.155  32.245  1.00  0.00     0.074 A 
ATOM     61  C   UNL A   1      40.214  34.201  32.377  1.00  0.00     0.031 C 
ATOM     62  C   UNL A   1      42.423  33.180  32.832  1.00  0.00     0.037 A 
BRANCH  49  63
ATOM     63  C   UNL A   1      45.642  28.001  31.983  1.00  0.00     0.058 A 
ATOM     64  C   UNL A   1      45.734  27.214  33.141  1.00  0.00     0.135 A 
ATOM     65  C   UNL A   1      46.724  27.995  31.090  1.00  0.00     0.135 A 
ATOM     66  F   UNL A   1      44.729  27.200  34.031  1.00  0.00    -0.206 F 
ATOM     67  C   UNL A   1      46.866  26.458  33.413  1.00  0.00     0.059 A 
ATOM     68  C   UNL A   1      47.858  27.227  31.331  1.00  0.00     0.059 A 
ATOM     69  F   UNL A   1      46.682  28.734  29.971  1.00  0.00    -0.206 F 
ATOM     70  C   UNL A   1      47.922  26.468  32.500  1.00  0.00     0.060 A 
BRANCH  70  71
ATOM     71  S   UNL A   1      49.374  25.459  32.858  1.00  0.00     0.124 S 
ATOM     72  O   UNL A   1      48.815  24.459  33.762  1.00  0.00    -0.237 OA
ATOM     73  O   UNL A   1      49.751  24.976  31.533  1.00  0.00    -0.237 OA
ATOM     74  O   UNL A   1      50.303  26.406  33.466  1.00  0.00    -0.744 OA
ENDBRANCH  70  71
ENDBRANCH  49  63
BRANCH  50  75
ATOM     75  C   UNL A   1      37.150  32.683  29.936  1.00  0.00     0.058 A 
ATOM     76  C   UNL A   1      37.005  33.733  29.019  1.00  0.00     0.135 A 
ATOM     77  C   UNL A   1      36.039  32.347  30.727  1.00  0.00     0.135 A 
ATOM     78  F   UNL A   1      38.044  34.098  28.252  1.00  0.00    -0.206 F 
ATOM     79  C   UNL A   1      35.824  34.461  28.923  1.00  0.00     0.059 A 
ATOM     80  C   UNL A   1      34.839  33.048  30.635  1.00  0.00     0.059 A 
ATOM     81  F   UNL A   1      36.124  31.342  31.612  1.00  0.00    -0.206 F 
ATOM     82  C   UNL A   1      34.749  34.118  29.745  1.00  0.00     0.060 A 
BRANCH  82  83
ATOM     83  S   UNL A   1      33.232  35.093  29.633  1.00  0.00     0.124 S 
ATOM     84  O   UNL A   1      32.692  34.951  30.981  1.00  0.00    -0.237 OA
ATOM     85  O   UNL A   1      33.743  36.416  29.287  1.00  0.00    -0.237 OA
ATOM     86  O   UNL A   1      32.480  34.423  28.577  1.00  0.00    -0.744 OA
ENDBRANCH  82  83
ENDBRANCH  50  75
BRANCH  62  87
ATOM     87  C   UNL A   1      42.797  34.391  33.641  1.00  0.00     0.058 A 
ATOM     88  C   UNL A   1      42.644  34.422  35.034  1.00  0.00     0.135 A 
ATOM     89  C   UNL A   1      43.395  35.502  33.022  1.00  0.00     0.135 A 
ATOM     90  F   UNL A   1      42.070  33.391  35.673  1.00  0.00    -0.206 F 
ATOM     91  C   UNL A   1      43.069  35.512  35.788  1.00  0.00     0.059 A 
ATOM     92  C   UNL A   1      43.850  36.592  33.758  1.00  0.00     0.059 A 
ATOM     93  F   UNL A   1      43.572  35.521  31.691  1.00  0.00    -0.206 F 
ATOM     94  C   UNL A   1      43.679  36.589  35.141  1.00  0.00     0.060 A 
BRANCH  94  95
ATOM     95  S   UNL A   1      44.292  37.965  36.139  1.00  0.00     0.124 S 
ATOM     96  O   UNL A   1      45.688  37.590  36.333  1.00  0.00    -0.237 OA
ATOM     97  O   UNL A   1      44.058  39.112  35.267  1.00  0.00    -0.237 OA
ATOM     98  O   UNL A   1      43.455  37.915  37.335  1.00  0.00    -0.744 OA
ENDBRANCH  94  95
ENDBRANCH  62  87
ENDBRANCH  36  37
ENDBRANCH  29  31
ENDBRANCH  28  29
ENDBRANCH   1  28
TORSDOF 16
ENDMDL
MODEL 3
REMARK VINA RESULT:     -11.8      4.949     10.564
REMARK SMILES O=C(OCCOC(=O)c1ccc(-c2c3nc(c(-c4c(F)cc(S(=O)(=O)[O-])cc4F)c4ccc([nH]4)c(-c4c(F)cc(S(=O)(=O)[O-])cc4F)c4nc(c(-c5c(F)cc(S(=O)(=O)[O-])cc5F)c5ccc2[nH]5)C=C4)C=C3)cc1)C1=N[C@@H]2NC=NN2[C@@H]([C@H]2C=NN=C2c2ccc(F)cc2)C1
REMARK SMILES IDX 5 1 4 2 3 3 2 4 1 5 75 6 76 7 95 8 77 9 82 10 78 11 81 12
REMARK SMILES IDX 79 13 80 15 83 16 84 17 87 18 85 19 86 20 88 21 89 22 94 23
REMARK SMILES IDX 90 24 93 25 91 26 92 27 6 28 7 29 8 30 9 31 10 32 74 33
REMARK SMILES IDX 11 34 73 35 12 36 13 37 14 38 67 39 15 40 72 41 66 42 68 43
REMARK SMILES IDX 16 44 71 45 65 46 64 47 17 49 51 50 30 51 50 52 31 53 34 54
REMARK SMILES IDX 49 55 69 56 32 57 33 58 48 60 70 61 35 62 18 63 19 64 28 65
REMARK SMILES IDX 20 66 21 67 27 68 29 69 22 70 23 71 24 72 25 73 26 74 52 75
REMARK SMILES IDX 53 76 62 77 54 78 55 79 61 80 63 81 56 82 57 83 58 84 59 85
REMARK SMILES IDX 60 86 36 87 37 88 46 89 38 90 39 91 45 92 47 93 40 94 41 95
REMARK SMILES IDX 42 96 43 97 44 98
REMARK H PARENT 78 14 68 48 34 59
REMARK Flexibility Score: inf
ROOT
ATOM      1  C   UNL A   1      39.537  22.334  26.505  1.00  0.00     0.275 C 
ENDROOT
BRANCH   1   2
ATOM      2  C   UNL A   1      38.398  21.825  25.626  1.00  0.00     0.275 C 
BRANCH   2   3
ATOM      3  O   UNL A   1      37.261  22.701  25.595  1.00  0.00    -0.458 OA
BRANCH   3   4
ATOM      4  C   UNL A   1      35.973  22.403  25.776  1.00  0.00     0.352 C 
ATOM      5  O   UNL A   1      35.666  21.465  26.509  1.00  0.00    -0.245 OA
BRANCH   4   6
ATOM      6  C   UNL A   1      34.802  23.096  25.031  1.00  0.00     0.126 C 
ATOM      7  N   UNL A   1      35.133  23.845  24.030  1.00  0.00    -0.236 NA
ATOM      8  C   UNL A   1      33.378  22.731  25.343  1.00  0.00     0.092 C 
ATOM      9  C   UNL A   1      34.130  24.153  23.024  1.00  0.00     0.319 C 
ATOM     10  C   UNL A   1      32.467  23.755  24.664  1.00  0.00     0.127 C 
ATOM     11  N   UNL A   1      33.942  25.529  22.692  1.00  0.00    -0.335 N 
ATOM     12  N   UNL A   1      32.733  23.680  23.219  1.00  0.00    -0.249 NA
ATOM     13  C   UNL A   1      32.676  25.599  22.214  1.00  0.00     0.217 C 
ATOM     14  H   UNL A   1      34.589  26.264  22.790  1.00  0.00     0.165 HD
ATOM     15  N   UNL A   1      31.915  24.572  22.481  1.00  0.00    -0.164 NA
BRANCH  10  16
ATOM     16  C   UNL A   1      30.968  23.627  24.945  1.00  0.00     0.109 C 
ATOM     17  C   UNL A   1      30.682  22.656  26.031  1.00  0.00     0.120 C 
ATOM     18  C   UNL A   1      30.405  24.845  25.605  1.00  0.00     0.081 C 
ATOM     19  N   UNL A   1      30.187  23.212  27.088  1.00  0.00    -0.162 NA
ATOM     20  N   UNL A   1      30.017  24.608  26.824  1.00  0.00    -0.155 NA
BRANCH  18  21
ATOM     21  C   UNL A   1      30.340  26.172  24.951  1.00  0.00    -0.001 A 
ATOM     22  C   UNL A   1      29.394  26.471  23.960  1.00  0.00     0.013 A 
ATOM     23  C   UNL A   1      31.272  27.146  25.337  1.00  0.00     0.013 A 
ATOM     24  C   UNL A   1      29.400  27.726  23.344  1.00  0.00     0.040 A 
ATOM     25  C   UNL A   1      31.273  28.398  24.721  1.00  0.00     0.040 A 
ATOM     26  C   UNL A   1      30.341  28.675  23.727  1.00  0.00     0.123 A 
ATOM     27  F   UNL A   1      30.350  29.876  23.135  1.00  0.00    -0.207 F 
ENDBRANCH  18  21
ENDBRANCH  10  16
ENDBRANCH   4   6
ENDBRANCH   3   4
ENDBRANCH   2   3
ENDBRANCH   1   2
BRANCH   1  28
ATOM     28  O   UNL A   1      39.590  23.767  26.531  1.00  0.00    -0.458 OA
BRANCH  28  29
ATOM     29  C   UNL A   1      40.834  24.281  26.753  1.00  0.00     0.338 C 
ATOM     30  O   UNL A   1      41.873  23.926  26.221  1.00  0.00    -0.246 OA
BRANCH  29  31
ATOM     31  C   UNL A   1      40.718  25.460  27.633  1.00  0.00     0.060 A 
ATOM     32  C   UNL A   1      39.579  25.592  28.436  1.00  0.00     0.016 A 
ATOM     33  C   UNL A   1      41.740  26.406  27.705  1.00  0.00     0.016 A 
ATOM     34  C   UNL A   1      39.478  26.650  29.349  1.00  0.00     0.010 A 
ATOM     35  C   UNL A   1      41.639  27.455  28.624  1.00  0.00     0.010 A 
ATOM     36  C   UNL A   1      40.516  27.582  29.471  1.00  0.00    -0.014 A 
BRANCH  36  37
ATOM     37  C   UNL A   1      40.477  28.695  30.472  1.00  0.00     0.031 A 
ATOM     38  C   UNL A   1      41.241  28.550  31.761  1.00  0.00     0.074 A 
ATOM     39  C   UNL A   1      39.675  29.772  30.305  1.00  0.00     0.049 A 
ATOM     40  N   UNL A   1      41.210  29.306  32.827  1.00  0.00    -0.248 NA
ATOM     41  C   UNL A   1      42.157  27.402  31.864  1.00  0.00     0.031 C 
ATOM     42  C   UNL A   1      38.880  30.083  29.114  1.00  0.00     0.029 A 
ATOM     43  N   UNL A   1      39.326  30.769  31.190  1.00  0.00    -0.354 N 
ATOM     44  C   UNL A   1      42.115  28.742  33.716  1.00  0.00     0.074 A 
ATOM     45  C   UNL A   1      42.615  27.532  33.100  1.00  0.00     0.031 C 
ATOM     46  C   UNL A   1      38.053  31.108  29.384  1.00  0.00     0.029 A 
ATOM     47  C   UNL A   1      38.295  31.571  30.746  1.00  0.00     0.049 A 
ATOM     48  H   UNL A   1      39.772  30.898  32.058  1.00  0.00     0.167 HD
ATOM     49  C   UNL A   1      42.535  29.213  34.912  1.00  0.00     0.037 A 
ATOM     50  C   UNL A   1      37.614  32.560  31.363  1.00  0.00     0.037 A 
ATOM     51  C   UNL A   1      42.085  30.438  35.516  1.00  0.00     0.049 A 
ATOM     52  C   UNL A   1      38.030  33.009  32.741  1.00  0.00     0.074 A 
ATOM     53  C   UNL A   1      42.553  31.047  36.668  1.00  0.00     0.029 A 
ATOM     54  N   UNL A   1      41.062  31.233  35.030  1.00  0.00    -0.354 N 
ATOM     55  N   UNL A   1      38.984  32.539  33.506  1.00  0.00    -0.248 NA
ATOM     56  C   UNL A   1      37.301  34.149  33.324  1.00  0.00     0.031 C 
ATOM     57  C   UNL A   1      41.778  32.186  36.906  1.00  0.00     0.029 A 
ATOM     58  C   UNL A   1      40.853  32.304  35.883  1.00  0.00     0.049 A 
ATOM     59  H   UNL A   1      40.557  31.062  34.203  1.00  0.00     0.167 HD
ATOM     60  C   UNL A   1      39.008  33.362  34.628  1.00  0.00     0.074 A 
ATOM     61  C   UNL A   1      37.968  34.350  34.453  1.00  0.00     0.031 C 
ATOM     62  C   UNL A   1      39.834  33.306  35.701  1.00  0.00     0.037 A 
BRANCH  49  63
ATOM     63  C   UNL A   1      43.582  28.421  35.639  1.00  0.00     0.058 A 
ATOM     64  C   UNL A   1      43.226  27.421  36.557  1.00  0.00     0.135 A 
ATOM     65  C   UNL A   1      44.943  28.617  35.366  1.00  0.00     0.135 A 
ATOM     66  F   UNL A   1      41.936  27.209  36.860  1.00  0.00    -0.206 F 
ATOM     67  C   UNL A   1      44.189  26.651  37.195  1.00  0.00     0.059 A 
ATOM     68  C   UNL A   1      45.924  27.842  35.976  1.00  0.00     0.059 A 
ATOM     69  F   UNL A   1      45.331  29.564  34.497  1.00  0.00    -0.206 F 
ATOM     70  C   UNL A   1      45.536  26.867  36.896  1.00  0.00     0.060 A 
BRANCH  70  71
ATOM     71  S   UNL A   1      46.771  25.839  37.715  1.00  0.00     0.124 S 
ATOM     72  O   UNL A   1      46.592  26.230  39.111  1.00  0.00    -0.237 OA
ATOM     73  O   UNL A   1      46.330  24.490  37.373  1.00  0.00    -0.237 OA
ATOM     74  O   UNL A   1      48.025  26.261  37.101  1.00  0.00    -0.744 OA
ENDBRANCH  70  71
ENDBRANCH  49  63
BRANCH  50  75
ATOM     75  C   UNL A   1      36.465  33.230  30.693  1.00  0.00     0.058 A 
ATOM     76  C   UNL A   1      36.670  34.149  29.654  1.00  0.00     0.135 A 
ATOM     77  C   UNL A   1      35.150  33.032  31.142  1.00  0.00     0.135 A 
ATOM     78  F   UNL A   1      37.912  34.380  29.202  1.00  0.00    -0.206 F 
ATOM     79  C   UNL A   1      35.621  34.887  29.115  1.00  0.00     0.059 A 
ATOM     80  C   UNL A   1      34.080  33.744  30.604  1.00  0.00     0.059 A 
ATOM     81  F   UNL A   1      34.901  32.155  32.127  1.00  0.00    -0.206 F 
ATOM     82  C   UNL A   1      34.330  34.685  29.606  1.00  0.00     0.060 A 
BRANCH  82  83
ATOM     83  S   UNL A   1      32.982  35.674  28.919  1.00  0.00     0.124 S 
ATOM     84  O   UNL A   1      32.351  34.719  28.015  1.00  0.00    -0.237 OA
ATOM     85  O   UNL A   1      32.218  36.022  30.114  1.00  0.00    -0.237 OA
ATOM     86  O   UNL A   1      33.675  36.787  28.279  1.00  0.00    -0.744 OA
ENDBRANCH  82  83
ENDBRANCH  50  75
BRANCH  62  87
ATOM     87  C   UNL A   1      39.692  34.362  36.763  1.00  0.00     0.058 A 
ATOM     88  C   UNL A   1      38.976  34.126  37.945  1.00  0.00     0.135 A 
ATOM     89  C   UNL A   1      40.353  35.595  36.631  1.00  0.00     0.135 A 
ATOM     90  F   UNL A   1      38.318  32.968  38.115  1.00  0.00    -0.206 F 
ATOM     91  C   UNL A   1      38.916  35.075  38.961  1.00  0.00     0.059 A 
ATOM     92  C   UNL A   1      40.328  36.549  37.644  1.00  0.00     0.059 A 
ATOM     93  F   UNL A   1      41.058  35.870  35.522  1.00  0.00    -0.206 F 
ATOM     94  C   UNL A   1      39.604  36.281  38.804  1.00  0.00     0.060 A 
BRANCH  94  95
ATOM     95  S   UNL A   1      39.579  37.474  40.161  1.00  0.00     0.124 S 
ATOM     96  O   UNL A   1      40.987  37.843  40.256  1.00  0.00    -0.237 OA
ATOM     97  O   UNL A   1      38.685  38.508  39.650  1.00  0.00    -0.237 OA
ATOM     98  O   UNL A   1      39.054  36.701  41.283  1.00  0.00    -0.744 OA
ENDBRANCH  94  95
ENDBRANCH  62  87
ENDBRANCH  36  37
ENDBRANCH  29  31
ENDBRANCH  28  29
ENDBRANCH   1  28
TORSDOF 16
ENDMDL
