MODEL 1
REMARK VINA RESULT:     -11.8      0.000      0.000
REMARK SMILES O=C(CCN1C(=O)/C(=C/c2cc(Br)cc(Br)c2O)SC1=S)OCCOC(=O)c1ccc(-c2c3nc(c(-c4c(F)cc(S(=O)(=O)[O-])cc4F)c4ccc([nH]4)c(-c4c(F)cc(S(=O)(=O)[O-])cc4F)c4nc(c(-c5c(F)cc(S(=O)(=O)[O-])cc5F)c5ccc2[nH]5)C=C4)C=C3)cc1
REMARK SMILES IDX 23 1 22 2 2 3 1 4 3 5 4 6 5 7 6 8 20 9 7 10 8 11 19 12 21 13
REMARK SMILES IDX 9 14 10 15 11 16 17 17 12 18 15 19 13 20 14 21 16 22 18 23
REMARK SMILES IDX 24 25 25 26 26 27 27 28 28 29 29 30 93 31 30 32 92 33 31 34
REMARK SMILES IDX 32 35 33 36 86 37 34 38 91 39 85 40 87 41 35 42 90 43 84 44
REMARK SMILES IDX 83 45 36 47 70 48 49 49 69 50 50 51 53 52 68 53 88 54 51 55
REMARK SMILES IDX 52 56 67 58 89 59 54 60 37 61 38 62 47 63 39 64 40 65 46 66
REMARK SMILES IDX 48 67 41 68 42 69 43 70 44 71 45 72 71 73 72 74 81 75 73 76
REMARK SMILES IDX 74 77 80 78 82 79 75 80 76 81 77 82 78 83 79 84 55 85 56 86
REMARK SMILES IDX 65 87 57 88 58 89 64 90 66 91 59 92 60 93 61 94 62 95 63 96
REMARK H PARENT 18 24 87 46 53 57
REMARK Flexibility Score: inf
ROOT
ATOM      1  C   UNL A   1      33.026  30.233  27.222  1.00  0.00     0.274 C 
ENDROOT
BRANCH   1   2
ATOM      2  O   UNL A   1      33.434  29.781  25.917  1.00  0.00    -0.462 OA
BRANCH   2   3
ATOM      3  C   UNL A   1      32.472  29.597  24.981  1.00  0.00     0.307 C 
ATOM      4  O   UNL A   1      31.275  29.766  25.175  1.00  0.00    -0.252 OA
BRANCH   3   5
ATOM      5  C   UNL A   1      33.050  28.957  23.737  1.00  0.00     0.144 C 
BRANCH   5   6
ATOM      6  C   UNL A   1      32.124  28.230  22.746  1.00  0.00     0.139 C 
BRANCH   6   7
ATOM      7  N   UNL A   1      31.957  26.791  22.948  1.00  0.00    -0.292 N 
ATOM      8  C   UNL A   1      32.899  25.934  22.426  1.00  0.00     0.266 C 
ATOM      9  C   UNL A   1      30.928  26.179  23.628  1.00  0.00     0.148 C 
ATOM     10  O   UNL A   1      33.776  26.227  21.624  1.00  0.00    -0.268 OA
ATOM     11  C   UNL A   1      32.778  24.586  23.052  1.00  0.00     0.081 C 
ATOM     12  S   UNL A   1      31.441  24.557  24.113  1.00  0.00    -0.054 SA
ATOM     13  S   UNL A   1      29.416  26.787  23.954  1.00  0.00    -0.052 S 
ATOM     14  C   UNL A   1      33.777  23.721  22.833  1.00  0.00     0.033 C 
BRANCH  14  15
ATOM     15  C   UNL A   1      34.250  22.536  23.574  1.00  0.00     0.020 A 
ATOM     16  C   UNL A   1      33.426  21.450  23.894  1.00  0.00     0.027 A 
ATOM     17  C   UNL A   1      35.603  22.491  23.994  1.00  0.00     0.137 A 
ATOM     18  C   UNL A   1      33.929  20.371  24.632  1.00  0.00     0.019 A 
ATOM     19  C   UNL A   1      36.099  21.392  24.710  1.00  0.00     0.061 A 
ATOM     20  Br  UNL A   1      32.785  18.936  25.094  1.00  0.00    -0.051 Br
ATOM     21  C   UNL A   1      35.259  20.335  25.041  1.00  0.00     0.035 A 
ATOM     22  Br  UNL A   1      37.908  21.315  25.282  1.00  0.00    -0.047 Br
BRANCH  17  23
ATOM     23  O   UNL A   1      36.484  23.513  23.738  1.00  0.00    -0.506 OA
ATOM     24  H   UNL A   1      36.399  24.330  24.189  1.00  0.00     0.293 HD
ENDBRANCH  17  23
ENDBRANCH  14  15
ENDBRANCH   6   7
ENDBRANCH   5   6
ENDBRANCH   3   5
ENDBRANCH   2   3
ENDBRANCH   1   2
BRANCH   1  25
ATOM     25  C   UNL A   1      33.981  31.353  27.661  1.00  0.00     0.275 C 
BRANCH  25  26
ATOM     26  O   UNL A   1      35.302  30.802  27.854  1.00  0.00    -0.458 OA
BRANCH  26  27
ATOM     27  C   UNL A   1      35.933  30.989  29.028  1.00  0.00     0.338 C 
ATOM     28  O   UNL A   1      35.475  31.491  30.040  1.00  0.00    -0.246 OA
BRANCH  27  29
ATOM     29  C   UNL A   1      37.276  30.371  28.918  1.00  0.00     0.060 A 
ATOM     30  C   UNL A   1      38.045  30.213  30.075  1.00  0.00     0.016 A 
ATOM     31  C   UNL A   1      37.781  29.953  27.684  1.00  0.00     0.016 A 
ATOM     32  C   UNL A   1      39.328  29.646  30.000  1.00  0.00     0.010 A 
ATOM     33  C   UNL A   1      39.064  29.380  27.615  1.00  0.00     0.010 A 
ATOM     34  C   UNL A   1      39.861  29.235  28.768  1.00  0.00    -0.014 A 
BRANCH  34  35
ATOM     35  C   UNL A   1      41.275  28.760  28.649  1.00  0.00     0.031 A 
ATOM     36  C   UNL A   1      42.400  29.764  28.726  1.00  0.00     0.074 A 
ATOM     37  C   UNL A   1      41.585  27.462  28.447  1.00  0.00     0.049 A 
ATOM     38  N   UNL A   1      43.681  29.596  28.509  1.00  0.00    -0.248 NA
ATOM     39  C   UNL A   1      42.031  31.137  29.104  1.00  0.00     0.031 C 
ATOM     40  C   UNL A   1      40.627  26.359  28.402  1.00  0.00     0.029 A 
ATOM     41  N   UNL A   1      42.803  26.854  28.217  1.00  0.00    -0.354 N 
ATOM     42  C   UNL A   1      44.268  30.844  28.693  1.00  0.00     0.074 A 
ATOM     43  C   UNL A   1      43.201  31.759  29.044  1.00  0.00     0.031 C 
ATOM     44  C   UNL A   1      41.287  25.218  28.126  1.00  0.00     0.029 A 
ATOM     45  C   UNL A   1      42.708  25.512  27.924  1.00  0.00     0.049 A 
ATOM     46  H   UNL A   1      43.659  27.337  28.258  1.00  0.00     0.167 HD
ATOM     47  C   UNL A   1      45.570  31.201  28.571  1.00  0.00     0.037 A 
ATOM     48  C   UNL A   1      43.639  24.629  27.494  1.00  0.00     0.037 A 
ATOM     49  C   UNL A   1      46.645  30.299  28.242  1.00  0.00     0.049 A 
ATOM     50  C   UNL A   1      45.071  25.073  27.282  1.00  0.00     0.074 A 
ATOM     51  C   UNL A   1      47.999  30.582  28.156  1.00  0.00     0.029 A 
ATOM     52  N   UNL A   1      46.500  28.959  27.927  1.00  0.00    -0.354 N 
ATOM     53  N   UNL A   1      45.616  26.245  27.504  1.00  0.00    -0.248 NA
ATOM     54  C   UNL A   1      46.016  24.073  26.751  1.00  0.00     0.031 C 
ATOM     55  C   UNL A   1      48.662  29.434  27.716  1.00  0.00     0.029 A 
ATOM     56  C   UNL A   1      47.732  28.416  27.596  1.00  0.00     0.049 A 
ATOM     57  H   UNL A   1      45.648  28.465  27.937  1.00  0.00     0.167 HD
ATOM     58  C   UNL A   1      46.962  26.115  27.160  1.00  0.00     0.074 A 
ATOM     59  C   UNL A   1      47.158  24.747  26.736  1.00  0.00     0.031 C 
ATOM     60  C   UNL A   1      47.943  27.050  27.187  1.00  0.00     0.037 A 
BRANCH  47  61
ATOM     61  C   UNL A   1      45.928  32.651  28.750  1.00  0.00     0.058 A 
ATOM     62  C   UNL A   1      45.886  33.566  27.689  1.00  0.00     0.135 A 
ATOM     63  C   UNL A   1      46.212  33.146  30.035  1.00  0.00     0.135 A 
ATOM     64  F   UNL A   1      45.632  33.143  26.440  1.00  0.00    -0.206 F 
ATOM     65  C   UNL A   1      46.119  34.922  27.893  1.00  0.00     0.059 A 
ATOM     66  C   UNL A   1      46.422  34.501  30.266  1.00  0.00     0.059 A 
ATOM     67  F   UNL A   1      46.262  32.311  31.085  1.00  0.00    -0.206 F 
ATOM     68  C   UNL A   1      46.377  35.382  29.188  1.00  0.00     0.060 A 
BRANCH  68  69
ATOM     69  S   UNL A   1      46.632  37.151  29.441  1.00  0.00     0.124 S 
ATOM     70  O   UNL A   1      47.875  37.374  28.709  1.00  0.00    -0.237 OA
ATOM     71  O   UNL A   1      45.431  37.726  28.841  1.00  0.00    -0.237 OA
ATOM     72  O   UNL A   1      46.728  37.279  30.892  1.00  0.00    -0.744 OA
ENDBRANCH  68  69
ENDBRANCH  47  61
BRANCH  48  73
ATOM     73  C   UNL A   1      43.251  23.229  27.145  1.00  0.00     0.058 A 
ATOM     74  C   UNL A   1      43.017  22.261  28.135  1.00  0.00     0.135 A 
ATOM     75  C   UNL A   1      43.183  22.813  25.805  1.00  0.00     0.135 A 
ATOM     76  F   UNL A   1      43.094  22.598  29.432  1.00  0.00    -0.206 F 
ATOM     77  C   UNL A   1      42.762  20.931  27.813  1.00  0.00     0.059 A 
ATOM     78  C   UNL A   1      42.896  21.496  25.457  1.00  0.00     0.059 A 
ATOM     79  F   UNL A   1      43.399  23.692  24.814  1.00  0.00    -0.206 F 
ATOM     80  C   UNL A   1      42.703  20.559  26.468  1.00  0.00     0.060 A 
BRANCH  80  81
ATOM     81  S   UNL A   1      42.349  18.835  26.058  1.00  0.00     0.124 S 
ATOM     82  O   UNL A   1      42.664  18.163  27.312  1.00  0.00    -0.237 OA
ATOM     83  O   UNL A   1      40.935  18.892  25.700  1.00  0.00    -0.237 OA
ATOM     84  O   UNL A   1      43.257  18.562  24.948  1.00  0.00    -0.744 OA
ENDBRANCH  80  81
ENDBRANCH  48  73
BRANCH  60  85
ATOM     85  C   UNL A   1      49.338  26.644  26.781  1.00  0.00     0.058 A 
ATOM     86  C   UNL A   1      50.240  26.077  27.695  1.00  0.00     0.135 A 
ATOM     87  C   UNL A   1      49.748  26.737  25.439  1.00  0.00     0.135 A 
ATOM     88  F   UNL A   1      49.909  25.969  28.991  1.00  0.00    -0.206 F 
ATOM     89  C   UNL A   1      51.498  25.627  27.299  1.00  0.00     0.059 A 
ATOM     90  C   UNL A   1      50.989  26.268  25.014  1.00  0.00     0.059 A 
ATOM     91  F   UNL A   1      48.924  27.261  24.517  1.00  0.00    -0.206 F 
ATOM     92  C   UNL A   1      51.859  25.718  25.953  1.00  0.00     0.060 A 
BRANCH  92  93
ATOM     93  S   UNL A   1      53.469  25.073  25.443  1.00  0.00     0.124 S 
ATOM     94  O   UNL A   1      54.304  25.421  26.588  1.00  0.00    -0.237 OA
ATOM     95  O   UNL A   1      53.193  23.650  25.270  1.00  0.00    -0.237 OA
ATOM     96  O   UNL A   1      53.755  25.804  24.212  1.00  0.00    -0.744 OA
ENDBRANCH  92  93
ENDBRANCH  60  85
ENDBRANCH  34  35
ENDBRANCH  27  29
ENDBRANCH  26  27
ENDBRANCH  25  26
ENDBRANCH   1  25
TORSDOF 18
ENDMDL
MODEL 2
REMARK VINA RESULT:     -11.6      1.541      2.277
REMARK SMILES O=C(CCN1C(=O)/C(=C/c2cc(Br)cc(Br)c2O)SC1=S)OCCOC(=O)c1ccc(-c2c3nc(c(-c4c(F)cc(S(=O)(=O)[O-])cc4F)c4ccc([nH]4)c(-c4c(F)cc(S(=O)(=O)[O-])cc4F)c4nc(c(-c5c(F)cc(S(=O)(=O)[O-])cc5F)c5ccc2[nH]5)C=C4)C=C3)cc1
REMARK SMILES IDX 23 1 22 2 2 3 1 4 3 5 4 6 5 7 6 8 20 9 7 10 8 11 19 12 21 13
REMARK SMILES IDX 9 14 10 15 11 16 17 17 12 18 15 19 13 20 14 21 16 22 18 23
REMARK SMILES IDX 24 25 25 26 26 27 27 28 28 29 29 30 93 31 30 32 92 33 31 34
REMARK SMILES IDX 32 35 33 36 86 37 34 38 91 39 85 40 87 41 35 42 90 43 84 44
REMARK SMILES IDX 83 45 36 47 70 48 49 49 69 50 50 51 53 52 68 53 88 54 51 55
REMARK SMILES IDX 52 56 67 58 89 59 54 60 37 61 38 62 47 63 39 64 40 65 46 66
REMARK SMILES IDX 48 67 41 68 42 69 43 70 44 71 45 72 71 73 72 74 81 75 73 76
REMARK SMILES IDX 74 77 80 78 82 79 75 80 76 81 77 82 78 83 79 84 55 85 56 86
REMARK SMILES IDX 65 87 57 88 58 89 64 90 66 91 59 92 60 93 61 94 62 95 63 96
REMARK H PARENT 18 24 87 46 53 57
REMARK Flexibility Score: inf
ROOT
ATOM      1  C   UNL A   1      31.785  29.772  26.786  1.00  0.00     0.274 C 
ENDROOT
BRANCH   1   2
ATOM      2  O   UNL A   1      31.557  28.868  25.689  1.00  0.00    -0.462 OA
BRANCH   2   3
ATOM      3  C   UNL A   1      31.247  29.400  24.483  1.00  0.00     0.307 C 
ATOM      4  O   UNL A   1      30.257  30.083  24.260  1.00  0.00    -0.252 OA
BRANCH   3   5
ATOM      5  C   UNL A   1      32.171  28.866  23.408  1.00  0.00     0.144 C 
BRANCH   5   6
ATOM      6  C   UNL A   1      31.627  27.909  22.334  1.00  0.00     0.139 C 
BRANCH   6   7
ATOM      7  N   UNL A   1      31.593  26.489  22.684  1.00  0.00    -0.292 N 
ATOM      8  C   UNL A   1      32.567  25.659  22.178  1.00  0.00     0.266 C 
ATOM      9  C   UNL A   1      30.665  25.872  23.492  1.00  0.00     0.148 C 
ATOM     10  O   UNL A   1      33.363  25.935  21.290  1.00  0.00    -0.268 OA
ATOM     11  C   UNL A   1      32.600  24.375  22.937  1.00  0.00     0.081 C 
ATOM     12  S   UNL A   1      31.341  24.351  24.091  1.00  0.00    -0.054 SA
ATOM     13  S   UNL A   1      29.132  26.392  23.868  1.00  0.00    -0.052 S 
ATOM     14  C   UNL A   1      33.651  23.572  22.730  1.00  0.00     0.033 C 
BRANCH  14  15
ATOM     15  C   UNL A   1      34.268  22.507  23.544  1.00  0.00     0.020 A 
ATOM     16  C   UNL A   1      35.582  22.569  24.024  1.00  0.00     0.027 A 
ATOM     17  C   UNL A   1      33.502  21.355  23.852  1.00  0.00     0.137 A 
ATOM     18  C   UNL A   1      36.120  21.507  24.761  1.00  0.00     0.019 A 
ATOM     19  C   UNL A   1      34.046  20.310  24.612  1.00  0.00     0.061 A 
ATOM     20  Br  UNL A   1      37.912  21.593  25.360  1.00  0.00    -0.051 Br
ATOM     21  C   UNL A   1      35.360  20.379  25.059  1.00  0.00     0.035 A 
ATOM     22  Br  UNL A   1      33.034  18.758  25.034  1.00  0.00    -0.047 Br
BRANCH  17  23
ATOM     23  O   UNL A   1      32.208  21.197  23.415  1.00  0.00    -0.506 OA
ATOM     24  H   UNL A   1      31.498  21.264  24.022  1.00  0.00     0.293 HD
ENDBRANCH  17  23
ENDBRANCH  14  15
ENDBRANCH   6   7
ENDBRANCH   5   6
ENDBRANCH   3   5
ENDBRANCH   2   3
ENDBRANCH   1   2
BRANCH   1  25
ATOM     25  C   UNL A   1      33.251  30.229  26.734  1.00  0.00     0.275 C 
BRANCH  25  26
ATOM     26  O   UNL A   1      33.880  29.951  28.004  1.00  0.00    -0.458 OA
BRANCH  26  27
ATOM     27  C   UNL A   1      34.658  30.889  28.577  1.00  0.00     0.338 C 
ATOM     28  O   UNL A   1      34.304  31.961  29.035  1.00  0.00    -0.246 OA
BRANCH  27  29
ATOM     29  C   UNL A   1      36.033  30.342  28.657  1.00  0.00     0.060 A 
ATOM     30  C   UNL A   1      36.507  29.882  29.890  1.00  0.00     0.016 A 
ATOM     31  C   UNL A   1      36.856  30.285  27.530  1.00  0.00     0.016 A 
ATOM     32  C   UNL A   1      37.811  29.373  30.001  1.00  0.00     0.010 A 
ATOM     33  C   UNL A   1      38.160  29.769  27.645  1.00  0.00     0.010 A 
ATOM     34  C   UNL A   1      38.661  29.323  28.885  1.00  0.00    -0.014 A 
BRANCH  34  35
ATOM     35  C   UNL A   1      40.096  28.916  29.013  1.00  0.00     0.031 A 
ATOM     36  C   UNL A   1      41.127  29.957  29.378  1.00  0.00     0.074 A 
ATOM     37  C   UNL A   1      40.509  27.652  28.787  1.00  0.00     0.049 A 
ATOM     38  N   UNL A   1      42.433  29.858  29.406  1.00  0.00    -0.248 NA
ATOM     39  C   UNL A   1      40.617  31.280  29.770  1.00  0.00     0.031 C 
ATOM     40  C   UNL A   1      39.641  26.518  28.479  1.00  0.00     0.029 A 
ATOM     41  N   UNL A   1      41.780  27.114  28.759  1.00  0.00    -0.354 N 
ATOM     42  C   UNL A   1      42.904  31.111  29.786  1.00  0.00     0.074 A 
ATOM     43  C   UNL A   1      41.741  31.952  29.984  1.00  0.00     0.031 C 
ATOM     44  C   UNL A   1      40.403  25.430  28.261  1.00  0.00     0.029 A 
ATOM     45  C   UNL A   1      41.818  25.796  28.362  1.00  0.00     0.049 A 
ATOM     46  H   UNL A   1      42.585  27.626  29.001  1.00  0.00     0.167 HD
ATOM     47  C   UNL A   1      44.183  31.528  29.947  1.00  0.00     0.037 A 
ATOM     48  C   UNL A   1      42.861  24.988  28.063  1.00  0.00     0.037 A 
ATOM     49  C   UNL A   1      45.350  30.700  29.775  1.00  0.00     0.049 A 
ATOM     50  C   UNL A   1      44.281  25.505  28.167  1.00  0.00     0.074 A 
ATOM     51  C   UNL A   1      46.678  31.043  29.975  1.00  0.00     0.029 A 
ATOM     52  N   UNL A   1      45.343  29.384  29.346  1.00  0.00    -0.354 N 
ATOM     53  N   UNL A   1      44.708  26.677  28.571  1.00  0.00    -0.248 NA
ATOM     54  C   UNL A   1      45.364  24.589  27.765  1.00  0.00     0.031 C 
ATOM     55  C   UNL A   1      47.476  29.961  29.596  1.00  0.00     0.029 A 
ATOM     56  C   UNL A   1      46.643  28.918  29.226  1.00  0.00     0.049 A 
ATOM     57  H   UNL A   1      44.533  28.856  29.154  1.00  0.00     0.167 HD
ATOM     58  C   UNL A   1      46.100  26.629  28.490  1.00  0.00     0.074 A 
ATOM     59  C   UNL A   1      46.449  25.308  28.020  1.00  0.00     0.031 C 
ATOM     60  C   UNL A   1      47.004  27.598  28.774  1.00  0.00     0.037 A 
BRANCH  47  61
ATOM     61  C   UNL A   1      44.420  32.974  30.292  1.00  0.00     0.058 A 
ATOM     62  C   UNL A   1      44.463  33.977  29.314  1.00  0.00     0.135 A 
ATOM     63  C   UNL A   1      44.496  33.366  31.640  1.00  0.00     0.135 A 
ATOM     64  F   UNL A   1      44.407  33.655  28.011  1.00  0.00    -0.206 F 
ATOM     65  C   UNL A   1      44.578  35.320  29.658  1.00  0.00     0.059 A 
ATOM     66  C   UNL A   1      44.584  34.703  32.009  1.00  0.00     0.059 A 
ATOM     67  F   UNL A   1      44.457  32.443  32.615  1.00  0.00    -0.206 F 
ATOM     68  C   UNL A   1      44.629  35.674  31.010  1.00  0.00     0.060 A 
BRANCH  68  69
ATOM     69  S   UNL A   1      44.733  37.424  31.440  1.00  0.00     0.124 S 
ATOM     70  O   UNL A   1      44.415  38.057  30.163  1.00  0.00    -0.237 OA
ATOM     71  O   UNL A   1      43.715  37.549  32.479  1.00  0.00    -0.237 OA
ATOM     72  O   UNL A   1      46.111  37.585  31.893  1.00  0.00    -0.744 OA
ENDBRANCH  68  69
ENDBRANCH  47  61
BRANCH  48  73
ATOM     73  C   UNL A   1      42.625  23.605  27.549  1.00  0.00     0.058 A 
ATOM     74  C   UNL A   1      42.553  22.501  28.413  1.00  0.00     0.135 A 
ATOM     75  C   UNL A   1      42.547  23.352  26.169  1.00  0.00     0.135 A 
ATOM     76  F   UNL A   1      42.649  22.681  29.740  1.00  0.00    -0.206 F 
ATOM     77  C   UNL A   1      42.442  21.200  27.931  1.00  0.00     0.059 A 
ATOM     78  C   UNL A   1      42.401  22.064  25.664  1.00  0.00     0.059 A 
ATOM     79  F   UNL A   1      42.612  24.368  25.293  1.00  0.00    -0.206 F 
ATOM     80  C   UNL A   1      42.367  20.992  26.552  1.00  0.00     0.060 A 
BRANCH  80  81
ATOM     81  S   UNL A   1      42.200  19.302  25.935  1.00  0.00     0.124 S 
ATOM     82  O   UNL A   1      40.773  19.234  25.647  1.00  0.00    -0.237 OA
ATOM     83  O   UNL A   1      43.087  19.312  24.776  1.00  0.00    -0.237 OA
ATOM     84  O   UNL A   1      42.658  18.489  27.058  1.00  0.00    -0.744 OA
ENDBRANCH  80  81
ENDBRANCH  48  73
BRANCH  60  85
ATOM     85  C   UNL A   1      48.471  27.282  28.623  1.00  0.00     0.058 A 
ATOM     86  C   UNL A   1      49.184  27.614  27.460  1.00  0.00     0.135 A 
ATOM     87  C   UNL A   1      49.196  26.724  29.690  1.00  0.00     0.135 A 
ATOM     88  F   UNL A   1      48.545  28.142  26.404  1.00  0.00    -0.206 F 
ATOM     89  C   UNL A   1      50.556  27.395  27.356  1.00  0.00     0.059 A 
ATOM     90  C   UNL A   1      50.573  26.523  29.620  1.00  0.00     0.059 A 
ATOM     91  F   UNL A   1      48.571  26.395  30.832  1.00  0.00    -0.206 F 
ATOM     92  C   UNL A   1      51.244  26.858  28.446  1.00  0.00     0.060 A 
BRANCH  92  93
ATOM     93  S   UNL A   1      53.033  26.639  28.318  1.00  0.00     0.124 S 
ATOM     94  O   UNL A   1      53.463  27.960  27.870  1.00  0.00    -0.237 OA
ATOM     95  O   UNL A   1      53.401  26.283  29.686  1.00  0.00    -0.237 OA
ATOM     96  O   UNL A   1      53.178  25.567  27.339  1.00  0.00    -0.744 OA
ENDBRANCH  92  93
ENDBRANCH  60  85
ENDBRANCH  34  35
ENDBRANCH  27  29
ENDBRANCH  26  27
ENDBRANCH  25  26
ENDBRANCH   1  25
TORSDOF 18
ENDMDL
MODEL 3
REMARK VINA RESULT:     -11.3      6.751     12.148
REMARK SMILES O=C(CCN1C(=O)/C(=C/c2cc(Br)cc(Br)c2O)SC1=S)OCCOC(=O)c1ccc(-c2c3nc(c(-c4c(F)cc(S(=O)(=O)[O-])cc4F)c4ccc([nH]4)c(-c4c(F)cc(S(=O)(=O)[O-])cc4F)c4nc(c(-c5c(F)cc(S(=O)(=O)[O-])cc5F)c5ccc2[nH]5)C=C4)C=C3)cc1
REMARK SMILES IDX 23 1 22 2 2 3 1 4 3 5 4 6 5 7 6 8 20 9 7 10 8 11 19 12 21 13
REMARK SMILES IDX 9 14 10 15 11 16 17 17 12 18 15 19 13 20 14 21 16 22 18 23
REMARK SMILES IDX 24 25 25 26 26 27 27 28 28 29 29 30 93 31 30 32 92 33 31 34
REMARK SMILES IDX 32 35 33 36 86 37 34 38 91 39 85 40 87 41 35 42 90 43 84 44
REMARK SMILES IDX 83 45 36 47 70 48 49 49 69 50 50 51 53 52 68 53 88 54 51 55
REMARK SMILES IDX 52 56 67 58 89 59 54 60 37 61 38 62 47 63 39 64 40 65 46 66
REMARK SMILES IDX 48 67 41 68 42 69 43 70 44 71 45 72 71 73 72 74 81 75 73 76
REMARK SMILES IDX 74 77 80 78 82 79 75 80 76 81 77 82 78 83 79 84 55 85 56 86
REMARK SMILES IDX 65 87 57 88 58 89 64 90 66 91 59 92 60 93 61 94 62 95 63 96
REMARK H PARENT 18 24 87 46 53 57
REMARK Flexibility Score: inf
ROOT
ATOM      1  C   UNL A   1      37.773  22.470  25.150  1.00  0.00     0.274 C 
ENDROOT
BRANCH   1   2
ATOM      2  O   UNL A   1      36.617  21.831  25.722  1.00  0.00    -0.462 OA
BRANCH   2   3
ATOM      3  C   UNL A   1      35.580  22.617  26.098  1.00  0.00     0.307 C 
ATOM      4  O   UNL A   1      35.499  23.816  25.866  1.00  0.00    -0.252 OA
BRANCH   3   5
ATOM      5  C   UNL A   1      34.643  21.864  27.020  1.00  0.00     0.144 C 
BRANCH   5   6
ATOM      6  C   UNL A   1      33.236  21.476  26.536  1.00  0.00     0.139 C 
BRANCH   6   7
ATOM      7  N   UNL A   1      32.515  22.483  25.758  1.00  0.00    -0.292 N 
ATOM      8  C   UNL A   1      31.841  23.480  26.428  1.00  0.00     0.266 C 
ATOM      9  C   UNL A   1      32.434  22.548  24.386  1.00  0.00     0.148 C 
ATOM     10  O   UNL A   1      31.604  23.512  27.628  1.00  0.00    -0.268 OA
ATOM     11  C   UNL A   1      31.512  24.598  25.497  1.00  0.00     0.081 C 
ATOM     12  S   UNL A   1      31.991  24.193  23.909  1.00  0.00    -0.054 SA
ATOM     13  S   UNL A   1      32.671  21.320  23.291  1.00  0.00    -0.052 S 
ATOM     14  C   UNL A   1      31.084  25.742  26.048  1.00  0.00     0.033 C 
BRANCH  14  15
ATOM     15  C   UNL A   1      31.084  27.138  25.572  1.00  0.00     0.020 A 
ATOM     16  C   UNL A   1      30.479  27.544  24.376  1.00  0.00     0.027 A 
ATOM     17  C   UNL A   1      31.735  28.124  26.355  1.00  0.00     0.137 A 
ATOM     18  C   UNL A   1      30.547  28.881  23.964  1.00  0.00     0.019 A 
ATOM     19  C   UNL A   1      31.773  29.464  25.943  1.00  0.00     0.061 A 
ATOM     20  Br  UNL A   1      29.764  29.397  22.321  1.00  0.00    -0.051 Br
ATOM     21  C   UNL A   1      31.189  29.843  24.739  1.00  0.00     0.035 A 
ATOM     22  Br  UNL A   1      32.641  30.798  26.979  1.00  0.00    -0.047 Br
BRANCH  17  23
ATOM     23  O   UNL A   1      32.367  27.821  27.538  1.00  0.00    -0.506 OA
ATOM     24  H   UNL A   1      32.795  28.496  28.026  1.00  0.00     0.293 HD
ENDBRANCH  17  23
ENDBRANCH  14  15
ENDBRANCH   6   7
ENDBRANCH   5   6
ENDBRANCH   3   5
ENDBRANCH   2   3
ENDBRANCH   1   2
BRANCH   1  25
ATOM     25  C   UNL A   1      38.911  22.416  26.181  1.00  0.00     0.275 C 
BRANCH  25  26
ATOM     26  O   UNL A   1      39.121  23.737  26.725  1.00  0.00    -0.458 OA
BRANCH  26  27
ATOM     27  C   UNL A   1      40.378  24.172  26.940  1.00  0.00     0.338 C 
ATOM     28  O   UNL A   1      41.400  23.757  26.423  1.00  0.00    -0.246 OA
BRANCH  27  29
ATOM     29  C   UNL A   1      40.297  25.339  27.849  1.00  0.00     0.060 A 
ATOM     30  C   UNL A   1      41.315  26.297  27.814  1.00  0.00     0.016 A 
ATOM     31  C   UNL A   1      39.230  25.492  28.738  1.00  0.00     0.016 A 
ATOM     32  C   UNL A   1      41.276  27.406  28.675  1.00  0.00     0.010 A 
ATOM     33  C   UNL A   1      39.191  26.607  29.595  1.00  0.00     0.010 A 
ATOM     34  C   UNL A   1      40.222  27.569  29.587  1.00  0.00    -0.014 A 
BRANCH  34  35
ATOM     35  C   UNL A   1      40.233  28.665  30.607  1.00  0.00     0.031 A 
ATOM     36  C   UNL A   1      41.131  28.539  31.814  1.00  0.00     0.074 A 
ATOM     37  C   UNL A   1      39.448  29.757  30.500  1.00  0.00     0.049 A 
ATOM     38  N   UNL A   1      41.198  29.294  32.882  1.00  0.00    -0.248 NA
ATOM     39  C   UNL A   1      42.083  27.418  31.812  1.00  0.00     0.031 C 
ATOM     40  C   UNL A   1      38.565  30.060  29.375  1.00  0.00     0.029 A 
ATOM     41  N   UNL A   1      39.248  30.808  31.371  1.00  0.00    -0.354 N 
ATOM     42  C   UNL A   1      42.174  28.725  33.694  1.00  0.00     0.074 A 
ATOM     43  C   UNL A   1      42.676  27.563  32.991  1.00  0.00     0.031 C 
ATOM     44  C   UNL A   1      37.896  31.198  29.639  1.00  0.00     0.029 A 
ATOM     45  C   UNL A   1      38.261  31.682  30.972  1.00  0.00     0.049 A 
ATOM     46  H   UNL A   1      39.765  30.923  32.201  1.00  0.00     0.167 HD
ATOM     47  C   UNL A   1      42.606  29.124  34.915  1.00  0.00     0.037 A 
ATOM     48  C   UNL A   1      37.679  32.719  31.618  1.00  0.00     0.037 A 
ATOM     49  C   UNL A   1      42.132  30.288  35.619  1.00  0.00     0.049 A 
ATOM     50  C   UNL A   1      38.121  33.091  33.018  1.00  0.00     0.074 A 
ATOM     51  C   UNL A   1      42.566  30.784  36.839  1.00  0.00     0.029 A 
ATOM     52  N   UNL A   1      41.115  31.125  35.192  1.00  0.00    -0.354 N 
ATOM     53  N   UNL A   1      39.074  32.570  33.751  1.00  0.00    -0.248 NA
ATOM     54  C   UNL A   1      37.397  34.190  33.683  1.00  0.00     0.031 C 
ATOM     55  C   UNL A   1      41.762  31.873  37.184  1.00  0.00     0.029 A 
ATOM     56  C   UNL A   1      40.874  32.101  36.147  1.00  0.00     0.049 A 
ATOM     57  H   UNL A   1      40.635  31.039  34.337  1.00  0.00     0.167 HD
ATOM     58  C   UNL A   1      39.077  33.288  34.947  1.00  0.00     0.074 A 
ATOM     59  C   UNL A   1      38.046  34.295  34.836  1.00  0.00     0.031 C 
ATOM     60  C   UNL A   1      39.860  33.120  36.041  1.00  0.00     0.037 A 
BRANCH  47  61
ATOM     61  C   UNL A   1      43.629  28.273  35.618  1.00  0.00     0.058 A 
ATOM     62  C   UNL A   1      45.006  28.474  35.453  1.00  0.00     0.135 A 
ATOM     63  C   UNL A   1      43.211  27.313  36.557  1.00  0.00     0.135 A 
ATOM     64  F   UNL A   1      45.458  29.369  34.560  1.00  0.00    -0.206 F 
ATOM     65  C   UNL A   1      45.937  27.748  36.191  1.00  0.00     0.059 A 
ATOM     66  C   UNL A   1      44.123  26.596  37.324  1.00  0.00     0.059 A 
ATOM     67  F   UNL A   1      41.903  27.086  36.754  1.00  0.00    -0.206 F 
ATOM     68  C   UNL A   1      45.485  26.817  37.130  1.00  0.00     0.060 A 
BRANCH  68  69
ATOM     69  S   UNL A   1      46.705  25.918  38.110  1.00  0.00     0.124 S 
ATOM     70  O   UNL A   1      47.510  27.011  38.648  1.00  0.00    -0.237 OA
ATOM     71  O   UNL A   1      45.869  25.212  39.076  1.00  0.00    -0.237 OA
ATOM     72  O   UNL A   1      47.376  25.071  37.129  1.00  0.00    -0.744 OA
ENDBRANCH  68  69
ENDBRANCH  47  61
BRANCH  48  73
ATOM     73  C   UNL A   1      36.539  33.456  30.993  1.00  0.00     0.058 A 
ATOM     74  C   UNL A   1      35.215  33.260  31.418  1.00  0.00     0.135 A 
ATOM     75  C   UNL A   1      36.748  34.315  29.901  1.00  0.00     0.135 A 
ATOM     76  F   UNL A   1      34.955  32.430  32.440  1.00  0.00    -0.206 F 
ATOM     77  C   UNL A   1      34.141  33.862  30.768  1.00  0.00     0.059 A 
ATOM     78  C   UNL A   1      35.693  34.955  29.257  1.00  0.00     0.059 A 
ATOM     79  F   UNL A   1      37.991  34.540  29.449  1.00  0.00    -0.206 F 
ATOM     80  C   UNL A   1      34.392  34.709  29.687  1.00  0.00     0.060 A 
BRANCH  80  81
ATOM     81  S   UNL A   1      32.995  35.504  28.862  1.00  0.00     0.124 S 
ATOM     82  O   UNL A   1      32.464  34.409  28.061  1.00  0.00    -0.237 OA
ATOM     83  O   UNL A   1      32.173  35.926  29.993  1.00  0.00    -0.237 OA
ATOM     84  O   UNL A   1      33.621  36.590  28.114  1.00  0.00    -0.744 OA
ENDBRANCH  80  81
ENDBRANCH  48  73
BRANCH  60  85
ATOM     85  C   UNL A   1      39.676  34.054  37.210  1.00  0.00     0.058 A 
ATOM     86  C   UNL A   1      38.928  33.688  38.340  1.00  0.00     0.135 A 
ATOM     87  C   UNL A   1      40.331  35.298  37.242  1.00  0.00     0.135 A 
ATOM     88  F   UNL A   1      38.273  32.517  38.366  1.00  0.00    -0.206 F 
ATOM     89  C   UNL A   1      38.829  34.521  39.453  1.00  0.00     0.059 A 
ATOM     90  C   UNL A   1      40.269  36.135  38.355  1.00  0.00     0.059 A 
ATOM     91  F   UNL A   1      41.069  35.700  36.194  1.00  0.00    -0.206 F 
ATOM     92  C   UNL A   1      39.512  35.739  39.455  1.00  0.00     0.060 A 
BRANCH  92  93
ATOM     93  S   UNL A   1      39.424  36.779  40.929  1.00  0.00     0.124 S 
ATOM     94  O   UNL A   1      38.586  35.974  41.812  1.00  0.00    -0.237 OA
ATOM     95  O   UNL A   1      40.828  36.891  41.315  1.00  0.00    -0.237 OA
ATOM     96  O   UNL A   1      38.815  38.013  40.442  1.00  0.00    -0.744 OA
ENDBRANCH  92  93
ENDBRANCH  60  85
ENDBRANCH  34  35
ENDBRANCH  27  29
ENDBRANCH  26  27
ENDBRANCH  25  26
ENDBRANCH   1  25
TORSDOF 18
ENDMDL
