MODEL 1
REMARK VINA RESULT:     -11.3      0.000      0.000
REMARK SMILES O=C(OCCOC(=O)c1cc(-c2cccc(Cl)c2)ccc1Cl)c1ccc(-c2c3nc(c(-c4c(F)cc(S(=O)(=O)[O-])cc4F)c4ccc([nH]4)c(-c4c(F)cc(S(=O)(=O)[O-])cc4F)c4nc(c(-c5c(F)cc(S(=O)(=O)[O-])cc5F)c5ccc2[nH]5)C=C4)C=C3)cc1
REMARK SMILES IDX 4 1 3 2 2 3 1 4 23 5 24 6 88 7 25 8 87 9 26 10 27 11 28 12
REMARK SMILES IDX 81 13 29 14 86 15 80 16 82 17 30 18 85 19 79 20 78 21 31 23
REMARK SMILES IDX 65 24 44 25 64 26 45 27 48 28 63 29 83 30 46 31 47 32 62 34
REMARK SMILES IDX 84 35 49 36 32 37 33 38 42 39 34 40 35 41 41 42 43 43 36 44
REMARK SMILES IDX 37 45 38 46 39 47 40 48 66 49 67 50 76 51 68 52 69 53 75 54
REMARK SMILES IDX 77 55 70 56 71 57 72 58 73 59 74 60 50 61 51 62 60 63 52 64
REMARK SMILES IDX 53 65 59 66 61 67 54 68 55 69 56 70 57 71 58 72 5 73 6 74
REMARK SMILES IDX 7 75 8 76 9 77 10 78 21 79 11 80 20 81 22 82 19 83 12 84
REMARK SMILES IDX 13 85 18 86 14 87 16 88 15 89 17 90
REMARK H PARENT 82 22 48 33
REMARK Flexibility Score: inf
ROOT
ATOM      1  C   UNL A   1      32.415  29.962  26.902  1.00  0.00     0.275 C 
ENDROOT
BRANCH   1   2
ATOM      2  O   UNL A   1      33.833  29.922  27.092  1.00  0.00    -0.458 OA
BRANCH   2   3
ATOM      3  C   UNL A   1      34.593  30.565  28.003  1.00  0.00     0.338 C 
ATOM      4  O   UNL A   1      34.183  31.648  28.423  1.00  0.00    -0.246 OA
BRANCH   3   5
ATOM      5  C   UNL A   1      35.957  30.113  28.454  1.00  0.00     0.060 A 
ATOM      6  C   UNL A   1      36.352  29.659  29.716  1.00  0.00     0.016 A 
ATOM      7  C   UNL A   1      36.931  30.104  27.447  1.00  0.00     0.016 A 
ATOM      8  C   UNL A   1      37.632  29.130  29.942  1.00  0.00     0.010 A 
ATOM      9  C   UNL A   1      38.188  29.532  27.643  1.00  0.00     0.010 A 
ATOM     10  C   UNL A   1      38.554  29.052  28.904  1.00  0.00    -0.014 A 
BRANCH  10  11
ATOM     11  C   UNL A   1      39.967  28.679  29.144  1.00  0.00     0.031 A 
ATOM     12  C   UNL A   1      40.904  29.781  29.544  1.00  0.00     0.074 A 
ATOM     13  C   UNL A   1      40.417  27.424  28.964  1.00  0.00     0.049 A 
ATOM     14  N   UNL A   1      42.201  29.761  29.672  1.00  0.00    -0.248 NA
ATOM     15  C   UNL A   1      40.287  31.088  29.833  1.00  0.00     0.031 C 
ATOM     16  C   UNL A   1      39.588  26.263  28.658  1.00  0.00     0.029 A 
ATOM     17  N   UNL A   1      41.694  26.921  28.963  1.00  0.00    -0.354 N 
ATOM     18  C   UNL A   1      42.549  31.046  30.063  1.00  0.00     0.074 A 
ATOM     19  C   UNL A   1      41.348  31.845  30.046  1.00  0.00     0.031 C 
ATOM     20  C   UNL A   1      40.377  25.209  28.391  1.00  0.00     0.029 A 
ATOM     21  C   UNL A   1      41.770  25.620  28.522  1.00  0.00     0.049 A 
ATOM     22  H   UNL A   1      42.480  27.442  29.251  1.00  0.00     0.167 HD
ATOM     23  C   UNL A   1      43.758  31.503  30.459  1.00  0.00     0.037 A 
ATOM     24  C   UNL A   1      42.844  24.858  28.234  1.00  0.00     0.037 A 
ATOM     25  C   UNL A   1      44.937  30.686  30.467  1.00  0.00     0.049 A 
ATOM     26  C   UNL A   1      44.207  25.409  28.554  1.00  0.00     0.074 A 
ATOM     27  C   UNL A   1      46.212  31.014  30.880  1.00  0.00     0.029 A 
ATOM     28  N   UNL A   1      44.979  29.371  30.022  1.00  0.00    -0.354 N 
ATOM     29  N   UNL A   1      44.521  26.604  28.996  1.00  0.00    -0.248 NA
ATOM     30  C   UNL A   1      45.354  24.507  28.393  1.00  0.00     0.031 C 
ATOM     31  C   UNL A   1      47.039  29.915  30.627  1.00  0.00     0.029 A 
ATOM     32  C   UNL A   1      46.266  28.880  30.117  1.00  0.00     0.049 A 
ATOM     33  H   UNL A   1      44.204  28.863  29.687  1.00  0.00     0.167 HD
ATOM     34  C   UNL A   1      45.890  26.578  29.232  1.00  0.00     0.074 A 
ATOM     35  C   UNL A   1      46.349  25.257  28.851  1.00  0.00     0.031 C 
ATOM     36  C   UNL A   1      46.686  27.548  29.747  1.00  0.00     0.037 A 
BRANCH  23  37
ATOM     37  C   UNL A   1      43.827  32.943  30.884  1.00  0.00     0.058 A 
ATOM     38  C   UNL A   1      44.168  33.965  29.978  1.00  0.00     0.135 A 
ATOM     39  C   UNL A   1      43.637  33.298  32.228  1.00  0.00     0.135 A 
ATOM     40  F   UNL A   1      44.385  33.677  28.684  1.00  0.00    -0.206 F 
ATOM     41  C   UNL A   1      44.388  35.269  30.403  1.00  0.00     0.059 A 
ATOM     42  C   UNL A   1      43.817  34.605  32.668  1.00  0.00     0.059 A 
ATOM     43  F   UNL A   1      43.313  32.363  33.135  1.00  0.00    -0.206 F 
ATOM     44  C   UNL A   1      44.224  35.577  31.754  1.00  0.00     0.060 A 
BRANCH  44  45
ATOM     45  S   UNL A   1      44.576  37.260  32.302  1.00  0.00     0.124 S 
ATOM     46  O   UNL A   1      46.033  37.286  32.236  1.00  0.00    -0.237 OA
ATOM     47  O   UNL A   1      43.882  38.064  31.303  1.00  0.00    -0.237 OA
ATOM     48  O   UNL A   1      44.006  37.305  33.645  1.00  0.00    -0.744 OA
ENDBRANCH  44  45
ENDBRANCH  23  37
BRANCH  24  49
ATOM     49  C   UNL A   1      42.657  23.506  27.641  1.00  0.00     0.058 A 
ATOM     50  C   UNL A   1      42.704  23.295  26.255  1.00  0.00     0.135 A 
ATOM     51  C   UNL A   1      42.479  22.380  28.463  1.00  0.00     0.135 A 
ATOM     52  F   UNL A   1      42.869  24.337  25.426  1.00  0.00    -0.206 F 
ATOM     53  C   UNL A   1      42.580  22.023  25.705  1.00  0.00     0.059 A 
ATOM     54  C   UNL A   1      42.367  21.094  27.937  1.00  0.00     0.059 A 
ATOM     55  F   UNL A   1      42.445  22.521  29.797  1.00  0.00    -0.206 F 
ATOM     56  C   UNL A   1      42.420  20.926  26.555  1.00  0.00     0.060 A 
BRANCH  56  57
ATOM     57  S   UNL A   1      42.331  19.273  25.827  1.00  0.00     0.124 S 
ATOM     58  O   UNL A   1      40.898  19.122  25.606  1.00  0.00    -0.237 OA
ATOM     59  O   UNL A   1      43.150  19.429  24.628  1.00  0.00    -0.237 OA
ATOM     60  O   UNL A   1      42.904  18.417  26.862  1.00  0.00    -0.744 OA
ENDBRANCH  56  57
ENDBRANCH  24  49
BRANCH  36  61
ATOM     61  C   UNL A   1      48.127  27.213  29.997  1.00  0.00     0.058 A 
ATOM     62  C   UNL A   1      49.132  27.540  29.078  1.00  0.00     0.135 A 
ATOM     63  C   UNL A   1      48.512  26.688  31.243  1.00  0.00     0.135 A 
ATOM     64  F   UNL A   1      48.811  28.033  27.871  1.00  0.00    -0.206 F 
ATOM     65  C   UNL A   1      50.476  27.371  29.390  1.00  0.00     0.059 A 
ATOM     66  C   UNL A   1      49.849  26.538  31.586  1.00  0.00     0.059 A 
ATOM     67  F   UNL A   1      47.583  26.367  32.157  1.00  0.00    -0.206 F 
ATOM     68  C   UNL A   1      50.825  26.887  30.654  1.00  0.00     0.060 A 
BRANCH  68  69
ATOM     69  S   UNL A   1      52.573  26.780  31.085  1.00  0.00     0.124 S 
ATOM     70  O   UNL A   1      53.157  26.322  29.828  1.00  0.00    -0.237 OA
ATOM     71  O   UNL A   1      52.883  28.155  31.465  1.00  0.00    -0.237 OA
ATOM     72  O   UNL A   1      52.596  25.812  32.178  1.00  0.00    -0.744 OA
ENDBRANCH  68  69
ENDBRANCH  36  61
ENDBRANCH  10  11
ENDBRANCH   3   5
ENDBRANCH   2   3
ENDBRANCH   1   2
BRANCH   1  73
ATOM     73  C   UNL A   1      31.741  28.588  26.949  1.00  0.00     0.275 C 
BRANCH  73  74
ATOM     74  O   UNL A   1      32.139  27.712  25.881  1.00  0.00    -0.458 OA
BRANCH  74  75
ATOM     75  C   UNL A   1      32.107  26.374  26.136  1.00  0.00     0.339 C 
ATOM     76  O   UNL A   1      31.428  25.812  26.971  1.00  0.00    -0.246 OA
BRANCH  75  77
ATOM     77  C   UNL A   1      32.951  25.661  25.148  1.00  0.00     0.079 A 
ATOM     78  C   UNL A   1      34.079  24.950  25.617  1.00  0.00     0.026 A 
ATOM     79  C   UNL A   1      32.666  25.694  23.781  1.00  0.00     0.055 A 
ATOM     80  C   UNL A   1      34.889  24.207  24.737  1.00  0.00    -0.017 A 
ATOM     81  C   UNL A   1      33.467  24.970  22.899  1.00  0.00     0.022 A 
ATOM     82  Cl  UNL A   1      31.376  26.627  23.110  1.00  0.00    -0.083 Cl
ATOM     83  C   UNL A   1      34.541  24.212  23.375  1.00  0.00     0.010 A 
BRANCH  80  84
ATOM     84  C   UNL A   1      36.073  23.435  25.175  1.00  0.00    -0.017 A 
ATOM     85  C   UNL A   1      37.132  24.080  25.838  1.00  0.00     0.009 A 
ATOM     86  C   UNL A   1      36.233  22.071  24.896  1.00  0.00     0.029 A 
ATOM     87  C   UNL A   1      38.304  23.398  26.184  1.00  0.00     0.002 A 
ATOM     88  C   UNL A   1      37.409  21.391  25.225  1.00  0.00     0.041 A 
ATOM     89  C   UNL A   1      38.447  22.051  25.868  1.00  0.00     0.020 A 
ATOM     90  Cl  UNL A   1      37.580  19.729  24.808  1.00  0.00    -0.084 Cl
ENDBRANCH  80  84
ENDBRANCH  75  77
ENDBRANCH  74  75
ENDBRANCH  73  74
ENDBRANCH   1  73
TORSDOF 15
ENDMDL
MODEL 2
REMARK VINA RESULT:     -11.2      3.005      9.518
REMARK SMILES O=C(OCCOC(=O)c1cc(-c2cccc(Cl)c2)ccc1Cl)c1ccc(-c2c3nc(c(-c4c(F)cc(S(=O)(=O)[O-])cc4F)c4ccc([nH]4)c(-c4c(F)cc(S(=O)(=O)[O-])cc4F)c4nc(c(-c5c(F)cc(S(=O)(=O)[O-])cc5F)c5ccc2[nH]5)C=C4)C=C3)cc1
REMARK SMILES IDX 4 1 3 2 2 3 1 4 23 5 24 6 88 7 25 8 87 9 26 10 27 11 28 12
REMARK SMILES IDX 81 13 29 14 86 15 80 16 82 17 30 18 85 19 79 20 78 21 31 23
REMARK SMILES IDX 65 24 44 25 64 26 45 27 48 28 63 29 83 30 46 31 47 32 62 34
REMARK SMILES IDX 84 35 49 36 32 37 33 38 42 39 34 40 35 41 41 42 43 43 36 44
REMARK SMILES IDX 37 45 38 46 39 47 40 48 66 49 67 50 76 51 68 52 69 53 75 54
REMARK SMILES IDX 77 55 70 56 71 57 72 58 73 59 74 60 50 61 51 62 60 63 52 64
REMARK SMILES IDX 53 65 59 66 61 67 54 68 55 69 56 70 57 71 58 72 5 73 6 74
REMARK SMILES IDX 7 75 8 76 9 77 10 78 21 79 11 80 20 81 22 82 19 83 12 84
REMARK SMILES IDX 13 85 18 86 14 87 16 88 15 89 17 90
REMARK H PARENT 82 22 48 33
REMARK Flexibility Score: inf
ROOT
ATOM      1  C   UNL A   1      36.617  23.575  25.546  1.00  0.00     0.275 C 
ENDROOT
BRANCH   1   2
ATOM      2  O   UNL A   1      37.726  22.670  25.558  1.00  0.00    -0.458 OA
BRANCH   2   3
ATOM      3  C   UNL A   1      38.928  22.798  26.159  1.00  0.00     0.338 C 
ATOM      4  O   UNL A   1      39.583  21.771  26.344  1.00  0.00    -0.246 OA
BRANCH   3   5
ATOM      5  C   UNL A   1      39.472  24.084  26.723  1.00  0.00     0.060 A 
ATOM      6  C   UNL A   1      40.271  25.043  26.092  1.00  0.00     0.016 A 
ATOM      7  C   UNL A   1      39.069  24.362  28.035  1.00  0.00     0.016 A 
ATOM      8  C   UNL A   1      40.577  26.267  26.706  1.00  0.00     0.010 A 
ATOM      9  C   UNL A   1      39.319  25.596  28.636  1.00  0.00     0.010 A 
ATOM     10  C   UNL A   1      40.092  26.557  27.977  1.00  0.00    -0.014 A 
BRANCH  10  11
ATOM     11  C   UNL A   1      40.545  27.748  28.730  1.00  0.00     0.031 A 
ATOM     12  C   UNL A   1      41.835  27.627  29.488  1.00  0.00     0.074 A 
ATOM     13  C   UNL A   1      39.818  28.879  28.787  1.00  0.00     0.049 A 
ATOM     14  N   UNL A   1      42.381  28.454  30.335  1.00  0.00    -0.248 NA
ATOM     15  C   UNL A   1      42.611  26.394  29.258  1.00  0.00     0.031 C 
ATOM     16  C   UNL A   1      38.597  29.139  28.030  1.00  0.00     0.029 A 
ATOM     17  N   UNL A   1      39.972  30.007  29.554  1.00  0.00    -0.354 N 
ATOM     18  C   UNL A   1      43.564  27.844  30.729  1.00  0.00     0.074 A 
ATOM     19  C   UNL A   1      43.603  26.538  30.118  1.00  0.00     0.031 C 
ATOM     20  C   UNL A   1      38.053  30.295  28.446  1.00  0.00     0.029 A 
ATOM     21  C   UNL A   1      38.897  30.863  29.491  1.00  0.00     0.049 A 
ATOM     22  H   UNL A   1      40.775  30.185  30.096  1.00  0.00     0.167 HD
ATOM     23  C   UNL A   1      44.557  28.356  31.489  1.00  0.00     0.037 A 
ATOM     24  C   UNL A   1      38.618  31.967  30.212  1.00  0.00     0.037 A 
ATOM     25  C   UNL A   1      44.492  29.660  32.084  1.00  0.00     0.049 A 
ATOM     26  C   UNL A   1      39.670  32.477  31.159  1.00  0.00     0.074 A 
ATOM     27  C   UNL A   1      45.443  30.311  32.843  1.00  0.00     0.029 A 
ATOM     28  N   UNL A   1      43.393  30.505  31.995  1.00  0.00    -0.354 N 
ATOM     29  N   UNL A   1      40.822  31.930  31.470  1.00  0.00    -0.248 NA
ATOM     30  C   UNL A   1      39.422  33.768  31.811  1.00  0.00     0.031 C 
ATOM     31  C   UNL A   1      44.895  31.527  33.262  1.00  0.00     0.029 A 
ATOM     32  C   UNL A   1      43.627  31.661  32.712  1.00  0.00     0.049 A 
ATOM     33  H   UNL A   1      42.569  30.308  31.494  1.00  0.00     0.167 HD
ATOM     34  C   UNL A   1      41.467  32.839  32.299  1.00  0.00     0.074 A 
ATOM     35  C   UNL A   1      40.560  33.958  32.468  1.00  0.00     0.031 C 
ATOM     36  C   UNL A   1      42.707  32.768  32.842  1.00  0.00     0.037 A 
BRANCH  23  37
ATOM     37  C   UNL A   1      45.758  27.479  31.708  1.00  0.00     0.058 A 
ATOM     38  C   UNL A   1      45.845  26.609  32.811  1.00  0.00     0.135 A 
ATOM     39  C   UNL A   1      46.869  27.569  30.858  1.00  0.00     0.135 A 
ATOM     40  F   UNL A   1      44.818  26.502  33.672  1.00  0.00    -0.206 F 
ATOM     41  C   UNL A   1      47.015  25.919  33.103  1.00  0.00     0.059 A 
ATOM     42  C   UNL A   1      48.038  26.858  31.111  1.00  0.00     0.059 A 
ATOM     43  F   UNL A   1      46.842  28.384  29.792  1.00  0.00    -0.206 F 
ATOM     44  C   UNL A   1      48.113  26.062  32.253  1.00  0.00     0.060 A 
BRANCH  44  45
ATOM     45  S   UNL A   1      49.646  25.211  32.678  1.00  0.00     0.124 S 
ATOM     46  O   UNL A   1      49.161  24.178  33.589  1.00  0.00    -0.237 OA
ATOM     47  O   UNL A   1      50.112  24.740  31.379  1.00  0.00    -0.237 OA
ATOM     48  O   UNL A   1      50.457  26.258  33.290  1.00  0.00    -0.744 OA
ENDBRANCH  44  45
ENDBRANCH  23  37
BRANCH  24  49
ATOM     49  C   UNL A   1      37.309  32.655  30.039  1.00  0.00     0.058 A 
ATOM     50  C   UNL A   1      36.183  32.299  30.795  1.00  0.00     0.135 A 
ATOM     51  C   UNL A   1      37.176  33.729  29.143  1.00  0.00     0.135 A 
ATOM     52  F   UNL A   1      36.257  31.279  31.664  1.00  0.00    -0.206 F 
ATOM     53  C   UNL A   1      34.974  32.977  30.670  1.00  0.00     0.059 A 
ATOM     54  C   UNL A   1      35.981  34.432  29.009  1.00  0.00     0.059 A 
ATOM     55  F   UNL A   1      38.227  34.124  28.407  1.00  0.00    -0.206 F 
ATOM     56  C   UNL A   1      34.885  34.049  29.779  1.00  0.00     0.060 A 
BRANCH  56  57
ATOM     57  S   UNL A   1      33.328  34.963  29.680  1.00  0.00     0.124 S 
ATOM     58  O   UNL A   1      32.555  34.136  28.761  1.00  0.00    -0.237 OA
ATOM     59  O   UNL A   1      32.887  34.958  31.071  1.00  0.00    -0.237 OA
ATOM     60  O   UNL A   1      33.735  36.268  29.163  1.00  0.00    -0.744 OA
ENDBRANCH  56  57
ENDBRANCH  24  49
BRANCH  36  61
ATOM     61  C   UNL A   1      43.200  33.952  33.621  1.00  0.00     0.058 A 
ATOM     62  C   UNL A   1      43.895  35.003  33.008  1.00  0.00     0.135 A 
ATOM     63  C   UNL A   1      42.838  34.095  34.972  1.00  0.00     0.135 A 
ATOM     64  F   UNL A   1      44.272  34.907  31.723  1.00  0.00    -0.206 F 
ATOM     65  C   UNL A   1      44.204  36.165  33.705  1.00  0.00     0.059 A 
ATOM     66  C   UNL A   1      43.112  35.259  35.679  1.00  0.00     0.059 A 
ATOM     67  F   UNL A   1      42.166  33.116  35.598  1.00  0.00    -0.206 F 
ATOM     68  C   UNL A   1      43.792  36.291  35.035  1.00  0.00     0.060 A 
BRANCH  68  69
ATOM     69  S   UNL A   1      44.101  37.848  35.891  1.00  0.00     0.124 S 
ATOM     70  O   UNL A   1      45.555  37.838  36.002  1.00  0.00    -0.237 OA
ATOM     71  O   UNL A   1      43.541  38.828  34.964  1.00  0.00    -0.237 OA
ATOM     72  O   UNL A   1      43.374  37.696  37.148  1.00  0.00    -0.744 OA
ENDBRANCH  68  69
ENDBRANCH  36  61
ENDBRANCH  10  11
ENDBRANCH   3   5
ENDBRANCH   2   3
ENDBRANCH   1   2
BRANCH   1  73
ATOM     73  C   UNL A   1      35.335  22.998  26.152  1.00  0.00     0.275 C 
BRANCH  73  74
ATOM     74  O   UNL A   1      34.244  22.908  25.220  1.00  0.00    -0.458 OA
BRANCH  74  75
ATOM     75  C   UNL A   1      33.146  23.672  25.480  1.00  0.00     0.339 C 
ATOM     76  O   UNL A   1      32.225  23.388  26.217  1.00  0.00    -0.246 OA
BRANCH  75  77
ATOM     77  C   UNL A   1      33.289  24.988  24.812  1.00  0.00     0.079 A 
ATOM     78  C   UNL A   1      33.311  26.151  25.616  1.00  0.00     0.026 A 
ATOM     79  C   UNL A   1      33.381  25.098  23.423  1.00  0.00     0.055 A 
ATOM     80  C   UNL A   1      33.498  27.426  25.047  1.00  0.00    -0.017 A 
ATOM     81  C   UNL A   1      33.558  26.356  22.848  1.00  0.00     0.022 A 
ATOM     82  Cl  UNL A   1      33.252  23.742  22.360  1.00  0.00    -0.083 Cl
ATOM     83  C   UNL A   1      33.648  27.496  23.651  1.00  0.00     0.010 A 
BRANCH  80  84
ATOM     84  C   UNL A   1      33.542  28.673  25.841  1.00  0.00    -0.017 A 
ATOM     85  C   UNL A   1      34.580  28.887  26.764  1.00  0.00     0.009 A 
ATOM     86  C   UNL A   1      32.538  29.649  25.773  1.00  0.00     0.029 A 
ATOM     87  C   UNL A   1      34.600  30.014  27.596  1.00  0.00     0.002 A 
ATOM     88  C   UNL A   1      32.547  30.765  26.614  1.00  0.00     0.041 A 
ATOM     89  C   UNL A   1      33.575  30.951  27.527  1.00  0.00     0.020 A 
ATOM     90  Cl  UNL A   1      31.259  31.906  26.531  1.00  0.00    -0.084 Cl
ENDBRANCH  80  84
ENDBRANCH  75  77
ENDBRANCH  74  75
ENDBRANCH  73  74
ENDBRANCH   1  73
TORSDOF 15
ENDMDL
MODEL 3
REMARK VINA RESULT:     -11.1      4.189     10.555
REMARK SMILES O=C(OCCOC(=O)c1cc(-c2cccc(Cl)c2)ccc1Cl)c1ccc(-c2c3nc(c(-c4c(F)cc(S(=O)(=O)[O-])cc4F)c4ccc([nH]4)c(-c4c(F)cc(S(=O)(=O)[O-])cc4F)c4nc(c(-c5c(F)cc(S(=O)(=O)[O-])cc5F)c5ccc2[nH]5)C=C4)C=C3)cc1
REMARK SMILES IDX 4 1 3 2 2 3 1 4 23 5 24 6 88 7 25 8 87 9 26 10 27 11 28 12
REMARK SMILES IDX 81 13 29 14 86 15 80 16 82 17 30 18 85 19 79 20 78 21 31 23
REMARK SMILES IDX 65 24 44 25 64 26 45 27 48 28 63 29 83 30 46 31 47 32 62 34
REMARK SMILES IDX 84 35 49 36 32 37 33 38 42 39 34 40 35 41 41 42 43 43 36 44
REMARK SMILES IDX 37 45 38 46 39 47 40 48 66 49 67 50 76 51 68 52 69 53 75 54
REMARK SMILES IDX 77 55 70 56 71 57 72 58 73 59 74 60 50 61 51 62 60 63 52 64
REMARK SMILES IDX 53 65 59 66 61 67 54 68 55 69 56 70 57 71 58 72 5 73 6 74
REMARK SMILES IDX 7 75 8 76 9 77 10 78 21 79 11 80 20 81 22 82 19 83 12 84
REMARK SMILES IDX 13 85 18 86 14 87 16 88 15 89 17 90
REMARK H PARENT 82 22 48 33
REMARK Flexibility Score: inf
ROOT
ATOM      1  C   UNL A   1      41.011  21.233  27.032  1.00  0.00     0.275 C 
ENDROOT
BRANCH   1   2
ATOM      2  O   UNL A   1      40.040  21.705  26.093  1.00  0.00    -0.458 OA
BRANCH   2   3
ATOM      3  C   UNL A   1      39.293  22.829  26.126  1.00  0.00     0.338 C 
ATOM      4  O   UNL A   1      38.211  22.811  25.538  1.00  0.00    -0.246 OA
BRANCH   3   5
ATOM      5  C   UNL A   1      39.739  24.136  26.727  1.00  0.00     0.060 A 
ATOM      6  C   UNL A   1      40.342  25.226  26.092  1.00  0.00     0.016 A 
ATOM      7  C   UNL A   1      39.455  24.278  28.091  1.00  0.00     0.016 A 
ATOM      8  C   UNL A   1      40.566  26.438  26.762  1.00  0.00     0.010 A 
ATOM      9  C   UNL A   1      39.621  25.494  28.755  1.00  0.00     0.010 A 
ATOM     10  C   UNL A   1      40.195  26.585  28.095  1.00  0.00    -0.014 A 
BRANCH  10  11
ATOM     11  C   UNL A   1      40.584  27.774  28.886  1.00  0.00     0.031 A 
ATOM     12  C   UNL A   1      41.815  27.656  29.735  1.00  0.00     0.074 A 
ATOM     13  C   UNL A   1      39.848  28.900  28.894  1.00  0.00     0.049 A 
ATOM     14  N   UNL A   1      42.292  28.481  30.624  1.00  0.00    -0.248 NA
ATOM     15  C   UNL A   1      42.614  26.429  29.557  1.00  0.00     0.031 C 
ATOM     16  C   UNL A   1      38.684  29.157  28.051  1.00  0.00     0.029 A 
ATOM     17  N   UNL A   1      39.938  30.025  29.677  1.00  0.00    -0.354 N 
ATOM     18  C   UNL A   1      43.446  27.877  31.101  1.00  0.00     0.074 A 
ATOM     19  C   UNL A   1      43.539  26.574  30.488  1.00  0.00     0.031 C 
ATOM     20  C   UNL A   1      38.103  30.307  28.432  1.00  0.00     0.029 A 
ATOM     21  C   UNL A   1      38.864  30.875  29.538  1.00  0.00     0.049 A 
ATOM     22  H   UNL A   1      40.697  30.205  30.278  1.00  0.00     0.167 HD
ATOM     23  C   UNL A   1      44.378  28.390  31.936  1.00  0.00     0.037 A 
ATOM     24  C   UNL A   1      38.526  31.973  30.244  1.00  0.00     0.037 A 
ATOM     25  C   UNL A   1      44.261  29.690  32.531  1.00  0.00     0.049 A 
ATOM     26  C   UNL A   1      39.502  32.483  31.268  1.00  0.00     0.074 A 
ATOM     27  C   UNL A   1      45.149  30.342  33.361  1.00  0.00     0.029 A 
ATOM     28  N   UNL A   1      43.166  30.529  32.366  1.00  0.00    -0.354 N 
ATOM     29  N   UNL A   1      40.632  31.942  31.660  1.00  0.00    -0.248 NA
ATOM     30  C   UNL A   1      39.199  33.770  31.907  1.00  0.00     0.031 C 
ATOM     31  C   UNL A   1      44.564  31.553  33.746  1.00  0.00     0.029 A 
ATOM     32  C   UNL A   1      43.340  31.682  33.104  1.00  0.00     0.049 A 
ATOM     33  H   UNL A   1      42.382  30.330  31.804  1.00  0.00     0.167 HD
ATOM     34  C   UNL A   1      41.209  32.850  32.539  1.00  0.00     0.074 A 
ATOM     35  C   UNL A   1      40.285  33.962  32.646  1.00  0.00     0.031 C 
ATOM     36  C   UNL A   1      42.406  32.783  33.172  1.00  0.00     0.037 A 
BRANCH  23  37
ATOM     37  C   UNL A   1      45.565  27.518  32.238  1.00  0.00     0.058 A 
ATOM     38  C   UNL A   1      45.589  26.669  33.360  1.00  0.00     0.135 A 
ATOM     39  C   UNL A   1      46.723  27.595  31.451  1.00  0.00     0.135 A 
ATOM     40  F   UNL A   1      44.515  26.575  34.162  1.00  0.00    -0.206 F 
ATOM     41  C   UNL A   1      46.741  25.986  33.729  1.00  0.00     0.059 A 
ATOM     42  C   UNL A   1      47.876  26.891  31.782  1.00  0.00     0.059 A 
ATOM     43  F   UNL A   1      46.755  28.392  30.371  1.00  0.00    -0.206 F 
ATOM     44  C   UNL A   1      47.885  26.115  32.941  1.00  0.00     0.060 A 
BRANCH  44  45
ATOM     45  S   UNL A   1      49.393  25.274  33.468  1.00  0.00     0.124 S 
ATOM     46  O   UNL A   1      48.849  24.171  34.254  1.00  0.00    -0.237 OA
ATOM     47  O   UNL A   1      50.003  24.903  32.196  1.00  0.00    -0.237 OA
ATOM     48  O   UNL A   1      50.104  26.297  34.227  1.00  0.00    -0.744 OA
ENDBRANCH  44  45
ENDBRANCH  23  37
BRANCH  24  49
ATOM     49  C   UNL A   1      37.229  32.654  29.978  1.00  0.00     0.058 A 
ATOM     50  C   UNL A   1      36.055  32.291  30.652  1.00  0.00     0.135 A 
ATOM     51  C   UNL A   1      37.155  33.728  29.075  1.00  0.00     0.135 A 
ATOM     52  F   UNL A   1      36.071  31.271  31.523  1.00  0.00    -0.206 F 
ATOM     53  C   UNL A   1      34.854  32.963  30.441  1.00  0.00     0.059 A 
ATOM     54  C   UNL A   1      35.968  34.425  28.857  1.00  0.00     0.059 A 
ATOM     55  F   UNL A   1      38.253  34.129  28.416  1.00  0.00    -0.206 F 
ATOM     56  C   UNL A   1      34.822  34.036  29.547  1.00  0.00     0.060 A 
BRANCH  56  57
ATOM     57  S   UNL A   1      33.271  34.942  29.337  1.00  0.00     0.124 S 
ATOM     58  O   UNL A   1      32.714  34.894  30.684  1.00  0.00    -0.237 OA
ATOM     59  O   UNL A   1      33.745  36.247  28.887  1.00  0.00    -0.237 OA
ATOM     60  O   UNL A   1      32.558  34.160  28.331  1.00  0.00    -0.744 OA
ENDBRANCH  56  57
ENDBRANCH  24  49
BRANCH  36  61
ATOM     61  C   UNL A   1      42.832  33.966  33.991  1.00  0.00     0.058 A 
ATOM     62  C   UNL A   1      42.625  34.019  35.376  1.00  0.00     0.135 A 
ATOM     63  C   UNL A   1      43.589  34.988  33.393  1.00  0.00     0.135 A 
ATOM     64  F   UNL A   1      41.900  33.071  35.989  1.00  0.00    -0.206 F 
ATOM     65  C   UNL A   1      43.167  35.043  36.145  1.00  0.00     0.059 A 
ATOM     66  C   UNL A   1      44.162  36.004  34.147  1.00  0.00     0.059 A 
ATOM     67  F   UNL A   1      43.818  34.974  32.070  1.00  0.00    -0.206 F 
ATOM     68  C   UNL A   1      43.949  36.020  35.524  1.00  0.00     0.060 A 
BRANCH  68  69
ATOM     69  S   UNL A   1      44.737  37.276  36.551  1.00  0.00     0.124 S 
ATOM     70  O   UNL A   1      45.318  38.157  35.543  1.00  0.00    -0.237 OA
ATOM     71  O   UNL A   1      43.605  37.822  37.295  1.00  0.00    -0.237 OA
ATOM     72  O   UNL A   1      45.695  36.515  37.347  1.00  0.00    -0.744 OA
ENDBRANCH  68  69
ENDBRANCH  36  61
ENDBRANCH  10  11
ENDBRANCH   3   5
ENDBRANCH   2   3
ENDBRANCH   1   2
BRANCH   1  73
ATOM     73  C   UNL A   1      42.440  21.194  26.484  1.00  0.00     0.275 C 
BRANCH  73  74
ATOM     74  O   UNL A   1      43.092  22.475  26.476  1.00  0.00    -0.458 OA
BRANCH  74  75
ATOM     75  C   UNL A   1      43.447  22.979  25.261  1.00  0.00     0.339 C 
ATOM     76  O   UNL A   1      43.007  22.642  24.181  1.00  0.00    -0.246 OA
BRANCH  75  77
ATOM     77  C   UNL A   1      44.386  24.110  25.449  1.00  0.00     0.079 A 
ATOM     78  C   UNL A   1      43.873  25.338  25.926  1.00  0.00     0.026 A 
ATOM     79  C   UNL A   1      45.745  23.991  25.151  1.00  0.00     0.055 A 
ATOM     80  C   UNL A   1      44.721  26.433  26.178  1.00  0.00    -0.017 A 
ATOM     81  C   UNL A   1      46.594  25.072  25.388  1.00  0.00     0.022 A 
ATOM     82  Cl  UNL A   1      46.438  22.566  24.461  1.00  0.00    -0.083 Cl
ATOM     83  C   UNL A   1      46.093  26.262  25.925  1.00  0.00     0.010 A 
BRANCH  80  84
ATOM     84  C   UNL A   1      44.239  27.736  26.688  1.00  0.00    -0.017 A 
ATOM     85  C   UNL A   1      43.080  28.321  26.150  1.00  0.00     0.009 A 
ATOM     86  C   UNL A   1      44.934  28.472  27.658  1.00  0.00     0.029 A 
ATOM     87  C   UNL A   1      42.650  29.593  26.546  1.00  0.00     0.002 A 
ATOM     88  C   UNL A   1      44.516  29.749  28.042  1.00  0.00     0.041 A 
ATOM     89  C   UNL A   1      43.375  30.314  27.489  1.00  0.00     0.020 A 
ATOM     90  Cl  UNL A   1      45.437  30.638  29.195  1.00  0.00    -0.084 Cl
ENDBRANCH  80  84
ENDBRANCH  75  77
ENDBRANCH  74  75
ENDBRANCH  73  74
ENDBRANCH   1  73
TORSDOF 15
ENDMDL
