MODEL 1
REMARK VINA RESULT:     -12.4      0.000      0.000
REMARK SMILES Cc1ccc(C(=O)N2CCC3(CCC(=O)N(CC(=O)OCCOC(=O)c4ccc(-c5c6nc(c(-c7c(F)cc(S(=O)(=O)[O-])cc7F)c7ccc([nH]7)c(-c7c(F)cc(S(=O)(=O)[O-])cc7F)c7nc(c(-c8c(F)cc(S(=O)(=O)[O-])cc8F)c8ccc5[nH]8)C=C7)C=C6)cc4)C3)CC2)cc1O
REMARK SMILES IDX 21 1 20 2 18 3 19 4 17 5 16 6 6 7 7 8 8 9 9 10 94 11 10 12
REMARK SMILES IDX 93 13 11 14 12 15 92 16 13 17 14 18 15 19 5 20 1 21 2 22
REMARK SMILES IDX 3 23 96 24 4 25 95 26 97 27 22 29 23 30 24 31 25 32 26 33
REMARK SMILES IDX 27 34 91 35 28 36 90 37 29 38 30 39 31 40 84 41 32 42 89 43
REMARK SMILES IDX 83 44 85 45 33 46 88 47 82 48 81 49 34 51 68 52 47 53 67 54
REMARK SMILES IDX 48 55 51 56 66 57 86 58 49 59 50 60 65 62 87 63 52 64 35 65
REMARK SMILES IDX 36 66 45 67 37 68 38 69 44 70 46 71 39 72 40 73 41 74 42 75
REMARK SMILES IDX 43 76 69 77 70 78 79 79 71 80 72 81 78 82 80 83 73 84 74 85
REMARK SMILES IDX 75 86 76 87 77 88 53 89 54 90 63 91 55 92 56 93 62 94 64 95
REMARK SMILES IDX 57 96 58 97 59 98 60 99 61 100
REMARK H PARENT 97 28 85 50 51 61
REMARK Flexibility Score: inf
ROOT
ATOM      1  C   UNL A   1      33.826  31.843  27.631  1.00  0.00     0.274 C 
ENDROOT
BRANCH   1   2
ATOM      2  O   UNL A   1      33.459  30.578  27.053  1.00  0.00    -0.461 OA
BRANCH   2   3
ATOM      3  C   UNL A   1      32.198  30.490  26.571  1.00  0.00     0.325 C 
ATOM      4  O   UNL A   1      31.405  31.426  26.504  1.00  0.00    -0.250 OA
BRANCH   3   5
ATOM      5  C   UNL A   1      31.828  29.099  26.065  1.00  0.00     0.242 C 
BRANCH   5   6
ATOM      6  N   UNL A   1      31.993  28.768  24.652  1.00  0.00    -0.331 N 
ATOM      7  C   UNL A   1      33.940  22.633  25.543  1.00  0.00     0.253 C 
ATOM      8  O   UNL A   1      33.359  21.832  26.274  1.00  0.00    -0.269 OA
ATOM      9  N   UNL A   1      33.279  23.663  24.887  1.00  0.00    -0.339 N 
ATOM     10  C   UNL A   1      32.082  24.228  25.485  1.00  0.00     0.120 C 
ATOM     11  C   UNL A   1      33.545  24.069  23.516  1.00  0.00     0.120 C 
ATOM     12  C   UNL A   1      32.226  25.752  25.519  1.00  0.00     0.030 C 
ATOM     13  C   UNL A   1      33.654  25.585  23.409  1.00  0.00     0.030 C 
ATOM     14  C   UNL A   1      32.516  26.372  24.122  1.00  0.00    -0.008 C 
ATOM     15  C   UNL A   1      31.239  26.388  23.239  1.00  0.00     0.019 C 
ATOM     16  C   UNL A   1      33.021  27.828  24.268  1.00  0.00     0.127 C 
ATOM     17  C   UNL A   1      30.220  27.441  23.673  1.00  0.00     0.101 C 
ATOM     18  C   UNL A   1      30.865  28.802  23.841  1.00  0.00     0.223 C 
ATOM     19  O   UNL A   1      30.391  29.834  23.391  1.00  0.00    -0.275 OA
BRANCH   7  20
ATOM     20  C   UNL A   1      35.428  22.596  25.498  1.00  0.00     0.043 A 
ATOM     21  C   UNL A   1      39.700  22.232  26.039  1.00  0.00     0.048 C 
ATOM     22  C   UNL A   1      38.223  22.349  25.802  1.00  0.00    -0.009 A 
ATOM     23  C   UNL A   1      37.570  23.541  26.143  1.00  0.00     0.008 A 
ATOM     24  C   UNL A   1      37.452  21.288  25.314  1.00  0.00     0.119 A 
ATOM     25  C   UNL A   1      36.185  23.657  26.008  1.00  0.00     0.014 A 
ATOM     26  C   UNL A   1      36.071  21.406  25.148  1.00  0.00     0.060 A 
BRANCH  24  27
ATOM     27  O   UNL A   1      37.996  20.070  25.009  1.00  0.00    -0.508 OA
ATOM     28  H   UNL A   1      37.931  19.363  25.620  1.00  0.00     0.293 HD
ENDBRANCH  24  27
ENDBRANCH   7  20
ENDBRANCH   5   6
ENDBRANCH   3   5
ENDBRANCH   2   3
ENDBRANCH   1   2
BRANCH   1  29
ATOM     29  C   UNL A   1      35.039  31.684  28.546  1.00  0.00     0.275 C 
BRANCH  29  30
ATOM     30  O   UNL A   1      35.516  30.326  28.501  1.00  0.00    -0.458 OA
BRANCH  30  31
ATOM     31  C   UNL A   1      36.172  29.902  29.605  1.00  0.00     0.338 C 
ATOM     32  O   UNL A   1      35.719  29.695  30.715  1.00  0.00    -0.246 OA
BRANCH  31  33
ATOM     33  C   UNL A   1      37.603  29.754  29.315  1.00  0.00     0.060 A 
ATOM     34  C   UNL A   1      38.056  29.681  27.997  1.00  0.00     0.016 A 
ATOM     35  C   UNL A   1      38.474  29.531  30.383  1.00  0.00     0.016 A 
ATOM     36  C   UNL A   1      39.379  29.323  27.743  1.00  0.00     0.010 A 
ATOM     37  C   UNL A   1      39.811  29.230  30.126  1.00  0.00     0.010 A 
ATOM     38  C   UNL A   1      40.266  29.092  28.805  1.00  0.00    -0.014 A 
BRANCH  38  39
ATOM     39  C   UNL A   1      41.670  28.691  28.539  1.00  0.00     0.031 A 
ATOM     40  C   UNL A   1      42.768  29.719  28.561  1.00  0.00     0.074 A 
ATOM     41  C   UNL A   1      41.948  27.404  28.256  1.00  0.00     0.049 A 
ATOM     42  N   UNL A   1      44.028  29.587  28.238  1.00  0.00    -0.248 NA
ATOM     43  C   UNL A   1      42.401  31.078  28.993  1.00  0.00     0.031 C 
ATOM     44  C   UNL A   1      40.966  26.318  28.209  1.00  0.00     0.029 A 
ATOM     45  N   UNL A   1      43.135  26.793  27.944  1.00  0.00    -0.354 N 
ATOM     46  C   UNL A   1      44.597  30.845  28.393  1.00  0.00     0.074 A 
ATOM     47  C   UNL A   1      43.545  31.733  28.838  1.00  0.00     0.031 C 
ATOM     48  C   UNL A   1      41.591  25.175  27.889  1.00  0.00     0.029 A 
ATOM     49  C   UNL A   1      43.005  25.455  27.662  1.00  0.00     0.049 A 
ATOM     50  H   UNL A   1      43.998  27.268  27.924  1.00  0.00     0.167 HD
ATOM     51  C   UNL A   1      45.880  31.222  28.179  1.00  0.00     0.037 A 
ATOM     52  C   UNL A   1      43.916  24.559  27.236  1.00  0.00     0.037 A 
ATOM     53  C   UNL A   1      46.931  30.325  27.773  1.00  0.00     0.049 A 
ATOM     54  C   UNL A   1      45.334  25.002  27.019  1.00  0.00     0.074 A 
ATOM     55  C   UNL A   1      48.271  30.605  27.569  1.00  0.00     0.029 A 
ATOM     56  N   UNL A   1      46.762  28.972  27.519  1.00  0.00    -0.354 N 
ATOM     57  N   UNL A   1      45.854  26.196  27.171  1.00  0.00    -0.248 NA
ATOM     58  C   UNL A   1      46.288  23.981  26.565  1.00  0.00     0.031 C 
ATOM     59  C   UNL A   1      48.908  29.425  27.166  1.00  0.00     0.029 A 
ATOM     60  C   UNL A   1      47.970  28.407  27.148  1.00  0.00     0.049 A 
ATOM     61  H   UNL A   1      45.909  28.486  27.590  1.00  0.00     0.167 HD
ATOM     62  C   UNL A   1      47.196  26.069  26.838  1.00  0.00     0.074 A 
ATOM     63  C   UNL A   1      47.413  24.678  26.495  1.00  0.00     0.031 C 
ATOM     64  C   UNL A   1      48.163  27.019  26.813  1.00  0.00     0.037 A 
BRANCH  51  65
ATOM     65  C   UNL A   1      46.228  32.672  28.361  1.00  0.00     0.058 A 
ATOM     66  C   UNL A   1      46.068  33.605  27.326  1.00  0.00     0.135 A 
ATOM     67  C   UNL A   1      46.659  33.145  29.610  1.00  0.00     0.135 A 
ATOM     68  F   UNL A   1      45.675  33.201  26.107  1.00  0.00    -0.206 F 
ATOM     69  C   UNL A   1      46.327  34.958  27.521  1.00  0.00     0.059 A 
ATOM     70  C   UNL A   1      46.909  34.496  29.834  1.00  0.00     0.059 A 
ATOM     71  F   UNL A   1      46.832  32.291  30.632  1.00  0.00    -0.206 F 
ATOM     72  C   UNL A   1      46.745  35.395  28.780  1.00  0.00     0.060 A 
BRANCH  72  73
ATOM     73  S   UNL A   1      47.045  37.157  29.033  1.00  0.00     0.124 S 
ATOM     74  O   UNL A   1      48.504  37.206  29.042  1.00  0.00    -0.237 OA
ATOM     75  O   UNL A   1      46.398  37.757  27.872  1.00  0.00    -0.237 OA
ATOM     76  O   UNL A   1      46.400  37.431  30.314  1.00  0.00    -0.744 OA
ENDBRANCH  72  73
ENDBRANCH  51  65
BRANCH  52  77
ATOM     77  C   UNL A   1      43.501  23.161  26.957  1.00  0.00     0.058 A 
ATOM     78  C   UNL A   1      43.464  22.663  25.648  1.00  0.00     0.135 A 
ATOM     79  C   UNL A   1      43.148  22.291  28.001  1.00  0.00     0.135 A 
ATOM     80  F   UNL A   1      43.788  23.461  24.619  1.00  0.00    -0.206 F 
ATOM     81  C   UNL A   1      43.081  21.354  25.378  1.00  0.00     0.059 A 
ATOM     82  C   UNL A   1      42.783  20.972  27.759  1.00  0.00     0.059 A 
ATOM     83  F   UNL A   1      43.184  22.718  29.273  1.00  0.00    -0.206 F 
ATOM     84  C   UNL A   1      42.741  20.515  26.442  1.00  0.00     0.060 A 
BRANCH  84  85
ATOM     85  S   UNL A   1      42.294  18.799  26.098  1.00  0.00     0.124 S 
ATOM     86  O   UNL A   1      42.579  18.161  27.377  1.00  0.00    -0.237 OA
ATOM     87  O   UNL A   1      40.884  18.909  25.739  1.00  0.00    -0.237 OA
ATOM     88  O   UNL A   1      43.184  18.441  24.998  1.00  0.00    -0.744 OA
ENDBRANCH  84  85
ENDBRANCH  52  77
BRANCH  64  89
ATOM     89  C   UNL A   1      49.540  26.580  26.418  1.00  0.00     0.058 A 
ATOM     90  C   UNL A   1      50.399  25.959  27.337  1.00  0.00     0.135 A 
ATOM     91  C   UNL A   1      49.993  26.748  25.100  1.00  0.00     0.135 A 
ATOM     92  F   UNL A   1      50.013  25.783  28.611  1.00  0.00    -0.206 F 
ATOM     93  C   UNL A   1      51.672  25.537  26.969  1.00  0.00     0.059 A 
ATOM     94  C   UNL A   1      51.255  26.318  24.705  1.00  0.00     0.059 A 
ATOM     95  F   UNL A   1      49.203  27.330  24.184  1.00  0.00    -0.206 F 
ATOM     96  C   UNL A   1      52.092  25.724  25.650  1.00  0.00     0.060 A 
BRANCH  96  97
ATOM     97  S   UNL A   1      53.736  25.151  25.170  1.00  0.00     0.124 S 
ATOM     98  O   UNL A   1      54.580  25.838  26.141  1.00  0.00    -0.237 OA
ATOM     99  O   UNL A   1      53.630  23.705  25.334  1.00  0.00    -0.237 OA
ATOM    100  O   UNL A   1      53.862  25.611  23.790  1.00  0.00    -0.744 OA
ENDBRANCH  96  97
ENDBRANCH  64  89
ENDBRANCH  38  39
ENDBRANCH  31  33
ENDBRANCH  30  31
ENDBRANCH  29  30
ENDBRANCH   1  29
TORSDOF 17
ENDMDL
MODEL 2
REMARK VINA RESULT:     -12.0      0.572      7.994
REMARK SMILES Cc1ccc(C(=O)N2CCC3(CCC(=O)N(CC(=O)OCCOC(=O)c4ccc(-c5c6nc(c(-c7c(F)cc(S(=O)(=O)[O-])cc7F)c7ccc([nH]7)c(-c7c(F)cc(S(=O)(=O)[O-])cc7F)c7nc(c(-c8c(F)cc(S(=O)(=O)[O-])cc8F)c8ccc5[nH]8)C=C7)C=C6)cc4)C3)CC2)cc1O
REMARK SMILES IDX 21 1 20 2 18 3 19 4 17 5 16 6 6 7 7 8 8 9 9 10 94 11 10 12
REMARK SMILES IDX 93 13 11 14 12 15 92 16 13 17 14 18 15 19 5 20 1 21 2 22
REMARK SMILES IDX 3 23 96 24 4 25 95 26 97 27 22 29 23 30 24 31 25 32 26 33
REMARK SMILES IDX 27 34 91 35 28 36 90 37 29 38 30 39 31 40 84 41 32 42 89 43
REMARK SMILES IDX 83 44 85 45 33 46 88 47 82 48 81 49 34 51 68 52 47 53 67 54
REMARK SMILES IDX 48 55 51 56 66 57 86 58 49 59 50 60 65 62 87 63 52 64 35 65
REMARK SMILES IDX 36 66 45 67 37 68 38 69 44 70 46 71 39 72 40 73 41 74 42 75
REMARK SMILES IDX 43 76 69 77 70 78 79 79 71 80 72 81 78 82 80 83 73 84 74 85
REMARK SMILES IDX 75 86 76 87 77 88 53 89 54 90 63 91 55 92 56 93 62 94 64 95
REMARK SMILES IDX 57 96 58 97 59 98 60 99 61 100
REMARK H PARENT 97 28 85 50 51 61
REMARK Flexibility Score: inf
ROOT
ATOM      1  C   UNL A   1      33.550  31.144  27.631  1.00  0.00     0.274 C 
ENDROOT
BRANCH   1   2
ATOM      2  O   UNL A   1      33.514  30.348  26.434  1.00  0.00    -0.461 OA
BRANCH   2   3
ATOM      3  C   UNL A   1      32.869  29.163  26.528  1.00  0.00     0.325 C 
ATOM      4  O   UNL A   1      33.152  28.271  27.324  1.00  0.00    -0.250 OA
BRANCH   3   5
ATOM      5  C   UNL A   1      31.699  29.021  25.561  1.00  0.00     0.242 C 
BRANCH   5   6
ATOM      6  N   UNL A   1      31.945  28.661  24.166  1.00  0.00    -0.331 N 
ATOM      7  C   UNL A   1      33.939  22.582  25.307  1.00  0.00     0.253 C 
ATOM      8  O   UNL A   1      33.333  21.789  26.024  1.00  0.00    -0.269 OA
ATOM      9  N   UNL A   1      33.298  23.586  24.591  1.00  0.00    -0.339 N 
ATOM     10  C   UNL A   1      32.062  24.143  25.111  1.00  0.00     0.120 C 
ATOM     11  C   UNL A   1      33.631  23.965  23.228  1.00  0.00     0.120 C 
ATOM     12  C   UNL A   1      32.180  25.670  25.116  1.00  0.00     0.030 C 
ATOM     13  C   UNL A   1      33.721  25.479  23.090  1.00  0.00     0.030 C 
ATOM     14  C   UNL A   1      32.534  26.262  23.722  1.00  0.00    -0.008 C 
ATOM     15  C   UNL A   1      31.306  26.236  22.772  1.00  0.00     0.019 C 
ATOM     16  C   UNL A   1      33.007  27.730  23.860  1.00  0.00     0.127 C 
ATOM     17  C   UNL A   1      30.248  27.281  23.126  1.00  0.00     0.101 C 
ATOM     18  C   UNL A   1      30.862  28.656  23.296  1.00  0.00     0.223 C 
ATOM     19  O   UNL A   1      30.395  29.670  22.796  1.00  0.00    -0.275 OA
BRANCH   7  20
ATOM     20  C   UNL A   1      35.428  22.570  25.342  1.00  0.00     0.043 A 
ATOM     21  C   UNL A   1      39.671  22.292  26.119  1.00  0.00     0.048 C 
ATOM     22  C   UNL A   1      38.206  22.379  25.801  1.00  0.00    -0.009 A 
ATOM     23  C   UNL A   1      37.517  23.566  26.079  1.00  0.00     0.008 A 
ATOM     24  C   UNL A   1      37.480  21.294  25.296  1.00  0.00     0.119 A 
ATOM     25  C   UNL A   1      36.140  23.655  25.867  1.00  0.00     0.014 A 
ATOM     26  C   UNL A   1      36.108  21.385  25.054  1.00  0.00     0.060 A 
BRANCH  24  27
ATOM     27  O   UNL A   1      38.059  20.080  25.049  1.00  0.00    -0.508 OA
ATOM     28  H   UNL A   1      38.776  20.017  24.449  1.00  0.00     0.293 HD
ENDBRANCH  24  27
ENDBRANCH   7  20
ENDBRANCH   5   6
ENDBRANCH   3   5
ENDBRANCH   2   3
ENDBRANCH   1   2
BRANCH   1  29
ATOM     29  C   UNL A   1      34.993  31.415  28.054  1.00  0.00     0.275 C 
BRANCH  29  30
ATOM     30  O   UNL A   1      35.584  30.215  28.587  1.00  0.00    -0.458 OA
BRANCH  30  31
ATOM     31  C   UNL A   1      36.454  30.397  29.607  1.00  0.00     0.338 C 
ATOM     32  O   UNL A   1      36.262  30.965  30.665  1.00  0.00    -0.246 OA
BRANCH  31  33
ATOM     33  C   UNL A   1      37.765  29.839  29.257  1.00  0.00     0.060 A 
ATOM     34  C   UNL A   1      38.708  29.567  30.249  1.00  0.00     0.016 A 
ATOM     35  C   UNL A   1      38.100  29.736  27.906  1.00  0.00     0.016 A 
ATOM     36  C   UNL A   1      40.015  29.247  29.888  1.00  0.00     0.010 A 
ATOM     37  C   UNL A   1      39.395  29.360  27.547  1.00  0.00     0.010 A 
ATOM     38  C   UNL A   1      40.370  29.144  28.534  1.00  0.00    -0.014 A 
BRANCH  38  39
ATOM     39  C   UNL A   1      41.766  28.824  28.144  1.00  0.00     0.031 A 
ATOM     40  C   UNL A   1      42.136  27.423  27.738  1.00  0.00     0.074 A 
ATOM     41  C   UNL A   1      42.700  29.793  28.178  1.00  0.00     0.049 A 
ATOM     42  N   UNL A   1      43.317  26.924  27.482  1.00  0.00    -0.248 NA
ATOM     43  C   UNL A   1      41.036  26.452  27.614  1.00  0.00     0.031 C 
ATOM     44  C   UNL A   1      42.458  31.188  28.552  1.00  0.00     0.029 A 
ATOM     45  N   UNL A   1      44.043  29.750  27.905  1.00  0.00    -0.354 N 
ATOM     46  C   UNL A   1      43.111  25.579  27.201  1.00  0.00     0.074 A 
ATOM     47  C   UNL A   1      41.690  25.335  27.319  1.00  0.00     0.031 C 
ATOM     48  C   UNL A   1      43.613  31.867  28.483  1.00  0.00     0.029 A 
ATOM     49  C   UNL A   1      44.682  30.949  28.108  1.00  0.00     0.049 A 
ATOM     50  H   UNL A   1      44.505  28.937  27.593  1.00  0.00     0.167 HD
ATOM     51  C   UNL A   1      44.027  24.636  26.878  1.00  0.00     0.037 A 
ATOM     52  C   UNL A   1      45.989  31.267  28.032  1.00  0.00     0.037 A 
ATOM     53  C   UNL A   1      45.435  24.894  26.724  1.00  0.00     0.049 A 
ATOM     54  C   UNL A   1      46.982  30.203  27.659  1.00  0.00     0.074 A 
ATOM     55  C   UNL A   1      46.438  24.011  26.359  1.00  0.00     0.029 A 
ATOM     56  N   UNL A   1      46.040  26.127  26.918  1.00  0.00    -0.354 N 
ATOM     57  N   UNL A   1      46.768  28.936  27.396  1.00  0.00    -0.248 NA
ATOM     58  C   UNL A   1      48.392  30.608  27.580  1.00  0.00     0.031 C 
ATOM     59  C   UNL A   1      47.653  24.706  26.357  1.00  0.00     0.029 A 
ATOM     60  C   UNL A   1      47.402  26.027  26.692  1.00  0.00     0.049 A 
ATOM     61  H   UNL A   1      45.569  26.953  27.177  1.00  0.00     0.167 HD
ATOM     62  C   UNL A   1      48.015  28.394  27.114  1.00  0.00     0.074 A 
ATOM     63  C   UNL A   1      48.975  29.473  27.220  1.00  0.00     0.031 C 
ATOM     64  C   UNL A   1      48.338  27.115  26.801  1.00  0.00     0.037 A 
BRANCH  51  65
ATOM     65  C   UNL A   1      43.548  23.226  26.681  1.00  0.00     0.058 A 
ATOM     66  C   UNL A   1      43.506  22.631  25.412  1.00  0.00     0.135 A 
ATOM     67  C   UNL A   1      43.194  22.438  27.788  1.00  0.00     0.135 A 
ATOM     68  F   UNL A   1      43.818  23.347  24.320  1.00  0.00    -0.206 F 
ATOM     69  C   UNL A   1      43.127  21.303  25.244  1.00  0.00     0.059 A 
ATOM     70  C   UNL A   1      42.827  21.103  27.647  1.00  0.00     0.059 A 
ATOM     71  F   UNL A   1      43.213  22.963  29.024  1.00  0.00    -0.206 F 
ATOM     72  C   UNL A   1      42.790  20.546  26.369  1.00  0.00     0.060 A 
BRANCH  72  73
ATOM     73  S   UNL A   1      42.333  18.813  26.145  1.00  0.00     0.124 S 
ATOM     74  O   UNL A   1      40.940  18.932  25.724  1.00  0.00    -0.237 OA
ATOM     75  O   UNL A   1      43.268  18.370  25.117  1.00  0.00    -0.237 OA
ATOM     76  O   UNL A   1      42.541  18.233  27.467  1.00  0.00    -0.744 OA
ENDBRANCH  72  73
ENDBRANCH  51  65
BRANCH  52  77
ATOM     77  C   UNL A   1      46.431  32.648  28.348  1.00  0.00     0.058 A 
ATOM     78  C   UNL A   1      46.491  33.635  27.355  1.00  0.00     0.135 A 
ATOM     79  C   UNL A   1      46.786  33.010  29.657  1.00  0.00     0.135 A 
ATOM     80  F   UNL A   1      46.166  33.333  26.089  1.00  0.00    -0.206 F 
ATOM     81  C   UNL A   1      46.900  34.933  27.645  1.00  0.00     0.059 A 
ATOM     82  C   UNL A   1      47.177  34.305  29.975  1.00  0.00     0.059 A 
ATOM     83  F   UNL A   1      46.729  32.102  30.645  1.00  0.00    -0.206 F 
ATOM     84  C   UNL A   1      47.242  35.258  28.959  1.00  0.00     0.060 A 
BRANCH  84  85
ATOM     85  S   UNL A   1      47.723  36.955  29.346  1.00  0.00     0.124 S 
ATOM     86  O   UNL A   1      49.007  36.752  30.006  1.00  0.00    -0.237 OA
ATOM     87  O   UNL A   1      47.774  37.576  28.027  1.00  0.00    -0.237 OA
ATOM     88  O   UNL A   1      46.636  37.419  30.204  1.00  0.00    -0.744 OA
ENDBRANCH  84  85
ENDBRANCH  52  77
BRANCH  64  89
ATOM     89  C   UNL A   1      49.785  26.824  26.535  1.00  0.00     0.058 A 
ATOM     90  C   UNL A   1      50.649  26.423  27.565  1.00  0.00     0.135 A 
ATOM     91  C   UNL A   1      50.303  26.911  25.234  1.00  0.00     0.135 A 
ATOM     92  F   UNL A   1      50.200  26.331  28.826  1.00  0.00    -0.206 F 
ATOM     93  C   UNL A   1      51.987  26.137  27.317  1.00  0.00     0.059 A 
ATOM     94  C   UNL A   1      51.633  26.614  24.960  1.00  0.00     0.059 A 
ATOM     95  F   UNL A   1      49.512  27.284  24.215  1.00  0.00    -0.206 F 
ATOM     96  C   UNL A   1      52.470  26.239  26.011  1.00  0.00     0.060 A 
BRANCH  96  97
ATOM     97  S   UNL A   1      54.203  25.843  25.690  1.00  0.00     0.124 S 
ATOM     98  O   UNL A   1      54.366  24.608  26.450  1.00  0.00    -0.237 OA
ATOM     99  O   UNL A   1      54.233  25.701  24.238  1.00  0.00    -0.237 OA
ATOM    100  O   UNL A   1      54.916  27.003  26.215  1.00  0.00    -0.744 OA
ENDBRANCH  96  97
ENDBRANCH  64  89
ENDBRANCH  38  39
ENDBRANCH  31  33
ENDBRANCH  30  31
ENDBRANCH  29  30
ENDBRANCH   1  29
TORSDOF 17
ENDMDL
MODEL 3
REMARK VINA RESULT:     -11.8      1.583      2.246
REMARK SMILES Cc1ccc(C(=O)N2CCC3(CCC(=O)N(CC(=O)OCCOC(=O)c4ccc(-c5c6nc(c(-c7c(F)cc(S(=O)(=O)[O-])cc7F)c7ccc([nH]7)c(-c7c(F)cc(S(=O)(=O)[O-])cc7F)c7nc(c(-c8c(F)cc(S(=O)(=O)[O-])cc8F)c8ccc5[nH]8)C=C7)C=C6)cc4)C3)CC2)cc1O
REMARK SMILES IDX 21 1 20 2 18 3 19 4 17 5 16 6 6 7 7 8 8 9 9 10 94 11 10 12
REMARK SMILES IDX 93 13 11 14 12 15 92 16 13 17 14 18 15 19 5 20 1 21 2 22
REMARK SMILES IDX 3 23 96 24 4 25 95 26 97 27 22 29 23 30 24 31 25 32 26 33
REMARK SMILES IDX 27 34 91 35 28 36 90 37 29 38 30 39 31 40 84 41 32 42 89 43
REMARK SMILES IDX 83 44 85 45 33 46 88 47 82 48 81 49 34 51 68 52 47 53 67 54
REMARK SMILES IDX 48 55 51 56 66 57 86 58 49 59 50 60 65 62 87 63 52 64 35 65
REMARK SMILES IDX 36 66 45 67 37 68 38 69 44 70 46 71 39 72 40 73 41 74 42 75
REMARK SMILES IDX 43 76 69 77 70 78 79 79 71 80 72 81 78 82 80 83 73 84 74 85
REMARK SMILES IDX 75 86 76 87 77 88 53 89 54 90 63 91 55 92 56 93 62 94 64 95
REMARK SMILES IDX 57 96 58 97 59 98 60 99 61 100
REMARK H PARENT 97 28 85 50 51 61
REMARK Flexibility Score: inf
ROOT
ATOM      1  C   UNL A   1      31.982  30.001  27.134  1.00  0.00     0.274 C 
ENDROOT
BRANCH   1   2
ATOM      2  O   UNL A   1      31.758  29.006  26.120  1.00  0.00    -0.461 OA
BRANCH   2   3
ATOM      3  C   UNL A   1      31.503  29.474  24.876  1.00  0.00     0.325 C 
ATOM      4  O   UNL A   1      30.709  30.374  24.613  1.00  0.00    -0.250 OA
BRANCH   3   5
ATOM      5  C   UNL A   1      32.330  28.801  23.784  1.00  0.00     0.242 C 
BRANCH   5   6
ATOM      6  N   UNL A   1      31.709  27.812  22.905  1.00  0.00    -0.331 N 
ATOM      7  C   UNL A   1      32.547  22.698  26.827  1.00  0.00     0.253 C 
ATOM      8  O   UNL A   1      32.250  22.698  28.020  1.00  0.00    -0.269 OA
ATOM      9  N   UNL A   1      31.875  23.471  25.888  1.00  0.00    -0.339 N 
ATOM     10  C   UNL A   1      31.269  24.723  26.308  1.00  0.00     0.120 C 
ATOM     11  C   UNL A   1      31.511  23.015  24.556  1.00  0.00     0.120 C 
ATOM     12  C   UNL A   1      31.718  25.827  25.348  1.00  0.00     0.030 C 
ATOM     13  C   UNL A   1      31.860  24.063  23.508  1.00  0.00     0.030 C 
ATOM     14  C   UNL A   1      31.405  25.510  23.858  1.00  0.00    -0.008 C 
ATOM     15  C   UNL A   1      29.893  25.687  23.551  1.00  0.00     0.019 C 
ATOM     16  C   UNL A   1      32.201  26.454  22.923  1.00  0.00     0.127 C 
ATOM     17  C   UNL A   1      29.456  27.151  23.498  1.00  0.00     0.101 C 
ATOM     18  C   UNL A   1      30.363  27.968  22.601  1.00  0.00     0.223 C 
ATOM     19  O   UNL A   1      29.950  28.754  21.760  1.00  0.00    -0.275 OA
BRANCH   7  20
ATOM     20  C   UNL A   1      33.779  21.975  26.406  1.00  0.00     0.043 A 
ATOM     21  C   UNL A   1      37.331  20.297  24.604  1.00  0.00     0.048 C 
ATOM     22  C   UNL A   1      36.117  20.870  25.275  1.00  0.00    -0.009 A 
ATOM     23  C   UNL A   1      34.860  20.315  25.001  1.00  0.00     0.008 A 
ATOM     24  C   UNL A   1      36.178  21.986  26.119  1.00  0.00     0.119 A 
ATOM     25  C   UNL A   1      33.702  20.872  25.548  1.00  0.00     0.014 A 
ATOM     26  C   UNL A   1      35.028  22.530  26.693  1.00  0.00     0.060 A 
BRANCH  24  27
ATOM     27  O   UNL A   1      37.354  22.626  26.397  1.00  0.00    -0.508 OA
ATOM     28  H   UNL A   1      37.755  22.524  27.237  1.00  0.00     0.293 HD
ENDBRANCH  24  27
ENDBRANCH   7  20
ENDBRANCH   5   6
ENDBRANCH   3   5
ENDBRANCH   2   3
ENDBRANCH   1   2
BRANCH   1  29
ATOM     29  C   UNL A   1      33.410  30.538  27.053  1.00  0.00     0.275 C 
BRANCH  29  30
ATOM     30  O   UNL A   1      34.266  29.797  27.943  1.00  0.00    -0.458 OA
BRANCH  30  31
ATOM     31  C   UNL A   1      35.070  30.543  28.734  1.00  0.00     0.338 C 
ATOM     32  O   UNL A   1      34.793  31.559  29.344  1.00  0.00    -0.246 OA
BRANCH  31  33
ATOM     33  C   UNL A   1      36.428  29.986  28.741  1.00  0.00     0.060 A 
ATOM     34  C   UNL A   1      37.031  29.602  29.940  1.00  0.00     0.016 A 
ATOM     35  C   UNL A   1      37.153  29.996  27.549  1.00  0.00     0.016 A 
ATOM     36  C   UNL A   1      38.388  29.283  29.957  1.00  0.00     0.010 A 
ATOM     37  C   UNL A   1      38.497  29.621  27.559  1.00  0.00     0.010 A 
ATOM     38  C   UNL A   1      39.132  29.293  28.768  1.00  0.00    -0.014 A 
BRANCH  38  39
ATOM     39  C   UNL A   1      40.581  28.975  28.784  1.00  0.00     0.031 A 
ATOM     40  C   UNL A   1      41.589  30.050  29.090  1.00  0.00     0.074 A 
ATOM     41  C   UNL A   1      40.986  27.722  28.501  1.00  0.00     0.049 A 
ATOM     42  N   UNL A   1      42.894  29.995  29.034  1.00  0.00    -0.248 NA
ATOM     43  C   UNL A   1      41.061  31.361  29.503  1.00  0.00     0.031 C 
ATOM     44  C   UNL A   1      40.100  26.597  28.192  1.00  0.00     0.029 A 
ATOM     45  N   UNL A   1      42.246  27.187  28.416  1.00  0.00    -0.354 N 
ATOM     46  C   UNL A   1      43.344  31.267  29.368  1.00  0.00     0.074 A 
ATOM     47  C   UNL A   1      42.173  32.076  29.626  1.00  0.00     0.031 C 
ATOM     48  C   UNL A   1      40.844  25.506  27.954  1.00  0.00     0.029 A 
ATOM     49  C   UNL A   1      42.255  25.864  28.045  1.00  0.00     0.049 A 
ATOM     50  H   UNL A   1      43.065  27.701  28.603  1.00  0.00     0.167 HD
ATOM     51  C   UNL A   1      44.620  31.715  29.450  1.00  0.00     0.037 A 
ATOM     52  C   UNL A   1      43.285  25.039  27.777  1.00  0.00     0.037 A 
ATOM     53  C   UNL A   1      45.782  30.894  29.230  1.00  0.00     0.049 A 
ATOM     54  C   UNL A   1      44.690  25.560  27.886  1.00  0.00     0.074 A 
ATOM     55  C   UNL A   1      47.117  31.248  29.328  1.00  0.00     0.029 A 
ATOM     56  N   UNL A   1      45.749  29.553  28.877  1.00  0.00    -0.354 N 
ATOM     57  N   UNL A   1      45.096  26.765  28.205  1.00  0.00    -0.248 NA
ATOM     58  C   UNL A   1      45.774  24.614  27.593  1.00  0.00     0.031 C 
ATOM     59  C   UNL A   1      47.892  30.126  29.009  1.00  0.00     0.029 A 
ATOM     60  C   UNL A   1      47.038  29.068  28.742  1.00  0.00     0.049 A 
ATOM     61  H   UNL A   1      44.929  29.025  28.742  1.00  0.00     0.167 HD
ATOM     62  C   UNL A   1      46.483  26.721  28.157  1.00  0.00     0.074 A 
ATOM     63  C   UNL A   1      46.847  25.366  27.797  1.00  0.00     0.031 C 
ATOM     64  C   UNL A   1      47.377  27.715  28.385  1.00  0.00     0.037 A 
BRANCH  51  65
ATOM     65  C   UNL A   1      44.837  33.166  29.775  1.00  0.00     0.058 A 
ATOM     66  C   UNL A   1      44.857  34.150  28.776  1.00  0.00     0.135 A 
ATOM     67  C   UNL A   1      44.956  33.581  31.110  1.00  0.00     0.135 A 
ATOM     68  F   UNL A   1      44.764  33.803  27.483  1.00  0.00    -0.206 F 
ATOM     69  C   UNL A   1      44.990  35.499  29.090  1.00  0.00     0.059 A 
ATOM     70  C   UNL A   1      45.074  34.926  31.449  1.00  0.00     0.059 A 
ATOM     71  F   UNL A   1      44.948  32.677  32.102  1.00  0.00    -0.206 F 
ATOM     72  C   UNL A   1      45.096  35.878  30.430  1.00  0.00     0.060 A 
BRANCH  72  73
ATOM     73  S   UNL A   1      45.234  37.634  30.828  1.00  0.00     0.124 S 
ATOM     74  O   UNL A   1      45.300  37.597  32.286  1.00  0.00    -0.237 OA
ATOM     75  O   UNL A   1      46.466  38.017  30.149  1.00  0.00    -0.237 OA
ATOM     76  O   UNL A   1      44.012  38.206  30.270  1.00  0.00    -0.744 OA
ENDBRANCH  72  73
ENDBRANCH  51  65
BRANCH  52  77
ATOM     77  C   UNL A   1      43.019  23.643  27.346  1.00  0.00     0.058 A 
ATOM     78  C   UNL A   1      43.113  23.271  25.998  1.00  0.00     0.135 A 
ATOM     79  C   UNL A   1      42.681  22.652  28.280  1.00  0.00     0.135 A 
ATOM     80  F   UNL A   1      43.429  24.187  25.070  1.00  0.00    -0.206 F 
ATOM     81  C   UNL A   1      42.870  21.965  25.587  1.00  0.00     0.059 A 
ATOM     82  C   UNL A   1      42.455  21.335  27.896  1.00  0.00     0.059 A 
ATOM     83  F   UNL A   1      42.595  22.958  29.584  1.00  0.00    -0.206 F 
ATOM     84  C   UNL A   1      42.541  21.003  26.545  1.00  0.00     0.060 A 
BRANCH  84  85
ATOM     85  S   UNL A   1      42.276  19.296  26.018  1.00  0.00     0.124 S 
ATOM     86  O   UNL A   1      42.721  18.556  27.193  1.00  0.00    -0.237 OA
ATOM     87  O   UNL A   1      40.841  19.268  25.752  1.00  0.00    -0.237 OA
ATOM     88  O   UNL A   1      43.125  19.180  24.836  1.00  0.00    -0.744 OA
ENDBRANCH  84  85
ENDBRANCH  52  77
BRANCH  64  89
ATOM     89  C   UNL A   1      48.830  27.364  28.268  1.00  0.00     0.058 A 
ATOM     90  C   UNL A   1      49.471  27.319  27.021  1.00  0.00     0.135 A 
ATOM     91  C   UNL A   1      49.596  27.107  29.415  1.00  0.00     0.135 A 
ATOM     92  F   UNL A   1      48.776  27.551  25.895  1.00  0.00    -0.206 F 
ATOM     93  C   UNL A   1      50.822  27.009  26.911  1.00  0.00     0.059 A 
ATOM     94  C   UNL A   1      50.953  26.812  29.331  1.00  0.00     0.059 A 
ATOM     95  F   UNL A   1      49.028  27.146  30.630  1.00  0.00    -0.206 F 
ATOM     96  C   UNL A   1      51.553  26.754  28.073  1.00  0.00     0.060 A 
BRANCH  96  97
ATOM     97  S   UNL A   1      53.314  26.376  27.928  1.00  0.00     0.124 S 
ATOM     98  O   UNL A   1      53.635  25.956  29.287  1.00  0.00    -0.237 OA
ATOM     99  O   UNL A   1      53.331  25.322  26.919  1.00  0.00    -0.237 OA
ATOM    100  O   UNL A   1      53.896  27.647  27.508  1.00  0.00    -0.744 OA
ENDBRANCH  96  97
ENDBRANCH  64  89
ENDBRANCH  38  39
ENDBRANCH  31  33
ENDBRANCH  30  31
ENDBRANCH  29  30
ENDBRANCH   1  29
TORSDOF 17
ENDMDL
