MODEL 1
REMARK VINA RESULT:     -12.3      0.000      0.000
REMARK SMILES C=CCS(=O)(=O)Nc1ccc(C)cc1C(=O)OCCOC(=O)c1ccc(-c2c3nc(c(-c4c(F)cc(S(=O)(=O)[O-])cc4F)c4ccc([nH]4)c(-c4c(F)cc(S(=O)(=O)[O-])cc4F)c4nc(c(-c5c(F)cc(S(=O)(=O)[O-])cc5F)c5ccc2[nH]5)C=C4)C=C3)cc1
REMARK SMILES IDX 18 1 17 2 15 3 16 4 14 5 8 6 9 7 10 8 13 9 11 10 12 11 7 12
REMARK SMILES IDX 4 14 5 15 6 16 3 17 2 18 1 19 19 20 20 21 21 22 22 23 23 24
REMARK SMILES IDX 24 25 88 26 25 27 87 28 26 29 27 30 28 31 81 32 29 33 86 34
REMARK SMILES IDX 80 35 82 36 30 37 85 38 79 39 78 40 31 42 65 43 44 44 64 45
REMARK SMILES IDX 45 46 48 47 63 48 83 49 46 50 47 51 62 53 84 54 49 55 32 56
REMARK SMILES IDX 33 57 42 58 34 59 35 60 41 61 43 62 36 63 37 64 38 65 39 66
REMARK SMILES IDX 40 67 66 68 67 69 76 70 68 71 69 72 75 73 77 74 70 75 71 76
REMARK SMILES IDX 72 77 73 78 74 79 50 80 51 81 60 82 52 83 53 84 59 85 61 86
REMARK SMILES IDX 54 87 55 88 56 89 57 90 58 91
REMARK H PARENT 7 13 82 41 48 52
REMARK Flexibility Score: inf
ROOT
ATOM      1  C   UNL A   1      33.959  28.936  26.031  1.00  0.00     0.275 C 
ENDROOT
BRANCH   1   2
ATOM      2  O   UNL A   1      33.049  29.435  25.033  1.00  0.00    -0.458 OA
BRANCH   2   3
ATOM      3  C   UNL A   1      31.756  29.245  25.389  1.00  0.00     0.340 C 
ATOM      4  O   UNL A   1      31.373  28.923  26.507  1.00  0.00    -0.246 OA
BRANCH   3   5
ATOM      5  C   UNL A   1      30.768  29.373  24.299  1.00  0.00     0.084 A 
ATOM      6  C   UNL A   1      30.502  28.221  23.541  1.00  0.00     0.063 A 
ATOM      7  C   UNL A   1      29.352  28.153  22.753  1.00  0.00     0.028 A 
ATOM      8  C   UNL A   1      28.497  29.251  22.664  1.00  0.00     0.005 A 
ATOM      9  C   UNL A   1      29.959  30.506  24.134  1.00  0.00     0.021 A 
ATOM     10  C   UNL A   1      28.808  30.444  23.327  1.00  0.00    -0.050 A 
ATOM     11  C   UNL A   1      27.841  31.595  23.269  1.00  0.00     0.044 C 
BRANCH   6  12
ATOM     12  N   UNL A   1      31.370  27.068  23.518  1.00  0.00    -0.282 N 
ATOM     13  H   UNL A   1      32.201  27.067  22.990  1.00  0.00     0.180 HD
BRANCH  12  14
ATOM     14  S   UNL A   1      30.912  25.709  24.433  1.00  0.00     0.236 S 
ATOM     15  O   UNL A   1      30.644  24.635  23.486  1.00  0.00    -0.206 OA
ATOM     16  O   UNL A   1      29.865  26.129  25.332  1.00  0.00    -0.206 OA
BRANCH  14  17
ATOM     17  C   UNL A   1      32.321  25.229  25.465  1.00  0.00     0.186 C 
BRANCH  17  18
ATOM     18  C   UNL A   1      33.630  25.468  24.773  1.00  0.00    -0.017 C 
ATOM     19  C   UNL A   1      34.746  24.778  25.048  1.00  0.00     0.005 C 
ENDBRANCH  17  18
ENDBRANCH  14  17
ENDBRANCH  12  14
ENDBRANCH   6  12
ENDBRANCH   3   5
ENDBRANCH   2   3
ENDBRANCH   1   2
BRANCH   1  20
ATOM     20  C   UNL A   1      34.407  30.000  27.049  1.00  0.00     0.275 C 
BRANCH  20  21
ATOM     21  O   UNL A   1      35.263  29.616  28.151  1.00  0.00    -0.458 OA
BRANCH  21  22
ATOM     22  C   UNL A   1      36.055  30.572  28.697  1.00  0.00     0.338 C 
ATOM     23  O   UNL A   1      35.634  31.669  29.061  1.00  0.00    -0.246 OA
BRANCH  22  24
ATOM     24  C   UNL A   1      37.362  29.966  29.070  1.00  0.00     0.060 A 
ATOM     25  C   UNL A   1      37.405  28.905  29.985  1.00  0.00     0.016 A 
ATOM     26  C   UNL A   1      38.473  30.245  28.270  1.00  0.00     0.016 A 
ATOM     27  C   UNL A   1      38.491  28.031  29.998  1.00  0.00     0.010 A 
ATOM     28  C   UNL A   1      39.493  29.329  28.200  1.00  0.00     0.010 A 
ATOM     29  C   UNL A   1      39.512  28.231  29.071  1.00  0.00    -0.014 A 
BRANCH  29  30
ATOM     30  C   UNL A   1      40.803  27.563  29.133  1.00  0.00     0.031 A 
ATOM     31  C   UNL A   1      41.045  26.191  28.659  1.00  0.00     0.074 A 
ATOM     32  C   UNL A   1      41.769  28.392  29.583  1.00  0.00     0.049 A 
ATOM     33  N   UNL A   1      42.066  25.485  29.004  1.00  0.00    -0.248 NA
ATOM     34  C   UNL A   1      40.148  25.472  27.762  1.00  0.00     0.031 C 
ATOM     35  C   UNL A   1      43.209  28.258  29.609  1.00  0.00     0.029 A 
ATOM     36  N   UNL A   1      41.517  29.545  30.343  1.00  0.00    -0.354 N 
ATOM     37  C   UNL A   1      42.102  24.360  28.200  1.00  0.00     0.074 A 
ATOM     38  C   UNL A   1      40.838  24.352  27.510  1.00  0.00     0.031 C 
ATOM     39  C   UNL A   1      43.680  29.065  30.582  1.00  0.00     0.029 A 
ATOM     40  C   UNL A   1      42.528  29.610  31.300  1.00  0.00     0.049 A 
ATOM     41  H   UNL A   1      40.775  30.181  30.223  1.00  0.00     0.167 HD
ATOM     42  C   UNL A   1      43.267  23.655  28.110  1.00  0.00     0.037 A 
ATOM     43  C   UNL A   1      42.166  29.324  32.589  1.00  0.00     0.037 A 
ATOM     44  C   UNL A   1      44.260  24.230  29.013  1.00  0.00     0.049 A 
ATOM     45  C   UNL A   1      42.772  28.021  33.075  1.00  0.00     0.074 A 
ATOM     46  C   UNL A   1      45.234  25.203  28.858  1.00  0.00     0.029 A 
ATOM     47  N   UNL A   1      44.056  24.102  30.372  1.00  0.00    -0.354 N 
ATOM     48  N   UNL A   1      43.310  27.124  32.292  1.00  0.00    -0.248 NA
ATOM     49  C   UNL A   1      42.812  27.623  34.479  1.00  0.00     0.031 C 
ATOM     50  C   UNL A   1      45.548  25.718  30.151  1.00  0.00     0.029 A 
ATOM     51  C   UNL A   1      44.777  25.043  31.081  1.00  0.00     0.049 A 
ATOM     52  H   UNL A   1      43.471  23.427  30.784  1.00  0.00     0.167 HD
ATOM     53  C   UNL A   1      43.845  26.119  33.044  1.00  0.00     0.074 A 
ATOM     54  C   UNL A   1      43.460  26.447  34.405  1.00  0.00     0.031 C 
ATOM     55  C   UNL A   1      44.590  25.104  32.519  1.00  0.00     0.037 A 
BRANCH  42  56
ATOM     56  C   UNL A   1      43.599  22.627  27.048  1.00  0.00     0.058 A 
ATOM     57  C   UNL A   1      42.889  21.406  27.006  1.00  0.00     0.135 A 
ATOM     58  C   UNL A   1      44.602  22.758  26.066  1.00  0.00     0.135 A 
ATOM     59  F   UNL A   1      41.869  21.159  27.839  1.00  0.00    -0.206 F 
ATOM     60  C   UNL A   1      43.199  20.369  26.126  1.00  0.00     0.059 A 
ATOM     61  C   UNL A   1      44.959  21.716  25.194  1.00  0.00     0.059 A 
ATOM     62  F   UNL A   1      45.251  23.918  25.890  1.00  0.00    -0.206 F 
ATOM     63  C   UNL A   1      44.255  20.520  25.238  1.00  0.00     0.060 A 
BRANCH  63  64
ATOM     64  S   UNL A   1      44.664  19.134  24.157  1.00  0.00     0.124 S 
ATOM     65  O   UNL A   1      43.725  18.110  24.603  1.00  0.00    -0.237 OA
ATOM     66  O   UNL A   1      44.410  19.693  22.834  1.00  0.00    -0.237 OA
ATOM     67  O   UNL A   1      46.066  18.864  24.463  1.00  0.00    -0.744 OA
ENDBRANCH  63  64
ENDBRANCH  42  56
BRANCH  43  68
ATOM     68  C   UNL A   1      40.820  29.877  32.983  1.00  0.00     0.058 A 
ATOM     69  C   UNL A   1      40.654  31.284  33.037  1.00  0.00     0.135 A 
ATOM     70  C   UNL A   1      39.646  29.114  33.036  1.00  0.00     0.135 A 
ATOM     71  F   UNL A   1      41.729  32.090  33.009  1.00  0.00    -0.206 F 
ATOM     72  C   UNL A   1      39.402  31.897  33.012  1.00  0.00     0.059 A 
ATOM     73  C   UNL A   1      38.375  29.708  33.043  1.00  0.00     0.059 A 
ATOM     74  F   UNL A   1      39.702  27.775  32.997  1.00  0.00    -0.206 F 
ATOM     75  C   UNL A   1      38.264  31.099  32.985  1.00  0.00     0.060 A 
BRANCH  75  76
ATOM     76  S   UNL A   1      36.663  31.896  32.691  1.00  0.00     0.124 S 
ATOM     77  O   UNL A   1      36.332  32.403  34.018  1.00  0.00    -0.237 OA
ATOM     78  O   UNL A   1      37.010  32.907  31.695  1.00  0.00    -0.237 OA
ATOM     79  O   UNL A   1      35.833  30.797  32.209  1.00  0.00    -0.744 OA
ENDBRANCH  75  76
ENDBRANCH  43  68
BRANCH  55  80
ATOM     80  C   UNL A   1      45.235  24.062  33.374  1.00  0.00     0.058 A 
ATOM     81  C   UNL A   1      44.543  22.917  33.794  1.00  0.00     0.135 A 
ATOM     82  C   UNL A   1      46.538  24.241  33.885  1.00  0.00     0.135 A 
ATOM     83  F   UNL A   1      43.270  22.710  33.422  1.00  0.00    -0.206 F 
ATOM     84  C   UNL A   1      45.141  21.956  34.601  1.00  0.00     0.059 A 
ATOM     85  C   UNL A   1      47.130  23.327  34.742  1.00  0.00     0.059 A 
ATOM     86  F   UNL A   1      47.292  25.292  33.534  1.00  0.00    -0.206 F 
ATOM     87  C   UNL A   1      46.440  22.166  35.059  1.00  0.00     0.060 A 
BRANCH  87  88
ATOM     88  S   UNL A   1      47.240  20.903  36.058  1.00  0.00     0.124 S 
ATOM     89  O   UNL A   1      46.115  20.285  36.753  1.00  0.00    -0.237 OA
ATOM     90  O   UNL A   1      47.874  20.086  35.028  1.00  0.00    -0.237 OA
ATOM     91  O   UNL A   1      48.149  21.668  36.906  1.00  0.00    -0.744 OA
ENDBRANCH  87  88
ENDBRANCH  55  80
ENDBRANCH  29  30
ENDBRANCH  22  24
ENDBRANCH  21  22
ENDBRANCH  20  21
ENDBRANCH   1  20
TORSDOF 18
ENDMDL
MODEL 2
REMARK VINA RESULT:     -12.2      1.821      2.941
REMARK SMILES C=CCS(=O)(=O)Nc1ccc(C)cc1C(=O)OCCOC(=O)c1ccc(-c2c3nc(c(-c4c(F)cc(S(=O)(=O)[O-])cc4F)c4ccc([nH]4)c(-c4c(F)cc(S(=O)(=O)[O-])cc4F)c4nc(c(-c5c(F)cc(S(=O)(=O)[O-])cc5F)c5ccc2[nH]5)C=C4)C=C3)cc1
REMARK SMILES IDX 18 1 17 2 15 3 16 4 14 5 8 6 9 7 10 8 13 9 11 10 12 11 7 12
REMARK SMILES IDX 4 14 5 15 6 16 3 17 2 18 1 19 19 20 20 21 21 22 22 23 23 24
REMARK SMILES IDX 24 25 88 26 25 27 87 28 26 29 27 30 28 31 81 32 29 33 86 34
REMARK SMILES IDX 80 35 82 36 30 37 85 38 79 39 78 40 31 42 65 43 44 44 64 45
REMARK SMILES IDX 45 46 48 47 63 48 83 49 46 50 47 51 62 53 84 54 49 55 32 56
REMARK SMILES IDX 33 57 42 58 34 59 35 60 41 61 43 62 36 63 37 64 38 65 39 66
REMARK SMILES IDX 40 67 66 68 67 69 76 70 68 71 69 72 75 73 77 74 70 75 71 76
REMARK SMILES IDX 72 77 73 78 74 79 50 80 51 81 60 82 52 83 53 84 59 85 61 86
REMARK SMILES IDX 54 87 55 88 56 89 57 90 58 91
REMARK H PARENT 7 13 82 41 48 52
REMARK Flexibility Score: inf
ROOT
ATOM      1  C   UNL A   1      33.493  27.990  26.390  1.00  0.00     0.275 C 
ENDROOT
BRANCH   1   2
ATOM      2  O   UNL A   1      33.730  26.575  26.262  1.00  0.00    -0.458 OA
BRANCH   2   3
ATOM      3  C   UNL A   1      33.964  26.219  24.977  1.00  0.00     0.340 C 
ATOM      4  O   UNL A   1      33.643  26.874  23.993  1.00  0.00    -0.246 OA
BRANCH   3   5
ATOM      5  C   UNL A   1      34.592  24.895  24.787  1.00  0.00     0.084 A 
ATOM      6  C   UNL A   1      34.116  24.111  23.724  1.00  0.00     0.063 A 
ATOM      7  C   UNL A   1      34.873  23.036  23.255  1.00  0.00     0.028 A 
ATOM      8  C   UNL A   1      36.072  22.697  23.880  1.00  0.00     0.005 A 
ATOM      9  C   UNL A   1      35.748  24.495  25.472  1.00  0.00     0.021 A 
ATOM     10  C   UNL A   1      36.503  23.401  25.011  1.00  0.00    -0.050 A 
ATOM     11  C   UNL A   1      37.830  23.060  25.631  1.00  0.00     0.044 C 
BRANCH   6  12
ATOM     12  N   UNL A   1      32.852  24.347  23.067  1.00  0.00    -0.282 N 
ATOM     13  H   UNL A   1      32.745  25.082  22.421  1.00  0.00     0.180 HD
BRANCH  12  14
ATOM     14  S   UNL A   1      31.555  23.313  23.443  1.00  0.00     0.236 S 
ATOM     15  O   UNL A   1      31.689  22.141  22.590  1.00  0.00    -0.206 OA
ATOM     16  O   UNL A   1      30.346  24.098  23.373  1.00  0.00    -0.206 OA
BRANCH  14  17
ATOM     17  C   UNL A   1      31.737  22.794  25.169  1.00  0.00     0.186 C 
BRANCH  17  18
ATOM     18  C   UNL A   1      32.167  21.361  25.281  1.00  0.00    -0.017 C 
ATOM     19  C   UNL A   1      33.188  20.956  26.050  1.00  0.00     0.005 C 
ENDBRANCH  17  18
ENDBRANCH  14  17
ENDBRANCH  12  14
ENDBRANCH   6  12
ENDBRANCH   3   5
ENDBRANCH   2   3
ENDBRANCH   1   2
BRANCH   1  20
ATOM     20  C   UNL A   1      34.756  28.804  26.722  1.00  0.00     0.275 C 
BRANCH  20  21
ATOM     21  O   UNL A   1      34.950  29.302  28.067  1.00  0.00    -0.458 OA
BRANCH  21  22
ATOM     22  C   UNL A   1      35.781  30.361  28.234  1.00  0.00     0.338 C 
ATOM     23  O   UNL A   1      35.383  31.521  28.327  1.00  0.00    -0.246 OA
BRANCH  22  24
ATOM     24  C   UNL A   1      37.134  29.864  28.607  1.00  0.00     0.060 A 
ATOM     25  C   UNL A   1      37.277  28.944  29.655  1.00  0.00     0.016 A 
ATOM     26  C   UNL A   1      38.184  30.072  27.709  1.00  0.00     0.016 A 
ATOM     27  C   UNL A   1      38.401  28.124  29.722  1.00  0.00     0.010 A 
ATOM     28  C   UNL A   1      39.242  29.196  27.704  1.00  0.00     0.010 A 
ATOM     29  C   UNL A   1      39.360  28.232  28.716  1.00  0.00    -0.014 A 
BRANCH  29  30
ATOM     30  C   UNL A   1      40.682  27.630  28.790  1.00  0.00     0.031 A 
ATOM     31  C   UNL A   1      40.989  26.258  28.354  1.00  0.00     0.074 A 
ATOM     32  C   UNL A   1      41.607  28.517  29.213  1.00  0.00     0.049 A 
ATOM     33  N   UNL A   1      42.045  25.614  28.713  1.00  0.00    -0.248 NA
ATOM     34  C   UNL A   1      40.127  25.471  27.481  1.00  0.00     0.031 C 
ATOM     35  C   UNL A   1      43.053  28.455  29.236  1.00  0.00     0.029 A 
ATOM     36  N   UNL A   1      41.302  29.677  29.942  1.00  0.00    -0.354 N 
ATOM     37  C   UNL A   1      42.134  24.470  27.941  1.00  0.00     0.074 A 
ATOM     38  C   UNL A   1      40.870  24.380  27.256  1.00  0.00     0.031 C 
ATOM     39  C   UNL A   1      43.486  29.311  30.185  1.00  0.00     0.029 A 
ATOM     40  C   UNL A   1      42.311  29.818  30.892  1.00  0.00     0.049 A 
ATOM     41  H   UNL A   1      40.529  30.272  29.808  1.00  0.00     0.167 HD
ATOM     42  C   UNL A   1      43.332  23.820  27.865  1.00  0.00     0.037 A 
ATOM     43  C   UNL A   1      41.967  29.551  32.191  1.00  0.00     0.037 A 
ATOM     44  C   UNL A   1      44.298  24.468  28.747  1.00  0.00     0.049 A 
ATOM     45  C   UNL A   1      42.637  28.294  32.709  1.00  0.00     0.074 A 
ATOM     46  C   UNL A   1      45.222  25.483  28.562  1.00  0.00     0.029 A 
ATOM     47  N   UNL A   1      44.104  24.369  30.110  1.00  0.00    -0.354 N 
ATOM     48  N   UNL A   1      43.217  27.403  31.950  1.00  0.00    -0.248 NA
ATOM     49  C   UNL A   1      42.701  27.937  34.124  1.00  0.00     0.031 C 
ATOM     50  C   UNL A   1      45.515  26.048  29.839  1.00  0.00     0.029 A 
ATOM     51  C   UNL A   1      44.780  25.363  30.791  1.00  0.00     0.049 A 
ATOM     52  H   UNL A   1      43.555  23.677  30.543  1.00  0.00     0.167 HD
ATOM     53  C   UNL A   1      43.803  26.446  32.727  1.00  0.00     0.074 A 
ATOM     54  C   UNL A   1      43.406  26.793  34.080  1.00  0.00     0.031 C 
ATOM     55  C   UNL A   1      44.595  25.454  32.227  1.00  0.00     0.037 A 
BRANCH  42  56
ATOM     56  C   UNL A   1      43.710  22.781  26.831  1.00  0.00     0.058 A 
ATOM     57  C   UNL A   1      43.074  21.519  26.837  1.00  0.00     0.135 A 
ATOM     58  C   UNL A   1      44.692  22.939  25.831  1.00  0.00     0.135 A 
ATOM     59  F   UNL A   1      42.081  21.239  27.692  1.00  0.00    -0.206 F 
ATOM     60  C   UNL A   1      43.434  20.475  25.984  1.00  0.00     0.059 A 
ATOM     61  C   UNL A   1      45.099  21.893  24.987  1.00  0.00     0.059 A 
ATOM     62  F   UNL A   1      45.269  24.129  25.610  1.00  0.00    -0.206 F 
ATOM     63  C   UNL A   1      44.467  20.660  25.077  1.00  0.00     0.060 A 
BRANCH  63  64
ATOM     64  S   UNL A   1      44.945  19.266  24.034  1.00  0.00     0.124 S 
ATOM     65  O   UNL A   1      46.401  19.303  24.121  1.00  0.00    -0.237 OA
ATOM     66  O   UNL A   1      44.298  18.145  24.707  1.00  0.00    -0.237 OA
ATOM     67  O   UNL A   1      44.393  19.612  22.727  1.00  0.00    -0.744 OA
ENDBRANCH  63  64
ENDBRANCH  42  56
BRANCH  43  68
ATOM     68  C   UNL A   1      40.596  30.049  32.575  1.00  0.00     0.058 A 
ATOM     69  C   UNL A   1      40.333  31.439  32.497  1.00  0.00     0.135 A 
ATOM     70  C   UNL A   1      39.481  29.216  32.742  1.00  0.00     0.135 A 
ATOM     71  F   UNL A   1      41.348  32.309  32.355  1.00  0.00    -0.206 F 
ATOM     72  C   UNL A   1      39.041  31.961  32.456  1.00  0.00     0.059 A 
ATOM     73  C   UNL A   1      38.172  29.722  32.735  1.00  0.00     0.059 A 
ATOM     74  F   UNL A   1      39.631  27.887  32.832  1.00  0.00    -0.206 F 
ATOM     75  C   UNL A   1      37.962  31.089  32.546  1.00  0.00     0.060 A 
BRANCH  75  76
ATOM     76  S   UNL A   1      36.301  31.743  32.231  1.00  0.00     0.124 S 
ATOM     77  O   UNL A   1      36.552  32.696  31.155  1.00  0.00    -0.237 OA
ATOM     78  O   UNL A   1      35.570  30.537  31.851  1.00  0.00    -0.237 OA
ATOM     79  O   UNL A   1      35.929  32.325  33.517  1.00  0.00    -0.744 OA
ENDBRANCH  75  76
ENDBRANCH  43  68
BRANCH  55  80
ATOM     80  C   UNL A   1      45.293  24.470  33.107  1.00  0.00     0.058 A 
ATOM     81  C   UNL A   1      44.650  23.320  33.586  1.00  0.00     0.135 A 
ATOM     82  C   UNL A   1      46.598  24.713  33.583  1.00  0.00     0.135 A 
ATOM     83  F   UNL A   1      43.377  23.055  33.250  1.00  0.00    -0.206 F 
ATOM     84  C   UNL A   1      45.297  22.412  34.417  1.00  0.00     0.059 A 
ATOM     85  C   UNL A   1      47.240  23.854  34.462  1.00  0.00     0.059 A 
ATOM     86  F   UNL A   1      47.309  25.775  33.176  1.00  0.00    -0.206 F 
ATOM     87  C   UNL A   1      46.597  22.684  34.839  1.00  0.00     0.060 A 
BRANCH  87  88
ATOM     88  S   UNL A   1      47.460  21.489  35.869  1.00  0.00     0.124 S 
ATOM     89  O   UNL A   1      46.402  20.547  36.222  1.00  0.00    -0.237 OA
ATOM     90  O   UNL A   1      48.468  20.989  34.939  1.00  0.00    -0.237 OA
ATOM     91  O   UNL A   1      47.966  22.298  36.973  1.00  0.00    -0.744 OA
ENDBRANCH  87  88
ENDBRANCH  55  80
ENDBRANCH  29  30
ENDBRANCH  22  24
ENDBRANCH  21  22
ENDBRANCH  20  21
ENDBRANCH   1  20
TORSDOF 18
ENDMDL
MODEL 3
REMARK VINA RESULT:     -12.2      1.346      3.137
REMARK SMILES C=CCS(=O)(=O)Nc1ccc(C)cc1C(=O)OCCOC(=O)c1ccc(-c2c3nc(c(-c4c(F)cc(S(=O)(=O)[O-])cc4F)c4ccc([nH]4)c(-c4c(F)cc(S(=O)(=O)[O-])cc4F)c4nc(c(-c5c(F)cc(S(=O)(=O)[O-])cc5F)c5ccc2[nH]5)C=C4)C=C3)cc1
REMARK SMILES IDX 18 1 17 2 15 3 16 4 14 5 8 6 9 7 10 8 13 9 11 10 12 11 7 12
REMARK SMILES IDX 4 14 5 15 6 16 3 17 2 18 1 19 19 20 20 21 21 22 22 23 23 24
REMARK SMILES IDX 24 25 88 26 25 27 87 28 26 29 27 30 28 31 81 32 29 33 86 34
REMARK SMILES IDX 80 35 82 36 30 37 85 38 79 39 78 40 31 42 65 43 44 44 64 45
REMARK SMILES IDX 45 46 48 47 63 48 83 49 46 50 47 51 62 53 84 54 49 55 32 56
REMARK SMILES IDX 33 57 42 58 34 59 35 60 41 61 43 62 36 63 37 64 38 65 39 66
REMARK SMILES IDX 40 67 66 68 67 69 76 70 68 71 69 72 75 73 77 74 70 75 71 76
REMARK SMILES IDX 72 77 73 78 74 79 50 80 51 81 60 82 52 83 53 84 59 85 61 86
REMARK SMILES IDX 54 87 55 88 56 89 57 90 58 91
REMARK H PARENT 7 13 82 41 48 52
REMARK Flexibility Score: inf
ROOT
ATOM      1  C   UNL A   1      33.795  28.582  26.102  1.00  0.00     0.275 C 
ENDROOT
BRANCH   1   2
ATOM      2  O   UNL A   1      34.349  27.507  25.320  1.00  0.00    -0.458 OA
BRANCH   2   3
ATOM      3  C   UNL A   1      33.699  26.340  25.538  1.00  0.00     0.340 C 
ATOM      4  O   UNL A   1      32.619  26.229  26.105  1.00  0.00    -0.246 OA
BRANCH   3   5
ATOM      5  C   UNL A   1      34.416  25.121  25.109  1.00  0.00     0.084 A 
ATOM      6  C   UNL A   1      34.060  24.578  23.864  1.00  0.00     0.063 A 
ATOM      7  C   UNL A   1      34.909  23.670  23.229  1.00  0.00     0.028 A 
ATOM      8  C   UNL A   1      36.081  23.249  23.857  1.00  0.00     0.005 A 
ATOM      9  C   UNL A   1      35.543  24.626  25.777  1.00  0.00     0.021 A 
ATOM     10  C   UNL A   1      36.392  23.698  25.146  1.00  0.00    -0.050 A 
ATOM     11  C   UNL A   1      37.691  23.282  25.780  1.00  0.00     0.044 C 
BRANCH   6  12
ATOM     12  N   UNL A   1      32.832  24.903  23.177  1.00  0.00    -0.282 N 
ATOM     13  H   UNL A   1      31.970  24.531  23.473  1.00  0.00     0.180 HD
BRANCH  12  14
ATOM     14  S   UNL A   1      32.922  25.949  21.839  1.00  0.00     0.236 S 
ATOM     15  O   UNL A   1      33.063  25.110  20.657  1.00  0.00    -0.206 OA
ATOM     16  O   UNL A   1      33.939  26.931  22.129  1.00  0.00    -0.206 OA
BRANCH  14  17
ATOM     17  C   UNL A   1      31.353  26.846  21.725  1.00  0.00     0.186 C 
BRANCH  17  18
ATOM     18  C   UNL A   1      31.177  27.816  22.855  1.00  0.00    -0.017 C 
ATOM     19  C   UNL A   1      30.362  27.596  23.896  1.00  0.00     0.005 C 
ENDBRANCH  17  18
ENDBRANCH  14  17
ENDBRANCH  12  14
ENDBRANCH   6  12
ENDBRANCH   3   5
ENDBRANCH   2   3
ENDBRANCH   1   2
BRANCH   1  20
ATOM     20  C   UNL A   1      34.619  28.925  27.356  1.00  0.00     0.275 C 
BRANCH  20  21
ATOM     21  O   UNL A   1      35.259  30.219  27.456  1.00  0.00    -0.458 OA
BRANCH  21  22
ATOM     22  C   UNL A   1      36.100  30.428  28.500  1.00  0.00     0.338 C 
ATOM     23  O   UNL A   1      35.776  31.044  29.514  1.00  0.00    -0.246 OA
BRANCH  22  24
ATOM     24  C   UNL A   1      37.286  29.541  28.355  1.00  0.00     0.060 A 
ATOM     25  C   UNL A   1      38.166  29.721  27.278  1.00  0.00     0.016 A 
ATOM     26  C   UNL A   1      37.673  28.768  29.453  1.00  0.00     0.016 A 
ATOM     27  C   UNL A   1      39.479  29.262  27.359  1.00  0.00     0.010 A 
ATOM     28  C   UNL A   1      38.991  28.409  29.586  1.00  0.00     0.010 A 
ATOM     29  C   UNL A   1      39.892  28.641  28.537  1.00  0.00    -0.014 A 
BRANCH  29  30
ATOM     30  C   UNL A   1      41.136  27.900  28.668  1.00  0.00     0.031 A 
ATOM     31  C   UNL A   1      41.302  26.490  28.279  1.00  0.00     0.074 A 
ATOM     32  C   UNL A   1      42.142  28.692  29.095  1.00  0.00     0.049 A 
ATOM     33  N   UNL A   1      42.269  25.744  28.689  1.00  0.00    -0.248 NA
ATOM     34  C   UNL A   1      40.381  25.776  27.402  1.00  0.00     0.031 C 
ATOM     35  C   UNL A   1      43.571  28.472  29.164  1.00  0.00     0.029 A 
ATOM     36  N   UNL A   1      41.947  29.901  29.782  1.00  0.00    -0.354 N 
ATOM     37  C   UNL A   1      42.252  24.574  27.951  1.00  0.00     0.074 A 
ATOM     38  C   UNL A   1      41.005  24.603  27.231  1.00  0.00     0.031 C 
ATOM     39  C   UNL A   1      44.070  29.303  30.103  1.00  0.00     0.029 A 
ATOM     40  C   UNL A   1      42.940  29.958  30.759  1.00  0.00     0.049 A 
ATOM     41  H   UNL A   1      41.249  30.572  29.608  1.00  0.00     0.167 HD
ATOM     42  C   UNL A   1      43.372  23.794  27.930  1.00  0.00     0.037 A 
ATOM     43  C   UNL A   1      42.532  29.771  32.053  1.00  0.00     0.037 A 
ATOM     44  C   UNL A   1      44.379  24.359  28.823  1.00  0.00     0.049 A 
ATOM     45  C   UNL A   1      43.045  28.464  32.626  1.00  0.00     0.074 A 
ATOM     46  C   UNL A   1      45.415  25.260  28.639  1.00  0.00     0.029 A 
ATOM     47  N   UNL A   1      44.138  24.323  30.182  1.00  0.00    -0.354 N 
ATOM     48  N   UNL A   1      43.542  27.491  31.910  1.00  0.00    -0.248 NA
ATOM     49  C   UNL A   1      43.029  28.146  34.052  1.00  0.00     0.031 C 
ATOM     50  C   UNL A   1      45.733  25.828  29.908  1.00  0.00     0.029 A 
ATOM     51  C   UNL A   1      44.901  25.258  30.855  1.00  0.00     0.049 A 
ATOM     52  H   UNL A   1      43.504  23.710  30.617  1.00  0.00     0.167 HD
ATOM     53  C   UNL A   1      43.997  26.501  32.730  1.00  0.00     0.074 A 
ATOM     54  C   UNL A   1      43.604  26.930  34.061  1.00  0.00     0.031 C 
ATOM     55  C   UNL A   1      44.688  25.413  32.283  1.00  0.00     0.037 A 
BRANCH  42  56
ATOM     56  C   UNL A   1      43.661  22.689  26.937  1.00  0.00     0.058 A 
ATOM     57  C   UNL A   1      42.903  21.497  26.972  1.00  0.00     0.135 A 
ATOM     58  C   UNL A   1      44.669  22.716  25.950  1.00  0.00     0.135 A 
ATOM     59  F   UNL A   1      41.874  21.345  27.817  1.00  0.00    -0.206 F 
ATOM     60  C   UNL A   1      43.171  20.394  26.159  1.00  0.00     0.059 A 
ATOM     61  C   UNL A   1      44.982  21.607  25.148  1.00  0.00     0.059 A 
ATOM     62  F   UNL A   1      45.363  23.835  25.702  1.00  0.00    -0.206 F 
ATOM     63  C   UNL A   1      44.231  20.446  25.266  1.00  0.00     0.060 A 
BRANCH  63  64
ATOM     64  S   UNL A   1      44.583  18.978  24.277  1.00  0.00     0.124 S 
ATOM     65  O   UNL A   1      44.409  19.476  22.916  1.00  0.00    -0.237 OA
ATOM     66  O   UNL A   1      45.954  18.669  24.667  1.00  0.00    -0.237 OA
ATOM     67  O   UNL A   1      43.576  18.017  24.719  1.00  0.00    -0.744 OA
ENDBRANCH  63  64
ENDBRANCH  42  56
BRANCH  43  68
ATOM     68  C   UNL A   1      41.215  30.428  32.381  1.00  0.00     0.058 A 
ATOM     69  C   UNL A   1      40.132  29.609  32.787  1.00  0.00     0.135 A 
ATOM     70  C   UNL A   1      41.057  31.806  32.577  1.00  0.00     0.135 A 
ATOM     71  F   UNL A   1      40.195  28.277  32.619  1.00  0.00    -0.206 F 
ATOM     72  C   UNL A   1      39.021  30.110  33.463  1.00  0.00     0.059 A 
ATOM     73  C   UNL A   1      39.932  32.337  33.227  1.00  0.00     0.059 A 
ATOM     74  F   UNL A   1      42.025  32.661  32.218  1.00  0.00    -0.206 F 
ATOM     75  C   UNL A   1      38.942  31.477  33.706  1.00  0.00     0.060 A 
BRANCH  75  76
ATOM     76  S   UNL A   1      37.633  32.080  34.805  1.00  0.00     0.124 S 
ATOM     77  O   UNL A   1      38.062  33.451  35.060  1.00  0.00    -0.237 OA
ATOM     78  O   UNL A   1      36.446  31.933  33.966  1.00  0.00    -0.237 OA
ATOM     79  O   UNL A   1      37.716  31.170  35.943  1.00  0.00    -0.744 OA
ENDBRANCH  75  76
ENDBRANCH  43  68
BRANCH  55  80
ATOM     80  C   UNL A   1      45.248  24.385  33.210  1.00  0.00     0.058 A 
ATOM     81  C   UNL A   1      44.500  23.272  33.620  1.00  0.00     0.135 A 
ATOM     82  C   UNL A   1      46.519  24.549  33.800  1.00  0.00     0.135 A 
ATOM     83  F   UNL A   1      43.248  23.084  33.173  1.00  0.00    -0.206 F 
ATOM     84  C   UNL A   1      45.018  22.324  34.495  1.00  0.00     0.059 A 
ATOM     85  C   UNL A   1      47.030  23.649  34.723  1.00  0.00     0.059 A 
ATOM     86  F   UNL A   1      47.323  25.568  33.466  1.00  0.00    -0.206 F 
ATOM     87  C   UNL A   1      46.290  22.517  35.031  1.00  0.00     0.060 A 
BRANCH  87  88
ATOM     88  S   UNL A   1      46.988  21.269  36.120  1.00  0.00     0.124 S 
ATOM     89  O   UNL A   1      45.826  20.822  36.882  1.00  0.00    -0.237 OA
ATOM     90  O   UNL A   1      47.517  20.312  35.153  1.00  0.00    -0.237 OA
ATOM     91  O   UNL A   1      47.986  22.009  36.886  1.00  0.00    -0.744 OA
ENDBRANCH  87  88
ENDBRANCH  55  80
ENDBRANCH  29  30
ENDBRANCH  22  24
ENDBRANCH  21  22
ENDBRANCH  20  21
ENDBRANCH   1  20
TORSDOF 18
ENDMDL
