MODEL 1
REMARK VINA RESULT:     -10.6      0.000      0.000
REMARK SMILES C[C@H](O)[C@H](NC(=O)N1CC[N@H+]2CCC[C@@H]2C1)C(=O)OCCOC(=O)c1ccc(-c2c3nc(c(-c4c(F)cc(S(=O)(=O)[O-])cc4F)c4ccc([nH]4)c(-c4c(F)cc(S(=O)(=O)[O-])cc4F)c4nc(c(-c5c(F)cc(S(=O)(=O)[O-])cc5F)c5ccc2[nH]5)C=C4)C=C3)cc1
REMARK SMILES IDX 21 1 20 2 19 3 17 4 18 5 4 6 2 7 1 8 3 9 5 11 6 12 7 14 8 15
REMARK SMILES IDX 9 16 16 17 10 18 15 19 11 20 14 21 12 22 13 24 22 25 23 26
REMARK SMILES IDX 24 27 25 28 26 29 90 30 27 31 89 32 28 33 29 34 30 35 83 36
REMARK SMILES IDX 31 37 88 38 82 39 84 40 32 41 87 42 81 43 80 44 33 46 67 47
REMARK SMILES IDX 46 48 66 49 47 50 50 51 65 52 85 53 48 54 49 55 64 57 86 58
REMARK SMILES IDX 51 59 34 60 35 61 44 62 36 63 37 64 43 65 45 66 38 67 39 68
REMARK SMILES IDX 40 69 41 70 42 71 68 72 69 73 78 74 70 75 71 76 77 77 79 78
REMARK SMILES IDX 72 79 73 80 74 81 75 82 76 83 52 84 53 85 62 86 54 87 55 88
REMARK SMILES IDX 61 89 63 90 56 91 57 92 58 93 59 94 60 95
REMARK H PARENT 3 10 5 13 11 23 84 45 50 56
REMARK Flexibility Score: inf
ROOT
ATOM      1  C   UNL A   1      34.385  31.748  28.133  1.00  0.00     0.275 C 
ENDROOT
BRANCH   1   2
ATOM      2  C   UNL A   1      34.386  33.262  28.391  1.00  0.00     0.274 C 
BRANCH   2   3
ATOM      3  O   UNL A   1      33.568  33.658  29.512  1.00  0.00    -0.460 OA
BRANCH   3   4
ATOM      4  C   UNL A   1      33.659  34.976  29.854  1.00  0.00     0.331 C 
ATOM      5  O   UNL A   1      33.561  35.893  29.042  1.00  0.00    -0.250 OA
BRANCH   4   6
ATOM      6  C   UNL A   1      34.019  35.218  31.331  1.00  0.00     0.222 C 
BRANCH   6   7
ATOM      7  C   UNL A   1      33.571  36.613  31.835  1.00  0.00     0.145 C 
ATOM      8  C   UNL A   1      33.803  36.891  33.320  1.00  0.00     0.041 C 
BRANCH   7   9
ATOM      9  O   UNL A   1      32.181  36.856  31.556  1.00  0.00    -0.391 OA
ATOM     10  H   UNL A   1      32.095  37.283  30.689  1.00  0.00     0.211 HD
ENDBRANCH   7   9
ENDBRANCH   6   7
BRANCH   6  11
ATOM     11  N   UNL A   1      35.432  34.950  31.611  1.00  0.00    -0.322 N 
ATOM     12  C   UNL A   1      35.821  33.798  32.231  1.00  0.00     0.318 C 
ATOM     13  H   UNL A   1      36.111  35.611  31.347  1.00  0.00     0.166 HD
ATOM     14  O   UNL A   1      35.073  33.233  33.028  1.00  0.00    -0.249 OA
BRANCH  12  15
ATOM     15  N   UNL A   1      37.059  33.297  31.871  1.00  0.00    -0.313 N 
ATOM     16  C   UNL A   1      37.973  32.549  32.760  1.00  0.00     0.183 C 
ATOM     17  C   UNL A   1      37.633  33.811  30.614  1.00  0.00     0.186 C 
ATOM     18  C   UNL A   1      39.423  33.126  32.866  1.00  0.00     0.284 C 
ATOM     19  C   UNL A   1      39.156  33.641  30.518  1.00  0.00     0.204 C 
ATOM     20  N   UNL A   1      39.778  34.024  31.779  1.00  0.00    -0.330 N 
ATOM     21  C   UNL A   1      39.849  34.583  29.551  1.00  0.00     0.073 C 
ATOM     22  C   UNL A   1      41.173  34.349  31.575  1.00  0.00     0.262 C 
ATOM     23  H   UNL A   1      39.387  34.900  32.125  1.00  0.00     0.348 HD
ATOM     24  C   UNL A   1      41.284  34.608  30.073  1.00  0.00     0.068 C 
ENDBRANCH  12  15
ENDBRANCH   6  11
ENDBRANCH   4   6
ENDBRANCH   3   4
ENDBRANCH   2   3
ENDBRANCH   1   2
BRANCH   1  25
ATOM     25  O   UNL A   1      35.699  31.195  27.930  1.00  0.00    -0.458 OA
BRANCH  25  26
ATOM     26  C   UNL A   1      36.283  30.798  29.082  1.00  0.00     0.338 C 
ATOM     27  O   UNL A   1      35.754  30.815  30.179  1.00  0.00    -0.246 OA
BRANCH  26  28
ATOM     28  C   UNL A   1      37.636  30.290  28.905  1.00  0.00     0.060 A 
ATOM     29  C   UNL A   1      38.064  29.929  27.627  1.00  0.00     0.016 A 
ATOM     30  C   UNL A   1      38.416  30.022  30.032  1.00  0.00     0.016 A 
ATOM     31  C   UNL A   1      39.306  29.328  27.467  1.00  0.00     0.010 A 
ATOM     32  C   UNL A   1      39.680  29.459  29.865  1.00  0.00     0.010 A 
ATOM     33  C   UNL A   1      40.140  29.133  28.579  1.00  0.00    -0.014 A 
BRANCH  33  34
ATOM     34  C   UNL A   1      41.560  28.781  28.372  1.00  0.00     0.031 A 
ATOM     35  C   UNL A   1      42.646  29.809  28.414  1.00  0.00     0.074 A 
ATOM     36  C   UNL A   1      41.831  27.490  28.097  1.00  0.00     0.049 A 
ATOM     37  N   UNL A   1      43.921  29.660  28.156  1.00  0.00    -0.248 NA
ATOM     38  C   UNL A   1      42.258  31.177  28.782  1.00  0.00     0.031 C 
ATOM     39  C   UNL A   1      40.829  26.421  28.031  1.00  0.00     0.029 A 
ATOM     40  N   UNL A   1      43.011  26.857  27.815  1.00  0.00    -0.354 N 
ATOM     41  C   UNL A   1      44.490  30.916  28.318  1.00  0.00     0.074 A 
ATOM     42  C   UNL A   1      43.418  31.819  28.687  1.00  0.00     0.031 C 
ATOM     43  C   UNL A   1      41.438  25.264  27.738  1.00  0.00     0.029 A 
ATOM     44  C   UNL A   1      42.859  25.518  27.546  1.00  0.00     0.049 A 
ATOM     45  H   UNL A   1      43.882  27.315  27.807  1.00  0.00     0.167 HD
ATOM     46  C   UNL A   1      45.790  31.270  28.168  1.00  0.00     0.037 A 
ATOM     47  C   UNL A   1      43.760  24.600  27.158  1.00  0.00     0.037 A 
ATOM     48  C   UNL A   1      46.838  30.349  27.801  1.00  0.00     0.049 A 
ATOM     49  C   UNL A   1      45.186  25.023  26.983  1.00  0.00     0.074 A 
ATOM     50  C   UNL A   1      48.190  30.598  27.639  1.00  0.00     0.029 A 
ATOM     51  N   UNL A   1      46.650  28.999  27.533  1.00  0.00    -0.354 N 
ATOM     52  N   UNL A   1      45.711  26.215  27.145  1.00  0.00    -0.248 NA
ATOM     53  C   UNL A   1      46.139  23.988  26.569  1.00  0.00     0.031 C 
ATOM     54  C   UNL A   1      48.813  29.408  27.243  1.00  0.00     0.029 A 
ATOM     55  C   UNL A   1      47.856  28.407  27.192  1.00  0.00     0.049 A 
ATOM     56  H   UNL A   1      45.785  28.530  27.581  1.00  0.00     0.167 HD
ATOM     57  C   UNL A   1      47.060  26.074  26.855  1.00  0.00     0.074 A 
ATOM     58  C   UNL A   1      47.272  24.676  26.527  1.00  0.00     0.031 C 
ATOM     59  C   UNL A   1      48.035  27.016  26.854  1.00  0.00     0.037 A 
BRANCH  46  60
ATOM     60  C   UNL A   1      46.153  32.715  28.377  1.00  0.00     0.058 A 
ATOM     61  C   UNL A   1      46.566  33.199  29.627  1.00  0.00     0.135 A 
ATOM     62  C   UNL A   1      46.135  33.617  27.300  1.00  0.00     0.135 A 
ATOM     63  F   UNL A   1      46.594  32.384  30.692  1.00  0.00    -0.206 F 
ATOM     64  C   UNL A   1      46.933  34.531  29.808  1.00  0.00     0.059 A 
ATOM     65  C   UNL A   1      46.515  34.948  27.453  1.00  0.00     0.059 A 
ATOM     66  F   UNL A   1      45.749  33.207  26.081  1.00  0.00    -0.206 F 
ATOM     67  C   UNL A   1      46.900  35.399  28.715  1.00  0.00     0.060 A 
BRANCH  67  68
ATOM     68  S   UNL A   1      47.384  37.123  28.958  1.00  0.00     0.124 S 
ATOM     69  O   UNL A   1      46.093  37.753  29.222  1.00  0.00    -0.237 OA
ATOM     70  O   UNL A   1      48.292  37.039  30.097  1.00  0.00    -0.237 OA
ATOM     71  O   UNL A   1      48.008  37.483  27.689  1.00  0.00    -0.744 OA
ENDBRANCH  67  68
ENDBRANCH  46  60
BRANCH  47  72
ATOM     72  C   UNL A   1      43.317  23.207  26.906  1.00  0.00     0.058 A 
ATOM     73  C   UNL A   1      43.238  22.703  25.601  1.00  0.00     0.135 A 
ATOM     74  C   UNL A   1      43.042  22.331  27.969  1.00  0.00     0.135 A 
ATOM     75  F   UNL A   1      43.493  23.503  24.556  1.00  0.00    -0.206 F 
ATOM     76  C   UNL A   1      42.901  21.375  25.357  1.00  0.00     0.059 A 
ATOM     77  C   UNL A   1      42.724  20.996  27.750  1.00  0.00     0.059 A 
ATOM     78  F   UNL A   1      43.127  22.764  29.237  1.00  0.00    -0.206 F 
ATOM     79  C   UNL A   1      42.652  20.528  26.438  1.00  0.00     0.060 A 
BRANCH  79  80
ATOM     80  S   UNL A   1      42.295  18.786  26.118  1.00  0.00     0.124 S 
ATOM     81  O   UNL A   1      43.237  18.488  25.046  1.00  0.00    -0.237 OA
ATOM     82  O   UNL A   1      42.581  18.167  27.409  1.00  0.00    -0.237 OA
ATOM     83  O   UNL A   1      40.886  18.799  25.738  1.00  0.00    -0.744 OA
ENDBRANCH  79  80
ENDBRANCH  47  72
BRANCH  59  84
ATOM     84  C   UNL A   1      49.413  26.552  26.489  1.00  0.00     0.058 A 
ATOM     85  C   UNL A   1      50.243  25.924  27.431  1.00  0.00     0.135 A 
ATOM     86  C   UNL A   1      49.904  26.728  25.187  1.00  0.00     0.135 A 
ATOM     87  F   UNL A   1      49.820  25.745  28.692  1.00  0.00    -0.206 F 
ATOM     88  C   UNL A   1      51.528  25.507  27.099  1.00  0.00     0.059 A 
ATOM     89  C   UNL A   1      51.179  26.301  24.828  1.00  0.00     0.059 A 
ATOM     90  F   UNL A   1      49.145  27.320  24.251  1.00  0.00    -0.206 F 
ATOM     91  C   UNL A   1      51.987  25.704  25.795  1.00  0.00     0.060 A 
BRANCH  91  92
ATOM     92  S   UNL A   1      53.651  25.148  25.369  1.00  0.00     0.124 S 
ATOM     93  O   UNL A   1      53.838  25.760  24.057  1.00  0.00    -0.237 OA
ATOM     94  O   UNL A   1      54.459  25.706  26.449  1.00  0.00    -0.237 OA
ATOM     95  O   UNL A   1      53.531  23.693  25.373  1.00  0.00    -0.744 OA
ENDBRANCH  91  92
ENDBRANCH  59  84
ENDBRANCH  33  34
ENDBRANCH  26  28
ENDBRANCH  25  26
ENDBRANCH   1  25
TORSDOF 18
ENDMDL
MODEL 2
REMARK VINA RESULT:     -10.3      5.926     13.921
REMARK SMILES C[C@H](O)[C@H](NC(=O)N1CC[N@H+]2CCC[C@@H]2C1)C(=O)OCCOC(=O)c1ccc(-c2c3nc(c(-c4c(F)cc(S(=O)(=O)[O-])cc4F)c4ccc([nH]4)c(-c4c(F)cc(S(=O)(=O)[O-])cc4F)c4nc(c(-c5c(F)cc(S(=O)(=O)[O-])cc5F)c5ccc2[nH]5)C=C4)C=C3)cc1
REMARK SMILES IDX 21 1 20 2 19 3 17 4 18 5 4 6 2 7 1 8 3 9 5 11 6 12 7 14 8 15
REMARK SMILES IDX 9 16 16 17 10 18 15 19 11 20 14 21 12 22 13 24 22 25 23 26
REMARK SMILES IDX 24 27 25 28 26 29 90 30 27 31 89 32 28 33 29 34 30 35 83 36
REMARK SMILES IDX 31 37 88 38 82 39 84 40 32 41 87 42 81 43 80 44 33 46 67 47
REMARK SMILES IDX 46 48 66 49 47 50 50 51 65 52 85 53 48 54 49 55 64 57 86 58
REMARK SMILES IDX 51 59 34 60 35 61 44 62 36 63 37 64 43 65 45 66 38 67 39 68
REMARK SMILES IDX 40 69 41 70 42 71 68 72 69 73 78 74 70 75 71 76 77 77 79 78
REMARK SMILES IDX 72 79 73 80 74 81 75 82 76 83 52 84 53 85 62 86 54 87 55 88
REMARK SMILES IDX 61 89 63 90 56 91 57 92 58 93 59 94 60 95
REMARK H PARENT 3 10 5 13 11 23 84 45 50 56
REMARK Flexibility Score: inf
ROOT
ATOM      1  C   UNL A   1      39.512  22.674  26.306  1.00  0.00     0.275 C 
ENDROOT
BRANCH   1   2
ATOM      2  C   UNL A   1      40.072  21.244  26.282  1.00  0.00     0.274 C 
BRANCH   2   3
ATOM      3  O   UNL A   1      40.777  20.879  27.487  1.00  0.00    -0.460 OA
BRANCH   3   4
ATOM      4  C   UNL A   1      41.759  19.946  27.320  1.00  0.00     0.331 C 
ATOM      5  O   UNL A   1      41.912  18.985  28.071  1.00  0.00    -0.250 OA
BRANCH   4   6
ATOM      6  C   UNL A   1      42.742  20.266  26.180  1.00  0.00     0.222 C 
BRANCH   6   7
ATOM      7  C   UNL A   1      43.561  19.029  25.733  1.00  0.00     0.145 C 
ATOM      8  C   UNL A   1      44.418  19.214  24.481  1.00  0.00     0.041 C 
BRANCH   7   9
ATOM      9  O   UNL A   1      42.717  17.883  25.520  1.00  0.00    -0.391 OA
ATOM     10  H   UNL A   1      41.795  18.123  25.702  1.00  0.00     0.211 HD
ENDBRANCH   7   9
ENDBRANCH   6   7
BRANCH   6  11
ATOM     11  N   UNL A   1      43.593  21.419  26.485  1.00  0.00    -0.322 N 
ATOM     12  C   UNL A   1      43.455  22.595  25.805  1.00  0.00     0.318 C 
ATOM     13  H   UNL A   1      44.274  21.345  27.191  1.00  0.00     0.166 HD
ATOM     14  O   UNL A   1      43.060  22.602  24.640  1.00  0.00    -0.249 OA
BRANCH  12  15
ATOM     15  N   UNL A   1      43.732  23.748  26.516  1.00  0.00    -0.313 N 
ATOM     16  C   UNL A   1      44.497  24.906  26.008  1.00  0.00     0.183 C 
ATOM     17  C   UNL A   1      43.516  23.687  27.973  1.00  0.00     0.186 C 
ATOM     18  C   UNL A   1      45.713  25.343  26.888  1.00  0.00     0.284 C 
ATOM     19  C   UNL A   1      44.292  24.757  28.756  1.00  0.00     0.204 C 
ATOM     20  N   UNL A   1      45.657  24.845  28.254  1.00  0.00    -0.330 N 
ATOM     21  C   UNL A   1      44.537  24.433  30.218  1.00  0.00     0.073 C 
ATOM     22  C   UNL A   1      46.522  25.445  29.247  1.00  0.00     0.262 C 
ATOM     23  H   UNL A   1      46.060  23.917  28.130  1.00  0.00     0.348 HD
ATOM     24  C   UNL A   1      45.749  25.299  30.558  1.00  0.00     0.068 C 
ENDBRANCH  12  15
ENDBRANCH   6  11
ENDBRANCH   4   6
ENDBRANCH   3   4
ENDBRANCH   2   3
ENDBRANCH   1   2
BRANCH   1  25
ATOM     25  O   UNL A   1      40.300  23.590  27.089  1.00  0.00    -0.458 OA
BRANCH  25  26
ATOM     26  C   UNL A   1      40.127  24.878  26.718  1.00  0.00     0.338 C 
ATOM     27  O   UNL A   1      39.881  25.255  25.585  1.00  0.00    -0.246 OA
BRANCH  26  28
ATOM     28  C   UNL A   1      40.221  25.821  27.823  1.00  0.00     0.060 A 
ATOM     29  C   UNL A   1      41.327  26.668  27.900  1.00  0.00     0.016 A 
ATOM     30  C   UNL A   1      39.293  25.746  28.864  1.00  0.00     0.016 A 
ATOM     31  C   UNL A   1      41.488  27.482  29.014  1.00  0.00     0.010 A 
ATOM     32  C   UNL A   1      39.432  26.595  29.961  1.00  0.00     0.010 A 
ATOM     33  C   UNL A   1      40.517  27.484  30.028  1.00  0.00    -0.014 A 
BRANCH  33  34
ATOM     34  C   UNL A   1      40.531  28.553  31.048  1.00  0.00     0.031 A 
ATOM     35  C   UNL A   1      41.447  28.510  32.230  1.00  0.00     0.074 A 
ATOM     36  C   UNL A   1      39.644  29.555  30.888  1.00  0.00     0.049 A 
ATOM     37  N   UNL A   1      41.501  29.328  33.251  1.00  0.00    -0.248 NA
ATOM     38  C   UNL A   1      42.419  27.410  32.284  1.00  0.00     0.031 C 
ATOM     39  C   UNL A   1      38.708  29.672  29.764  1.00  0.00     0.029 A 
ATOM     40  N   UNL A   1      39.374  30.651  31.660  1.00  0.00    -0.354 N 
ATOM     41  C   UNL A   1      42.503  28.839  34.077  1.00  0.00     0.074 A 
ATOM     42  C   UNL A   1      43.026  27.645  33.442  1.00  0.00     0.031 C 
ATOM     43  C   UNL A   1      37.976  30.783  29.915  1.00  0.00     0.029 A 
ATOM     44  C   UNL A   1      38.352  31.425  31.167  1.00  0.00     0.049 A 
ATOM     45  H   UNL A   1      39.864  30.865  32.487  1.00  0.00     0.167 HD
ATOM     46  C   UNL A   1      42.938  29.348  35.256  1.00  0.00     0.037 A 
ATOM     47  C   UNL A   1      37.760  32.518  31.680  1.00  0.00     0.037 A 
ATOM     48  C   UNL A   1      42.400  30.540  35.865  1.00  0.00     0.049 A 
ATOM     49  C   UNL A   1      38.249  33.048  32.993  1.00  0.00     0.074 A 
ATOM     50  C   UNL A   1      42.779  31.154  37.047  1.00  0.00     0.029 A 
ATOM     51  N   UNL A   1      41.362  31.301  35.339  1.00  0.00    -0.354 N 
ATOM     52  N   UNL A   1      39.203  32.577  33.761  1.00  0.00    -0.248 NA
ATOM     53  C   UNL A   1      37.584  34.247  33.512  1.00  0.00     0.031 C 
ATOM     54  C   UNL A   1      41.950  32.264  37.252  1.00  0.00     0.029 A 
ATOM     55  C   UNL A   1      41.077  32.365  36.180  1.00  0.00     0.049 A 
ATOM     56  H   UNL A   1      40.898  31.112  34.492  1.00  0.00     0.167 HD
ATOM     57  C   UNL A   1      39.256  33.426  34.857  1.00  0.00     0.074 A 
ATOM     58  C   UNL A   1      38.251  34.449  34.640  1.00  0.00     0.031 C 
ATOM     59  C   UNL A   1      40.060  33.360  35.947  1.00  0.00     0.037 A 
BRANCH  46  60
ATOM     60  C   UNL A   1      44.031  28.610  35.980  1.00  0.00     0.058 A 
ATOM     61  C   UNL A   1      45.381  28.965  35.836  1.00  0.00     0.135 A 
ATOM     62  C   UNL A   1      43.720  27.567  36.868  1.00  0.00     0.135 A 
ATOM     63  F   UNL A   1      45.736  29.948  34.994  1.00  0.00    -0.206 F 
ATOM     64  C   UNL A   1      46.387  28.300  36.533  1.00  0.00     0.059 A 
ATOM     65  C   UNL A   1      44.708  26.901  37.589  1.00  0.00     0.059 A 
ATOM     66  F   UNL A   1      42.445  27.188  37.044  1.00  0.00    -0.206 F 
ATOM     67  C   UNL A   1      46.040  27.266  37.405  1.00  0.00     0.060 A 
BRANCH  67  68
ATOM     68  S   UNL A   1      47.351  26.414  38.310  1.00  0.00     0.124 S 
ATOM     69  O   UNL A   1      48.480  27.319  38.108  1.00  0.00    -0.237 OA
ATOM     70  O   UNL A   1      46.817  26.363  39.667  1.00  0.00    -0.237 OA
ATOM     71  O   UNL A   1      47.452  25.126  37.632  1.00  0.00    -0.744 OA
ENDBRANCH  67  68
ENDBRANCH  46  60
BRANCH  47  72
ATOM     72  C   UNL A   1      36.642  33.155  30.942  1.00  0.00     0.058 A 
ATOM     73  C   UNL A   1      35.320  33.015  31.381  1.00  0.00     0.135 A 
ATOM     74  C   UNL A   1      36.885  33.979  29.831  1.00  0.00     0.135 A 
ATOM     75  F   UNL A   1      35.042  32.238  32.439  1.00  0.00    -0.206 F 
ATOM     76  C   UNL A   1      34.271  33.672  30.744  1.00  0.00     0.059 A 
ATOM     77  C   UNL A   1      35.857  34.662  29.192  1.00  0.00     0.059 A 
ATOM     78  F   UNL A   1      38.139  34.160  29.388  1.00  0.00    -0.206 F 
ATOM     79  C   UNL A   1      34.552  34.499  29.654  1.00  0.00     0.060 A 
BRANCH  79  80
ATOM     80  S   UNL A   1      33.199  35.414  28.883  1.00  0.00     0.124 S 
ATOM     81  O   UNL A   1      32.574  34.379  28.067  1.00  0.00    -0.237 OA
ATOM     82  O   UNL A   1      32.430  35.867  30.037  1.00  0.00    -0.237 OA
ATOM     83  O   UNL A   1      33.888  36.470  28.147  1.00  0.00    -0.744 OA
ENDBRANCH  79  80
ENDBRANCH  47  72
BRANCH  59  84
ATOM     84  C   UNL A   1      39.875  34.434  36.978  1.00  0.00     0.058 A 
ATOM     85  C   UNL A   1      40.562  35.654  36.890  1.00  0.00     0.135 A 
ATOM     86  C   UNL A   1      38.999  34.244  38.058  1.00  0.00     0.135 A 
ATOM     87  F   UNL A   1      41.420  35.875  35.882  1.00  0.00    -0.206 F 
ATOM     88  C   UNL A   1      40.405  36.644  37.853  1.00  0.00     0.059 A 
ATOM     89  C   UNL A   1      38.812  35.229  39.023  1.00  0.00     0.059 A 
ATOM     90  F   UNL A   1      38.317  33.094  38.182  1.00  0.00    -0.206 F 
ATOM     91  C   UNL A   1      39.531  36.420  38.918  1.00  0.00     0.060 A 
BRANCH  91  92
ATOM     92  S   UNL A   1      39.322  37.715  40.157  1.00  0.00     0.124 S 
ATOM     93  O   UNL A   1      38.218  38.486  39.594  1.00  0.00    -0.237 OA
ATOM     94  O   UNL A   1      39.012  36.954  41.364  1.00  0.00    -0.237 OA
ATOM     95  O   UNL A   1      40.619  38.387  40.165  1.00  0.00    -0.744 OA
ENDBRANCH  91  92
ENDBRANCH  59  84
ENDBRANCH  33  34
ENDBRANCH  26  28
ENDBRANCH  25  26
ENDBRANCH   1  25
TORSDOF 18
ENDMDL
MODEL 3
REMARK VINA RESULT:     -10.3      3.969     12.582
REMARK SMILES C[C@H](O)[C@H](NC(=O)N1CC[N@H+]2CCC[C@@H]2C1)C(=O)OCCOC(=O)c1ccc(-c2c3nc(c(-c4c(F)cc(S(=O)(=O)[O-])cc4F)c4ccc([nH]4)c(-c4c(F)cc(S(=O)(=O)[O-])cc4F)c4nc(c(-c5c(F)cc(S(=O)(=O)[O-])cc5F)c5ccc2[nH]5)C=C4)C=C3)cc1
REMARK SMILES IDX 21 1 20 2 19 3 17 4 18 5 4 6 2 7 1 8 3 9 5 11 6 12 7 14 8 15
REMARK SMILES IDX 9 16 16 17 10 18 15 19 11 20 14 21 12 22 13 24 22 25 23 26
REMARK SMILES IDX 24 27 25 28 26 29 90 30 27 31 89 32 28 33 29 34 30 35 83 36
REMARK SMILES IDX 31 37 88 38 82 39 84 40 32 41 87 42 81 43 80 44 33 46 67 47
REMARK SMILES IDX 46 48 66 49 47 50 50 51 65 52 85 53 48 54 49 55 64 57 86 58
REMARK SMILES IDX 51 59 34 60 35 61 44 62 36 63 37 64 43 65 45 66 38 67 39 68
REMARK SMILES IDX 40 69 41 70 42 71 68 72 69 73 78 74 70 75 71 76 77 77 79 78
REMARK SMILES IDX 72 79 73 80 74 81 75 82 76 83 52 84 53 85 62 86 54 87 55 88
REMARK SMILES IDX 61 89 63 90 56 91 57 92 58 93 59 94 60 95
REMARK H PARENT 3 10 5 13 11 23 84 45 50 56
REMARK Flexibility Score: inf
ROOT
ATOM      1  C   UNL A   1      39.882  20.941  25.930  1.00  0.00     0.275 C 
ENDROOT
BRANCH   1   2
ATOM      2  C   UNL A   1      40.786  19.800  26.419  1.00  0.00     0.274 C 
BRANCH   2   3
ATOM      3  O   UNL A   1      42.193  20.119  26.380  1.00  0.00    -0.460 OA
BRANCH   3   4
ATOM      4  C   UNL A   1      42.965  19.238  25.681  1.00  0.00     0.331 C 
ATOM      5  O   UNL A   1      42.773  18.024  25.680  1.00  0.00    -0.250 OA
BRANCH   4   6
ATOM      6  C   UNL A   1      44.179  19.881  24.986  1.00  0.00     0.222 C 
BRANCH   6   7
ATOM      7  C   UNL A   1      45.301  18.858  24.676  1.00  0.00     0.145 C 
ATOM      8  C   UNL A   1      46.447  18.801  25.686  1.00  0.00     0.041 C 
BRANCH   7   9
ATOM      9  O   UNL A   1      45.874  19.079  23.375  1.00  0.00    -0.391 OA
ATOM     10  H   UNL A   1      45.620  18.355  22.782  1.00  0.00     0.211 HD
ENDBRANCH   7   9
ENDBRANCH   6   7
BRANCH   6  11
ATOM     11  N   UNL A   1      44.677  21.054  25.709  1.00  0.00    -0.322 N 
ATOM     12  C   UNL A   1      44.996  22.205  25.049  1.00  0.00     0.318 C 
ATOM     13  H   UNL A   1      44.782  21.011  26.687  1.00  0.00     0.166 HD
ATOM     14  O   UNL A   1      45.397  22.169  23.886  1.00  0.00    -0.249 OA
BRANCH  12  15
ATOM     15  N   UNL A   1      44.792  23.385  25.741  1.00  0.00    -0.313 N 
ATOM     16  C   UNL A   1      43.555  24.193  25.711  1.00  0.00     0.183 C 
ATOM     17  C   UNL A   1      45.994  24.035  26.295  1.00  0.00     0.186 C 
ATOM     18  C   UNL A   1      43.747  25.696  25.325  1.00  0.00     0.284 C 
ATOM     19  C   UNL A   1      45.805  25.531  26.586  1.00  0.00     0.204 C 
ATOM     20  N   UNL A   1      45.114  26.169  25.473  1.00  0.00    -0.330 N 
ATOM     21  C   UNL A   1      47.086  26.343  26.641  1.00  0.00     0.073 C 
ATOM     22  C   UNL A   1      45.358  27.596  25.478  1.00  0.00     0.262 C 
ATOM     23  H   UNL A   1      45.512  25.873  24.581  1.00  0.00     0.348 HD
ATOM     24  C   UNL A   1      46.600  27.762  26.354  1.00  0.00     0.068 C 
ENDBRANCH  12  15
ENDBRANCH   6  11
ENDBRANCH   4   6
ENDBRANCH   3   4
ENDBRANCH   2   3
ENDBRANCH   1   2
BRANCH   1  25
ATOM     25  O   UNL A   1      39.660  21.967  26.917  1.00  0.00    -0.458 OA
BRANCH  25  26
ATOM     26  C   UNL A   1      39.035  23.053  26.410  1.00  0.00     0.338 C 
ATOM     27  O   UNL A   1      38.173  23.029  25.550  1.00  0.00    -0.246 OA
BRANCH  26  28
ATOM     28  C   UNL A   1      39.458  24.306  27.019  1.00  0.00     0.060 A 
ATOM     29  C   UNL A   1      39.052  24.598  28.322  1.00  0.00     0.016 A 
ATOM     30  C   UNL A   1      40.118  25.256  26.237  1.00  0.00     0.016 A 
ATOM     31  C   UNL A   1      39.344  25.843  28.866  1.00  0.00     0.010 A 
ATOM     32  C   UNL A   1      40.449  26.488  26.798  1.00  0.00     0.010 A 
ATOM     33  C   UNL A   1      40.084  26.776  28.124  1.00  0.00    -0.014 A 
BRANCH  33  34
ATOM     34  C   UNL A   1      40.649  27.962  28.801  1.00  0.00     0.031 A 
ATOM     35  C   UNL A   1      42.061  27.994  29.297  1.00  0.00     0.074 A 
ATOM     36  C   UNL A   1      39.817  29.003  28.995  1.00  0.00     0.049 A 
ATOM     37  N   UNL A   1      42.660  28.927  29.992  1.00  0.00    -0.248 NA
ATOM     38  C   UNL A   1      42.906  26.835  28.984  1.00  0.00     0.031 C 
ATOM     39  C   UNL A   1      38.421  29.053  28.548  1.00  0.00     0.029 A 
ATOM     40  N   UNL A   1      40.010  30.207  29.616  1.00  0.00    -0.354 N 
ATOM     41  C   UNL A   1      43.951  28.467  30.212  1.00  0.00     0.074 A 
ATOM     42  C   UNL A   1      44.045  27.164  29.584  1.00  0.00     0.031 C 
ATOM     43  C   UNL A   1      37.888  30.230  28.900  1.00  0.00     0.029 A 
ATOM     44  C   UNL A   1      38.884  30.993  29.640  1.00  0.00     0.049 A 
ATOM     45  H   UNL A   1      40.871  30.483  30.007  1.00  0.00     0.167 HD
ATOM     46  C   UNL A   1      44.956  29.084  30.880  1.00  0.00     0.037 A 
ATOM     47  C   UNL A   1      38.666  32.186  30.219  1.00  0.00     0.037 A 
ATOM     48  C   UNL A   1      44.836  30.383  31.495  1.00  0.00     0.049 A 
ATOM     49  C   UNL A   1      39.789  32.837  30.966  1.00  0.00     0.074 A 
ATOM     50  C   UNL A   1      45.796  31.109  32.180  1.00  0.00     0.029 A 
ATOM     51  N   UNL A   1      43.678  31.153  31.502  1.00  0.00    -0.354 N 
ATOM     52  N   UNL A   1      41.008  32.391  31.162  1.00  0.00    -0.248 NA
ATOM     53  C   UNL A   1      39.513  34.142  31.574  1.00  0.00     0.031 C 
ATOM     54  C   UNL A   1      45.211  32.300  32.628  1.00  0.00     0.029 A 
ATOM     55  C   UNL A   1      43.896  32.335  32.193  1.00  0.00     0.049 A 
ATOM     56  H   UNL A   1      42.828  30.897  31.077  1.00  0.00     0.167 HD
ATOM     57  C   UNL A   1      41.648  33.364  31.915  1.00  0.00     0.074 A 
ATOM     58  C   UNL A   1      40.685  34.430  32.122  1.00  0.00     0.031 C 
ATOM     59  C   UNL A   1      42.915  33.372  32.397  1.00  0.00     0.037 A 
BRANCH  46  60
ATOM     60  C   UNL A   1      46.268  28.357  31.004  1.00  0.00     0.058 A 
ATOM     61  C   UNL A   1      47.319  28.572  30.099  1.00  0.00     0.135 A 
ATOM     62  C   UNL A   1      46.494  27.472  32.070  1.00  0.00     0.135 A 
ATOM     63  F   UNL A   1      47.155  29.401  29.057  1.00  0.00    -0.206 F 
ATOM     64  C   UNL A   1      48.543  27.922  30.236  1.00  0.00     0.059 A 
ATOM     65  C   UNL A   1      47.716  26.824  32.237  1.00  0.00     0.059 A 
ATOM     66  F   UNL A   1      45.523  27.230  32.965  1.00  0.00    -0.206 F 
ATOM     67  C   UNL A   1      48.730  27.046  31.308  1.00  0.00     0.060 A 
BRANCH  67  68
ATOM     68  S   UNL A   1      50.324  26.212  31.482  1.00  0.00     0.124 S 
ATOM     69  O   UNL A   1      51.252  27.334  31.378  1.00  0.00    -0.237 OA
ATOM     70  O   UNL A   1      50.218  25.599  32.802  1.00  0.00    -0.237 OA
ATOM     71  O   UNL A   1      50.343  25.277  30.362  1.00  0.00    -0.744 OA
ENDBRANCH  67  68
ENDBRANCH  46  60
BRANCH  47  72
ATOM     72  C   UNL A   1      37.325  32.813  30.112  1.00  0.00     0.058 A 
ATOM     73  C   UNL A   1      36.369  32.643  31.122  1.00  0.00     0.135 A 
ATOM     74  C   UNL A   1      37.006  33.659  29.038  1.00  0.00     0.135 A 
ATOM     75  F   UNL A   1      36.632  31.844  32.167  1.00  0.00    -0.206 F 
ATOM     76  C   UNL A   1      35.138  33.290  31.071  1.00  0.00     0.059 A 
ATOM     77  C   UNL A   1      35.791  34.333  28.976  1.00  0.00     0.059 A 
ATOM     78  F   UNL A   1      37.900  33.870  28.058  1.00  0.00    -0.206 F 
ATOM     79  C   UNL A   1      34.862  34.138  29.997  1.00  0.00     0.060 A 
BRANCH  79  80
ATOM     80  S   UNL A   1      33.297  35.039  29.977  1.00  0.00     0.124 S 
ATOM     81  O   UNL A   1      33.736  36.379  29.607  1.00  0.00    -0.237 OA
ATOM     82  O   UNL A   1      32.532  34.316  28.967  1.00  0.00    -0.237 OA
ATOM     83  O   UNL A   1      32.809  34.889  31.345  1.00  0.00    -0.744 OA
ENDBRANCH  79  80
ENDBRANCH  47  72
BRANCH  59  84
ATOM     84  C   UNL A   1      43.320  34.578  33.191  1.00  0.00     0.058 A 
ATOM     85  C   UNL A   1      43.235  34.591  34.591  1.00  0.00     0.135 A 
ATOM     86  C   UNL A   1      43.804  35.727  32.547  1.00  0.00     0.135 A 
ATOM     87  F   UNL A   1      42.766  33.519  35.250  1.00  0.00    -0.206 F 
ATOM     88  C   UNL A   1      43.594  35.714  35.328  1.00  0.00     0.059 A 
ATOM     89  C   UNL A   1      44.188  36.855  33.266  1.00  0.00     0.059 A 
ATOM     90  F   UNL A   1      43.906  35.761  31.209  1.00  0.00    -0.206 F 
ATOM     91  C   UNL A   1      44.066  36.842  34.655  1.00  0.00     0.060 A 
BRANCH  91  92
ATOM     92  S   UNL A   1      44.543  38.291  35.620  1.00  0.00     0.124 S 
ATOM     93  O   UNL A   1      43.826  38.062  36.869  1.00  0.00    -0.237 OA
ATOM     94  O   UNL A   1      45.996  38.161  35.691  1.00  0.00    -0.237 OA
ATOM     95  O   UNL A   1      44.060  39.408  34.813  1.00  0.00    -0.744 OA
ENDBRANCH  91  92
ENDBRANCH  59  84
ENDBRANCH  33  34
ENDBRANCH  26  28
ENDBRANCH  25  26
ENDBRANCH   1  25
TORSDOF 18
ENDMDL
