MODEL 1
REMARK VINA RESULT:     -11.4      0.000      0.000
REMARK SMILES Cc1ccc(S(=O)(=O)Nc2ccc(C(=O)CCC(=O)OCCOC(=O)c3ccc(-c4c5nc(c(-c6c(F)cc(S(=O)(=O)[O-])cc6F)c6ccc([nH]6)c(-c6c(F)cc(S(=O)(=O)[O-])cc6F)c6nc(c(-c7c(F)cc(S(=O)(=O)[O-])cc7F)c7ccc4[nH]7)C=C6)C=C5)cc3)cc2)c(C)c1
REMARK SMILES IDX 20 1 18 2 19 3 17 4 16 5 14 6 15 7 13 8 10 9 11 10 93 11
REMARK SMILES IDX 12 12 92 13 9 14 6 16 7 17 8 18 5 19 1 20 2 21 3 22 96 23
REMARK SMILES IDX 4 24 94 25 95 26 21 27 22 28 23 29 24 30 25 31 26 32 27 33
REMARK SMILES IDX 91 34 28 35 90 36 29 37 30 38 31 39 84 40 32 41 89 42 83 43
REMARK SMILES IDX 85 44 33 45 88 46 82 47 81 48 34 50 68 51 47 52 67 53 48 54
REMARK SMILES IDX 51 55 66 56 86 57 49 58 50 59 65 61 87 62 52 63 35 64 36 65
REMARK SMILES IDX 45 66 37 67 38 68 44 69 46 70 39 71 40 72 41 73 42 74 43 75
REMARK SMILES IDX 69 76 70 77 79 78 71 79 72 80 78 81 80 82 73 83 74 84 75 85
REMARK SMILES IDX 76 86 77 87 53 88 54 89 63 90 55 91 56 92 62 93 64 94 57 95
REMARK SMILES IDX 58 96 59 97 60 98 61 99
REMARK H PARENT 9 15 85 49 51 60
REMARK Flexibility Score: inf
ROOT
ATOM      1  O   UNL A   1      34.411  30.370  26.747  1.00  0.00    -0.462 OA
ENDROOT
BRANCH   1   2
ATOM      2  C   UNL A   1      33.638  29.496  26.067  1.00  0.00     0.306 C 
ATOM      3  O   UNL A   1      33.111  29.722  24.986  1.00  0.00    -0.252 OA
BRANCH   2   4
ATOM      4  C   UNL A   1      33.501  28.179  26.800  1.00  0.00     0.131 C 
BRANCH   4   5
ATOM      5  C   UNL A   1      33.067  26.985  25.945  1.00  0.00     0.093 C 
BRANCH   5   6
ATOM      6  C   UNL A   1      31.809  26.332  26.498  1.00  0.00     0.163 C 
ATOM      7  O   UNL A   1      30.995  26.973  27.160  1.00  0.00    -0.294 OA
BRANCH   6   8
ATOM      8  C   UNL A   1      31.636  24.856  26.390  1.00  0.00     0.018 A 
ATOM      9  C   UNL A   1      31.784  22.099  25.876  1.00  0.00     0.049 A 
ATOM     10  C   UNL A   1      32.607  22.685  26.839  1.00  0.00     0.027 A 
ATOM     11  C   UNL A   1      30.748  22.856  25.332  1.00  0.00     0.027 A 
ATOM     12  C   UNL A   1      32.544  24.057  27.089  1.00  0.00     0.014 A 
ATOM     13  C   UNL A   1      30.684  24.244  25.569  1.00  0.00     0.014 A 
BRANCH   9  14
ATOM     14  N   UNL A   1      32.020  20.728  25.592  1.00  0.00    -0.280 N 
ATOM     15  H   UNL A   1      31.536  20.070  26.142  1.00  0.00     0.180 HD
BRANCH  14  16
ATOM     16  S   UNL A   1      33.045  20.116  24.410  1.00  0.00     0.262 S 
ATOM     17  O   UNL A   1      32.426  20.340  23.121  1.00  0.00    -0.201 OA
ATOM     18  O   UNL A   1      33.369  18.779  24.864  1.00  0.00    -0.201 OA
BRANCH  16  19
ATOM     19  C   UNL A   1      34.591  21.035  24.409  1.00  0.00     0.090 A 
ATOM     20  C   UNL A   1      37.622  23.764  25.776  1.00  0.00     0.044 C 
ATOM     21  C   UNL A   1      36.660  22.781  25.167  1.00  0.00    -0.051 A 
ATOM     22  C   UNL A   1      36.750  21.415  25.448  1.00  0.00     0.005 A 
ATOM     23  C   UNL A   1      35.634  23.226  24.332  1.00  0.00     0.008 A 
ATOM     24  C   UNL A   1      35.719  20.538  25.071  1.00  0.00     0.023 A 
ATOM     25  C   UNL A   1      34.596  22.364  23.930  1.00  0.00    -0.030 A 
ATOM     26  C   UNL A   1      33.604  22.906  22.938  1.00  0.00     0.046 C 
ENDBRANCH  16  19
ENDBRANCH  14  16
ENDBRANCH   9  14
ENDBRANCH   6   8
ENDBRANCH   5   6
ENDBRANCH   4   5
ENDBRANCH   2   4
ENDBRANCH   1   2
BRANCH   1  27
ATOM     27  C   UNL A   1      33.742  31.313  27.594  1.00  0.00     0.274 C 
BRANCH  27  28
ATOM     28  C   UNL A   1      34.624  31.749  28.762  1.00  0.00     0.275 C 
BRANCH  28  29
ATOM     29  O   UNL A   1      35.720  30.851  28.865  1.00  0.00    -0.458 OA
BRANCH  29  30
ATOM     30  C   UNL A   1      36.426  30.991  30.008  1.00  0.00     0.338 C 
ATOM     31  O   UNL A   1      36.058  31.389  31.101  1.00  0.00    -0.246 OA
BRANCH  30  32
ATOM     32  C   UNL A   1      37.690  30.335  29.734  1.00  0.00     0.060 A 
ATOM     33  C   UNL A   1      38.467  29.883  30.804  1.00  0.00     0.016 A 
ATOM     34  C   UNL A   1      38.046  30.130  28.402  1.00  0.00     0.016 A 
ATOM     35  C   UNL A   1      39.677  29.270  30.533  1.00  0.00     0.010 A 
ATOM     36  C   UNL A   1      39.242  29.502  28.134  1.00  0.00     0.010 A 
ATOM     37  C   UNL A   1      40.073  29.119  29.199  1.00  0.00    -0.014 A 
BRANCH  37  38
ATOM     38  C   UNL A   1      41.442  28.699  28.881  1.00  0.00     0.031 A 
ATOM     39  C   UNL A   1      42.498  29.759  28.843  1.00  0.00     0.074 A 
ATOM     40  C   UNL A   1      41.674  27.415  28.580  1.00  0.00     0.049 A 
ATOM     41  N   UNL A   1      43.735  29.677  28.445  1.00  0.00    -0.248 NA
ATOM     42  C   UNL A   1      42.091  31.107  29.285  1.00  0.00     0.031 C 
ATOM     43  C   UNL A   1      40.669  26.350  28.600  1.00  0.00     0.029 A 
ATOM     44  N   UNL A   1      42.819  26.797  28.170  1.00  0.00    -0.354 N 
ATOM     45  C   UNL A   1      44.250  30.961  28.569  1.00  0.00     0.074 A 
ATOM     46  C   UNL A   1      43.181  31.814  29.033  1.00  0.00     0.031 C 
ATOM     47  C   UNL A   1      41.243  25.205  28.198  1.00  0.00     0.029 A 
ATOM     48  C   UNL A   1      42.636  25.474  27.859  1.00  0.00     0.049 A 
ATOM     49  H   UNL A   1      43.688  27.254  28.105  1.00  0.00     0.167 HD
ATOM     50  C   UNL A   1      45.513  31.377  28.320  1.00  0.00     0.037 A 
ATOM     51  C   UNL A   1      43.504  24.595  27.327  1.00  0.00     0.037 A 
ATOM     52  C   UNL A   1      46.538  30.485  27.844  1.00  0.00     0.049 A 
ATOM     53  C   UNL A   1      44.901  25.073  27.056  1.00  0.00     0.074 A 
ATOM     54  C   UNL A   1      47.860  30.757  27.556  1.00  0.00     0.029 A 
ATOM     55  N   UNL A   1      46.338  29.132  27.585  1.00  0.00    -0.354 N 
ATOM     56  N   UNL A   1      45.396  26.284  27.191  1.00  0.00    -0.248 NA
ATOM     57  C   UNL A   1      45.862  24.077  26.580  1.00  0.00     0.031 C 
ATOM     58  C   UNL A   1      48.449  29.578  27.084  1.00  0.00     0.029 A 
ATOM     59  C   UNL A   1      47.509  28.556  27.130  1.00  0.00     0.049 A 
ATOM     60  H   UNL A   1      45.486  28.654  27.707  1.00  0.00     0.167 HD
ATOM     61  C   UNL A   1      46.734  26.194  26.835  1.00  0.00     0.074 A 
ATOM     62  C   UNL A   1      46.970  24.802  26.491  1.00  0.00     0.031 C 
ATOM     63  C   UNL A   1      47.685  27.162  26.793  1.00  0.00     0.037 A 
BRANCH  50  64
ATOM     64  C   UNL A   1      45.814  32.836  28.531  1.00  0.00     0.058 A 
ATOM     65  C   UNL A   1      46.240  33.334  29.774  1.00  0.00     0.135 A 
ATOM     66  C   UNL A   1      45.630  33.762  27.491  1.00  0.00     0.135 A 
ATOM     67  F   UNL A   1      46.411  32.500  30.813  1.00  0.00    -0.206 F 
ATOM     68  C   UNL A   1      46.426  34.696  29.993  1.00  0.00     0.059 A 
ATOM     69  C   UNL A   1      45.840  35.127  27.679  1.00  0.00     0.059 A 
ATOM     70  F   UNL A   1      45.215  33.350  26.282  1.00  0.00    -0.206 F 
ATOM     71  C   UNL A   1      46.215  35.586  28.939  1.00  0.00     0.060 A 
BRANCH  71  72
ATOM     72  S   UNL A   1      46.426  37.353  29.247  1.00  0.00     0.124 S 
ATOM     73  O   UNL A   1      45.288  37.634  30.118  1.00  0.00    -0.237 OA
ATOM     74  O   UNL A   1      47.738  37.406  29.883  1.00  0.00    -0.237 OA
ATOM     75  O   UNL A   1      46.354  37.941  27.913  1.00  0.00    -0.744 OA
ENDBRANCH  71  72
ENDBRANCH  50  64
BRANCH  51  76
ATOM     76  C   UNL A   1      43.056  23.207  27.052  1.00  0.00     0.058 A 
ATOM     77  C   UNL A   1      42.902  22.744  25.739  1.00  0.00     0.135 A 
ATOM     78  C   UNL A   1      42.876  22.285  28.096  1.00  0.00     0.135 A 
ATOM     79  F   UNL A   1      43.068  23.584  24.707  1.00  0.00    -0.206 F 
ATOM     80  C   UNL A   1      42.586  21.415  25.468  1.00  0.00     0.059 A 
ATOM     81  C   UNL A   1      42.583  20.947  27.850  1.00  0.00     0.059 A 
ATOM     82  F   UNL A   1      43.040  22.672  29.372  1.00  0.00    -0.206 F 
ATOM     83  C   UNL A   1      42.438  20.522  26.532  1.00  0.00     0.060 A 
BRANCH  83  84
ATOM     84  S   UNL A   1      42.118  18.783  26.163  1.00  0.00     0.124 S 
ATOM     85  O   UNL A   1      42.394  18.154  27.449  1.00  0.00    -0.237 OA
ATOM     86  O   UNL A   1      40.717  18.811  25.752  1.00  0.00    -0.237 OA
ATOM     87  O   UNL A   1      43.069  18.485  25.096  1.00  0.00    -0.744 OA
ENDBRANCH  83  84
ENDBRANCH  51  76
BRANCH  63  88
ATOM     88  C   UNL A   1      49.064  26.730  26.385  1.00  0.00     0.058 A 
ATOM     89  C   UNL A   1      49.495  26.807  25.053  1.00  0.00     0.135 A 
ATOM     90  C   UNL A   1      49.974  26.276  27.352  1.00  0.00     0.135 A 
ATOM     91  F   UNL A   1      48.656  27.230  24.093  1.00  0.00    -0.206 F 
ATOM     92  C   UNL A   1      50.776  26.416  24.687  1.00  0.00     0.059 A 
ATOM     93  C   UNL A   1      51.270  25.909  27.013  1.00  0.00     0.059 A 
ATOM     94  F   UNL A   1      49.610  26.198  28.642  1.00  0.00    -0.206 F 
ATOM     95  C   UNL A   1      51.657  25.968  25.674  1.00  0.00     0.060 A 
BRANCH  95  96
ATOM     96  S   UNL A   1      53.325  25.484  25.189  1.00  0.00     0.124 S 
ATOM     97  O   UNL A   1      54.137  26.276  26.107  1.00  0.00    -0.237 OA
ATOM     98  O   UNL A   1      53.315  24.045  25.431  1.00  0.00    -0.237 OA
ATOM     99  O   UNL A   1      53.398  25.878  23.786  1.00  0.00    -0.744 OA
ENDBRANCH  95  96
ENDBRANCH  63  88
ENDBRANCH  37  38
ENDBRANCH  30  32
ENDBRANCH  29  30
ENDBRANCH  28  29
ENDBRANCH  27  28
ENDBRANCH   1  27
TORSDOF 20
ENDMDL
MODEL 2
REMARK VINA RESULT:     -11.3      5.985     11.438
REMARK SMILES Cc1ccc(S(=O)(=O)Nc2ccc(C(=O)CCC(=O)OCCOC(=O)c3ccc(-c4c5nc(c(-c6c(F)cc(S(=O)(=O)[O-])cc6F)c6ccc([nH]6)c(-c6c(F)cc(S(=O)(=O)[O-])cc6F)c6nc(c(-c7c(F)cc(S(=O)(=O)[O-])cc7F)c7ccc4[nH]7)C=C6)C=C5)cc3)cc2)c(C)c1
REMARK SMILES IDX 20 1 18 2 19 3 17 4 16 5 14 6 15 7 13 8 10 9 11 10 93 11
REMARK SMILES IDX 12 12 92 13 9 14 6 16 7 17 8 18 5 19 1 20 2 21 3 22 96 23
REMARK SMILES IDX 4 24 94 25 95 26 21 27 22 28 23 29 24 30 25 31 26 32 27 33
REMARK SMILES IDX 91 34 28 35 90 36 29 37 30 38 31 39 84 40 32 41 89 42 83 43
REMARK SMILES IDX 85 44 33 45 88 46 82 47 81 48 34 50 68 51 47 52 67 53 48 54
REMARK SMILES IDX 51 55 66 56 86 57 49 58 50 59 65 61 87 62 52 63 35 64 36 65
REMARK SMILES IDX 45 66 37 67 38 68 44 69 46 70 39 71 40 72 41 73 42 74 43 75
REMARK SMILES IDX 69 76 70 77 79 78 71 79 72 80 78 81 80 82 73 83 74 84 75 85
REMARK SMILES IDX 76 86 77 87 53 88 54 89 63 90 55 91 56 92 62 93 64 94 57 95
REMARK SMILES IDX 58 96 59 97 60 98 61 99
REMARK H PARENT 9 15 85 49 51 60
REMARK Flexibility Score: inf
ROOT
ATOM      1  O   UNL A   1      37.436  21.832  24.649  1.00  0.00    -0.462 OA
ENDROOT
BRANCH   1   2
ATOM      2  C   UNL A   1      36.094  21.925  24.531  1.00  0.00     0.306 C 
ATOM      3  O   UNL A   1      35.510  22.615  23.706  1.00  0.00    -0.252 OA
BRANCH   2   4
ATOM      4  C   UNL A   1      35.380  21.058  25.545  1.00  0.00     0.131 C 
BRANCH   4   5
ATOM      5  C   UNL A   1      34.728  19.788  24.990  1.00  0.00     0.093 C 
BRANCH   5   6
ATOM      6  C   UNL A   1      33.217  19.814  25.166  1.00  0.00     0.163 C 
ATOM      7  O   UNL A   1      32.611  18.848  25.628  1.00  0.00    -0.294 OA
BRANCH   6   8
ATOM      8  C   UNL A   1      32.430  20.953  24.616  1.00  0.00     0.018 A 
ATOM      9  C   UNL A   1      31.453  23.293  23.409  1.00  0.00     0.049 A 
ATOM     10  C   UNL A   1      31.824  22.197  22.629  1.00  0.00     0.027 A 
ATOM     11  C   UNL A   1      31.371  23.133  24.791  1.00  0.00     0.027 A 
ATOM     12  C   UNL A   1      32.321  21.036  23.225  1.00  0.00     0.014 A 
ATOM     13  C   UNL A   1      31.882  21.970  25.402  1.00  0.00     0.014 A 
BRANCH   9  14
ATOM     14  N   UNL A   1      31.096  24.476  22.708  1.00  0.00    -0.280 N 
ATOM     15  H   UNL A   1      30.142  24.596  22.497  1.00  0.00     0.180 HD
BRANCH  14  16
ATOM     16  S   UNL A   1      32.141  25.690  22.203  1.00  0.00     0.262 S 
ATOM     17  O   UNL A   1      31.494  26.422  21.135  1.00  0.00    -0.201 OA
ATOM     18  O   UNL A   1      33.407  25.017  21.992  1.00  0.00    -0.201 OA
BRANCH  16  19
ATOM     19  C   UNL A   1      32.412  26.857  23.544  1.00  0.00     0.090 A 
ATOM     20  C   UNL A   1      31.755  30.292  26.049  1.00  0.00     0.044 C 
ATOM     21  C   UNL A   1      32.115  29.057  25.270  1.00  0.00    -0.051 A 
ATOM     22  C   UNL A   1      31.614  27.803  25.630  1.00  0.00     0.005 A 
ATOM     23  C   UNL A   1      32.937  29.150  24.145  1.00  0.00     0.008 A 
ATOM     24  C   UNL A   1      31.760  26.701  24.772  1.00  0.00     0.023 A 
ATOM     25  C   UNL A   1      33.109  28.056  23.275  1.00  0.00    -0.030 A 
ATOM     26  C   UNL A   1      34.104  28.221  22.159  1.00  0.00     0.046 C 
ENDBRANCH  16  19
ENDBRANCH  14  16
ENDBRANCH   9  14
ENDBRANCH   6   8
ENDBRANCH   5   6
ENDBRANCH   4   5
ENDBRANCH   2   4
ENDBRANCH   1   2
BRANCH   1  27
ATOM     27  C   UNL A   1      38.091  22.813  25.464  1.00  0.00     0.274 C 
BRANCH  27  28
ATOM     28  C   UNL A   1      39.268  22.216  26.231  1.00  0.00     0.275 C 
BRANCH  28  29
ATOM     29  O   UNL A   1      39.691  23.149  27.215  1.00  0.00    -0.458 OA
BRANCH  29  30
ATOM     30  C   UNL A   1      40.824  23.805  26.883  1.00  0.00     0.338 C 
ATOM     31  O   UNL A   1      41.623  23.569  25.992  1.00  0.00    -0.246 OA
BRANCH  30  32
ATOM     32  C   UNL A   1      40.779  25.022  27.672  1.00  0.00     0.060 A 
ATOM     33  C   UNL A   1      41.840  25.927  27.584  1.00  0.00     0.016 A 
ATOM     34  C   UNL A   1      39.642  25.262  28.442  1.00  0.00     0.016 A 
ATOM     35  C   UNL A   1      41.795  27.079  28.349  1.00  0.00     0.010 A 
ATOM     36  C   UNL A   1      39.591  26.418  29.188  1.00  0.00     0.010 A 
ATOM     37  C   UNL A   1      40.687  27.296  29.176  1.00  0.00    -0.014 A 
BRANCH  37  38
ATOM     38  C   UNL A   1      40.713  28.370  30.174  1.00  0.00     0.031 A 
ATOM     39  C   UNL A   1      41.695  28.248  31.296  1.00  0.00     0.074 A 
ATOM     40  C   UNL A   1      39.826  29.370  30.076  1.00  0.00     0.049 A 
ATOM     41  N   UNL A   1      41.813  28.971  32.372  1.00  0.00    -0.248 NA
ATOM     42  C   UNL A   1      42.657  27.132  31.206  1.00  0.00     0.031 C 
ATOM     43  C   UNL A   1      38.846  29.524  28.999  1.00  0.00     0.029 A 
ATOM     44  N   UNL A   1      39.586  30.423  30.909  1.00  0.00    -0.354 N 
ATOM     45  C   UNL A   1      42.847  28.391  33.098  1.00  0.00     0.074 A 
ATOM     46  C   UNL A   1      43.290  27.229  32.364  1.00  0.00     0.031 C 
ATOM     47  C   UNL A   1      38.093  30.606  29.249  1.00  0.00     0.029 A 
ATOM     48  C   UNL A   1      38.517  31.188  30.517  1.00  0.00     0.049 A 
ATOM     49  H   UNL A   1      40.127  30.616  31.709  1.00  0.00     0.167 HD
ATOM     50  C   UNL A   1      43.374  28.809  34.270  1.00  0.00     0.037 A 
ATOM     51  C   UNL A   1      37.936  32.225  31.146  1.00  0.00     0.037 A 
ATOM     52  C   UNL A   1      42.883  29.969  34.967  1.00  0.00     0.049 A 
ATOM     53  C   UNL A   1      38.534  32.675  32.447  1.00  0.00     0.074 A 
ATOM     54  C   UNL A   1      43.319  30.518  36.156  1.00  0.00     0.029 A 
ATOM     55  N   UNL A   1      41.827  30.759  34.521  1.00  0.00    -0.354 N 
ATOM     56  N   UNL A   1      39.524  32.139  33.126  1.00  0.00    -0.248 NA
ATOM     57  C   UNL A   1      37.956  33.872  33.063  1.00  0.00     0.031 C 
ATOM     58  C   UNL A   1      42.502  31.616  36.448  1.00  0.00     0.029 A 
ATOM     59  C   UNL A   1      41.589  31.786  35.415  1.00  0.00     0.049 A 
ATOM     60  H   UNL A   1      41.322  30.609  33.689  1.00  0.00     0.167 HD
ATOM     61  C   UNL A   1      39.704  32.942  34.242  1.00  0.00     0.074 A 
ATOM     62  C   UNL A   1      38.725  34.011  34.136  1.00  0.00     0.031 C 
ATOM     63  C   UNL A   1      40.592  32.820  35.262  1.00  0.00     0.037 A 
BRANCH  50  64
ATOM     64  C   UNL A   1      44.494  27.990  34.854  1.00  0.00     0.058 A 
ATOM     65  C   UNL A   1      44.252  26.932  35.747  1.00  0.00     0.135 A 
ATOM     66  C   UNL A   1      45.833  28.294  34.557  1.00  0.00     0.135 A 
ATOM     67  F   UNL A   1      42.993  26.610  36.088  1.00  0.00    -0.206 F 
ATOM     68  C   UNL A   1      45.292  26.238  36.359  1.00  0.00     0.059 A 
ATOM     69  C   UNL A   1      46.889  27.593  35.134  1.00  0.00     0.059 A 
ATOM     70  F   UNL A   1      46.129  29.299  33.718  1.00  0.00    -0.206 F 
ATOM     71  C   UNL A   1      46.609  26.583  36.052  1.00  0.00     0.060 A 
BRANCH  71  72
ATOM     72  S   UNL A   1      47.949  25.698  36.880  1.00  0.00     0.124 S 
ATOM     73  O   UNL A   1      47.908  26.293  38.214  1.00  0.00    -0.237 OA
ATOM     74  O   UNL A   1      47.508  24.310  36.793  1.00  0.00    -0.237 OA
ATOM     75  O   UNL A   1      49.123  26.033  36.080  1.00  0.00    -0.744 OA
ENDBRANCH  71  72
ENDBRANCH  50  64
BRANCH  51  76
ATOM     76  C   UNL A   1      36.757  32.881  30.526  1.00  0.00     0.058 A 
ATOM     77  C   UNL A   1      35.473  32.718  31.062  1.00  0.00     0.135 A 
ATOM     78  C   UNL A   1      36.908  33.770  29.449  1.00  0.00     0.135 A 
ATOM     79  F   UNL A   1      35.279  31.883  32.095  1.00  0.00    -0.206 F 
ATOM     80  C   UNL A   1      34.378  33.412  30.555  1.00  0.00     0.059 A 
ATOM     81  C   UNL A   1      35.833  34.493  28.940  1.00  0.00     0.059 A 
ATOM     82  F   UNL A   1      38.122  33.984  28.917  1.00  0.00    -0.206 F 
ATOM     83  C   UNL A   1      34.571  34.306  29.499  1.00  0.00     0.060 A 
BRANCH  83  84
ATOM     84  S   UNL A   1      33.159  35.267  28.911  1.00  0.00     0.124 S 
ATOM     85  O   UNL A   1      32.448  34.282  28.105  1.00  0.00    -0.237 OA
ATOM     86  O   UNL A   1      32.514  35.658  30.161  1.00  0.00    -0.237 OA
ATOM     87  O   UNL A   1      33.783  36.360  28.169  1.00  0.00    -0.744 OA
ENDBRANCH  83  84
ENDBRANCH  51  76
BRANCH  63  88
ATOM     88  C   UNL A   1      40.549  33.885  36.320  1.00  0.00     0.058 A 
ATOM     89  C   UNL A   1      41.357  35.029  36.244  1.00  0.00     0.135 A 
ATOM     90  C   UNL A   1      39.656  33.773  37.397  1.00  0.00     0.135 A 
ATOM     91  F   UNL A   1      42.230  35.176  35.235  1.00  0.00    -0.206 F 
ATOM     92  C   UNL A   1      41.303  36.014  37.221  1.00  0.00     0.059 A 
ATOM     93  C   UNL A   1      39.563  34.761  38.368  1.00  0.00     0.059 A 
ATOM     94  F   UNL A   1      38.854  32.701  37.503  1.00  0.00    -0.206 F 
ATOM     95  C   UNL A   1      40.402  35.871  38.280  1.00  0.00     0.060 A 
BRANCH  95  96
ATOM     96  S   UNL A   1      40.326  37.168  39.531  1.00  0.00     0.124 S 
ATOM     97  O   UNL A   1      39.080  37.840  39.177  1.00  0.00    -0.237 OA
ATOM     98  O   UNL A   1      40.304  36.402  40.773  1.00  0.00    -0.237 OA
ATOM     99  O   UNL A   1      41.543  37.938  39.296  1.00  0.00    -0.744 OA
ENDBRANCH  95  96
ENDBRANCH  63  88
ENDBRANCH  37  38
ENDBRANCH  30  32
ENDBRANCH  29  30
ENDBRANCH  28  29
ENDBRANCH  27  28
ENDBRANCH   1  27
TORSDOF 20
ENDMDL
MODEL 3
REMARK VINA RESULT:     -11.1      4.258      7.081
REMARK SMILES Cc1ccc(S(=O)(=O)Nc2ccc(C(=O)CCC(=O)OCCOC(=O)c3ccc(-c4c5nc(c(-c6c(F)cc(S(=O)(=O)[O-])cc6F)c6ccc([nH]6)c(-c6c(F)cc(S(=O)(=O)[O-])cc6F)c6nc(c(-c7c(F)cc(S(=O)(=O)[O-])cc7F)c7ccc4[nH]7)C=C6)C=C5)cc3)cc2)c(C)c1
REMARK SMILES IDX 20 1 18 2 19 3 17 4 16 5 14 6 15 7 13 8 10 9 11 10 93 11
REMARK SMILES IDX 12 12 92 13 9 14 6 16 7 17 8 18 5 19 1 20 2 21 3 22 96 23
REMARK SMILES IDX 4 24 94 25 95 26 21 27 22 28 23 29 24 30 25 31 26 32 27 33
REMARK SMILES IDX 91 34 28 35 90 36 29 37 30 38 31 39 84 40 32 41 89 42 83 43
REMARK SMILES IDX 85 44 33 45 88 46 82 47 81 48 34 50 68 51 47 52 67 53 48 54
REMARK SMILES IDX 51 55 66 56 86 57 49 58 50 59 65 61 87 62 52 63 35 64 36 65
REMARK SMILES IDX 45 66 37 67 38 68 44 69 46 70 39 71 40 72 41 73 42 74 43 75
REMARK SMILES IDX 69 76 70 77 79 78 71 79 72 80 78 81 80 82 73 83 74 84 75 85
REMARK SMILES IDX 76 86 77 87 53 88 54 89 63 90 55 91 56 92 62 93 64 94 57 95
REMARK SMILES IDX 58 96 59 97 60 98 61 99
REMARK H PARENT 9 15 85 49 51 60
REMARK Flexibility Score: inf
ROOT
ATOM      1  O   UNL A   1      36.542  33.874  30.092  1.00  0.00    -0.462 OA
ENDROOT
BRANCH   1   2
ATOM      2  C   UNL A   1      37.248  33.791  31.241  1.00  0.00     0.306 C 
ATOM      3  O   UNL A   1      37.579  34.747  31.929  1.00  0.00    -0.252 OA
BRANCH   2   4
ATOM      4  C   UNL A   1      37.581  32.357  31.592  1.00  0.00     0.131 C 
BRANCH   4   5
ATOM      5  C   UNL A   1      37.199  31.915  33.008  1.00  0.00     0.093 C 
BRANCH   5   6
ATOM      6  C   UNL A   1      38.418  31.836  33.915  1.00  0.00     0.163 C 
ATOM      7  O   UNL A   1      38.602  32.659  34.811  1.00  0.00    -0.294 OA
BRANCH   6   8
ATOM      8  C   UNL A   1      39.499  30.857  33.614  1.00  0.00     0.018 A 
ATOM      9  C   UNL A   1      41.341  28.740  33.504  1.00  0.00     0.049 A 
ATOM     10  C   UNL A   1      40.028  28.558  33.069  1.00  0.00     0.027 A 
ATOM     11  C   UNL A   1      41.778  30.032  33.789  1.00  0.00     0.027 A 
ATOM     12  C   UNL A   1      39.107  29.605  33.132  1.00  0.00     0.014 A 
ATOM     13  C   UNL A   1      40.853  31.093  33.867  1.00  0.00     0.014 A 
BRANCH   9  14
ATOM     14  N   UNL A   1      42.163  27.582  33.535  1.00  0.00    -0.280 N 
ATOM     15  H   UNL A   1      42.568  27.301  32.682  1.00  0.00     0.180 HD
BRANCH  14  16
ATOM     16  S   UNL A   1      42.513  26.643  34.883  1.00  0.00     0.262 S 
ATOM     17  O   UNL A   1      41.261  26.283  35.516  1.00  0.00    -0.201 OA
ATOM     18  O   UNL A   1      43.526  27.392  35.597  1.00  0.00    -0.201 OA
BRANCH  16  19
ATOM     19  C   UNL A   1      43.294  25.107  34.370  1.00  0.00     0.090 A 
ATOM     20  C   UNL A   1      46.053  21.807  34.433  1.00  0.00     0.044 C 
ATOM     21  C   UNL A   1      45.023  22.891  34.276  1.00  0.00    -0.051 A 
ATOM     22  C   UNL A   1      43.760  22.778  34.866  1.00  0.00     0.005 A 
ATOM     23  C   UNL A   1      45.324  24.050  33.559  1.00  0.00     0.008 A 
ATOM     24  C   UNL A   1      42.893  23.882  34.915  1.00  0.00     0.023 A 
ATOM     25  C   UNL A   1      44.466  25.166  33.583  1.00  0.00    -0.030 A 
ATOM     26  C   UNL A   1      44.822  26.320  32.687  1.00  0.00     0.046 C 
ENDBRANCH  16  19
ENDBRANCH  14  16
ENDBRANCH   9  14
ENDBRANCH   6   8
ENDBRANCH   5   6
ENDBRANCH   4   5
ENDBRANCH   2   4
ENDBRANCH   1   2
BRANCH   1  27
ATOM     27  C   UNL A   1      35.119  33.733  30.187  1.00  0.00     0.274 C 
BRANCH  27  28
ATOM     28  C   UNL A   1      34.571  32.794  29.115  1.00  0.00     0.275 C 
BRANCH  28  29
ATOM     29  O   UNL A   1      34.966  31.466  29.426  1.00  0.00    -0.458 OA
BRANCH  29  30
ATOM     30  C   UNL A   1      35.180  30.698  28.336  1.00  0.00     0.338 C 
ATOM     31  O   UNL A   1      34.539  30.627  27.301  1.00  0.00    -0.246 OA
BRANCH  30  32
ATOM     32  C   UNL A   1      36.496  30.126  28.552  1.00  0.00     0.060 A 
ATOM     33  C   UNL A   1      36.763  29.473  29.758  1.00  0.00     0.016 A 
ATOM     34  C   UNL A   1      37.421  30.202  27.513  1.00  0.00     0.016 A 
ATOM     35  C   UNL A   1      38.024  28.941  29.960  1.00  0.00     0.010 A 
ATOM     36  C   UNL A   1      38.670  29.655  27.709  1.00  0.00     0.010 A 
ATOM     37  C   UNL A   1      38.981  29.071  28.947  1.00  0.00    -0.014 A 
BRANCH  37  38
ATOM     38  C   UNL A   1      40.384  28.741  29.214  1.00  0.00     0.031 A 
ATOM     39  C   UNL A   1      41.264  29.833  29.738  1.00  0.00     0.074 A 
ATOM     40  C   UNL A   1      40.830  27.511  28.922  1.00  0.00     0.049 A 
ATOM     41  N   UNL A   1      42.555  29.843  29.908  1.00  0.00    -0.248 NA
ATOM     42  C   UNL A   1      40.596  31.102  30.087  1.00  0.00     0.031 C 
ATOM     43  C   UNL A   1      40.005  26.418  28.404  1.00  0.00     0.029 A 
ATOM     44  N   UNL A   1      42.087  26.988  28.990  1.00  0.00    -0.354 N 
ATOM     45  C   UNL A   1      42.859  31.119  30.365  1.00  0.00     0.074 A 
ATOM     46  C   UNL A   1      41.626  31.871  30.400  1.00  0.00     0.031 C 
ATOM     47  C   UNL A   1      40.788  25.352  28.182  1.00  0.00     0.029 A 
ATOM     48  C   UNL A   1      42.165  25.707  28.506  1.00  0.00     0.049 A 
ATOM     49  H   UNL A   1      42.860  27.479  29.352  1.00  0.00     0.167 HD
ATOM     50  C   UNL A   1      44.067  31.605  30.727  1.00  0.00     0.037 A 
ATOM     51  C   UNL A   1      43.247  24.931  28.321  1.00  0.00     0.037 A 
ATOM     52  C   UNL A   1      45.268  30.813  30.659  1.00  0.00     0.049 A 
ATOM     53  C   UNL A   1      44.581  25.486  28.728  1.00  0.00     0.074 A 
ATOM     54  C   UNL A   1      46.559  31.164  30.999  1.00  0.00     0.029 A 
ATOM     55  N   UNL A   1      45.311  29.497  30.211  1.00  0.00    -0.354 N 
ATOM     56  N   UNL A   1      44.869  26.687  29.179  1.00  0.00    -0.248 NA
ATOM     57  C   UNL A   1      45.733  24.588  28.622  1.00  0.00     0.031 C 
ATOM     58  C   UNL A   1      47.389  30.072  30.718  1.00  0.00     0.029 A 
ATOM     59  C   UNL A   1      46.609  29.020  30.254  1.00  0.00     0.049 A 
ATOM     60  H   UNL A   1      44.532  28.978  29.907  1.00  0.00     0.167 HD
ATOM     61  C   UNL A   1      46.233  26.687  29.429  1.00  0.00     0.074 A 
ATOM     62  C   UNL A   1      46.708  25.356  29.091  1.00  0.00     0.031 C 
ATOM     63  C   UNL A   1      47.027  27.685  29.896  1.00  0.00     0.037 A 
BRANCH  50  64
ATOM     64  C   UNL A   1      44.127  33.037  31.186  1.00  0.00     0.058 A 
ATOM     65  C   UNL A   1      44.041  33.385  32.545  1.00  0.00     0.135 A 
ATOM     66  C   UNL A   1      44.224  34.084  30.254  1.00  0.00     0.135 A 
ATOM     67  F   UNL A   1      43.923  32.429  33.481  1.00  0.00    -0.206 F 
ATOM     68  C   UNL A   1      44.001  34.713  32.960  1.00  0.00     0.059 A 
ATOM     69  C   UNL A   1      44.216  35.419  30.649  1.00  0.00     0.059 A 
ATOM     70  F   UNL A   1      44.300  33.815  28.941  1.00  0.00    -0.206 F 
ATOM     71  C   UNL A   1      44.080  35.725  32.001  1.00  0.00     0.060 A 
BRANCH  71  72
ATOM     72  S   UNL A   1      43.991  37.443  32.550  1.00  0.00     0.124 S 
ATOM     73  O   UNL A   1      43.635  38.126  31.308  1.00  0.00    -0.237 OA
ATOM     74  O   UNL A   1      42.946  37.393  33.567  1.00  0.00    -0.237 OA
ATOM     75  O   UNL A   1      45.337  37.711  33.049  1.00  0.00    -0.744 OA
ENDBRANCH  71  72
ENDBRANCH  50  64
BRANCH  51  76
ATOM     76  C   UNL A   1      43.077  23.571  27.748  1.00  0.00     0.058 A 
ATOM     77  C   UNL A   1      42.791  22.472  28.567  1.00  0.00     0.135 A 
ATOM     78  C   UNL A   1      43.094  23.366  26.359  1.00  0.00     0.135 A 
ATOM     79  F   UNL A   1      42.758  22.619  29.900  1.00  0.00    -0.206 F 
ATOM     80  C   UNL A   1      42.525  21.215  28.030  1.00  0.00     0.059 A 
ATOM     81  C   UNL A   1      42.809  22.125  25.798  1.00  0.00     0.059 A 
ATOM     82  F   UNL A   1      43.336  24.394  25.529  1.00  0.00    -0.206 F 
ATOM     83  C   UNL A   1      42.526  21.054  26.643  1.00  0.00     0.060 A 
BRANCH  83  84
ATOM     84  S   UNL A   1      42.091  19.440  25.959  1.00  0.00     0.124 S 
ATOM     85  O   UNL A   1      42.918  19.397  24.759  1.00  0.00    -0.237 OA
ATOM     86  O   UNL A   1      42.481  18.536  27.037  1.00  0.00    -0.237 OA
ATOM     87  O   UNL A   1      40.653  19.548  25.733  1.00  0.00    -0.744 OA
ENDBRANCH  83  84
ENDBRANCH  51  76
BRANCH  63  88
ATOM     88  C   UNL A   1      48.479  27.354  30.085  1.00  0.00     0.058 A 
ATOM     89  C   UNL A   1      49.435  27.650  29.104  1.00  0.00     0.135 A 
ATOM     90  C   UNL A   1      48.918  26.772  31.285  1.00  0.00     0.135 A 
ATOM     91  F   UNL A   1      49.061  28.201  27.938  1.00  0.00    -0.206 F 
ATOM     92  C   UNL A   1      50.778  27.350  29.292  1.00  0.00     0.059 A 
ATOM     93  C   UNL A   1      50.260  26.493  31.508  1.00  0.00     0.059 A 
ATOM     94  F   UNL A   1      48.039  26.483  32.259  1.00  0.00    -0.206 F 
ATOM     95  C   UNL A   1      51.181  26.772  30.498  1.00  0.00     0.060 A 
BRANCH  95  96
ATOM     96  S   UNL A   1      52.930  26.407  30.740  1.00  0.00     0.124 S 
ATOM     97  O   UNL A   1      52.867  25.248  31.625  1.00  0.00    -0.237 OA
ATOM     98  O   UNL A   1      53.385  26.142  29.379  1.00  0.00    -0.237 OA
ATOM     99  O   UNL A   1      53.451  27.630  31.342  1.00  0.00    -0.744 OA
ENDBRANCH  95  96
ENDBRANCH  63  88
ENDBRANCH  37  38
ENDBRANCH  30  32
ENDBRANCH  29  30
ENDBRANCH  28  29
ENDBRANCH  27  28
ENDBRANCH   1  27
TORSDOF 20
ENDMDL
