MODEL 1
REMARK VINA RESULT:     -11.9      0.000      0.000
REMARK SMILES CC(C)c1cc2c(cc1Cl)C=C(C(=O)OCCOC(=O)c1ccc(-c3c4nc(c(-c5c(F)cc(S(=O)(=O)[O-])cc5F)c5ccc([nH]5)c(-c5c(F)cc(S(=O)(=O)[O-])cc5F)c5nc(c(-c6c(F)cc(S(=O)(=O)[O-])cc6F)c6ccc3[nH]6)C=C5)C=C4)cc1)[C@@H](C(F)(F)F)O2
REMARK SMILES IDX 17 1 16 2 15 3 13 4 14 5 12 6 4 7 5 8 9 9 6 10 8 11 10 12
REMARK SMILES IDX 7 13 92 14 11 15 87 16 2 17 1 18 3 19 88 20 89 21 90 22
REMARK SMILES IDX 91 23 18 24 19 25 20 26 21 27 22 28 86 29 23 30 85 31 24 32
REMARK SMILES IDX 25 33 26 34 79 35 27 36 84 37 78 38 80 39 28 40 83 41 77 42
REMARK SMILES IDX 76 43 29 45 63 46 42 47 62 48 43 49 46 50 61 51 81 52 44 53
REMARK SMILES IDX 45 54 60 56 82 57 47 58 30 59 31 60 40 61 32 62 33 63 39 64
REMARK SMILES IDX 41 65 34 66 35 67 36 68 37 69 38 70 64 71 65 72 74 73 66 74
REMARK SMILES IDX 67 75 73 76 75 77 68 78 69 79 70 80 71 81 72 82 48 83 49 84
REMARK SMILES IDX 58 85 50 86 51 87 57 88 59 89 52 90 53 91 54 92 55 93 56 94
REMARK H PARENT 80 44 46 55
REMARK Flexibility Score: inf
ROOT
ATOM      1  C   UNL A   1      39.125  23.003  26.327  1.00  0.00     0.275 C 
ENDROOT
BRANCH   1   2
ATOM      2  C   UNL A   1      37.954  22.578  25.438  1.00  0.00     0.275 C 
BRANCH   2   3
ATOM      3  O   UNL A   1      37.057  23.680  25.174  1.00  0.00    -0.459 OA
BRANCH   3   4
ATOM      4  C   UNL A   1      35.821  23.565  25.711  1.00  0.00     0.338 C 
ATOM      5  O   UNL A   1      35.504  22.864  26.660  1.00  0.00    -0.246 OA
BRANCH   4   6
ATOM      6  C   UNL A   1      34.863  24.449  25.019  1.00  0.00     0.087 C 
ATOM      7  C   UNL A   1      31.391  27.962  24.005  1.00  0.00    -0.023 A 
ATOM      8  C   UNL A   1      31.854  26.804  23.337  1.00  0.00     0.052 A 
ATOM      9  C   UNL A   1      32.024  28.334  25.204  1.00  0.00     0.045 A 
ATOM     10  C   UNL A   1      32.895  26.033  23.856  1.00  0.00     0.128 A 
ATOM     11  C   UNL A   1      33.066  27.566  25.719  1.00  0.00     0.032 A 
ATOM     12  Cl  UNL A   1      31.547  29.712  26.131  1.00  0.00    -0.084 Cl
ATOM     13  C   UNL A   1      33.482  26.409  25.055  1.00  0.00     0.019 A 
ATOM     14  O   UNL A   1      33.278  24.933  23.140  1.00  0.00    -0.475 OA
ATOM     15  C   UNL A   1      34.496  25.570  25.648  1.00  0.00     0.027 C 
ATOM     16  C   UNL A   1      34.236  24.000  23.732  1.00  0.00     0.316 C 
BRANCH   7  17
ATOM     17  C   UNL A   1      30.193  28.730  23.464  1.00  0.00     0.014 C 
ATOM     18  C   UNL A   1      30.497  29.461  22.154  1.00  0.00     0.012 C 
ATOM     19  C   UNL A   1      28.995  27.788  23.312  1.00  0.00     0.012 C 
ENDBRANCH   7  17
BRANCH  16  20
ATOM     20  C   UNL A   1      33.544  22.638  23.905  1.00  0.00     0.430 C 
ATOM     21  F   UNL A   1      34.449  21.632  23.989  1.00  0.00    -0.167 F 
ATOM     22  F   UNL A   1      32.813  22.589  25.044  1.00  0.00    -0.167 F 
ATOM     23  F   UNL A   1      32.714  22.349  22.877  1.00  0.00    -0.167 F 
ENDBRANCH  16  20
ENDBRANCH   4   6
ENDBRANCH   3   4
ENDBRANCH   2   3
ENDBRANCH   1   2
BRANCH   1  24
ATOM     24  O   UNL A   1      39.239  24.437  26.369  1.00  0.00    -0.458 OA
BRANCH  24  25
ATOM     25  C   UNL A   1      40.497  24.911  26.509  1.00  0.00     0.338 C 
ATOM     26  O   UNL A   1      41.438  24.751  25.752  1.00  0.00    -0.246 OA
BRANCH  25  27
ATOM     27  C   UNL A   1      40.559  25.795  27.682  1.00  0.00     0.060 A 
ATOM     28  C   UNL A   1      41.407  26.893  27.740  1.00  0.00     0.016 A 
ATOM     29  C   UNL A   1      39.617  25.596  28.680  1.00  0.00     0.016 A 
ATOM     30  C   UNL A   1      41.302  27.772  28.827  1.00  0.00     0.010 A 
ATOM     31  C   UNL A   1      39.393  26.563  29.651  1.00  0.00     0.010 A 
ATOM     32  C   UNL A   1      40.267  27.645  29.778  1.00  0.00    -0.014 A 
BRANCH  32  33
ATOM     33  C   UNL A   1      40.111  28.598  30.918  1.00  0.00     0.031 A 
ATOM     34  C   UNL A   1      41.007  28.504  32.139  1.00  0.00     0.074 A 
ATOM     35  C   UNL A   1      39.140  29.534  30.883  1.00  0.00     0.049 A 
ATOM     36  N   UNL A   1      41.008  29.240  33.224  1.00  0.00    -0.248 NA
ATOM     37  C   UNL A   1      41.999  27.415  32.172  1.00  0.00     0.031 C 
ATOM     38  C   UNL A   1      38.138  29.677  29.824  1.00  0.00     0.029 A 
ATOM     39  N   UNL A   1      38.844  30.557  31.751  1.00  0.00    -0.354 N 
ATOM     40  C   UNL A   1      41.972  28.686  34.062  1.00  0.00     0.074 A 
ATOM     41  C   UNL A   1      42.467  27.499  33.407  1.00  0.00     0.031 C 
ATOM     42  C   UNL A   1      37.401  30.774  30.055  1.00  0.00     0.029 A 
ATOM     43  C   UNL A   1      37.839  31.386  31.305  1.00  0.00     0.049 A 
ATOM     44  H   UNL A   1      39.307  30.686  32.611  1.00  0.00     0.167 HD
ATOM     45  C   UNL A   1      42.451  29.148  35.242  1.00  0.00     0.037 A 
ATOM     46  C   UNL A   1      37.339  32.522  31.831  1.00  0.00     0.037 A 
ATOM     47  C   UNL A   1      42.010  30.368  35.861  1.00  0.00     0.049 A 
ATOM     48  C   UNL A   1      37.911  33.044  33.119  1.00  0.00     0.074 A 
ATOM     49  C   UNL A   1      42.483  30.972  37.013  1.00  0.00     0.029 A 
ATOM     50  N   UNL A   1      40.998  31.181  35.370  1.00  0.00    -0.354 N 
ATOM     51  N   UNL A   1      38.874  32.543  33.856  1.00  0.00    -0.248 NA
ATOM     52  C   UNL A   1      37.331  34.286  33.647  1.00  0.00     0.031 C 
ATOM     53  C   UNL A   1      41.733  32.131  37.238  1.00  0.00     0.029 A 
ATOM     54  C   UNL A   1      40.821  32.272  36.203  1.00  0.00     0.049 A 
ATOM     55  H   UNL A   1      40.482  31.007  34.551  1.00  0.00     0.167 HD
ATOM     56  C   UNL A   1      39.019  33.413  34.932  1.00  0.00     0.074 A 
ATOM     57  C   UNL A   1      38.066  34.486  34.732  1.00  0.00     0.031 C 
ATOM     58  C   UNL A   1      39.860  33.325  35.993  1.00  0.00     0.037 A 
BRANCH  45  59
ATOM     59  C   UNL A   1      43.543  28.355  35.917  1.00  0.00     0.058 A 
ATOM     60  C   UNL A   1      44.902  28.655  35.710  1.00  0.00     0.135 A 
ATOM     61  C   UNL A   1      43.236  27.308  36.801  1.00  0.00     0.135 A 
ATOM     62  F   UNL A   1      45.257  29.637  34.866  1.00  0.00    -0.206 F 
ATOM     63  C   UNL A   1      45.913  27.923  36.323  1.00  0.00     0.059 A 
ATOM     64  C   UNL A   1      44.232  26.584  37.453  1.00  0.00     0.059 A 
ATOM     65  F   UNL A   1      41.957  26.979  37.042  1.00  0.00    -0.206 F 
ATOM     66  C   UNL A   1      45.569  26.889  37.195  1.00  0.00     0.060 A 
BRANCH  66  67
ATOM     67  S   UNL A   1      46.897  25.959  37.987  1.00  0.00     0.124 S 
ATOM     68  O   UNL A   1      47.948  26.033  36.977  1.00  0.00    -0.237 OA
ATOM     69  O   UNL A   1      47.134  26.732  39.203  1.00  0.00    -0.237 OA
ATOM     70  O   UNL A   1      46.316  24.637  38.192  1.00  0.00    -0.744 OA
ENDBRANCH  66  67
ENDBRANCH  45  59
BRANCH  46  71
ATOM     71  C   UNL A   1      36.281  33.271  31.098  1.00  0.00     0.058 A 
ATOM     72  C   UNL A   1      34.962  33.296  31.575  1.00  0.00     0.135 A 
ATOM     73  C   UNL A   1      36.573  34.015  29.944  1.00  0.00     0.135 A 
ATOM     74  F   UNL A   1      34.632  32.596  32.671  1.00  0.00    -0.206 F 
ATOM     75  C   UNL A   1      33.969  34.031  30.935  1.00  0.00     0.059 A 
ATOM     76  C   UNL A   1      35.602  34.778  29.301  1.00  0.00     0.059 A 
ATOM     77  F   UNL A   1      37.822  34.036  29.455  1.00  0.00    -0.206 F 
ATOM     78  C   UNL A   1      34.301  34.777  29.804  1.00  0.00     0.060 A 
BRANCH  78  79
ATOM     79  S   UNL A   1      33.019  35.789  29.032  1.00  0.00     0.124 S 
ATOM     80  O   UNL A   1      33.813  36.815  28.367  1.00  0.00    -0.237 OA
ATOM     81  O   UNL A   1      32.359  34.826  28.156  1.00  0.00    -0.237 OA
ATOM     82  O   UNL A   1      32.220  36.244  30.165  1.00  0.00    -0.744 OA
ENDBRANCH  78  79
ENDBRANCH  46  71
BRANCH  58  83
ATOM     83  C   UNL A   1      39.785  34.417  37.025  1.00  0.00     0.058 A 
ATOM     84  C   UNL A   1      40.446  35.640  36.842  1.00  0.00     0.135 A 
ATOM     85  C   UNL A   1      38.998  34.260  38.177  1.00  0.00     0.135 A 
ATOM     86  F   UNL A   1      41.214  35.838  35.758  1.00  0.00    -0.206 F 
ATOM     87  C   UNL A   1      40.351  36.663  37.779  1.00  0.00     0.059 A 
ATOM     88  C   UNL A   1      38.866  35.281  39.113  1.00  0.00     0.059 A 
ATOM     89  F   UNL A   1      38.334  33.114  38.393  1.00  0.00    -0.206 F 
ATOM     90  C   UNL A   1      39.556  36.474  38.910  1.00  0.00     0.060 A 
BRANCH  90  91
ATOM     91  S   UNL A   1      39.424  37.822  40.103  1.00  0.00     0.124 S 
ATOM     92  O   UNL A   1      38.265  38.551  39.596  1.00  0.00    -0.237 OA
ATOM     93  O   UNL A   1      39.224  37.107  41.360  1.00  0.00    -0.237 OA
ATOM     94  O   UNL A   1      40.703  38.514  39.979  1.00  0.00    -0.744 OA
ENDBRANCH  90  91
ENDBRANCH  58  83
ENDBRANCH  32  33
ENDBRANCH  25  27
ENDBRANCH  24  25
ENDBRANCH   1  24
TORSDOF 16
ENDMDL
MODEL 2
REMARK VINA RESULT:     -11.7      5.429     10.068
REMARK SMILES CC(C)c1cc2c(cc1Cl)C=C(C(=O)OCCOC(=O)c1ccc(-c3c4nc(c(-c5c(F)cc(S(=O)(=O)[O-])cc5F)c5ccc([nH]5)c(-c5c(F)cc(S(=O)(=O)[O-])cc5F)c5nc(c(-c6c(F)cc(S(=O)(=O)[O-])cc6F)c6ccc3[nH]6)C=C5)C=C4)cc1)[C@@H](C(F)(F)F)O2
REMARK SMILES IDX 17 1 16 2 15 3 13 4 14 5 12 6 4 7 5 8 9 9 6 10 8 11 10 12
REMARK SMILES IDX 7 13 92 14 11 15 87 16 2 17 1 18 3 19 88 20 89 21 90 22
REMARK SMILES IDX 91 23 18 24 19 25 20 26 21 27 22 28 86 29 23 30 85 31 24 32
REMARK SMILES IDX 25 33 26 34 79 35 27 36 84 37 78 38 80 39 28 40 83 41 77 42
REMARK SMILES IDX 76 43 29 45 63 46 42 47 62 48 43 49 46 50 61 51 81 52 44 53
REMARK SMILES IDX 45 54 60 56 82 57 47 58 30 59 31 60 40 61 32 62 33 63 39 64
REMARK SMILES IDX 41 65 34 66 35 67 36 68 37 69 38 70 64 71 65 72 74 73 66 74
REMARK SMILES IDX 67 75 73 76 75 77 68 78 69 79 70 80 71 81 72 82 48 83 49 84
REMARK SMILES IDX 58 85 50 86 51 87 57 88 59 89 52 90 53 91 54 92 55 93 56 94
REMARK H PARENT 80 44 46 55
REMARK Flexibility Score: inf
ROOT
ATOM      1  C   UNL A   1      32.556  28.560  27.548  1.00  0.00     0.275 C 
ENDROOT
BRANCH   1   2
ATOM      2  C   UNL A   1      32.078  27.920  26.243  1.00  0.00     0.275 C 
BRANCH   2   3
ATOM      3  O   UNL A   1      32.216  26.481  26.271  1.00  0.00    -0.459 OA
BRANCH   3   4
ATOM      4  C   UNL A   1      33.021  25.955  25.320  1.00  0.00     0.338 C 
ATOM      5  O   UNL A   1      33.823  26.564  24.629  1.00  0.00    -0.246 OA
BRANCH   4   6
ATOM      6  C   UNL A   1      32.841  24.493  25.231  1.00  0.00     0.087 C 
ATOM      7  C   UNL A   1      33.633  19.557  24.570  1.00  0.00    -0.023 A 
ATOM      8  C   UNL A   1      32.486  20.385  24.576  1.00  0.00     0.052 A 
ATOM      9  C   UNL A   1      34.876  20.144  24.867  1.00  0.00     0.045 A 
ATOM     10  C   UNL A   1      32.576  21.751  24.845  1.00  0.00     0.128 A 
ATOM     11  C   UNL A   1      34.964  21.507  25.141  1.00  0.00     0.032 A 
ATOM     12  Cl  UNL A   1      36.357  19.254  24.877  1.00  0.00    -0.084 Cl
ATOM     13  C   UNL A   1      33.820  22.307  25.108  1.00  0.00     0.019 A 
ATOM     14  O   UNL A   1      31.415  22.472  24.832  1.00  0.00    -0.475 OA
ATOM     15  C   UNL A   1      33.939  23.733  25.297  1.00  0.00     0.027 C 
ATOM     16  C   UNL A   1      31.483  23.929  24.929  1.00  0.00     0.316 C 
BRANCH   7  17
ATOM     17  C   UNL A   1      33.516  18.090  24.182  1.00  0.00     0.014 C 
ATOM     18  C   UNL A   1      32.915  17.225  25.292  1.00  0.00     0.012 C 
ATOM     19  C   UNL A   1      32.721  17.957  22.880  1.00  0.00     0.012 C 
ENDBRANCH   7  17
BRANCH  16  20
ATOM     20  C   UNL A   1      30.916  24.530  23.632  1.00  0.00     0.430 C 
ATOM     21  F   UNL A   1      30.327  25.730  23.861  1.00  0.00    -0.167 F 
ATOM     22  F   UNL A   1      31.889  24.752  22.716  1.00  0.00    -0.167 F 
ATOM     23  F   UNL A   1      29.991  23.729  23.057  1.00  0.00    -0.167 F 
ENDBRANCH  16  20
ENDBRANCH   4   6
ENDBRANCH   3   4
ENDBRANCH   2   3
ENDBRANCH   1   2
BRANCH   1  24
ATOM     24  O   UNL A   1      33.987  28.705  27.551  1.00  0.00    -0.458 OA
BRANCH  24  25
ATOM     25  C   UNL A   1      34.441  29.937  27.876  1.00  0.00     0.338 C 
ATOM     26  O   UNL A   1      33.798  30.969  27.948  1.00  0.00    -0.246 OA
BRANCH  25  27
ATOM     27  C   UNL A   1      35.852  29.848  28.278  1.00  0.00     0.060 A 
ATOM     28  C   UNL A   1      36.241  29.356  29.516  1.00  0.00     0.016 A 
ATOM     29  C   UNL A   1      36.808  30.121  27.311  1.00  0.00     0.016 A 
ATOM     30  C   UNL A   1      37.607  29.163  29.769  1.00  0.00     0.010 A 
ATOM     31  C   UNL A   1      38.135  29.755  27.498  1.00  0.00     0.010 A 
ATOM     32  C   UNL A   1      38.573  29.320  28.751  1.00  0.00    -0.014 A 
BRANCH  32  33
ATOM     33  C   UNL A   1      40.027  29.075  28.988  1.00  0.00     0.031 A 
ATOM     34  C   UNL A   1      40.662  27.747  28.622  1.00  0.00     0.074 A 
ATOM     35  C   UNL A   1      40.784  30.031  29.568  1.00  0.00     0.049 A 
ATOM     36  N   UNL A   1      41.905  27.356  28.766  1.00  0.00    -0.248 NA
ATOM     37  C   UNL A   1      39.782  26.703  28.069  1.00  0.00     0.031 C 
ATOM     38  C   UNL A   1      40.289  31.316  30.068  1.00  0.00     0.029 A 
ATOM     39  N   UNL A   1      42.133  30.081  29.819  1.00  0.00    -0.354 N 
ATOM     40  C   UNL A   1      41.940  26.029  28.347  1.00  0.00     0.074 A 
ATOM     41  C   UNL A   1      40.582  25.649  28.037  1.00  0.00     0.031 C 
ATOM     42  C   UNL A   1      41.327  32.061  30.480  1.00  0.00     0.029 A 
ATOM     43  C   UNL A   1      42.556  31.291  30.323  1.00  0.00     0.049 A 
ATOM     44  H   UNL A   1      42.741  29.324  29.654  1.00  0.00     0.167 HD
ATOM     45  C   UNL A   1      43.007  25.211  28.176  1.00  0.00     0.037 A 
ATOM     46  C   UNL A   1      43.795  31.738  30.609  1.00  0.00     0.037 A 
ATOM     47  C   UNL A   1      44.366  25.610  28.415  1.00  0.00     0.049 A 
ATOM     48  C   UNL A   1      44.972  30.833  30.373  1.00  0.00     0.074 A 
ATOM     49  C   UNL A   1      45.528  24.890  28.198  1.00  0.00     0.029 A 
ATOM     50  N   UNL A   1      44.749  26.846  28.916  1.00  0.00    -0.354 N 
ATOM     51  N   UNL A   1      44.987  29.607  29.906  1.00  0.00    -0.248 NA
ATOM     52  C   UNL A   1      46.299  31.371  30.700  1.00  0.00     0.031 C 
ATOM     53  C   UNL A   1      46.612  25.678  28.600  1.00  0.00     0.029 A 
ATOM     54  C   UNL A   1      46.128  26.905  29.028  1.00  0.00     0.049 A 
ATOM     55  H   UNL A   1      44.132  27.574  29.155  1.00  0.00     0.167 HD
ATOM     56  C   UNL A   1      46.326  29.229  29.878  1.00  0.00     0.074 A 
ATOM     57  C   UNL A   1      47.090  30.368  30.345  1.00  0.00     0.031 C 
ATOM     58  C   UNL A   1      46.871  28.044  29.506  1.00  0.00     0.037 A 
BRANCH  45  59
ATOM     59  C   UNL A   1      42.748  23.817  27.659  1.00  0.00     0.058 A 
ATOM     60  C   UNL A   1      42.564  22.732  28.534  1.00  0.00     0.135 A 
ATOM     61  C   UNL A   1      42.650  23.563  26.281  1.00  0.00     0.135 A 
ATOM     62  F   UNL A   1      42.658  22.911  29.862  1.00  0.00    -0.206 F 
ATOM     63  C   UNL A   1      42.332  21.444  28.064  1.00  0.00     0.059 A 
ATOM     64  C   UNL A   1      42.384  22.287  25.788  1.00  0.00     0.059 A 
ATOM     65  F   UNL A   1      42.812  24.560  25.397  1.00  0.00    -0.206 F 
ATOM     66  C   UNL A   1      42.243  21.231  26.688  1.00  0.00     0.060 A 
BRANCH  66  67
ATOM     67  S   UNL A   1      41.931  19.553  26.100  1.00  0.00     0.124 S 
ATOM     68  O   UNL A   1      42.309  18.760  27.265  1.00  0.00    -0.237 OA
ATOM     69  O   UNL A   1      40.504  19.591  25.797  1.00  0.00    -0.237 OA
ATOM     70  O   UNL A   1      42.811  19.427  24.943  1.00  0.00    -0.744 OA
ENDBRANCH  66  67
ENDBRANCH  45  59
BRANCH  46  71
ATOM     71  C   UNL A   1      43.982  33.136  31.089  1.00  0.00     0.058 A 
ATOM     72  C   UNL A   1      43.985  34.207  30.183  1.00  0.00     0.135 A 
ATOM     73  C   UNL A   1      44.107  33.434  32.454  1.00  0.00     0.135 A 
ATOM     74  F   UNL A   1      43.876  33.973  28.867  1.00  0.00    -0.206 F 
ATOM     75  C   UNL A   1      44.108  35.525  30.612  1.00  0.00     0.059 A 
ATOM     76  C   UNL A   1      44.205  34.746  32.910  1.00  0.00     0.059 A 
ATOM     77  F   UNL A   1      44.094  32.446  33.362  1.00  0.00    -0.206 F 
ATOM     78  C   UNL A   1      44.206  35.785  31.980  1.00  0.00     0.060 A 
BRANCH  78  79
ATOM     79  S   UNL A   1      44.284  37.505  32.527  1.00  0.00     0.124 S 
ATOM     80  O   UNL A   1      44.214  38.221  31.259  1.00  0.00    -0.237 OA
ATOM     81  O   UNL A   1      43.106  37.604  33.382  1.00  0.00    -0.237 OA
ATOM     82  O   UNL A   1      45.564  37.580  33.225  1.00  0.00    -0.744 OA
ENDBRANCH  78  79
ENDBRANCH  46  71
BRANCH  58  83
ATOM     83  C   UNL A   1      48.366  27.914  29.594  1.00  0.00     0.058 A 
ATOM     84  C   UNL A   1      49.191  28.233  28.505  1.00  0.00     0.135 A 
ATOM     85  C   UNL A   1      48.982  27.524  30.794  1.00  0.00     0.135 A 
ATOM     86  F   UNL A   1      48.651  28.607  27.334  1.00  0.00    -0.206 F 
ATOM     87  C   UNL A   1      50.576  28.145  28.594  1.00  0.00     0.059 A 
ATOM     88  C   UNL A   1      50.367  27.458  30.914  1.00  0.00     0.059 A 
ATOM     89  F   UNL A   1      48.238  27.222  31.869  1.00  0.00    -0.206 F 
ATOM     90  C   UNL A   1      51.154  27.759  29.805  1.00  0.00     0.060 A 
BRANCH  90  91
ATOM     91  S   UNL A   1      52.954  27.676  29.910  1.00  0.00     0.124 S 
ATOM     92  O   UNL A   1      53.344  28.936  29.283  1.00  0.00    -0.237 OA
ATOM     93  O   UNL A   1      53.178  27.589  31.350  1.00  0.00    -0.237 OA
ATOM     94  O   UNL A   1      53.285  26.472  29.156  1.00  0.00    -0.744 OA
ENDBRANCH  90  91
ENDBRANCH  58  83
ENDBRANCH  32  33
ENDBRANCH  25  27
ENDBRANCH  24  25
ENDBRANCH   1  24
TORSDOF 16
ENDMDL
MODEL 3
REMARK VINA RESULT:     -11.7      6.374      9.593
REMARK SMILES CC(C)c1cc2c(cc1Cl)C=C(C(=O)OCCOC(=O)c1ccc(-c3c4nc(c(-c5c(F)cc(S(=O)(=O)[O-])cc5F)c5ccc([nH]5)c(-c5c(F)cc(S(=O)(=O)[O-])cc5F)c5nc(c(-c6c(F)cc(S(=O)(=O)[O-])cc6F)c6ccc3[nH]6)C=C5)C=C4)cc1)[C@@H](C(F)(F)F)O2
REMARK SMILES IDX 17 1 16 2 15 3 13 4 14 5 12 6 4 7 5 8 9 9 6 10 8 11 10 12
REMARK SMILES IDX 7 13 92 14 11 15 87 16 2 17 1 18 3 19 88 20 89 21 90 22
REMARK SMILES IDX 91 23 18 24 19 25 20 26 21 27 22 28 86 29 23 30 85 31 24 32
REMARK SMILES IDX 25 33 26 34 79 35 27 36 84 37 78 38 80 39 28 40 83 41 77 42
REMARK SMILES IDX 76 43 29 45 63 46 42 47 62 48 43 49 46 50 61 51 81 52 44 53
REMARK SMILES IDX 45 54 60 56 82 57 47 58 30 59 31 60 40 61 32 62 33 63 39 64
REMARK SMILES IDX 41 65 34 66 35 67 36 68 37 69 38 70 64 71 65 72 74 73 66 74
REMARK SMILES IDX 67 75 73 76 75 77 68 78 69 79 70 80 71 81 72 82 48 83 49 84
REMARK SMILES IDX 58 85 50 86 51 87 57 88 59 89 52 90 53 91 54 92 55 93 56 94
REMARK H PARENT 80 44 46 55
REMARK Flexibility Score: inf
ROOT
ATOM      1  C   UNL A   1      40.412  20.280  26.086  1.00  0.00     0.275 C 
ENDROOT
BRANCH   1   2
ATOM      2  C   UNL A   1      41.940  20.222  26.136  1.00  0.00     0.275 C 
BRANCH   2   3
ATOM      3  O   UNL A   1      42.532  21.521  25.912  1.00  0.00    -0.459 OA
BRANCH   3   4
ATOM      4  C   UNL A   1      43.825  21.512  25.515  1.00  0.00     0.338 C 
ATOM      5  O   UNL A   1      44.281  20.936  24.538  1.00  0.00    -0.246 OA
BRANCH   4   6
ATOM      6  C   UNL A   1      44.655  22.341  26.411  1.00  0.00     0.087 C 
ATOM      7  C   UNL A   1      46.200  25.413  30.098  1.00  0.00    -0.023 A 
ATOM      8  C   UNL A   1      46.733  25.016  28.850  1.00  0.00     0.052 A 
ATOM      9  C   UNL A   1      44.995  24.824  30.522  1.00  0.00     0.045 A 
ATOM     10  C   UNL A   1      46.081  24.083  28.044  1.00  0.00     0.128 A 
ATOM     11  C   UNL A   1      44.347  23.889  29.718  1.00  0.00     0.032 A 
ATOM     12  Cl  UNL A   1      44.224  25.232  32.014  1.00  0.00    -0.084 Cl
ATOM     13  C   UNL A   1      44.880  23.539  28.476  1.00  0.00     0.019 A 
ATOM     14  O   UNL A   1      46.673  23.757  26.855  1.00  0.00    -0.475 OA
ATOM     15  C   UNL A   1      44.150  22.643  27.611  1.00  0.00     0.027 C 
ATOM     16  C   UNL A   1      45.939  22.926  25.902  1.00  0.00     0.316 C 
BRANCH   7  17
ATOM     17  C   UNL A   1      46.886  26.501  30.912  1.00  0.00     0.014 C 
ATOM     18  C   UNL A   1      48.396  26.561  30.674  1.00  0.00     0.012 C 
ATOM     19  C   UNL A   1      46.223  27.854  30.638  1.00  0.00     0.012 C 
ENDBRANCH   7  17
BRANCH  16  20
ATOM     20  C   UNL A   1      45.701  23.747  24.624  1.00  0.00     0.430 C 
ATOM     21  F   UNL A   1      44.415  24.170  24.543  1.00  0.00    -0.167 F 
ATOM     22  F   UNL A   1      46.470  24.862  24.594  1.00  0.00    -0.167 F 
ATOM     23  F   UNL A   1      45.965  23.040  23.502  1.00  0.00    -0.167 F 
ENDBRANCH  16  20
ENDBRANCH   4   6
ENDBRANCH   3   4
ENDBRANCH   2   3
ENDBRANCH   1   2
BRANCH   1  24
ATOM     24  O   UNL A   1      39.907  21.225  27.047  1.00  0.00    -0.458 OA
BRANCH  24  25
ATOM     25  C   UNL A   1      39.209  22.259  26.526  1.00  0.00     0.338 C 
ATOM     26  O   UNL A   1      38.234  22.204  25.797  1.00  0.00    -0.246 OA
BRANCH  25  27
ATOM     27  C   UNL A   1      39.720  23.522  27.078  1.00  0.00     0.060 A 
ATOM     28  C   UNL A   1      40.679  23.559  28.082  1.00  0.00     0.016 A 
ATOM     29  C   UNL A   1      39.333  24.696  26.448  1.00  0.00     0.016 A 
ATOM     30  C   UNL A   1      41.224  24.796  28.452  1.00  0.00     0.010 A 
ATOM     31  C   UNL A   1      40.006  25.886  26.687  1.00  0.00     0.010 A 
ATOM     32  C   UNL A   1      40.928  25.974  27.733  1.00  0.00    -0.014 A 
BRANCH  32  33
ATOM     33  C   UNL A   1      41.534  27.294  28.082  1.00  0.00     0.031 A 
ATOM     34  C   UNL A   1      42.954  27.632  27.669  1.00  0.00     0.074 A 
ATOM     35  C   UNL A   1      40.827  28.188  28.806  1.00  0.00     0.049 A 
ATOM     36  N   UNL A   1      43.645  28.723  27.894  1.00  0.00    -0.248 NA
ATOM     37  C   UNL A   1      43.718  26.595  26.953  1.00  0.00     0.031 C 
ATOM     38  C   UNL A   1      39.491  27.961  29.363  1.00  0.00     0.029 A 
ATOM     39  N   UNL A   1      41.123  29.475  29.184  1.00  0.00    -0.354 N 
ATOM     40  C   UNL A   1      44.914  28.488  27.373  1.00  0.00     0.074 A 
ATOM     41  C   UNL A   1      44.932  27.121  26.909  1.00  0.00     0.031 C 
ATOM     42  C   UNL A   1      39.047  29.094  29.928  1.00  0.00     0.029 A 
ATOM     43  C   UNL A   1      40.084  30.115  29.823  1.00  0.00     0.049 A 
ATOM     44  H   UNL A   1      41.995  29.900  29.014  1.00  0.00     0.167 HD
ATOM     45  C   UNL A   1      45.957  29.342  27.234  1.00  0.00     0.037 A 
ATOM     46  C   UNL A   1      39.970  31.386  30.258  1.00  0.00     0.037 A 
ATOM     47  C   UNL A   1      45.916  30.723  27.631  1.00  0.00     0.049 A 
ATOM     48  C   UNL A   1      41.121  32.333  30.058  1.00  0.00     0.074 A 
ATOM     49  C   UNL A   1      46.885  31.697  27.463  1.00  0.00     0.029 A 
ATOM     50  N   UNL A   1      44.842  31.331  28.264  1.00  0.00    -0.354 N 
ATOM     51  N   UNL A   1      42.285  32.108  29.495  1.00  0.00    -0.248 NA
ATOM     52  C   UNL A   1      40.943  33.705  30.550  1.00  0.00     0.031 C 
ATOM     53  C   UNL A   1      46.410  32.886  28.027  1.00  0.00     0.029 A 
ATOM     54  C   UNL A   1      45.129  32.664  28.507  1.00  0.00     0.049 A 
ATOM     55  H   UNL A   1      44.000  30.883  28.504  1.00  0.00     0.167 HD
ATOM     56  C   UNL A   1      42.976  33.313  29.560  1.00  0.00     0.074 A 
ATOM     57  C   UNL A   1      42.087  34.270  30.188  1.00  0.00     0.031 C 
ATOM     58  C   UNL A   1      44.235  33.599  29.144  1.00  0.00     0.037 A 
BRANCH  45  59
ATOM     59  C   UNL A   1      47.213  28.818  26.583  1.00  0.00     0.058 A 
ATOM     60  C   UNL A   1      48.404  28.652  27.313  1.00  0.00     0.135 A 
ATOM     61  C   UNL A   1      47.224  28.448  25.229  1.00  0.00     0.135 A 
ATOM     62  F   UNL A   1      48.457  29.002  28.608  1.00  0.00    -0.206 F 
ATOM     63  C   UNL A   1      49.566  28.177  26.716  1.00  0.00     0.059 A 
ATOM     64  C   UNL A   1      48.368  27.936  24.618  1.00  0.00     0.059 A 
ATOM     65  F   UNL A   1      46.116  28.578  24.482  1.00  0.00    -0.206 F 
ATOM     66  C   UNL A   1      49.539  27.820  25.367  1.00  0.00     0.060 A 
BRANCH  66  67
ATOM     67  S   UNL A   1      51.057  27.195  24.617  1.00  0.00     0.124 S 
ATOM     68  O   UNL A   1      51.081  27.927  23.354  1.00  0.00    -0.237 OA
ATOM     69  O   UNL A   1      52.069  27.586  25.593  1.00  0.00    -0.237 OA
ATOM     70  O   UNL A   1      50.818  25.760  24.505  1.00  0.00    -0.744 OA
ENDBRANCH  66  67
ENDBRANCH  45  59
BRANCH  46  71
ATOM     71  C   UNL A   1      38.691  31.845  30.866  1.00  0.00     0.058 A 
ATOM     72  C   UNL A   1      38.507  31.809  32.256  1.00  0.00     0.135 A 
ATOM     73  C   UNL A   1      37.654  32.375  30.083  1.00  0.00     0.135 A 
ATOM     74  F   UNL A   1      39.466  31.305  33.047  1.00  0.00    -0.206 F 
ATOM     75  C   UNL A   1      37.340  32.280  32.850  1.00  0.00     0.059 A 
ATOM     76  C   UNL A   1      36.488  32.877  30.655  1.00  0.00     0.059 A 
ATOM     77  F   UNL A   1      37.787  32.447  28.750  1.00  0.00    -0.206 F 
ATOM     78  C   UNL A   1      36.340  32.823  32.041  1.00  0.00     0.060 A 
BRANCH  78  79
ATOM     79  S   UNL A   1      34.866  33.504  32.833  1.00  0.00     0.124 S 
ATOM     80  O   UNL A   1      33.809  32.701  32.229  1.00  0.00    -0.237 OA
ATOM     81  O   UNL A   1      35.134  33.248  34.244  1.00  0.00    -0.237 OA
ATOM     82  O   UNL A   1      34.893  34.910  32.442  1.00  0.00    -0.744 OA
ENDBRANCH  78  79
ENDBRANCH  46  71
BRANCH  58  83
ATOM     83  C   UNL A   1      44.731  35.001  29.359  1.00  0.00     0.058 A 
ATOM     84  C   UNL A   1      44.504  36.009  28.409  1.00  0.00     0.135 A 
ATOM     85  C   UNL A   1      45.388  35.355  30.548  1.00  0.00     0.135 A 
ATOM     86  F   UNL A   1      43.884  35.722  27.254  1.00  0.00    -0.206 F 
ATOM     87  C   UNL A   1      44.933  37.314  28.621  1.00  0.00     0.059 A 
ATOM     88  C   UNL A   1      45.799  36.662  30.794  1.00  0.00     0.059 A 
ATOM     89  F   UNL A   1      45.617  34.431  31.495  1.00  0.00    -0.206 F 
ATOM     90  C   UNL A   1      45.578  37.631  29.818  1.00  0.00     0.060 A 
BRANCH  90  91
ATOM     91  S   UNL A   1      46.104  39.336  30.086  1.00  0.00     0.124 S 
ATOM     92  O   UNL A   1      47.547  39.233  29.885  1.00  0.00    -0.237 OA
ATOM     93  O   UNL A   1      45.370  40.056  29.049  1.00  0.00    -0.237 OA
ATOM     94  O   UNL A   1      45.680  39.614  31.454  1.00  0.00    -0.744 OA
ENDBRANCH  90  91
ENDBRANCH  58  83
ENDBRANCH  32  33
ENDBRANCH  25  27
ENDBRANCH  24  25
ENDBRANCH   1  24
TORSDOF 16
ENDMDL
