MODEL 1
REMARK VINA RESULT:     -10.4      0.000      0.000
REMARK SMILES C[NH2+][C@](CSc1cccc(F)c1)(C(=O)OCCOC(=O)c1ccc(-c2c3nc(c(-c4c(F)cc(S(=O)(=O)[O-])cc4F)c4ccc([nH]4)c(-c4c(F)cc(S(=O)(=O)[O-])cc4F)c4nc(c(-c5c(F)cc(S(=O)(=O)[O-])cc5F)c5ccc2[nH]5)C=C4)C=C3)cc1)c1ccccc1
REMARK SMILES IDX 16 1 15 2 13 3 14 4 3 5 2 6 1 7 87 10 88 11 92 12 89 13
REMARK SMILES IDX 91 14 90 15 4 16 5 17 6 18 7 19 12 20 8 21 10 22 9 23 11 24
REMARK SMILES IDX 17 25 18 26 19 27 20 28 21 29 22 30 86 31 23 32 85 33 24 34
REMARK SMILES IDX 25 35 26 36 79 37 27 38 84 39 78 40 80 41 28 42 83 43 77 44
REMARK SMILES IDX 76 45 29 47 63 48 42 49 62 50 43 51 46 52 61 53 81 54 44 55
REMARK SMILES IDX 45 56 60 58 82 59 47 60 30 61 31 62 40 63 32 64 33 65 39 66
REMARK SMILES IDX 41 67 34 68 35 69 36 70 37 71 38 72 64 73 65 74 74 75 66 76
REMARK SMILES IDX 67 77 73 78 75 79 68 80 69 81 70 82 71 83 72 84 48 85 49 86
REMARK SMILES IDX 58 87 50 88 51 89 57 90 59 91 52 92 53 93 54 94 55 95 56 96
REMARK H PARENT 2 8 2 9 80 46 46 57
REMARK Flexibility Score: inf
ROOT
ATOM      1  C   UNL A   1      36.708  22.657  25.878  1.00  0.00     0.274 C 
ENDROOT
BRANCH   1   2
ATOM      2  O   UNL A   1      35.495  23.181  25.293  1.00  0.00    -0.457 OA
BRANCH   2   3
ATOM      3  C   UNL A   1      34.444  23.405  26.151  1.00  0.00     0.374 C 
ATOM      4  O   UNL A   1      34.486  23.048  27.322  1.00  0.00    -0.244 OA
BRANCH   3   5
ATOM      5  C   UNL A   1      33.149  23.989  25.380  1.00  0.00     0.229 C 
BRANCH   5   6
ATOM      6  N   UNL A   1      31.976  23.195  25.860  1.00  0.00    -0.330 N 
ATOM      7  C   UNL A   1      31.858  21.845  25.341  1.00  0.00     0.332 C 
ATOM      8  H   UNL A   1      32.039  23.132  26.876  1.00  0.00     0.347 HD
ATOM      9  H   UNL A   1      31.154  23.690  25.518  1.00  0.00     0.347 HD
ENDBRANCH   5   6
BRANCH   5  10
ATOM     10  C   UNL A   1      32.868  25.471  25.809  1.00  0.00     0.025 A 
ATOM     11  C   UNL A   1      31.618  25.917  26.275  1.00  0.00     0.011 A 
ATOM     12  C   UNL A   1      33.904  26.429  25.874  1.00  0.00     0.011 A 
ATOM     13  C   UNL A   1      31.401  27.228  26.728  1.00  0.00     0.001 A 
ATOM     14  C   UNL A   1      33.688  27.750  26.296  1.00  0.00     0.001 A 
ATOM     15  C   UNL A   1      32.433  28.152  26.721  1.00  0.00     0.000 A 
ENDBRANCH   5  10
BRANCH   5  16
ATOM     16  C   UNL A   1      33.448  23.797  23.829  1.00  0.00     0.161 C 
BRANCH  16  17
ATOM     17  S   UNL A   1      32.375  24.290  22.393  1.00  0.00    -0.118 SA
BRANCH  17  18
ATOM     18  C   UNL A   1      32.305  26.056  22.513  1.00  0.00     0.010 A 
ATOM     19  C   UNL A   1      31.095  26.721  22.734  1.00  0.00     0.015 A 
ATOM     20  C   UNL A   1      33.481  26.797  22.367  1.00  0.00     0.054 A 
ATOM     21  C   UNL A   1      31.073  28.108  22.893  1.00  0.00     0.004 A 
ATOM     22  C   UNL A   1      33.447  28.177  22.514  1.00  0.00     0.124 A 
ATOM     23  C   UNL A   1      32.257  28.838  22.794  1.00  0.00     0.039 A 
ATOM     24  F   UNL A   1      34.578  28.882  22.395  1.00  0.00    -0.207 F 
ENDBRANCH  17  18
ENDBRANCH  16  17
ENDBRANCH   5  16
ENDBRANCH   3   5
ENDBRANCH   2   3
ENDBRANCH   1   2
BRANCH   1  25
ATOM     25  C   UNL A   1      37.891  23.567  25.567  1.00  0.00     0.275 C 
BRANCH  25  26
ATOM     26  O   UNL A   1      38.341  24.152  26.794  1.00  0.00    -0.458 OA
BRANCH  26  27
ATOM     27  C   UNL A   1      39.618  24.591  26.811  1.00  0.00     0.338 C 
ATOM     28  O   UNL A   1      40.511  24.280  26.032  1.00  0.00    -0.246 OA
BRANCH  27  29
ATOM     29  C   UNL A   1      39.773  25.547  27.923  1.00  0.00     0.060 A 
ATOM     30  C   UNL A   1      38.935  25.452  29.034  1.00  0.00     0.016 A 
ATOM     31  C   UNL A   1      40.698  26.590  27.834  1.00  0.00     0.016 A 
ATOM     32  C   UNL A   1      38.990  26.417  30.035  1.00  0.00     0.010 A 
ATOM     33  C   UNL A   1      40.795  27.522  28.875  1.00  0.00     0.010 A 
ATOM     34  C   UNL A   1      39.922  27.461  29.975  1.00  0.00    -0.014 A 
BRANCH  34  35
ATOM     35  C   UNL A   1      39.880  28.524  31.017  1.00  0.00     0.031 A 
ATOM     36  C   UNL A   1      40.945  28.569  32.079  1.00  0.00     0.074 A 
ATOM     37  C   UNL A   1      38.970  29.518  30.950  1.00  0.00     0.049 A 
ATOM     38  N   UNL A   1      41.054  29.372  33.107  1.00  0.00    -0.248 NA
ATOM     39  C   UNL A   1      42.033  27.584  31.972  1.00  0.00     0.031 C 
ATOM     40  C   UNL A   1      37.931  29.650  29.927  1.00  0.00     0.029 A 
ATOM     41  N   UNL A   1      38.806  30.637  31.731  1.00  0.00    -0.354 N 
ATOM     42  C   UNL A   1      42.189  28.958  33.794  1.00  0.00     0.074 A 
ATOM     43  C   UNL A   1      42.739  27.835  33.065  1.00  0.00     0.031 C 
ATOM     44  C   UNL A   1      37.296  30.821  30.092  1.00  0.00     0.029 A 
ATOM     45  C   UNL A   1      37.825  31.489  31.279  1.00  0.00     0.049 A 
ATOM     46  H   UNL A   1      39.341  30.813  32.539  1.00  0.00     0.167 HD
ATOM     47  C   UNL A   1      42.723  29.465  34.930  1.00  0.00     0.037 A 
ATOM     48  C   UNL A   1      37.389  32.666  31.771  1.00  0.00     0.037 A 
ATOM     49  C   UNL A   1      42.209  30.613  35.629  1.00  0.00     0.049 A 
ATOM     50  C   UNL A   1      37.979  33.194  33.050  1.00  0.00     0.074 A 
ATOM     51  C   UNL A   1      42.652  31.167  36.818  1.00  0.00     0.029 A 
ATOM     52  N   UNL A   1      41.158  31.401  35.187  1.00  0.00    -0.354 N 
ATOM     53  N   UNL A   1      38.975  32.717  33.758  1.00  0.00    -0.248 NA
ATOM     54  C   UNL A   1      37.359  34.400  33.620  1.00  0.00     0.031 C 
ATOM     55  C   UNL A   1      41.852  32.279  37.107  1.00  0.00     0.029 A 
ATOM     56  C   UNL A   1      40.933  32.435  36.083  1.00  0.00     0.049 A 
ATOM     57  H   UNL A   1      40.646  31.248  34.362  1.00  0.00     0.167 HD
ATOM     58  C   UNL A   1      39.086  33.550  34.867  1.00  0.00     0.074 A 
ATOM     59  C   UNL A   1      38.087  34.587  34.713  1.00  0.00     0.031 C 
ATOM     60  C   UNL A   1      39.924  33.450  35.927  1.00  0.00     0.037 A 
BRANCH  47  61
ATOM     61  C   UNL A   1      43.905  28.748  35.515  1.00  0.00     0.058 A 
ATOM     62  C   UNL A   1      43.708  27.705  36.433  1.00  0.00     0.135 A 
ATOM     63  C   UNL A   1      45.223  29.100  35.191  1.00  0.00     0.135 A 
ATOM     64  F   UNL A   1      42.465  27.322  36.766  1.00  0.00    -0.206 F 
ATOM     65  C   UNL A   1      44.779  27.039  37.017  1.00  0.00     0.059 A 
ATOM     66  C   UNL A   1      46.311  28.434  35.749  1.00  0.00     0.059 A 
ATOM     67  F   UNL A   1      45.463  30.071  34.295  1.00  0.00    -0.206 F 
ATOM     68  C   UNL A   1      46.077  27.410  36.669  1.00  0.00     0.060 A 
BRANCH  68  69
ATOM     69  S   UNL A   1      47.458  26.500  37.396  1.00  0.00     0.124 S 
ATOM     70  O   UNL A   1      47.597  27.153  38.692  1.00  0.00    -0.237 OA
ATOM     71  O   UNL A   1      46.945  25.133  37.423  1.00  0.00    -0.237 OA
ATOM     72  O   UNL A   1      48.547  26.730  36.451  1.00  0.00    -0.744 OA
ENDBRANCH  68  69
ENDBRANCH  47  61
BRANCH  48  73
ATOM     73  C   UNL A   1      36.312  33.417  31.071  1.00  0.00     0.058 A 
ATOM     74  C   UNL A   1      36.572  34.150  29.904  1.00  0.00     0.135 A 
ATOM     75  C   UNL A   1      34.996  33.414  31.561  1.00  0.00     0.135 A 
ATOM     76  F   UNL A   1      37.811  34.182  29.390  1.00  0.00    -0.206 F 
ATOM     77  C   UNL A   1      35.576  34.878  29.264  1.00  0.00     0.059 A 
ATOM     78  C   UNL A   1      33.976  34.114  30.923  1.00  0.00     0.059 A 
ATOM     79  F   UNL A   1      34.693  32.708  32.662  1.00  0.00    -0.206 F 
ATOM     80  C   UNL A   1      34.282  34.859  29.783  1.00  0.00     0.060 A 
BRANCH  80  81
ATOM     81  S   UNL A   1      32.999  35.805  28.935  1.00  0.00     0.124 S 
ATOM     82  O   UNL A   1      33.797  36.791  28.212  1.00  0.00    -0.237 OA
ATOM     83  O   UNL A   1      32.353  34.786  28.115  1.00  0.00    -0.237 OA
ATOM     84  O   UNL A   1      32.190  36.330  30.030  1.00  0.00    -0.744 OA
ENDBRANCH  80  81
ENDBRANCH  48  73
BRANCH  60  85
ATOM     85  C   UNL A   1      39.780  34.471  37.019  1.00  0.00     0.058 A 
ATOM     86  C   UNL A   1      40.520  35.663  36.995  1.00  0.00     0.135 A 
ATOM     87  C   UNL A   1      38.939  34.242  38.120  1.00  0.00     0.135 A 
ATOM     88  F   UNL A   1      41.342  35.928  35.967  1.00  0.00    -0.206 F 
ATOM     89  C   UNL A   1      40.435  36.591  38.027  1.00  0.00     0.059 A 
ATOM     90  C   UNL A   1      38.823  35.166  39.154  1.00  0.00     0.059 A 
ATOM     91  F   UNL A   1      38.202  33.121  38.184  1.00  0.00    -0.206 F 
ATOM     92  C   UNL A   1      39.586  36.332  39.105  1.00  0.00     0.060 A 
BRANCH  92  93
ATOM     93  S   UNL A   1      39.459  37.560  40.423  1.00  0.00     0.124 S 
ATOM     94  O   UNL A   1      39.322  36.715  41.605  1.00  0.00    -0.237 OA
ATOM     95  O   UNL A   1      40.723  38.281  40.302  1.00  0.00    -0.237 OA
ATOM     96  O   UNL A   1      38.272  38.327  40.057  1.00  0.00    -0.744 OA
ENDBRANCH  92  93
ENDBRANCH  60  85
ENDBRANCH  34  35
ENDBRANCH  27  29
ENDBRANCH  26  27
ENDBRANCH  25  26
ENDBRANCH   1  25
TORSDOF 19
ENDMDL
MODEL 2
REMARK VINA RESULT:     -10.0      5.639      9.572
REMARK SMILES C[NH2+][C@](CSc1cccc(F)c1)(C(=O)OCCOC(=O)c1ccc(-c2c3nc(c(-c4c(F)cc(S(=O)(=O)[O-])cc4F)c4ccc([nH]4)c(-c4c(F)cc(S(=O)(=O)[O-])cc4F)c4nc(c(-c5c(F)cc(S(=O)(=O)[O-])cc5F)c5ccc2[nH]5)C=C4)C=C3)cc1)c1ccccc1
REMARK SMILES IDX 16 1 15 2 13 3 14 4 3 5 2 6 1 7 87 10 88 11 92 12 89 13
REMARK SMILES IDX 91 14 90 15 4 16 5 17 6 18 7 19 12 20 8 21 10 22 9 23 11 24
REMARK SMILES IDX 17 25 18 26 19 27 20 28 21 29 22 30 86 31 23 32 85 33 24 34
REMARK SMILES IDX 25 35 26 36 79 37 27 38 84 39 78 40 80 41 28 42 83 43 77 44
REMARK SMILES IDX 76 45 29 47 63 48 42 49 62 50 43 51 46 52 61 53 81 54 44 55
REMARK SMILES IDX 45 56 60 58 82 59 47 60 30 61 31 62 40 63 32 64 33 65 39 66
REMARK SMILES IDX 41 67 34 68 35 69 36 70 37 71 38 72 64 73 65 74 74 75 66 76
REMARK SMILES IDX 67 77 73 78 75 79 68 80 69 81 70 82 71 83 72 84 48 85 49 86
REMARK SMILES IDX 58 87 50 88 51 89 57 90 59 91 52 92 53 93 54 94 55 95 56 96
REMARK H PARENT 2 8 2 9 80 46 46 57
REMARK Flexibility Score: inf
ROOT
ATOM      1  C   UNL A   1      35.869  21.859  24.904  1.00  0.00     0.274 C 
ENDROOT
BRANCH   1   2
ATOM      2  O   UNL A   1      35.484  23.250  24.832  1.00  0.00    -0.457 OA
BRANCH   2   3
ATOM      3  C   UNL A   1      34.501  23.663  25.700  1.00  0.00     0.374 C 
ATOM      4  O   UNL A   1      34.469  23.276  26.862  1.00  0.00    -0.244 OA
BRANCH   3   5
ATOM      5  C   UNL A   1      33.355  24.520  24.950  1.00  0.00     0.229 C 
BRANCH   5   6
ATOM      6  N   UNL A   1      32.104  23.703  25.016  1.00  0.00    -0.330 N 
ATOM      7  C   UNL A   1      32.129  22.431  24.320  1.00  0.00     0.332 C 
ATOM      8  H   UNL A   1      31.908  23.515  25.999  1.00  0.00     0.347 HD
ATOM      9  H   UNL A   1      31.392  24.258  24.543  1.00  0.00     0.347 HD
ENDBRANCH   5   6
BRANCH   5  10
ATOM     10  C   UNL A   1      33.046  25.842  25.735  1.00  0.00     0.025 A 
ATOM     11  C   UNL A   1      33.966  26.898  25.864  1.00  0.00     0.011 A 
ATOM     12  C   UNL A   1      31.760  26.105  26.259  1.00  0.00     0.011 A 
ATOM     13  C   UNL A   1      33.650  28.107  26.505  1.00  0.00     0.001 A 
ATOM     14  C   UNL A   1      31.446  27.298  26.928  1.00  0.00     0.001 A 
ATOM     15  C   UNL A   1      32.393  28.300  27.055  1.00  0.00     0.000 A 
ENDBRANCH   5  10
BRANCH   5  16
ATOM     16  C   UNL A   1      33.885  24.742  23.466  1.00  0.00     0.161 C 
BRANCH  16  17
ATOM     17  S   UNL A   1      32.911  25.294  21.981  1.00  0.00    -0.118 SA
BRANCH  17  18
ATOM     18  C   UNL A   1      31.923  26.626  22.602  1.00  0.00     0.010 A 
ATOM     19  C   UNL A   1      32.455  27.908  22.768  1.00  0.00     0.015 A 
ATOM     20  C   UNL A   1      30.590  26.383  22.948  1.00  0.00     0.054 A 
ATOM     21  C   UNL A   1      31.640  28.960  23.194  1.00  0.00     0.004 A 
ATOM     22  C   UNL A   1      29.792  27.433  23.382  1.00  0.00     0.124 A 
ATOM     23  C   UNL A   1      30.299  28.722  23.492  1.00  0.00     0.039 A 
ATOM     24  F   UNL A   1      28.510  27.202  23.692  1.00  0.00    -0.207 F 
ENDBRANCH  17  18
ENDBRANCH  16  17
ENDBRANCH   5  16
ENDBRANCH   3   5
ENDBRANCH   2   3
ENDBRANCH   1   2
BRANCH   1  25
ATOM     25  C   UNL A   1      37.386  21.723  24.961  1.00  0.00     0.275 C 
BRANCH  25  26
ATOM     26  O   UNL A   1      37.874  22.584  25.996  1.00  0.00    -0.458 OA
BRANCH  26  27
ATOM     27  C   UNL A   1      39.096  22.289  26.490  1.00  0.00     0.338 C 
ATOM     28  O   UNL A   1      39.632  21.189  26.511  1.00  0.00    -0.246 OA
BRANCH  27  29
ATOM     29  C   UNL A   1      39.714  23.532  26.990  1.00  0.00     0.060 A 
ATOM     30  C   UNL A   1      39.266  24.764  26.514  1.00  0.00     0.016 A 
ATOM     31  C   UNL A   1      40.792  23.476  27.876  1.00  0.00     0.016 A 
ATOM     32  C   UNL A   1      39.918  25.935  26.887  1.00  0.00     0.010 A 
ATOM     33  C   UNL A   1      41.404  24.663  28.300  1.00  0.00     0.010 A 
ATOM     34  C   UNL A   1      40.989  25.905  27.788  1.00  0.00    -0.014 A 
BRANCH  34  35
ATOM     35  C   UNL A   1      41.718  27.170  28.082  1.00  0.00     0.031 A 
ATOM     36  C   UNL A   1      41.018  28.279  28.820  1.00  0.00     0.074 A 
ATOM     37  C   UNL A   1      43.033  27.289  27.804  1.00  0.00     0.049 A 
ATOM     38  N   UNL A   1      41.452  29.477  29.119  1.00  0.00    -0.248 NA
ATOM     39  C   UNL A   1      39.649  28.006  29.287  1.00  0.00     0.031 C 
ATOM     40  C   UNL A   1      43.860  26.262  27.167  1.00  0.00     0.029 A 
ATOM     41  N   UNL A   1      43.917  28.306  28.068  1.00  0.00    -0.354 N 
ATOM     42  C   UNL A   1      40.398  30.114  29.761  1.00  0.00     0.074 A 
ATOM     43  C   UNL A   1      39.302  29.171  29.814  1.00  0.00     0.031 C 
ATOM     44  C   UNL A   1      45.141  26.667  27.167  1.00  0.00     0.029 A 
ATOM     45  C   UNL A   1      45.218  28.013  27.729  1.00  0.00     0.049 A 
ATOM     46  H   UNL A   1      43.645  29.167  28.464  1.00  0.00     0.167 HD
ATOM     47  C   UNL A   1      40.346  31.372  30.258  1.00  0.00     0.037 A 
ATOM     48  C   UNL A   1      46.342  28.748  27.843  1.00  0.00     0.037 A 
ATOM     49  C   UNL A   1      41.450  32.296  30.254  1.00  0.00     0.049 A 
ATOM     50  C   UNL A   1      46.253  30.154  28.373  1.00  0.00     0.074 A 
ATOM     51  C   UNL A   1      41.475  33.610  30.686  1.00  0.00     0.029 A 
ATOM     52  N   UNL A   1      42.731  31.992  29.821  1.00  0.00    -0.354 N 
ATOM     53  N   UNL A   1      45.214  30.787  28.861  1.00  0.00    -0.248 NA
ATOM     54  C   UNL A   1      47.484  30.959  28.329  1.00  0.00     0.031 C 
ATOM     55  C   UNL A   1      42.769  34.110  30.494  1.00  0.00     0.029 A 
ATOM     56  C   UNL A   1      43.555  33.096  29.972  1.00  0.00     0.049 A 
ATOM     57  H   UNL A   1      43.013  31.122  29.460  1.00  0.00     0.167 HD
ATOM     58  C   UNL A   1      45.659  32.071  29.160  1.00  0.00     0.074 A 
ATOM     59  C   UNL A   1      47.071  32.110  28.843  1.00  0.00     0.031 C 
ATOM     60  C   UNL A   1      44.955  33.127  29.635  1.00  0.00     0.037 A 
BRANCH  47  61
ATOM     61  C   UNL A   1      39.031  31.841  30.810  1.00  0.00     0.058 A 
ATOM     62  C   UNL A   1      38.801  31.810  32.195  1.00  0.00     0.135 A 
ATOM     63  C   UNL A   1      37.996  32.296  29.981  1.00  0.00     0.135 A 
ATOM     64  F   UNL A   1      39.764  31.394  33.032  1.00  0.00    -0.206 F 
ATOM     65  C   UNL A   1      37.585  32.209  32.738  1.00  0.00     0.059 A 
ATOM     66  C   UNL A   1      36.777  32.718  30.504  1.00  0.00     0.059 A 
ATOM     67  F   UNL A   1      38.179  32.373  28.653  1.00  0.00    -0.206 F 
ATOM     68  C   UNL A   1      36.578  32.661  31.886  1.00  0.00     0.060 A 
BRANCH  68  69
ATOM     69  S   UNL A   1      35.024  33.225  32.611  1.00  0.00     0.124 S 
ATOM     70  O   UNL A   1      35.254  32.989  34.032  1.00  0.00    -0.237 OA
ATOM     71  O   UNL A   1      34.981  34.625  32.197  1.00  0.00    -0.237 OA
ATOM     72  O   UNL A   1      34.027  32.365  31.981  1.00  0.00    -0.744 OA
ENDBRANCH  68  69
ENDBRANCH  47  61
BRANCH  48  73
ATOM     73  C   UNL A   1      47.651  28.184  27.417  1.00  0.00     0.058 A 
ATOM     74  C   UNL A   1      48.057  28.215  26.075  1.00  0.00     0.135 A 
ATOM     75  C   UNL A   1      48.523  27.601  28.350  1.00  0.00     0.135 A 
ATOM     76  F   UNL A   1      47.264  28.766  25.143  1.00  0.00    -0.206 F 
ATOM     77  C   UNL A   1      49.265  27.662  25.666  1.00  0.00     0.059 A 
ATOM     78  C   UNL A   1      49.750  27.064  27.969  1.00  0.00     0.059 A 
ATOM     79  F   UNL A   1      48.189  27.569  29.650  1.00  0.00    -0.206 F 
ATOM     80  C   UNL A   1      50.103  27.083  26.619  1.00  0.00     0.060 A 
BRANCH  80  81
ATOM     81  S   UNL A   1      51.671  26.375  26.071  1.00  0.00     0.124 S 
ATOM     82  O   UNL A   1      51.691  25.113  26.802  1.00  0.00    -0.237 OA
ATOM     83  O   UNL A   1      51.477  26.272  24.629  1.00  0.00    -0.237 OA
ATOM     84  O   UNL A   1      52.654  27.367  26.498  1.00  0.00    -0.744 OA
ENDBRANCH  80  81
ENDBRANCH  48  73
BRANCH  60  85
ATOM     85  C   UNL A   1      45.691  34.424  29.812  1.00  0.00     0.058 A 
ATOM     86  C   UNL A   1      46.305  34.744  31.033  1.00  0.00     0.135 A 
ATOM     87  C   UNL A   1      45.746  35.374  28.780  1.00  0.00     0.135 A 
ATOM     88  F   UNL A   1      46.278  33.871  32.053  1.00  0.00    -0.206 F 
ATOM     89  C   UNL A   1      46.944  35.964  31.226  1.00  0.00     0.059 A 
ATOM     90  C   UNL A   1      46.397  36.594  28.945  1.00  0.00     0.059 A 
ATOM     91  F   UNL A   1      45.183  35.111  27.591  1.00  0.00    -0.206 F 
ATOM     92  C   UNL A   1      46.982  36.885  30.177  1.00  0.00     0.060 A 
BRANCH  92  93
ATOM     93  S   UNL A   1      47.843  38.452  30.429  1.00  0.00     0.124 S 
ATOM     94  O   UNL A   1      47.067  39.047  31.511  1.00  0.00    -0.237 OA
ATOM     95  O   UNL A   1      49.191  38.015  30.779  1.00  0.00    -0.237 OA
ATOM     96  O   UNL A   1      47.725  39.114  29.132  1.00  0.00    -0.744 OA
ENDBRANCH  92  93
ENDBRANCH  60  85
ENDBRANCH  34  35
ENDBRANCH  27  29
ENDBRANCH  26  27
ENDBRANCH  25  26
ENDBRANCH   1  25
TORSDOF 19
ENDMDL
MODEL 3
REMARK VINA RESULT:      -9.9      5.414      7.079
REMARK SMILES C[NH2+][C@](CSc1cccc(F)c1)(C(=O)OCCOC(=O)c1ccc(-c2c3nc(c(-c4c(F)cc(S(=O)(=O)[O-])cc4F)c4ccc([nH]4)c(-c4c(F)cc(S(=O)(=O)[O-])cc4F)c4nc(c(-c5c(F)cc(S(=O)(=O)[O-])cc5F)c5ccc2[nH]5)C=C4)C=C3)cc1)c1ccccc1
REMARK SMILES IDX 16 1 15 2 13 3 14 4 3 5 2 6 1 7 87 10 88 11 92 12 89 13
REMARK SMILES IDX 91 14 90 15 4 16 5 17 6 18 7 19 12 20 8 21 10 22 9 23 11 24
REMARK SMILES IDX 17 25 18 26 19 27 20 28 21 29 22 30 86 31 23 32 85 33 24 34
REMARK SMILES IDX 25 35 26 36 79 37 27 38 84 39 78 40 80 41 28 42 83 43 77 44
REMARK SMILES IDX 76 45 29 47 63 48 42 49 62 50 43 51 46 52 61 53 81 54 44 55
REMARK SMILES IDX 45 56 60 58 82 59 47 60 30 61 31 62 40 63 32 64 33 65 39 66
REMARK SMILES IDX 41 67 34 68 35 69 36 70 37 71 38 72 64 73 65 74 74 75 66 76
REMARK SMILES IDX 67 77 73 78 75 79 68 80 69 81 70 82 71 83 72 84 48 85 49 86
REMARK SMILES IDX 58 87 50 88 51 89 57 90 59 91 52 92 53 93 54 94 55 95 56 96
REMARK H PARENT 2 8 2 9 80 46 46 57
REMARK Flexibility Score: inf
ROOT
ATOM      1  C   UNL A   1      36.959  22.575  23.684  1.00  0.00     0.274 C 
ENDROOT
BRANCH   1   2
ATOM      2  O   UNL A   1      35.521  22.708  23.635  1.00  0.00    -0.457 OA
BRANCH   2   3
ATOM      3  C   UNL A   1      34.942  23.503  24.595  1.00  0.00     0.374 C 
ATOM      4  O   UNL A   1      35.488  24.525  24.994  1.00  0.00    -0.244 OA
BRANCH   3   5
ATOM      5  C   UNL A   1      33.617  22.824  25.224  1.00  0.00     0.229 C 
BRANCH   5   6
ATOM      6  N   UNL A   1      33.748  22.935  26.709  1.00  0.00    -0.330 N 
ATOM      7  C   UNL A   1      34.396  21.825  27.382  1.00  0.00     0.332 C 
ATOM      8  H   UNL A   1      34.287  23.777  26.911  1.00  0.00     0.347 HD
ATOM      9  H   UNL A   1      32.794  22.949  27.066  1.00  0.00     0.347 HD
ENDBRANCH   5   6
BRANCH   5  10
ATOM     10  C   UNL A   1      32.337  23.648  24.844  1.00  0.00     0.025 A 
ATOM     11  C   UNL A   1      31.574  24.367  25.782  1.00  0.00     0.011 A 
ATOM     12  C   UNL A   1      31.944  23.820  23.498  1.00  0.00     0.011 A 
ATOM     13  C   UNL A   1      30.475  25.162  25.416  1.00  0.00     0.001 A 
ATOM     14  C   UNL A   1      30.829  24.587  23.127  1.00  0.00     0.001 A 
ATOM     15  C   UNL A   1      30.090  25.256  24.089  1.00  0.00     0.000 A 
ENDBRANCH   5  10
BRANCH   5  16
ATOM     16  C   UNL A   1      33.614  21.321  24.701  1.00  0.00     0.161 C 
BRANCH  16  17
ATOM     17  S   UNL A   1      32.246  20.070  24.843  1.00  0.00    -0.118 SA
BRANCH  17  18
ATOM     18  C   UNL A   1      33.102  18.521  24.904  1.00  0.00     0.010 A 
ATOM     19  C   UNL A   1      34.426  18.407  24.470  1.00  0.00     0.015 A 
ATOM     20  C   UNL A   1      32.433  17.390  25.381  1.00  0.00     0.054 A 
ATOM     21  C   UNL A   1      35.104  17.191  24.591  1.00  0.00     0.004 A 
ATOM     22  C   UNL A   1      33.113  16.184  25.485  1.00  0.00     0.124 A 
ATOM     23  C   UNL A   1      34.447  16.078  25.112  1.00  0.00     0.039 A 
ATOM     24  F   UNL A   1      32.476  15.107  25.963  1.00  0.00    -0.207 F 
ENDBRANCH  17  18
ENDBRANCH  16  17
ENDBRANCH   5  16
ENDBRANCH   3   5
ENDBRANCH   2   3
ENDBRANCH   1   2
BRANCH   1  25
ATOM     25  C   UNL A   1      37.367  21.519  24.706  1.00  0.00     0.275 C 
BRANCH  25  26
ATOM     26  O   UNL A   1      37.802  22.191  25.893  1.00  0.00    -0.458 OA
BRANCH  26  27
ATOM     27  C   UNL A   1      39.088  21.988  26.254  1.00  0.00     0.338 C 
ATOM     28  O   UNL A   1      39.750  20.974  26.071  1.00  0.00    -0.246 OA
BRANCH  27  29
ATOM     29  C   UNL A   1      39.596  23.215  26.896  1.00  0.00     0.060 A 
ATOM     30  C   UNL A   1      39.077  24.455  26.521  1.00  0.00     0.016 A 
ATOM     31  C   UNL A   1      40.644  23.148  27.817  1.00  0.00     0.016 A 
ATOM     32  C   UNL A   1      39.628  25.625  27.031  1.00  0.00     0.010 A 
ATOM     33  C   UNL A   1      41.153  24.327  28.377  1.00  0.00     0.010 A 
ATOM     34  C   UNL A   1      40.667  25.581  27.969  1.00  0.00    -0.014 A 
BRANCH  34  35
ATOM     35  C   UNL A   1      41.291  26.859  28.413  1.00  0.00     0.031 A 
ATOM     36  C   UNL A   1      42.749  27.109  28.140  1.00  0.00     0.074 A 
ATOM     37  C   UNL A   1      40.540  27.844  28.947  1.00  0.00     0.049 A 
ATOM     38  N   UNL A   1      43.495  28.124  28.496  1.00  0.00    -0.248 NA
ATOM     39  C   UNL A   1      43.466  26.085  27.362  1.00  0.00     0.031 C 
ATOM     40  C   UNL A   1      39.098  27.773  29.191  1.00  0.00     0.029 A 
ATOM     41  N   UNL A   1      40.876  29.119  29.333  1.00  0.00    -0.354 N 
ATOM     42  C   UNL A   1      44.773  27.838  28.032  1.00  0.00     0.074 A 
ATOM     43  C   UNL A   1      44.704  26.557  27.364  1.00  0.00     0.031 C 
ATOM     44  C   UNL A   1      38.662  28.974  29.604  1.00  0.00     0.029 A 
ATOM     45  C   UNL A   1      39.802  29.879  29.732  1.00  0.00     0.049 A 
ATOM     46  H   UNL A   1      41.801  29.457  29.325  1.00  0.00     0.167 HD
ATOM     47  C   UNL A   1      45.902  28.574  28.154  1.00  0.00     0.037 A 
ATOM     48  C   UNL A   1      39.740  31.154  30.165  1.00  0.00     0.037 A 
ATOM     49  C   UNL A   1      45.965  29.872  28.772  1.00  0.00     0.049 A 
ATOM     50  C   UNL A   1      41.013  31.942  30.319  1.00  0.00     0.074 A 
ATOM     51  C   UNL A   1      47.075  30.670  28.991  1.00  0.00     0.029 A 
ATOM     52  N   UNL A   1      44.868  30.575  29.245  1.00  0.00    -0.354 N 
ATOM     53  N   UNL A   1      42.237  31.605  29.990  1.00  0.00    -0.248 NA
ATOM     54  C   UNL A   1      40.900  33.270  30.941  1.00  0.00     0.031 C 
ATOM     55  C   UNL A   1      46.651  31.848  29.617  1.00  0.00     0.029 A 
ATOM     56  C   UNL A   1      45.274  31.797  29.759  1.00  0.00     0.049 A 
ATOM     57  H   UNL A   1      43.939  30.254  29.220  1.00  0.00     0.167 HD
ATOM     58  C   UNL A   1      43.042  32.668  30.386  1.00  0.00     0.074 A 
ATOM     59  C   UNL A   1      42.162  33.678  30.936  1.00  0.00     0.031 C 
ATOM     60  C   UNL A   1      44.391  32.786  30.320  1.00  0.00     0.037 A 
BRANCH  47  61
ATOM     61  C   UNL A   1      47.178  27.969  27.645  1.00  0.00     0.058 A 
ATOM     62  C   UNL A   1      47.625  28.263  26.347  1.00  0.00     0.135 A 
ATOM     63  C   UNL A   1      47.944  27.087  28.421  1.00  0.00     0.135 A 
ATOM     64  F   UNL A   1      46.934  29.111  25.569  1.00  0.00    -0.206 F 
ATOM     65  C   UNL A   1      48.786  27.697  25.833  1.00  0.00     0.059 A 
ATOM     66  C   UNL A   1      49.120  26.523  27.934  1.00  0.00     0.059 A 
ATOM     67  F   UNL A   1      47.574  26.798  29.679  1.00  0.00    -0.206 F 
ATOM     68  C   UNL A   1      49.527  26.827  26.633  1.00  0.00     0.060 A 
BRANCH  68  69
ATOM     69  S   UNL A   1      51.061  26.143  25.969  1.00  0.00     0.124 S 
ATOM     70  O   UNL A   1      50.788  26.133  24.537  1.00  0.00    -0.237 OA
ATOM     71  O   UNL A   1      52.053  27.113  26.423  1.00  0.00    -0.237 OA
ATOM     72  O   UNL A   1      51.146  24.831  26.605  1.00  0.00    -0.744 OA
ENDBRANCH  68  69
ENDBRANCH  47  61
BRANCH  48  73
ATOM     73  C   UNL A   1      38.430  31.762  30.520  1.00  0.00     0.058 A 
ATOM     74  C   UNL A   1      37.718  32.550  29.604  1.00  0.00     0.135 A 
ATOM     75  C   UNL A   1      37.862  31.564  31.789  1.00  0.00     0.135 A 
ATOM     76  F   UNL A   1      38.213  32.768  28.375  1.00  0.00    -0.206 F 
ATOM     77  C   UNL A   1      36.509  33.147  29.940  1.00  0.00     0.059 A 
ATOM     78  C   UNL A   1      36.639  32.128  32.140  1.00  0.00     0.059 A 
ATOM     79  F   UNL A   1      38.493  30.797  32.692  1.00  0.00    -0.206 F 
ATOM     80  C   UNL A   1      35.979  32.934  31.213  1.00  0.00     0.060 A 
BRANCH  80  81
ATOM     81  S   UNL A   1      34.403  33.711  31.630  1.00  0.00     0.124 S 
ATOM     82  O   UNL A   1      33.804  32.702  32.498  1.00  0.00    -0.237 OA
ATOM     83  O   UNL A   1      34.827  34.943  32.285  1.00  0.00    -0.237 OA
ATOM     84  O   UNL A   1      33.761  33.885  30.330  1.00  0.00    -0.744 OA
ENDBRANCH  80  81
ENDBRANCH  48  73
BRANCH  60  85
ATOM     85  C   UNL A   1      45.003  34.037  30.881  1.00  0.00     0.058 A 
ATOM     86  C   UNL A   1      45.339  34.128  32.240  1.00  0.00     0.135 A 
ATOM     87  C   UNL A   1      45.212  35.167  30.075  1.00  0.00     0.135 A 
ATOM     88  F   UNL A   1      45.155  33.077  33.055  1.00  0.00    -0.206 F 
ATOM     89  C   UNL A   1      45.857  35.299  32.782  1.00  0.00     0.059 A 
ATOM     90  C   UNL A   1      45.748  36.343  30.592  1.00  0.00     0.059 A 
ATOM     91  F   UNL A   1      44.916  35.126  28.766  1.00  0.00    -0.206 F 
ATOM     92  C   UNL A   1      46.055  36.404  31.951  1.00  0.00     0.060 A 
BRANCH  92  93
ATOM     93  S   UNL A   1      46.758  37.908  32.659  1.00  0.00     0.124 S 
ATOM     94  O   UNL A   1      47.182  38.630  31.464  1.00  0.00    -0.237 OA
ATOM     95  O   UNL A   1      45.621  38.479  33.375  1.00  0.00    -0.237 OA
ATOM     96  O   UNL A   1      47.837  37.410  33.509  1.00  0.00    -0.744 OA
ENDBRANCH  92  93
ENDBRANCH  60  85
ENDBRANCH  34  35
ENDBRANCH  27  29
ENDBRANCH  26  27
ENDBRANCH  25  26
ENDBRANCH   1  25
TORSDOF 19
ENDMDL
