MODEL 1
REMARK VINA RESULT:     -13.0      0.000      0.000
REMARK SMILES Cc1ccc(S(=O)(=O)n2cc(C(=O)C(=O)NCC(=O)N[C@@H](Cc3c[nH]c4ccccc34)C(=O)OCCOC(=O)c3ccc(-c4c5nc(c(-c6c(F)cc(S(=O)(=O)[O-])cc6F)c6ccc([nH]6)c(-c6c(F)cc(S(=O)(=O)[O-])cc6F)c6nc(c(-c7c(F)cc(S(=O)(=O)[O-])cc7F)c7ccc4[nH]7)C=C6)C=C5)cc3)c3ccccc32)cc1
REMARK SMILES IDX 32 1 33 2 21 3 20 4 18 5 19 6 17 8 16 9 14 10 15 11 12 13
REMARK SMILES IDX 13 14 11 15 9 16 10 17 111 18 106 19 110 20 107 21 109 22
REMARK SMILES IDX 108 23 6 24 7 25 8 26 5 27 1 28 2 29 3 30 113 31 4 32 112 33
REMARK SMILES IDX 22 34 23 35 24 36 31 37 25 38 26 39 30 40 27 42 29 43 28 44
REMARK SMILES IDX 34 45 35 46 36 47 37 48 38 49 39 50 40 51 41 52 105 53 42 54
REMARK SMILES IDX 104 55 43 56 44 57 45 58 98 59 46 60 103 61 97 62 99 63
REMARK SMILES IDX 47 64 102 65 96 66 95 67 48 69 82 70 61 71 81 72 62 73 65 74
REMARK SMILES IDX 80 75 100 76 63 77 64 78 79 80 101 81 66 82 49 83 50 84
REMARK SMILES IDX 59 85 51 86 52 87 58 88 60 89 53 90 54 91 55 92 56 93 57 94
REMARK SMILES IDX 83 95 84 96 93 97 85 98 86 99 92 100 94 101 87 102 88 103
REMARK SMILES IDX 89 104 90 105 91 106 67 107 68 108 77 109 69 110 70 111
REMARK SMILES IDX 76 112 78 113 71 114 72 115 73 116 74 117 75 118
REMARK H PARENT 20 7 16 12 25 41 99 68 65 79
REMARK Flexibility Score: inf
ROOT
ATOM      1  C   UNL A   1      32.300  30.577  26.463  1.00  0.00     0.329 C 
ATOM      2  O   UNL A   1      31.658  31.619  26.478  1.00  0.00    -0.250 OA
ENDROOT
BRANCH   1   3
ATOM      3  C   UNL A   1      32.085  29.521  25.380  1.00  0.00     0.196 C 
BRANCH   3   4
ATOM      4  N   UNL A   1      32.830  28.272  25.533  1.00  0.00    -0.341 N 
ATOM      5  C   UNL A   1      33.589  27.579  24.629  1.00  0.00     0.240 C 
ATOM      6  O   UNL A   1      34.202  26.599  25.067  1.00  0.00    -0.273 OA
ATOM      7  H   UNL A   1      32.777  27.866  26.428  1.00  0.00     0.164 HD
BRANCH   5   8
ATOM      8  C   UNL A   1      33.748  28.005  23.143  1.00  0.00     0.216 C 
BRANCH   8   9
ATOM      9  N   UNL A   1      32.691  27.588  22.227  1.00  0.00    -0.340 N 
ATOM     10  C   UNL A   1      32.334  26.292  21.879  1.00  0.00     0.292 C 
ATOM     11  O   UNL A   1      31.359  26.121  21.153  1.00  0.00    -0.265 OA
ATOM     12  H   UNL A   1      32.171  28.310  21.806  1.00  0.00     0.164 HD
BRANCH  10  13
ATOM     13  C   UNL A   1      33.119  25.069  22.427  1.00  0.00     0.252 C 
ATOM     14  O   UNL A   1      34.282  24.944  22.045  1.00  0.00    -0.283 OA
BRANCH  13  15
ATOM     15  C   UNL A   1      32.514  24.147  23.416  1.00  0.00     0.054 A 
ATOM     16  N   UNL A   1      32.057  22.323  24.657  1.00  0.00    -0.240 N 
ATOM     17  C   UNL A   1      32.855  22.821  23.644  1.00  0.00     0.117 A 
ATOM     18  C   UNL A   1      31.266  23.321  25.188  1.00  0.00     0.065 A 
ATOM     19  C   UNL A   1      31.458  24.443  24.359  1.00  0.00     0.012 A 
ATOM     20  C   UNL A   1      30.458  23.384  26.335  1.00  0.00     0.028 A 
ATOM     21  C   UNL A   1      30.715  25.610  24.640  1.00  0.00     0.011 A 
ATOM     22  C   UNL A   1      29.794  24.575  26.624  1.00  0.00     0.002 A 
ATOM     23  C   UNL A   1      29.893  25.663  25.770  1.00  0.00     0.001 A 
BRANCH  16  24
ATOM     24  S   UNL A   1      32.093  20.637  25.046  1.00  0.00     0.268 S 
ATOM     25  O   UNL A   1      32.926  21.064  26.182  1.00  0.00    -0.201 OA
ATOM     26  O   UNL A   1      32.134  20.407  23.620  1.00  0.00    -0.201 OA
BRANCH  24  27
ATOM     27  C   UNL A   1      33.178  19.177  25.107  1.00  0.00     0.088 A 
ATOM     28  C   UNL A   1      35.421  15.497  25.065  1.00  0.00     0.044 C 
ATOM     29  C   UNL A   1      34.636  16.775  25.089  1.00  0.00    -0.051 A 
ATOM     30  C   UNL A   1      35.205  17.953  24.591  1.00  0.00     0.005 A 
ATOM     31  C   UNL A   1      33.326  16.804  25.583  1.00  0.00     0.005 A 
ATOM     32  C   UNL A   1      34.484  19.151  24.601  1.00  0.00     0.022 A 
ATOM     33  C   UNL A   1      32.595  17.995  25.585  1.00  0.00     0.022 A 
ENDBRANCH  24  27
ENDBRANCH  16  24
ENDBRANCH  13  15
ENDBRANCH  10  13
ENDBRANCH   8   9
ENDBRANCH   5   8
ENDBRANCH   3   4
BRANCH   3  34
ATOM     34  C   UNL A   1      30.579  29.288  25.123  1.00  0.00     0.074 C 
BRANCH  34  35
ATOM     35  C   UNL A   1      29.969  29.531  23.754  1.00  0.00    -0.020 A 
ATOM     36  C   UNL A   1      29.641  28.644  22.742  1.00  0.00     0.087 A 
ATOM     37  C   UNL A   1      29.476  30.811  23.311  1.00  0.00     0.003 A 
ATOM     38  N   UNL A   1      28.842  29.280  21.830  1.00  0.00    -0.361 N 
ATOM     39  C   UNL A   1      28.780  30.617  22.117  1.00  0.00     0.046 A 
ATOM     40  C   UNL A   1      29.516  32.115  23.847  1.00  0.00     0.010 A 
ATOM     41  H   UNL A   1      28.378  28.842  21.081  1.00  0.00     0.166 HD
ATOM     42  C   UNL A   1      28.130  31.644  21.429  1.00  0.00     0.026 A 
ATOM     43  C   UNL A   1      28.897  33.164  23.155  1.00  0.00     0.001 A 
ATOM     44  C   UNL A   1      28.214  32.928  21.964  1.00  0.00     0.002 A 
ENDBRANCH  34  35
ENDBRANCH   3  34
ENDBRANCH   1   3
BRANCH   1  45
ATOM     45  O   UNL A   1      33.246  30.296  27.400  1.00  0.00    -0.461 OA
BRANCH  45  46
ATOM     46  C   UNL A   1      34.395  31.161  27.318  1.00  0.00     0.274 C 
BRANCH  46  47
ATOM     47  C   UNL A   1      34.657  31.955  28.605  1.00  0.00     0.275 C 
BRANCH  47  48
ATOM     48  O   UNL A   1      35.658  31.524  29.559  1.00  0.00    -0.458 OA
BRANCH  48  49
ATOM     49  C   UNL A   1      36.422  32.416  30.236  1.00  0.00     0.338 C 
ATOM     50  O   UNL A   1      35.998  33.506  30.591  1.00  0.00    -0.246 OA
BRANCH  49  51
ATOM     51  C   UNL A   1      37.708  31.841  30.714  1.00  0.00     0.060 A 
ATOM     52  C   UNL A   1      37.702  30.720  31.565  1.00  0.00     0.016 A 
ATOM     53  C   UNL A   1      38.884  32.246  30.098  1.00  0.00     0.016 A 
ATOM     54  C   UNL A   1      38.833  29.902  31.659  1.00  0.00     0.010 A 
ATOM     55  C   UNL A   1      39.951  31.387  30.094  1.00  0.00     0.010 A 
ATOM     56  C   UNL A   1      39.940  30.216  30.870  1.00  0.00    -0.014 A 
BRANCH  56  57
ATOM     57  C   UNL A   1      41.193  29.467  30.849  1.00  0.00     0.031 A 
ATOM     58  C   UNL A   1      41.360  28.175  30.146  1.00  0.00     0.074 A 
ATOM     59  C   UNL A   1      42.212  30.111  31.463  1.00  0.00     0.049 A 
ATOM     60  N   UNL A   1      42.276  27.313  30.424  1.00  0.00    -0.248 NA
ATOM     61  C   UNL A   1      40.507  27.717  29.058  1.00  0.00     0.031 C 
ATOM     62  C   UNL A   1      43.626  29.810  31.536  1.00  0.00     0.029 A 
ATOM     63  N   UNL A   1      42.052  31.157  32.376  1.00  0.00    -0.354 N 
ATOM     64  C   UNL A   1      42.343  26.401  29.382  1.00  0.00     0.074 A 
ATOM     65  C   UNL A   1      41.145  26.624  28.624  1.00  0.00     0.031 C 
ATOM     66  C   UNL A   1      44.122  30.383  32.653  1.00  0.00     0.029 A 
ATOM     67  C   UNL A   1      43.003  30.981  33.374  1.00  0.00     0.049 A 
ATOM     68  H   UNL A   1      41.390  31.884  32.321  1.00  0.00     0.167 HD
ATOM     69  C   UNL A   1      43.501  25.698  29.207  1.00  0.00     0.037 A 
ATOM     70  C   UNL A   1      42.536  30.605  34.603  1.00  0.00     0.037 A 
ATOM     71  C   UNL A   1      44.396  25.979  30.328  1.00  0.00     0.049 A 
ATOM     72  C   UNL A   1      42.975  29.195  34.935  1.00  0.00     0.074 A 
ATOM     73  C   UNL A   1      45.429  26.888  30.477  1.00  0.00     0.029 A 
ATOM     74  N   UNL A   1      44.015  25.595  31.608  1.00  0.00    -0.354 N 
ATOM     75  N   UNL A   1      43.223  28.266  34.047  1.00  0.00    -0.248 NA
ATOM     76  C   UNL A   1      43.324  28.779  36.289  1.00  0.00     0.031 C 
ATOM     77  C   UNL A   1      45.583  27.142  31.863  1.00  0.00     0.029 A 
ATOM     78  C   UNL A   1      44.656  26.376  32.551  1.00  0.00     0.049 A 
ATOM     79  H   UNL A   1      43.379  24.872  31.814  1.00  0.00     0.167 HD
ATOM     80  C   UNL A   1      43.866  27.213  34.655  1.00  0.00     0.074 A 
ATOM     81  C   UNL A   1      43.874  27.573  36.064  1.00  0.00     0.031 C 
ATOM     82  C   UNL A   1      44.420  26.165  33.970  1.00  0.00     0.037 A 
BRANCH  69  83
ATOM     83  C   UNL A   1      43.968  25.035  27.917  1.00  0.00     0.058 A 
ATOM     84  C   UNL A   1      44.000  23.621  27.820  1.00  0.00     0.135 A 
ATOM     85  C   UNL A   1      44.445  25.698  26.769  1.00  0.00     0.135 A 
ATOM     86  F   UNL A   1      43.513  22.838  28.791  1.00  0.00    -0.206 F 
ATOM     87  C   UNL A   1      44.539  22.932  26.731  1.00  0.00     0.059 A 
ATOM     88  C   UNL A   1      45.014  25.030  25.672  1.00  0.00     0.059 A 
ATOM     89  F   UNL A   1      44.341  27.025  26.634  1.00  0.00    -0.206 F 
ATOM     90  C   UNL A   1      45.069  23.644  25.667  1.00  0.00     0.060 A 
BRANCH  90  91
ATOM     91  S   UNL A   1      45.788  22.729  24.289  1.00  0.00     0.124 S 
ATOM     92  O   UNL A   1      44.613  22.425  23.478  1.00  0.00    -0.237 OA
ATOM     93  O   UNL A   1      46.715  23.702  23.723  1.00  0.00    -0.237 OA
ATOM     94  O   UNL A   1      46.411  21.575  24.935  1.00  0.00    -0.744 OA
ENDBRANCH  90  91
ENDBRANCH  69  83
BRANCH  70  95
ATOM     95  C   UNL A   1      41.231  31.288  34.929  1.00  0.00     0.058 A 
ATOM     96  C   UNL A   1      40.071  30.480  34.980  1.00  0.00     0.135 A 
ATOM     97  C   UNL A   1      41.173  32.492  35.643  1.00  0.00     0.135 A 
ATOM     98  F   UNL A   1      40.054  29.301  34.335  1.00  0.00    -0.206 F 
ATOM     99  C   UNL A   1      38.981  30.771  35.808  1.00  0.00     0.059 A 
ATOM    100  C   UNL A   1      40.069  32.818  36.447  1.00  0.00     0.059 A 
ATOM    101  F   UNL A   1      42.237  33.311  35.682  1.00  0.00    -0.206 F 
ATOM    102  C   UNL A   1      39.016  31.918  36.588  1.00  0.00     0.060 A 
BRANCH 102 103
ATOM    103  S   UNL A   1      37.771  32.106  37.897  1.00  0.00     0.124 S 
ATOM    104  O   UNL A   1      36.858  33.100  37.342  1.00  0.00    -0.237 OA
ATOM    105  O   UNL A   1      37.226  30.752  37.983  1.00  0.00    -0.237 OA
ATOM    106  O   UNL A   1      38.546  32.525  39.059  1.00  0.00    -0.744 OA
ENDBRANCH 102 103
ENDBRANCH  70  95
BRANCH  82 107
ATOM    107  C   UNL A   1      44.940  24.874  34.565  1.00  0.00     0.058 A 
ATOM    108  C   UNL A   1      46.247  24.706  35.044  1.00  0.00     0.135 A 
ATOM    109  C   UNL A   1      44.057  23.789  34.816  1.00  0.00     0.135 A 
ATOM    110  F   UNL A   1      47.144  25.700  34.999  1.00  0.00    -0.206 F 
ATOM    111  C   UNL A   1      46.674  23.518  35.638  1.00  0.00     0.059 A 
ATOM    112  C   UNL A   1      44.443  22.628  35.473  1.00  0.00     0.059 A 
ATOM    113  F   UNL A   1      42.768  23.815  34.445  1.00  0.00    -0.206 F 
ATOM    114  C   UNL A   1      45.767  22.484  35.845  1.00  0.00     0.060 A 
BRANCH 114 115
ATOM    115  S   UNL A   1      46.307  20.961  36.633  1.00  0.00     0.124 S 
ATOM    116  O   UNL A   1      45.527  19.968  35.901  1.00  0.00    -0.237 OA
ATOM    117  O   UNL A   1      47.743  20.956  36.369  1.00  0.00    -0.237 OA
ATOM    118  O   UNL A   1      45.934  21.155  38.031  1.00  0.00    -0.744 OA
ENDBRANCH 114 115
ENDBRANCH  82 107
ENDBRANCH  56  57
ENDBRANCH  49  51
ENDBRANCH  48  49
ENDBRANCH  47  48
ENDBRANCH  46  47
ENDBRANCH  45  46
ENDBRANCH   1  45
TORSDOF 23
ENDMDL
MODEL 2
REMARK VINA RESULT:     -12.2      2.957      4.962
REMARK SMILES Cc1ccc(S(=O)(=O)n2cc(C(=O)C(=O)NCC(=O)N[C@@H](Cc3c[nH]c4ccccc34)C(=O)OCCOC(=O)c3ccc(-c4c5nc(c(-c6c(F)cc(S(=O)(=O)[O-])cc6F)c6ccc([nH]6)c(-c6c(F)cc(S(=O)(=O)[O-])cc6F)c6nc(c(-c7c(F)cc(S(=O)(=O)[O-])cc7F)c7ccc4[nH]7)C=C6)C=C5)cc3)c3ccccc32)cc1
REMARK SMILES IDX 32 1 33 2 21 3 20 4 18 5 19 6 17 8 16 9 14 10 15 11 12 13
REMARK SMILES IDX 13 14 11 15 9 16 10 17 111 18 106 19 110 20 107 21 109 22
REMARK SMILES IDX 108 23 6 24 7 25 8 26 5 27 1 28 2 29 3 30 113 31 4 32 112 33
REMARK SMILES IDX 22 34 23 35 24 36 31 37 25 38 26 39 30 40 27 42 29 43 28 44
REMARK SMILES IDX 34 45 35 46 36 47 37 48 38 49 39 50 40 51 41 52 105 53 42 54
REMARK SMILES IDX 104 55 43 56 44 57 45 58 98 59 46 60 103 61 97 62 99 63
REMARK SMILES IDX 47 64 102 65 96 66 95 67 48 69 82 70 61 71 81 72 62 73 65 74
REMARK SMILES IDX 80 75 100 76 63 77 64 78 79 80 101 81 66 82 49 83 50 84
REMARK SMILES IDX 59 85 51 86 52 87 58 88 60 89 53 90 54 91 55 92 56 93 57 94
REMARK SMILES IDX 83 95 84 96 93 97 85 98 86 99 92 100 94 101 87 102 88 103
REMARK SMILES IDX 89 104 90 105 91 106 67 107 68 108 77 109 69 110 70 111
REMARK SMILES IDX 76 112 78 113 71 114 72 115 73 116 74 117 75 118
REMARK H PARENT 20 7 16 12 25 41 99 68 65 79
REMARK Flexibility Score: inf
ROOT
ATOM      1  C   UNL A   1      34.576  32.801  29.370  1.00  0.00     0.329 C 
ATOM      2  O   UNL A   1      34.763  33.948  28.985  1.00  0.00    -0.250 OA
ENDROOT
BRANCH   1   3
ATOM      3  C   UNL A   1      34.973  31.596  28.518  1.00  0.00     0.196 C 
BRANCH   3   4
ATOM      4  N   UNL A   1      34.221  31.399  27.280  1.00  0.00    -0.341 N 
ATOM      5  C   UNL A   1      33.688  30.260  26.741  1.00  0.00     0.240 C 
ATOM      6  O   UNL A   1      33.000  30.406  25.725  1.00  0.00    -0.273 OA
ATOM      7  H   UNL A   1      34.074  32.217  26.752  1.00  0.00     0.164 HD
BRANCH   5   8
ATOM      8  C   UNL A   1      33.864  28.852  27.375  1.00  0.00     0.216 C 
BRANCH   8   9
ATOM      9  N   UNL A   1      32.665  28.027  27.476  1.00  0.00    -0.340 N 
ATOM     10  C   UNL A   1      32.236  27.043  26.595  1.00  0.00     0.292 C 
ATOM     11  O   UNL A   1      31.240  26.385  26.881  1.00  0.00    -0.265 OA
ATOM     12  H   UNL A   1      32.092  28.187  28.261  1.00  0.00     0.164 HD
BRANCH  10  13
ATOM     13  C   UNL A   1      33.019  26.740  25.288  1.00  0.00     0.252 C 
ATOM     14  O   UNL A   1      33.194  27.684  24.518  1.00  0.00    -0.283 OA
BRANCH  13  15
ATOM     15  C   UNL A   1      33.587  25.397  25.025  1.00  0.00     0.054 A 
ATOM     16  N   UNL A   1      34.943  23.598  25.027  1.00  0.00    -0.240 N 
ATOM     17  C   UNL A   1      34.791  24.890  25.494  1.00  0.00     0.117 A 
ATOM     18  C   UNL A   1      33.813  23.190  24.348  1.00  0.00     0.065 A 
ATOM     19  C   UNL A   1      32.996  24.333  24.244  1.00  0.00     0.012 A 
ATOM     20  C   UNL A   1      33.389  21.938  23.873  1.00  0.00     0.028 A 
ATOM     21  C   UNL A   1      31.781  24.216  23.535  1.00  0.00     0.011 A 
ATOM     22  C   UNL A   1      32.152  21.843  23.240  1.00  0.00     0.002 A 
ATOM     23  C   UNL A   1      31.372  22.973  23.042  1.00  0.00     0.001 A 
BRANCH  16  24
ATOM     24  S   UNL A   1      36.435  22.754  25.267  1.00  0.00     0.268 S 
ATOM     25  O   UNL A   1      36.005  22.687  26.673  1.00  0.00    -0.201 OA
ATOM     26  O   UNL A   1      36.991  23.654  24.282  1.00  0.00    -0.201 OA
BRANCH  24  27
ATOM     27  C   UNL A   1      38.083  22.893  26.026  1.00  0.00     0.088 A 
ATOM     28  C   UNL A   1      41.786  23.391  28.174  1.00  0.00     0.044 C 
ATOM     29  C   UNL A   1      40.498  23.228  27.423  1.00  0.00    -0.051 A 
ATOM     30  C   UNL A   1      40.190  22.000  26.826  1.00  0.00     0.005 A 
ATOM     31  C   UNL A   1      39.582  24.283  27.329  1.00  0.00     0.005 A 
ATOM     32  C   UNL A   1      38.990  21.831  26.127  1.00  0.00     0.022 A 
ATOM     33  C   UNL A   1      38.376  24.117  26.643  1.00  0.00     0.022 A 
ENDBRANCH  24  27
ENDBRANCH  16  24
ENDBRANCH  13  15
ENDBRANCH  10  13
ENDBRANCH   8   9
ENDBRANCH   5   8
ENDBRANCH   3   4
BRANCH   3  34
ATOM     34  C   UNL A   1      36.502  31.552  28.300  1.00  0.00     0.074 C 
BRANCH  34  35
ATOM     35  C   UNL A   1      37.280  30.257  28.453  1.00  0.00    -0.020 A 
ATOM     36  C   UNL A   1      38.031  29.541  27.535  1.00  0.00     0.087 A 
ATOM     37  C   UNL A   1      37.481  29.585  29.713  1.00  0.00     0.003 A 
ATOM     38  N   UNL A   1      38.789  28.616  28.201  1.00  0.00    -0.361 N 
ATOM     39  C   UNL A   1      38.424  28.576  29.519  1.00  0.00     0.046 A 
ATOM     40  C   UNL A   1      36.981  29.780  31.017  1.00  0.00     0.010 A 
ATOM     41  H   UNL A   1      39.493  28.062  27.793  1.00  0.00     0.166 HD
ATOM     42  C   UNL A   1      38.891  27.752  30.545  1.00  0.00     0.026 A 
ATOM     43  C   UNL A   1      37.412  28.942  32.053  1.00  0.00     0.001 A 
ATOM     44  C   UNL A   1      38.355  27.944  31.817  1.00  0.00     0.002 A 
ENDBRANCH  34  35
ENDBRANCH   3  34
ENDBRANCH   1   3
BRANCH   1  45
ATOM     45  O   UNL A   1      34.011  32.526  30.577  1.00  0.00    -0.461 OA
BRANCH  45  46
ATOM     46  C   UNL A   1      34.979  32.384  31.635  1.00  0.00     0.274 C 
BRANCH  46  47
ATOM     47  C   UNL A   1      35.694  33.694  31.990  1.00  0.00     0.275 C 
BRANCH  47  48
ATOM     48  O   UNL A   1      36.895  34.105  31.292  1.00  0.00    -0.458 OA
BRANCH  48  49
ATOM     49  C   UNL A   1      38.066  34.293  31.949  1.00  0.00     0.338 C 
ATOM     50  O   UNL A   1      38.145  34.950  32.976  1.00  0.00    -0.246 OA
BRANCH  49  51
ATOM     51  C   UNL A   1      39.164  33.425  31.445  1.00  0.00     0.060 A 
ATOM     52  C   UNL A   1      40.300  34.005  30.848  1.00  0.00     0.016 A 
ATOM     53  C   UNL A   1      39.176  32.088  31.816  1.00  0.00     0.016 A 
ATOM     54  C   UNL A   1      41.503  33.294  30.787  1.00  0.00     0.010 A 
ATOM     55  C   UNL A   1      40.377  31.431  31.866  1.00  0.00     0.010 A 
ATOM     56  C   UNL A   1      41.545  32.019  31.353  1.00  0.00    -0.014 A 
BRANCH  56  57
ATOM     57  C   UNL A   1      42.717  31.149  31.374  1.00  0.00     0.031 A 
ATOM     58  C   UNL A   1      42.989  30.123  30.343  1.00  0.00     0.074 A 
ATOM     59  C   UNL A   1      43.574  31.430  32.382  1.00  0.00     0.049 A 
ATOM     60  N   UNL A   1      43.752  29.101  30.523  1.00  0.00    -0.248 NA
ATOM     61  C   UNL A   1      42.426  30.139  29.000  1.00  0.00     0.031 C 
ATOM     62  C   UNL A   1      44.902  30.931  32.673  1.00  0.00     0.029 A 
ATOM     63  N   UNL A   1      43.240  32.159  33.526  1.00  0.00    -0.354 N 
ATOM     64  C   UNL A   1      44.038  28.549  29.283  1.00  0.00     0.074 A 
ATOM     65  C   UNL A   1      43.093  29.154  28.388  1.00  0.00     0.031 C 
ATOM     66  C   UNL A   1      45.120  31.063  33.998  1.00  0.00     0.029 A 
ATOM     67  C   UNL A   1      43.886  31.559  34.600  1.00  0.00     0.049 A 
ATOM     68  H   UNL A   1      42.656  32.952  33.564  1.00  0.00     0.167 HD
ATOM     69  C   UNL A   1      45.161  27.782  29.157  1.00  0.00     0.037 A 
ATOM     70  C   UNL A   1      43.095  30.894  35.495  1.00  0.00     0.037 A 
ATOM     71  C   UNL A   1      45.747  27.583  30.481  1.00  0.00     0.049 A 
ATOM     72  C   UNL A   1      43.354  29.404  35.435  1.00  0.00     0.074 A 
ATOM     73  C   UNL A   1      46.754  28.253  31.153  1.00  0.00     0.029 A 
ATOM     74  N   UNL A   1      45.025  26.883  31.439  1.00  0.00    -0.354 N 
ATOM     75  N   UNL A   1      43.773  28.765  34.372  1.00  0.00    -0.248 NA
ATOM     76  C   UNL A   1      43.315  28.551  36.618  1.00  0.00     0.031 C 
ATOM     77  C   UNL A   1      46.555  28.049  32.542  1.00  0.00     0.029 A 
ATOM     78  C   UNL A   1      45.440  27.244  32.707  1.00  0.00     0.049 A 
ATOM     79  H   UNL A   1      44.318  26.225  31.245  1.00  0.00     0.167 HD
ATOM     80  C   UNL A   1      44.176  27.500  34.729  1.00  0.00     0.074 A 
ATOM     81  C   UNL A   1      43.837  27.408  36.140  1.00  0.00     0.031 C 
ATOM     82  C   UNL A   1      44.831  26.645  33.883  1.00  0.00     0.037 A 
BRANCH  69  83
ATOM     83  C   UNL A   1      45.910  27.487  27.863  1.00  0.00     0.058 A 
ATOM     84  C   UNL A   1      47.000  28.307  27.474  1.00  0.00     0.135 A 
ATOM     85  C   UNL A   1      45.597  26.474  26.935  1.00  0.00     0.135 A 
ATOM     86  F   UNL A   1      47.478  29.268  28.274  1.00  0.00    -0.206 F 
ATOM     87  C   UNL A   1      47.652  28.194  26.244  1.00  0.00     0.059 A 
ATOM     88  C   UNL A   1      46.221  26.355  25.682  1.00  0.00     0.059 A 
ATOM     89  F   UNL A   1      44.700  25.522  27.216  1.00  0.00    -0.206 F 
ATOM     90  C   UNL A   1      47.242  27.229  25.339  1.00  0.00     0.060 A 
BRANCH  90  91
ATOM     91  S   UNL A   1      48.081  27.127  23.746  1.00  0.00     0.124 S 
ATOM     92  O   UNL A   1      47.202  27.915  22.887  1.00  0.00    -0.237 OA
ATOM     93  O   UNL A   1      49.379  27.723  24.042  1.00  0.00    -0.237 OA
ATOM     94  O   UNL A   1      48.102  25.694  23.463  1.00  0.00    -0.744 OA
ENDBRANCH  90  91
ENDBRANCH  69  83
BRANCH  70  95
ATOM     95  C   UNL A   1      41.791  31.616  35.719  1.00  0.00     0.058 A 
ATOM     96  C   UNL A   1      40.608  30.966  35.297  1.00  0.00     0.135 A 
ATOM     97  C   UNL A   1      41.634  32.590  36.715  1.00  0.00     0.135 A 
ATOM     98  F   UNL A   1      40.676  30.008  34.357  1.00  0.00    -0.206 F 
ATOM     99  C   UNL A   1      39.373  31.156  35.926  1.00  0.00     0.059 A 
ATOM    100  C   UNL A   1      40.393  32.821  37.330  1.00  0.00     0.059 A 
ATOM    101  F   UNL A   1      42.704  33.238  37.206  1.00  0.00    -0.206 F 
ATOM    102  C   UNL A   1      39.288  32.046  36.987  1.00  0.00     0.060 A 
BRANCH 102 103
ATOM    103  S   UNL A   1      37.784  32.030  38.006  1.00  0.00     0.124 S 
ATOM    104  O   UNL A   1      38.268  32.461  39.313  1.00  0.00    -0.237 OA
ATOM    105  O   UNL A   1      36.946  33.005  37.310  1.00  0.00    -0.237 OA
ATOM    106  O   UNL A   1      37.316  30.652  37.917  1.00  0.00    -0.744 OA
ENDBRANCH 102 103
ENDBRANCH  70  95
BRANCH  82 107
ATOM    107  C   UNL A   1      45.106  25.176  34.123  1.00  0.00     0.058 A 
ATOM    108  C   UNL A   1      46.392  24.629  34.231  1.00  0.00     0.135 A 
ATOM    109  C   UNL A   1      44.040  24.281  34.411  1.00  0.00     0.135 A 
ATOM    110  F   UNL A   1      47.489  25.391  34.121  1.00  0.00    -0.206 F 
ATOM    111  C   UNL A   1      46.605  23.279  34.508  1.00  0.00     0.059 A 
ATOM    112  C   UNL A   1      44.234  22.952  34.763  1.00  0.00     0.059 A 
ATOM    113  F   UNL A   1      42.755  24.666  34.379  1.00  0.00    -0.206 F 
ATOM    114  C   UNL A   1      45.521  22.447  34.769  1.00  0.00     0.060 A 
BRANCH 114 115
ATOM    115  S   UNL A   1      45.792  20.712  35.151  1.00  0.00     0.124 S 
ATOM    116  O   UNL A   1      46.039  20.771  36.588  1.00  0.00    -0.237 OA
ATOM    117  O   UNL A   1      44.530  20.095  34.752  1.00  0.00    -0.237 OA
ATOM    118  O   UNL A   1      46.942  20.361  34.324  1.00  0.00    -0.744 OA
ENDBRANCH 114 115
ENDBRANCH  82 107
ENDBRANCH  56  57
ENDBRANCH  49  51
ENDBRANCH  48  49
ENDBRANCH  47  48
ENDBRANCH  46  47
ENDBRANCH  45  46
ENDBRANCH   1  45
TORSDOF 23
ENDMDL
MODEL 3
REMARK VINA RESULT:     -11.2      6.666     10.867
REMARK SMILES Cc1ccc(S(=O)(=O)n2cc(C(=O)C(=O)NCC(=O)N[C@@H](Cc3c[nH]c4ccccc34)C(=O)OCCOC(=O)c3ccc(-c4c5nc(c(-c6c(F)cc(S(=O)(=O)[O-])cc6F)c6ccc([nH]6)c(-c6c(F)cc(S(=O)(=O)[O-])cc6F)c6nc(c(-c7c(F)cc(S(=O)(=O)[O-])cc7F)c7ccc4[nH]7)C=C6)C=C5)cc3)c3ccccc32)cc1
REMARK SMILES IDX 32 1 33 2 21 3 20 4 18 5 19 6 17 8 16 9 14 10 15 11 12 13
REMARK SMILES IDX 13 14 11 15 9 16 10 17 111 18 106 19 110 20 107 21 109 22
REMARK SMILES IDX 108 23 6 24 7 25 8 26 5 27 1 28 2 29 3 30 113 31 4 32 112 33
REMARK SMILES IDX 22 34 23 35 24 36 31 37 25 38 26 39 30 40 27 42 29 43 28 44
REMARK SMILES IDX 34 45 35 46 36 47 37 48 38 49 39 50 40 51 41 52 105 53 42 54
REMARK SMILES IDX 104 55 43 56 44 57 45 58 98 59 46 60 103 61 97 62 99 63
REMARK SMILES IDX 47 64 102 65 96 66 95 67 48 69 82 70 61 71 81 72 62 73 65 74
REMARK SMILES IDX 80 75 100 76 63 77 64 78 79 80 101 81 66 82 49 83 50 84
REMARK SMILES IDX 59 85 51 86 52 87 58 88 60 89 53 90 54 91 55 92 56 93 57 94
REMARK SMILES IDX 83 95 84 96 93 97 85 98 86 99 92 100 94 101 87 102 88 103
REMARK SMILES IDX 89 104 90 105 91 106 67 107 68 108 77 109 69 110 70 111
REMARK SMILES IDX 76 112 78 113 71 114 72 115 73 116 74 117 75 118
REMARK H PARENT 20 7 16 12 25 41 99 68 65 79
REMARK Flexibility Score: inf
ROOT
ATOM      1  C   UNL A   1      36.380  30.170  28.547  1.00  0.00     0.329 C 
ATOM      2  O   UNL A   1      36.284  29.482  29.555  1.00  0.00    -0.250 OA
ENDROOT
BRANCH   1   3
ATOM      3  C   UNL A   1      35.396  31.301  28.254  1.00  0.00     0.196 C 
BRANCH   3   4
ATOM      4  N   UNL A   1      34.000  30.913  28.059  1.00  0.00    -0.341 N 
ATOM      5  C   UNL A   1      33.455  29.941  27.265  1.00  0.00     0.240 C 
ATOM      6  O   UNL A   1      32.237  29.758  27.381  1.00  0.00    -0.273 OA
ATOM      7  H   UNL A   1      33.349  31.433  28.583  1.00  0.00     0.164 HD
BRANCH   5   8
ATOM      8  C   UNL A   1      34.294  29.052  26.305  1.00  0.00     0.216 C 
BRANCH   8   9
ATOM      9  N   UNL A   1      33.774  28.878  24.953  1.00  0.00    -0.340 N 
ATOM     10  C   UNL A   1      33.083  27.786  24.444  1.00  0.00     0.292 C 
ATOM     11  O   UNL A   1      32.643  27.845  23.300  1.00  0.00    -0.265 OA
ATOM     12  H   UNL A   1      33.931  29.623  24.327  1.00  0.00     0.164 HD
BRANCH  10  13
ATOM     13  C   UNL A   1      32.826  26.524  25.313  1.00  0.00     0.252 C 
ATOM     14  O   UNL A   1      32.000  26.635  26.217  1.00  0.00    -0.283 OA
BRANCH  13  15
ATOM     15  C   UNL A   1      33.493  25.236  25.012  1.00  0.00     0.054 A 
ATOM     16  N   UNL A   1      34.986  23.550  24.949  1.00  0.00    -0.240 N 
ATOM     17  C   UNL A   1      34.743  24.817  25.445  1.00  0.00     0.117 A 
ATOM     18  C   UNL A   1      33.877  23.066  24.285  1.00  0.00     0.065 A 
ATOM     19  C   UNL A   1      32.971  24.142  24.222  1.00  0.00     0.012 A 
ATOM     20  C   UNL A   1      33.543  21.794  23.794  1.00  0.00     0.028 A 
ATOM     21  C   UNL A   1      31.753  23.943  23.535  1.00  0.00     0.011 A 
ATOM     22  C   UNL A   1      32.303  21.612  23.185  1.00  0.00     0.002 A 
ATOM     23  C   UNL A   1      31.432  22.681  23.026  1.00  0.00     0.001 A 
BRANCH  16  24
ATOM     24  S   UNL A   1      36.544  22.822  25.141  1.00  0.00     0.268 S 
ATOM     25  O   UNL A   1      35.990  22.308  26.404  1.00  0.00    -0.201 OA
ATOM     26  O   UNL A   1      37.072  24.019  24.526  1.00  0.00    -0.201 OA
BRANCH  24  27
ATOM     27  C   UNL A   1      38.077  22.895  26.120  1.00  0.00     0.088 A 
ATOM     28  C   UNL A   1      41.913  22.914  28.085  1.00  0.00     0.044 C 
ATOM     29  C   UNL A   1      40.577  22.897  27.404  1.00  0.00    -0.051 A 
ATOM     30  C   UNL A   1      39.761  24.034  27.440  1.00  0.00     0.005 A 
ATOM     31  C   UNL A   1      40.139  21.763  26.708  1.00  0.00     0.005 A 
ATOM     32  C   UNL A   1      38.515  24.035  26.805  1.00  0.00     0.022 A 
ATOM     33  C   UNL A   1      38.900  21.762  26.061  1.00  0.00     0.022 A 
ENDBRANCH  24  27
ENDBRANCH  16  24
ENDBRANCH  13  15
ENDBRANCH  10  13
ENDBRANCH   8   9
ENDBRANCH   5   8
ENDBRANCH   3   4
BRANCH   3  34
ATOM     34  C   UNL A   1      35.557  32.454  29.270  1.00  0.00     0.074 C 
BRANCH  34  35
ATOM     35  C   UNL A   1      34.728  33.722  29.157  1.00  0.00    -0.020 A 
ATOM     36  C   UNL A   1      34.196  34.355  28.046  1.00  0.00     0.087 A 
ATOM     37  C   UNL A   1      34.217  34.450  30.291  1.00  0.00     0.003 A 
ATOM     38  N   UNL A   1      33.276  35.282  28.457  1.00  0.00    -0.361 N 
ATOM     39  C   UNL A   1      33.318  35.407  29.819  1.00  0.00     0.046 A 
ATOM     40  C   UNL A   1      34.400  34.347  31.685  1.00  0.00     0.010 A 
ATOM     41  H   UNL A   1      32.674  35.784  27.862  1.00  0.00     0.166 HD
ATOM     42  C   UNL A   1      32.599  36.265  30.654  1.00  0.00     0.026 A 
ATOM     43  C   UNL A   1      33.712  35.220  32.537  1.00  0.00     0.001 A 
ATOM     44  C   UNL A   1      32.825  36.164  32.026  1.00  0.00     0.002 A 
ENDBRANCH  34  35
ENDBRANCH   3  34
ENDBRANCH   1   3
BRANCH   1  45
ATOM     45  O   UNL A   1      37.368  29.978  27.632  1.00  0.00    -0.461 OA
BRANCH  45  46
ATOM     46  C   UNL A   1      38.461  29.187  28.138  1.00  0.00     0.274 C 
BRANCH  46  47
ATOM     47  C   UNL A   1      39.472  28.777  27.060  1.00  0.00     0.275 C 
BRANCH  47  48
ATOM     48  O   UNL A   1      40.432  27.719  27.299  1.00  0.00    -0.458 OA
BRANCH  48  49
ATOM     49  C   UNL A   1      41.383  27.405  26.384  1.00  0.00     0.338 C 
ATOM     50  O   UNL A   1      41.188  26.605  25.482  1.00  0.00    -0.246 OA
BRANCH  49  51
ATOM     51  C   UNL A   1      42.565  28.307  26.438  1.00  0.00     0.060 A 
ATOM     52  C   UNL A   1      42.666  29.273  27.457  1.00  0.00     0.016 A 
ATOM     53  C   UNL A   1      43.669  27.999  25.655  1.00  0.00     0.016 A 
ATOM     54  C   UNL A   1      43.913  29.800  27.806  1.00  0.00     0.010 A 
ATOM     55  C   UNL A   1      44.905  28.422  26.068  1.00  0.00     0.010 A 
ATOM     56  C   UNL A   1      45.041  29.323  27.138  1.00  0.00    -0.014 A 
BRANCH  56  57
ATOM     57  C   UNL A   1      46.410  29.766  27.382  1.00  0.00     0.031 A 
ATOM     58  C   UNL A   1      46.941  31.067  26.917  1.00  0.00     0.074 A 
ATOM     59  C   UNL A   1      47.123  28.908  28.148  1.00  0.00     0.049 A 
ATOM     60  N   UNL A   1      48.194  31.321  26.753  1.00  0.00    -0.248 NA
ATOM     61  C   UNL A   1      46.115  32.219  26.583  1.00  0.00     0.031 C 
ATOM     62  C   UNL A   1      48.435  29.028  28.747  1.00  0.00     0.029 A 
ATOM     63  N   UNL A   1      46.787  27.568  28.357  1.00  0.00    -0.354 N 
ATOM     64  C   UNL A   1      48.346  32.694  26.636  1.00  0.00     0.074 A 
ATOM     65  C   UNL A   1      47.018  33.191  26.413  1.00  0.00     0.031 C 
ATOM     66  C   UNL A   1      48.927  27.785  28.934  1.00  0.00     0.029 A 
ATOM     67  C   UNL A   1      47.972  26.843  28.360  1.00  0.00     0.049 A 
ATOM     68  H   UNL A   1      45.880  27.206  28.482  1.00  0.00     0.167 HD
ATOM     69  C   UNL A   1      49.566  33.239  26.922  1.00  0.00     0.037 A 
ATOM     70  C   UNL A   1      48.188  26.021  27.288  1.00  0.00     0.037 A 
ATOM     71  C   UNL A   1      50.523  32.158  27.146  1.00  0.00     0.049 A 
ATOM     72  C   UNL A   1      49.341  26.528  26.448  1.00  0.00     0.074 A 
ATOM     73  C   UNL A   1      50.963  31.542  28.305  1.00  0.00     0.029 A 
ATOM     74  N   UNL A   1      50.830  31.300  26.097  1.00  0.00    -0.354 N 
ATOM     75  N   UNL A   1      49.699  27.784  26.358  1.00  0.00    -0.248 NA
ATOM     76  C   UNL A   1      50.277  25.633  25.776  1.00  0.00     0.031 C 
ATOM     77  C   UNL A   1      51.425  30.248  27.956  1.00  0.00     0.029 A 
ATOM     78  C   UNL A   1      51.279  30.089  26.587  1.00  0.00     0.049 A 
ATOM     79  H   UNL A   1      50.738  31.522  25.142  1.00  0.00     0.167 HD
ATOM     80  C   UNL A   1      50.933  27.865  25.758  1.00  0.00     0.074 A 
ATOM     81  C   UNL A   1      51.234  26.493  25.385  1.00  0.00     0.031 C 
ATOM     82  C   UNL A   1      51.664  29.021  25.680  1.00  0.00     0.037 A 
BRANCH  69  83
ATOM     83  C   UNL A   1      49.836  34.685  27.319  1.00  0.00     0.058 A 
ATOM     84  C   UNL A   1      49.851  35.699  26.328  1.00  0.00     0.135 A 
ATOM     85  C   UNL A   1      50.140  35.147  28.615  1.00  0.00     0.135 A 
ATOM     86  F   UNL A   1      49.509  35.447  25.058  1.00  0.00    -0.206 F 
ATOM     87  C   UNL A   1      50.223  37.022  26.580  1.00  0.00     0.059 A 
ATOM     88  C   UNL A   1      50.541  36.465  28.890  1.00  0.00     0.059 A 
ATOM     89  F   UNL A   1      50.021  34.355  29.685  1.00  0.00    -0.206 F 
ATOM     90  C   UNL A   1      50.591  37.395  27.862  1.00  0.00     0.060 A 
BRANCH  90  91
ATOM     91  S   UNL A   1      51.098  39.102  28.152  1.00  0.00     0.124 S 
ATOM     92  O   UNL A   1      49.962  39.852  27.625  1.00  0.00    -0.237 OA
ATOM     93  O   UNL A   1      51.262  39.133  29.600  1.00  0.00    -0.237 OA
ATOM     94  O   UNL A   1      52.333  39.226  27.381  1.00  0.00    -0.744 OA
ENDBRANCH  90  91
ENDBRANCH  69  83
BRANCH  70  95
ATOM     95  C   UNL A   1      46.911  25.361  26.835  1.00  0.00     0.058 A 
ATOM     96  C   UNL A   1      46.605  25.415  25.455  1.00  0.00     0.135 A 
ATOM     97  C   UNL A   1      46.308  24.322  27.556  1.00  0.00     0.135 A 
ATOM     98  F   UNL A   1      47.158  26.372  24.690  1.00  0.00    -0.206 F 
ATOM     99  C   UNL A   1      45.874  24.418  24.800  1.00  0.00     0.059 A 
ATOM    100  C   UNL A   1      45.537  23.334  26.921  1.00  0.00     0.059 A 
ATOM    101  F   UNL A   1      46.563  24.166  28.867  1.00  0.00    -0.206 F 
ATOM    102  C   UNL A   1      45.393  23.344  25.536  1.00  0.00     0.060 A 
BRANCH 102 103
ATOM    103  S   UNL A   1      44.752  21.903  24.636  1.00  0.00     0.124 S 
ATOM    104  O   UNL A   1      44.563  22.417  23.283  1.00  0.00    -0.237 OA
ATOM    105  O   UNL A   1      45.853  20.951  24.781  1.00  0.00    -0.237 OA
ATOM    106  O   UNL A   1      43.539  21.546  25.363  1.00  0.00    -0.744 OA
ENDBRANCH 102 103
ENDBRANCH  70  95
BRANCH  82 107
ATOM    107  C   UNL A   1      52.912  29.243  24.852  1.00  0.00     0.058 A 
ATOM    108  C   UNL A   1      52.897  29.624  23.503  1.00  0.00     0.135 A 
ATOM    109  C   UNL A   1      54.195  29.224  25.463  1.00  0.00     0.135 A 
ATOM    110  F   UNL A   1      51.748  29.816  22.841  1.00  0.00    -0.206 F 
ATOM    111  C   UNL A   1      54.069  29.873  22.787  1.00  0.00     0.059 A 
ATOM    112  C   UNL A   1      55.366  29.542  24.788  1.00  0.00     0.059 A 
ATOM    113  F   UNL A   1      54.366  28.908  26.756  1.00  0.00    -0.206 F 
ATOM    114  C   UNL A   1      55.298  29.826  23.437  1.00  0.00     0.060 A 
BRANCH 114 115
ATOM    115  S   UNL A   1      56.808  30.172  22.526  1.00  0.00     0.124 S 
ATOM    116  O   UNL A   1      57.411  28.845  22.457  1.00  0.00    -0.237 OA
ATOM    117  O   UNL A   1      56.304  30.704  21.262  1.00  0.00    -0.237 OA
ATOM    118  O   UNL A   1      57.499  31.139  23.373  1.00  0.00    -0.744 OA
ENDBRANCH 114 115
ENDBRANCH  82 107
ENDBRANCH  56  57
ENDBRANCH  49  51
ENDBRANCH  48  49
ENDBRANCH  47  48
ENDBRANCH  46  47
ENDBRANCH  45  46
ENDBRANCH   1  45
TORSDOF 23
ENDMDL
