MODEL 1
REMARK VINA RESULT:     -14.3      0.000      0.000
REMARK SMILES Cc1ccccc1-c1c(Cl)ccc2c1C=C(C(=O)OCCOC(=O)c1ccc(-c3c4nc(c(-c5c(F)cc(S(=O)(=O)[O-])cc5F)c5ccc([nH]5)c(-c5c(F)cc(S(=O)(=O)[O-])cc5F)c5nc(c(-c6c(F)cc(S(=O)(=O)[O-])cc6F)c6ccc3[nH]6)C=C5)C=C4)cc1)[C@@H](C(F)(F)F)O2
REMARK SMILES IDX 21 1 20 2 19 3 17 4 18 5 16 6 8 7 9 8 14 9 10 10 11 11 13 12
REMARK SMILES IDX 15 13 12 14 96 15 91 16 7 17 1 18 2 19 3 20 4 21 6 22 5 23
REMARK SMILES IDX 92 24 93 25 94 26 95 27 22 28 23 29 24 30 25 31 26 32 90 33
REMARK SMILES IDX 27 34 89 35 28 36 29 37 30 38 83 39 31 40 88 41 82 42 84 43
REMARK SMILES IDX 32 44 87 45 81 46 80 47 33 49 67 50 46 51 66 52 47 53 50 54
REMARK SMILES IDX 65 55 85 56 48 57 49 58 64 60 86 61 51 62 34 63 35 64 44 65
REMARK SMILES IDX 36 66 37 67 43 68 45 69 38 70 39 71 40 72 41 73 42 74 68 75
REMARK SMILES IDX 69 76 78 77 70 78 71 79 77 80 79 81 72 82 73 83 74 84 75 85
REMARK SMILES IDX 76 86 52 87 53 88 62 89 54 90 55 91 61 92 63 93 56 94 57 95
REMARK SMILES IDX 58 96 59 97 60 98
REMARK H PARENT 84 48 50 59
REMARK Flexibility Score: inf
ROOT
ATOM      1  C   UNL A   1      34.250  31.509  27.690  1.00  0.00     0.275 C 
ENDROOT
BRANCH   1   2
ATOM      2  C   UNL A   1      33.153  30.504  27.283  1.00  0.00     0.275 C 
BRANCH   2   3
ATOM      3  O   UNL A   1      33.331  29.880  25.993  1.00  0.00    -0.459 OA
BRANCH   3   4
ATOM      4  C   UNL A   1      33.682  28.572  26.116  1.00  0.00     0.338 C 
ATOM      5  O   UNL A   1      34.578  28.200  26.870  1.00  0.00    -0.246 OA
BRANCH   4   6
ATOM      6  C   UNL A   1      32.771  27.616  25.435  1.00  0.00     0.087 C 
ATOM      7  C   UNL A   1      33.230  23.944  25.599  1.00  0.00     0.012 A 
ATOM      8  C   UNL A   1      32.483  22.916  26.236  1.00  0.00     0.049 A 
ATOM      9  C   UNL A   1      32.592  25.214  25.453  1.00  0.00     0.027 A 
ATOM     10  Cl  UNL A   1      33.183  21.376  26.638  1.00  0.00    -0.084 Cl
ATOM     11  C   UNL A   1      31.151  23.101  26.614  1.00  0.00     0.025 A 
ATOM     12  C   UNL A   1      31.249  25.380  25.848  1.00  0.00     0.128 A 
ATOM     13  C   UNL A   1      33.353  26.436  25.156  1.00  0.00     0.028 C 
ATOM     14  C   UNL A   1      30.526  24.321  26.389  1.00  0.00     0.049 A 
ATOM     15  O   UNL A   1      30.581  26.576  25.830  1.00  0.00    -0.475 OA
ATOM     16  C   UNL A   1      31.278  27.749  25.343  1.00  0.00     0.316 C 
BRANCH   7  17
ATOM     17  C   UNL A   1      34.591  23.643  25.052  1.00  0.00    -0.013 A 
ATOM     18  C   UNL A   1      33.859  23.121  22.629  1.00  0.00     0.045 C 
ATOM     19  C   UNL A   1      34.886  23.279  23.717  1.00  0.00    -0.043 A 
ATOM     20  C   UNL A   1      36.220  23.020  23.339  1.00  0.00     0.004 A 
ATOM     21  C   UNL A   1      37.272  23.175  24.235  1.00  0.00     0.000 A 
ATOM     22  C   UNL A   1      35.685  23.779  25.940  1.00  0.00     0.009 A 
ATOM     23  C   UNL A   1      37.005  23.570  25.536  1.00  0.00     0.001 A 
ENDBRANCH   7  17
BRANCH  16  24
ATOM     24  C   UNL A   1      30.854  28.033  23.892  1.00  0.00     0.430 C 
ATOM     25  F   UNL A   1      30.246  26.980  23.301  1.00  0.00    -0.167 F 
ATOM     26  F   UNL A   1      29.987  29.078  23.824  1.00  0.00    -0.167 F 
ATOM     27  F   UNL A   1      31.910  28.364  23.102  1.00  0.00    -0.167 F 
ENDBRANCH  16  24
ENDBRANCH   4   6
ENDBRANCH   3   4
ENDBRANCH   2   3
ENDBRANCH   1   2
BRANCH   1  28
ATOM     28  O   UNL A   1      35.647  31.142  27.666  1.00  0.00    -0.458 OA
BRANCH  28  29
ATOM     29  C   UNL A   1      36.216  30.739  28.827  1.00  0.00     0.338 C 
ATOM     30  O   UNL A   1      35.705  30.962  29.919  1.00  0.00    -0.246 OA
BRANCH  29  31
ATOM     31  C   UNL A   1      37.319  29.786  28.534  1.00  0.00     0.060 A 
ATOM     32  C   UNL A   1      38.024  29.938  27.340  1.00  0.00     0.016 A 
ATOM     33  C   UNL A   1      37.838  28.984  29.562  1.00  0.00     0.016 A 
ATOM     34  C   UNL A   1      39.327  29.467  27.240  1.00  0.00     0.010 A 
ATOM     35  C   UNL A   1      39.135  28.512  29.467  1.00  0.00     0.010 A 
ATOM     36  C   UNL A   1      39.897  28.793  28.328  1.00  0.00    -0.014 A 
BRANCH  36  37
ATOM     37  C   UNL A   1      41.185  28.119  28.201  1.00  0.00     0.031 A 
ATOM     38  C   UNL A   1      41.310  26.706  27.792  1.00  0.00     0.074 A 
ATOM     39  C   UNL A   1      42.218  28.799  28.733  1.00  0.00     0.049 A 
ATOM     40  N   UNL A   1      41.969  25.816  28.457  1.00  0.00    -0.248 NA
ATOM     41  C   UNL A   1      40.670  26.178  26.589  1.00  0.00     0.031 C 
ATOM     42  C   UNL A   1      43.602  28.396  28.898  1.00  0.00     0.029 A 
ATOM     43  N   UNL A   1      42.077  29.931  29.536  1.00  0.00    -0.354 N 
ATOM     44  C   UNL A   1      42.038  24.683  27.672  1.00  0.00     0.074 A 
ATOM     45  C   UNL A   1      41.149  24.926  26.558  1.00  0.00     0.031 C 
ATOM     46  C   UNL A   1      44.105  29.069  29.952  1.00  0.00     0.029 A 
ATOM     47  C   UNL A   1      43.010  29.830  30.557  1.00  0.00     0.049 A 
ATOM     48  H   UNL A   1      41.434  30.665  29.404  1.00  0.00     0.167 HD
ATOM     49  C   UNL A   1      42.973  23.717  27.906  1.00  0.00     0.037 A 
ATOM     50  C   UNL A   1      42.603  29.758  31.857  1.00  0.00     0.037 A 
ATOM     51  C   UNL A   1      43.912  24.162  28.923  1.00  0.00     0.049 A 
ATOM     52  C   UNL A   1      43.150  28.521  32.513  1.00  0.00     0.074 A 
ATOM     53  C   UNL A   1      45.054  24.929  28.769  1.00  0.00     0.029 A 
ATOM     54  N   UNL A   1      43.570  24.208  30.272  1.00  0.00    -0.354 N 
ATOM     55  N   UNL A   1      43.238  27.359  31.927  1.00  0.00    -0.248 NA
ATOM     56  C   UNL A   1      43.707  28.542  33.859  1.00  0.00     0.031 C 
ATOM     57  C   UNL A   1      45.352  25.523  30.008  1.00  0.00     0.029 A 
ATOM     58  C   UNL A   1      44.431  25.066  30.934  1.00  0.00     0.049 A 
ATOM     59  H   UNL A   1      42.832  23.708  30.690  1.00  0.00     0.167 HD
ATOM     60  C   UNL A   1      43.947  26.516  32.752  1.00  0.00     0.074 A 
ATOM     61  C   UNL A   1      44.183  27.292  33.959  1.00  0.00     0.031 C 
ATOM     62  C   UNL A   1      44.384  25.281  32.367  1.00  0.00     0.037 A 
BRANCH  49  63
ATOM     63  C   UNL A   1      43.261  22.634  26.891  1.00  0.00     0.058 A 
ATOM     64  C   UNL A   1      42.587  21.395  26.925  1.00  0.00     0.135 A 
ATOM     65  C   UNL A   1      44.258  22.751  25.903  1.00  0.00     0.135 A 
ATOM     66  F   UNL A   1      41.573  21.170  27.771  1.00  0.00    -0.206 F 
ATOM     67  C   UNL A   1      42.957  20.312  26.128  1.00  0.00     0.059 A 
ATOM     68  C   UNL A   1      44.657  21.672  25.101  1.00  0.00     0.059 A 
ATOM     69  F   UNL A   1      44.902  23.914  25.721  1.00  0.00    -0.206 F 
ATOM     70  C   UNL A   1      44.019  20.445  25.246  1.00  0.00     0.060 A 
BRANCH  70  71
ATOM     71  S   UNL A   1      44.587  18.972  24.368  1.00  0.00     0.124 S 
ATOM     72  O   UNL A   1      43.620  17.968  24.804  1.00  0.00    -0.237 OA
ATOM     73  O   UNL A   1      44.486  19.385  22.973  1.00  0.00    -0.237 OA
ATOM     74  O   UNL A   1      45.946  18.779  24.869  1.00  0.00    -0.744 OA
ENDBRANCH  70  71
ENDBRANCH  49  63
BRANCH  50  75
ATOM     75  C   UNL A   1      41.293  30.394  32.217  1.00  0.00     0.058 A 
ATOM     76  C   UNL A   1      40.194  29.586  32.588  1.00  0.00     0.135 A 
ATOM     77  C   UNL A   1      41.121  31.779  32.355  1.00  0.00     0.135 A 
ATOM     78  F   UNL A   1      40.261  28.250  32.454  1.00  0.00    -0.206 F 
ATOM     79  C   UNL A   1      39.036  30.108  33.158  1.00  0.00     0.059 A 
ATOM     80  C   UNL A   1      39.959  32.328  32.911  1.00  0.00     0.059 A 
ATOM     81  F   UNL A   1      42.094  32.627  31.993  1.00  0.00    -0.206 F 
ATOM     82  C   UNL A   1      38.934  31.482  33.333  1.00  0.00     0.060 A 
BRANCH  82  83
ATOM     83  S   UNL A   1      37.520  32.138  34.251  1.00  0.00     0.124 S 
ATOM     84  O   UNL A   1      37.814  33.566  34.262  1.00  0.00    -0.237 OA
ATOM     85  O   UNL A   1      36.395  31.731  33.410  1.00  0.00    -0.237 OA
ATOM     86  O   UNL A   1      37.631  31.454  35.535  1.00  0.00    -0.744 OA
ENDBRANCH  82  83
ENDBRANCH  50  75
BRANCH  62  87
ATOM     87  C   UNL A   1      45.062  24.273  33.264  1.00  0.00     0.058 A 
ATOM     88  C   UNL A   1      46.372  24.421  33.746  1.00  0.00     0.135 A 
ATOM     89  C   UNL A   1      44.348  23.155  33.767  1.00  0.00     0.135 A 
ATOM     90  F   UNL A   1      47.108  25.499  33.437  1.00  0.00    -0.206 F 
ATOM     91  C   UNL A   1      46.966  23.484  34.592  1.00  0.00     0.059 A 
ATOM     92  C   UNL A   1      44.903  22.239  34.652  1.00  0.00     0.059 A 
ATOM     93  F   UNL A   1      43.076  22.912  33.424  1.00  0.00    -0.206 F 
ATOM     94  C   UNL A   1      46.224  22.393  35.037  1.00  0.00     0.060 A 
BRANCH  94  95
ATOM     95  S   UNL A   1      46.955  21.206  36.175  1.00  0.00     0.124 S 
ATOM     96  O   UNL A   1      48.165  21.909  36.589  1.00  0.00    -0.237 OA
ATOM     97  O   UNL A   1      45.927  21.063  37.202  1.00  0.00    -0.237 OA
ATOM     98  O   UNL A   1      47.161  20.028  35.338  1.00  0.00    -0.744 OA
ENDBRANCH  94  95
ENDBRANCH  62  87
ENDBRANCH  36  37
ENDBRANCH  29  31
ENDBRANCH  28  29
ENDBRANCH   1  28
TORSDOF 16
ENDMDL
MODEL 2
REMARK VINA RESULT:     -13.7      1.209      1.749
REMARK SMILES Cc1ccccc1-c1c(Cl)ccc2c1C=C(C(=O)OCCOC(=O)c1ccc(-c3c4nc(c(-c5c(F)cc(S(=O)(=O)[O-])cc5F)c5ccc([nH]5)c(-c5c(F)cc(S(=O)(=O)[O-])cc5F)c5nc(c(-c6c(F)cc(S(=O)(=O)[O-])cc6F)c6ccc3[nH]6)C=C5)C=C4)cc1)[C@@H](C(F)(F)F)O2
REMARK SMILES IDX 21 1 20 2 19 3 17 4 18 5 16 6 8 7 9 8 14 9 10 10 11 11 13 12
REMARK SMILES IDX 15 13 12 14 96 15 91 16 7 17 1 18 2 19 3 20 4 21 6 22 5 23
REMARK SMILES IDX 92 24 93 25 94 26 95 27 22 28 23 29 24 30 25 31 26 32 90 33
REMARK SMILES IDX 27 34 89 35 28 36 29 37 30 38 83 39 31 40 88 41 82 42 84 43
REMARK SMILES IDX 32 44 87 45 81 46 80 47 33 49 67 50 46 51 66 52 47 53 50 54
REMARK SMILES IDX 65 55 85 56 48 57 49 58 64 60 86 61 51 62 34 63 35 64 44 65
REMARK SMILES IDX 36 66 37 67 43 68 45 69 38 70 39 71 40 72 41 73 42 74 68 75
REMARK SMILES IDX 69 76 78 77 70 78 71 79 77 80 79 81 72 82 73 83 74 84 75 85
REMARK SMILES IDX 76 86 52 87 53 88 62 89 54 90 55 91 61 92 63 93 56 94 57 95
REMARK SMILES IDX 58 96 59 97 60 98
REMARK H PARENT 84 48 50 59
REMARK Flexibility Score: inf
ROOT
ATOM      1  C   UNL A   1      34.636  30.720  27.957  1.00  0.00     0.275 C 
ENDROOT
BRANCH   1   2
ATOM      2  C   UNL A   1      33.876  30.074  26.781  1.00  0.00     0.275 C 
BRANCH   2   3
ATOM      3  O   UNL A   1      34.357  28.776  26.369  1.00  0.00    -0.459 OA
BRANCH   3   4
ATOM      4  C   UNL A   1      33.351  27.863  26.324  1.00  0.00     0.338 C 
ATOM      5  O   UNL A   1      32.648  27.610  27.300  1.00  0.00    -0.246 OA
BRANCH   4   6
ATOM      6  C   UNL A   1      33.034  27.352  24.965  1.00  0.00     0.087 C 
ATOM      7  C   UNL A   1      33.182  23.757  24.087  1.00  0.00     0.012 A 
ATOM      8  C   UNL A   1      32.171  22.808  23.775  1.00  0.00     0.049 A 
ATOM      9  C   UNL A   1      32.811  25.136  24.049  1.00  0.00     0.027 A 
ATOM     10  Cl  UNL A   1      32.422  21.096  23.946  1.00  0.00    -0.084 Cl
ATOM     11  C   UNL A   1      30.899  23.201  23.351  1.00  0.00     0.025 A 
ATOM     12  C   UNL A   1      31.520  25.510  23.624  1.00  0.00     0.128 A 
ATOM     13  C   UNL A   1      33.627  26.178  24.688  1.00  0.00     0.028 C 
ATOM     14  C   UNL A   1      30.586  24.550  23.244  1.00  0.00     0.049 A 
ATOM     15  O   UNL A   1      31.044  26.795  23.637  1.00  0.00    -0.475 OA
ATOM     16  C   UNL A   1      31.927  27.853  24.083  1.00  0.00     0.316 C 
BRANCH   7  17
ATOM     17  C   UNL A   1      34.578  23.291  24.363  1.00  0.00    -0.013 A 
ATOM     18  C   UNL A   1      34.325  23.001  26.918  1.00  0.00     0.045 C 
ATOM     19  C   UNL A   1      35.100  22.943  25.630  1.00  0.00    -0.043 A 
ATOM     20  C   UNL A   1      36.442  22.521  25.745  1.00  0.00     0.004 A 
ATOM     21  C   UNL A   1      37.255  22.377  24.627  1.00  0.00     0.000 A 
ATOM     22  C   UNL A   1      35.439  23.146  23.248  1.00  0.00     0.009 A 
ATOM     23  C   UNL A   1      36.748  22.676  23.372  1.00  0.00     0.001 A 
ENDBRANCH   7  17
BRANCH  16  24
ATOM     24  C   UNL A   1      32.507  28.586  22.860  1.00  0.00     0.430 C 
ATOM     25  F   UNL A   1      32.983  27.745  21.914  1.00  0.00    -0.167 F 
ATOM     26  F   UNL A   1      31.569  29.365  22.259  1.00  0.00    -0.167 F 
ATOM     27  F   UNL A   1      33.531  29.414  23.195  1.00  0.00    -0.167 F 
ENDBRANCH  16  24
ENDBRANCH   4   6
ENDBRANCH   3   4
ENDBRANCH   2   3
ENDBRANCH   1   2
BRANCH   1  28
ATOM     28  O   UNL A   1      35.770  30.063  28.566  1.00  0.00    -0.458 OA
BRANCH  28  29
ATOM     29  C   UNL A   1      36.408  30.703  29.574  1.00  0.00     0.338 C 
ATOM     30  O   UNL A   1      35.832  31.485  30.322  1.00  0.00    -0.246 OA
BRANCH  29  31
ATOM     31  C   UNL A   1      37.748  30.093  29.781  1.00  0.00     0.060 A 
ATOM     32  C   UNL A   1      37.820  28.715  29.989  1.00  0.00     0.016 A 
ATOM     33  C   UNL A   1      38.902  30.817  29.450  1.00  0.00     0.016 A 
ATOM     34  C   UNL A   1      38.986  28.027  29.673  1.00  0.00     0.010 A 
ATOM     35  C   UNL A   1      40.066  30.137  29.134  1.00  0.00     0.010 A 
ATOM     36  C   UNL A   1      40.094  28.740  29.200  1.00  0.00    -0.014 A 
BRANCH  36  37
ATOM     37  C   UNL A   1      41.390  28.089  29.037  1.00  0.00     0.031 A 
ATOM     38  C   UNL A   1      41.538  26.734  28.471  1.00  0.00     0.074 A 
ATOM     39  C   UNL A   1      42.402  28.706  29.678  1.00  0.00     0.049 A 
ATOM     40  N   UNL A   1      42.181  25.775  29.049  1.00  0.00    -0.248 NA
ATOM     41  C   UNL A   1      40.940  26.348  27.194  1.00  0.00     0.031 C 
ATOM     42  C   UNL A   1      43.782  28.289  29.840  1.00  0.00     0.029 A 
ATOM     43  N   UNL A   1      42.228  29.736  30.603  1.00  0.00    -0.354 N 
ATOM     44  C   UNL A   1      42.282  24.741  28.140  1.00  0.00     0.074 A 
ATOM     45  C   UNL A   1      41.428  25.110  27.034  1.00  0.00     0.031 C 
ATOM     46  C   UNL A   1      44.246  28.837  30.982  1.00  0.00     0.029 A 
ATOM     47  C   UNL A   1      43.128  29.519  31.635  1.00  0.00     0.049 A 
ATOM     48  H   UNL A   1      41.584  30.478  30.537  1.00  0.00     0.167 HD
ATOM     49  C   UNL A   1      43.216  23.757  28.290  1.00  0.00     0.037 A 
ATOM     50  C   UNL A   1      42.680  29.294  32.903  1.00  0.00     0.037 A 
ATOM     51  C   UNL A   1      44.118  24.082  29.383  1.00  0.00     0.049 A 
ATOM     52  C   UNL A   1      43.213  27.991  33.429  1.00  0.00     0.074 A 
ATOM     53  C   UNL A   1      45.260  24.866  29.356  1.00  0.00     0.029 A 
ATOM     54  N   UNL A   1      43.733  23.970  30.716  1.00  0.00    -0.354 N 
ATOM     55  N   UNL A   1      43.328  26.905  32.715  1.00  0.00    -0.248 NA
ATOM     56  C   UNL A   1      43.726  27.857  34.786  1.00  0.00     0.031 C 
ATOM     57  C   UNL A   1      45.514  25.311  30.665  1.00  0.00     0.029 A 
ATOM     58  C   UNL A   1      44.567  24.747  31.501  1.00  0.00     0.049 A 
ATOM     59  H   UNL A   1      42.985  23.422  31.048  1.00  0.00     0.167 HD
ATOM     60  C   UNL A   1      44.015  25.974  33.459  1.00  0.00     0.074 A 
ATOM     61  C   UNL A   1      44.207  26.604  34.755  1.00  0.00     0.031 C 
ATOM     62  C   UNL A   1      44.472  24.793  32.947  1.00  0.00     0.037 A 
BRANCH  49  63
ATOM     63  C   UNL A   1      43.543  22.800  27.166  1.00  0.00     0.058 A 
ATOM     64  C   UNL A   1      42.794  21.623  26.959  1.00  0.00     0.135 A 
ATOM     65  C   UNL A   1      44.646  22.971  26.307  1.00  0.00     0.135 A 
ATOM     66  F   UNL A   1      41.682  21.365  27.661  1.00  0.00    -0.206 F 
ATOM     67  C   UNL A   1      43.178  20.631  26.058  1.00  0.00     0.059 A 
ATOM     68  C   UNL A   1      45.061  21.982  25.404  1.00  0.00     0.059 A 
ATOM     69  F   UNL A   1      45.377  24.095  26.355  1.00  0.00    -0.206 F 
ATOM     70  C   UNL A   1      44.336  20.799  25.312  1.00  0.00     0.060 A 
BRANCH  70  71
ATOM     71  S   UNL A   1      44.902  19.417  24.295  1.00  0.00     0.124 S 
ATOM     72  O   UNL A   1      44.214  18.286  24.911  1.00  0.00    -0.237 OA
ATOM     73  O   UNL A   1      44.433  19.797  22.967  1.00  0.00    -0.237 OA
ATOM     74  O   UNL A   1      46.351  19.431  24.476  1.00  0.00    -0.744 OA
ENDBRANCH  70  71
ENDBRANCH  49  63
BRANCH  50  75
ATOM     75  C   UNL A   1      41.355  29.881  33.293  1.00  0.00     0.058 A 
ATOM     76  C   UNL A   1      41.276  31.228  33.714  1.00  0.00     0.135 A 
ATOM     77  C   UNL A   1      40.135  29.210  33.126  1.00  0.00     0.135 A 
ATOM     78  F   UNL A   1      42.399  31.935  33.934  1.00  0.00    -0.206 F 
ATOM     79  C   UNL A   1      40.066  31.901  33.860  1.00  0.00     0.059 A 
ATOM     80  C   UNL A   1      38.905  29.860  33.281  1.00  0.00     0.059 A 
ATOM     81  F   UNL A   1      40.111  27.919  32.765  1.00  0.00    -0.206 F 
ATOM     82  C   UNL A   1      38.883  31.213  33.623  1.00  0.00     0.060 A 
BRANCH  82  83
ATOM     83  S   UNL A   1      37.327  32.135  33.619  1.00  0.00     0.124 S 
ATOM     84  O   UNL A   1      36.400  31.145  33.083  1.00  0.00    -0.237 OA
ATOM     85  O   UNL A   1      37.159  32.457  35.035  1.00  0.00    -0.237 OA
ATOM     86  O   UNL A   1      37.630  33.263  32.745  1.00  0.00    -0.744 OA
ENDBRANCH  82  83
ENDBRANCH  50  75
BRANCH  62  87
ATOM     87  C   UNL A   1      45.127  23.690  33.742  1.00  0.00     0.058 A 
ATOM     88  C   UNL A   1      46.495  23.667  34.057  1.00  0.00     0.135 A 
ATOM     89  C   UNL A   1      44.350  22.653  34.320  1.00  0.00     0.135 A 
ATOM     90  F   UNL A   1      47.313  24.657  33.669  1.00  0.00    -0.206 F 
ATOM     91  C   UNL A   1      47.070  22.645  34.813  1.00  0.00     0.059 A 
ATOM     92  C   UNL A   1      44.894  21.656  35.119  1.00  0.00     0.059 A 
ATOM     93  F   UNL A   1      43.025  22.572  34.136  1.00  0.00    -0.206 F 
ATOM     94  C   UNL A   1      46.261  21.641  35.337  1.00  0.00     0.060 A 
BRANCH  94  95
ATOM     95  S   UNL A   1      46.977  20.346  36.363  1.00  0.00     0.124 S 
ATOM     96  O   UNL A   1      46.839  20.923  37.696  1.00  0.00    -0.237 OA
ATOM     97  O   UNL A   1      46.119  19.197  36.083  1.00  0.00    -0.237 OA
ATOM     98  O   UNL A   1      48.341  20.238  35.857  1.00  0.00    -0.744 OA
ENDBRANCH  94  95
ENDBRANCH  62  87
ENDBRANCH  36  37
ENDBRANCH  29  31
ENDBRANCH  28  29
ENDBRANCH   1  28
TORSDOF 16
ENDMDL
MODEL 3
REMARK VINA RESULT:     -13.6      4.684     10.950
REMARK SMILES Cc1ccccc1-c1c(Cl)ccc2c1C=C(C(=O)OCCOC(=O)c1ccc(-c3c4nc(c(-c5c(F)cc(S(=O)(=O)[O-])cc5F)c5ccc([nH]5)c(-c5c(F)cc(S(=O)(=O)[O-])cc5F)c5nc(c(-c6c(F)cc(S(=O)(=O)[O-])cc6F)c6ccc3[nH]6)C=C5)C=C4)cc1)[C@@H](C(F)(F)F)O2
REMARK SMILES IDX 21 1 20 2 19 3 17 4 18 5 16 6 8 7 9 8 14 9 10 10 11 11 13 12
REMARK SMILES IDX 15 13 12 14 96 15 91 16 7 17 1 18 2 19 3 20 4 21 6 22 5 23
REMARK SMILES IDX 92 24 93 25 94 26 95 27 22 28 23 29 24 30 25 31 26 32 90 33
REMARK SMILES IDX 27 34 89 35 28 36 29 37 30 38 83 39 31 40 88 41 82 42 84 43
REMARK SMILES IDX 32 44 87 45 81 46 80 47 33 49 67 50 46 51 66 52 47 53 50 54
REMARK SMILES IDX 65 55 85 56 48 57 49 58 64 60 86 61 51 62 34 63 35 64 44 65
REMARK SMILES IDX 36 66 37 67 43 68 45 69 38 70 39 71 40 72 41 73 42 74 68 75
REMARK SMILES IDX 69 76 78 77 70 78 71 79 77 80 79 81 72 82 73 83 74 84 75 85
REMARK SMILES IDX 76 86 52 87 53 88 62 89 54 90 55 91 61 92 63 93 56 94 57 95
REMARK SMILES IDX 58 96 59 97 60 98
REMARK H PARENT 84 48 50 59
REMARK Flexibility Score: inf
ROOT
ATOM      1  C   UNL A   1      38.950  22.407  26.117  1.00  0.00     0.275 C 
ENDROOT
BRANCH   1   2
ATOM      2  C   UNL A   1      37.759  21.777  25.367  1.00  0.00     0.275 C 
BRANCH   2   3
ATOM      3  O   UNL A   1      36.850  22.714  24.749  1.00  0.00    -0.459 OA
BRANCH   3   4
ATOM      4  C   UNL A   1      35.786  22.980  25.554  1.00  0.00     0.338 C 
ATOM      5  O   UNL A   1      35.914  23.257  26.744  1.00  0.00    -0.246 OA
BRANCH   4   6
ATOM      6  C   UNL A   1      34.487  23.116  24.844  1.00  0.00     0.087 C 
ATOM      7  C   UNL A   1      32.989  26.400  24.012  1.00  0.00     0.012 A 
ATOM      8  C   UNL A   1      32.788  27.072  22.776  1.00  0.00     0.049 A 
ATOM      9  C   UNL A   1      33.288  25.005  23.950  1.00  0.00     0.027 A 
ATOM     10  Cl  UNL A   1      32.588  28.796  22.680  1.00  0.00    -0.084 Cl
ATOM     11  C   UNL A   1      32.781  26.385  21.558  1.00  0.00     0.025 A 
ATOM     12  C   UNL A   1      33.283  24.334  22.710  1.00  0.00     0.128 A 
ATOM     13  C   UNL A   1      33.866  24.282  25.093  1.00  0.00     0.028 C 
ATOM     14  C   UNL A   1      32.995  25.013  21.530  1.00  0.00     0.049 A 
ATOM     15  O   UNL A   1      33.641  23.022  22.540  1.00  0.00    -0.475 OA
ATOM     16  C   UNL A   1      34.020  22.253  23.708  1.00  0.00     0.316 C 
BRANCH   7  17
ATOM     17  C   UNL A   1      32.811  27.144  25.299  1.00  0.00    -0.013 A 
ATOM     18  C   UNL A   1      30.402  26.352  25.799  1.00  0.00     0.045 C 
ATOM     19  C   UNL A   1      31.655  27.124  26.114  1.00  0.00    -0.043 A 
ATOM     20  C   UNL A   1      31.623  27.880  27.305  1.00  0.00     0.004 A 
ATOM     21  C   UNL A   1      32.730  28.600  27.737  1.00  0.00     0.000 A 
ATOM     22  C   UNL A   1      33.914  27.899  25.763  1.00  0.00     0.009 A 
ATOM     23  C   UNL A   1      33.885  28.598  26.971  1.00  0.00     0.001 A 
ENDBRANCH   7  17
BRANCH  16  24
ATOM     24  C   UNL A   1      32.837  21.376  24.152  1.00  0.00     0.430 C 
ATOM     25  F   UNL A   1      32.573  20.367  23.292  1.00  0.00    -0.167 F 
ATOM     26  F   UNL A   1      33.066  20.811  25.366  1.00  0.00    -0.167 F 
ATOM     27  F   UNL A   1      31.686  22.090  24.276  1.00  0.00    -0.167 F 
ENDBRANCH  16  24
ENDBRANCH   4   6
ENDBRANCH   3   4
ENDBRANCH   2   3
ENDBRANCH   1   2
BRANCH   1  28
ATOM     28  O   UNL A   1      39.196  23.830  26.069  1.00  0.00    -0.458 OA
BRANCH  28  29
ATOM     29  C   UNL A   1      40.223  24.321  26.802  1.00  0.00     0.338 C 
ATOM     30  O   UNL A   1      41.376  23.928  26.660  1.00  0.00    -0.246 OA
BRANCH  29  31
ATOM     31  C   UNL A   1      39.778  25.542  27.525  1.00  0.00     0.060 A 
ATOM     32  C   UNL A   1      39.158  25.386  28.764  1.00  0.00     0.016 A 
ATOM     33  C   UNL A   1      40.260  26.799  27.131  1.00  0.00     0.016 A 
ATOM     34  C   UNL A   1      39.195  26.419  29.693  1.00  0.00     0.010 A 
ATOM     35  C   UNL A   1      40.299  27.832  28.051  1.00  0.00     0.010 A 
ATOM     36  C   UNL A   1      39.811  27.629  29.346  1.00  0.00    -0.014 A 
BRANCH  36  37
ATOM     37  C   UNL A   1      39.707  28.798  30.214  1.00  0.00     0.031 A 
ATOM     38  C   UNL A   1      38.614  29.784  30.098  1.00  0.00     0.074 A 
ATOM     39  C   UNL A   1      40.813  29.045  30.942  1.00  0.00     0.049 A 
ATOM     40  N   UNL A   1      38.798  31.056  29.978  1.00  0.00    -0.248 NA
ATOM     41  C   UNL A   1      37.205  29.395  30.089  1.00  0.00     0.031 C 
ATOM     42  C   UNL A   1      41.116  30.168  31.808  1.00  0.00     0.029 A 
ATOM     43  N   UNL A   1      42.037  28.405  30.743  1.00  0.00    -0.354 N 
ATOM     44  C   UNL A   1      37.566  31.664  30.109  1.00  0.00     0.074 A 
ATOM     45  C   UNL A   1      36.598  30.590  30.094  1.00  0.00     0.031 C 
ATOM     46  C   UNL A   1      42.456  30.317  31.836  1.00  0.00     0.029 A 
ATOM     47  C   UNL A   1      43.030  29.362  30.887  1.00  0.00     0.049 A 
ATOM     48  H   UNL A   1      42.171  27.451  30.539  1.00  0.00     0.167 HD
ATOM     49  C   UNL A   1      37.461  32.990  30.414  1.00  0.00     0.037 A 
ATOM     50  C   UNL A   1      43.851  29.663  29.840  1.00  0.00     0.037 A 
ATOM     51  C   UNL A   1      38.769  33.538  30.732  1.00  0.00     0.049 A 
ATOM     52  C   UNL A   1      43.793  31.133  29.529  1.00  0.00     0.074 A 
ATOM     53  C   UNL A   1      39.438  33.531  31.944  1.00  0.00     0.029 A 
ATOM     54  N   UNL A   1      39.716  33.804  29.747  1.00  0.00    -0.354 N 
ATOM     55  N   UNL A   1      42.701  31.845  29.559  1.00  0.00    -0.248 NA
ATOM     56  C   UNL A   1      44.991  31.909  29.240  1.00  0.00     0.031 C 
ATOM     57  C   UNL A   1      40.810  33.695  31.687  1.00  0.00     0.029 A 
ATOM     58  C   UNL A   1      40.972  33.869  30.324  1.00  0.00     0.049 A 
ATOM     59  H   UNL A   1      39.522  33.926  28.789  1.00  0.00     0.167 HD
ATOM     60  C   UNL A   1      43.048  33.168  29.404  1.00  0.00     0.074 A 
ATOM     61  C   UNL A   1      44.483  33.149  29.172  1.00  0.00     0.031 C 
ATOM     62  C   UNL A   1      42.169  34.199  29.574  1.00  0.00     0.037 A 
BRANCH  49  63
ATOM     63  C   UNL A   1      36.149  33.597  30.857  1.00  0.00     0.058 A 
ATOM     64  C   UNL A   1      35.228  34.121  29.925  1.00  0.00     0.135 A 
ATOM     65  C   UNL A   1      35.789  33.751  32.210  1.00  0.00     0.135 A 
ATOM     66  F   UNL A   1      35.411  33.987  28.605  1.00  0.00    -0.206 F 
ATOM     67  C   UNL A   1      34.103  34.852  30.304  1.00  0.00     0.059 A 
ATOM     68  C   UNL A   1      34.672  34.494  32.616  1.00  0.00     0.059 A 
ATOM     69  F   UNL A   1      36.546  33.213  33.179  1.00  0.00    -0.206 F 
ATOM     70  C   UNL A   1      33.852  35.070  31.651  1.00  0.00     0.060 A 
BRANCH  70  71
ATOM     71  S   UNL A   1      32.494  36.173  32.097  1.00  0.00     0.124 S 
ATOM     72  O   UNL A   1      32.227  36.853  30.832  1.00  0.00    -0.237 OA
ATOM     73  O   UNL A   1      31.467  35.237  32.542  1.00  0.00    -0.237 OA
ATOM     74  O   UNL A   1      33.069  37.017  33.142  1.00  0.00    -0.744 OA
ENDBRANCH  70  71
ENDBRANCH  49  63
BRANCH  50  75
ATOM     75  C   UNL A   1      44.104  28.595  28.817  1.00  0.00     0.058 A 
ATOM     76  C   UNL A   1      43.621  28.753  27.499  1.00  0.00     0.135 A 
ATOM     77  C   UNL A   1      44.932  27.487  29.048  1.00  0.00     0.135 A 
ATOM     78  F   UNL A   1      42.791  29.768  27.198  1.00  0.00    -0.206 F 
ATOM     79  C   UNL A   1      44.016  27.927  26.449  1.00  0.00     0.059 A 
ATOM     80  C   UNL A   1      45.331  26.634  28.012  1.00  0.00     0.059 A 
ATOM     81  F   UNL A   1      45.407  27.234  30.276  1.00  0.00    -0.206 F 
ATOM     82  C   UNL A   1      44.888  26.878  26.712  1.00  0.00     0.060 A 
BRANCH  82  83
ATOM     83  S   UNL A   1      45.554  25.933  25.321  1.00  0.00     0.124 S 
ATOM     84  O   UNL A   1      46.034  26.996  24.446  1.00  0.00    -0.237 OA
ATOM     85  O   UNL A   1      46.591  25.130  25.967  1.00  0.00    -0.237 OA
ATOM     86  O   UNL A   1      44.386  25.198  24.850  1.00  0.00    -0.744 OA
ENDBRANCH  82  83
ENDBRANCH  50  75
BRANCH  62  87
ATOM     87  C   UNL A   1      42.465  35.655  29.306  1.00  0.00     0.058 A 
ATOM     88  C   UNL A   1      43.365  36.417  30.067  1.00  0.00     0.135 A 
ATOM     89  C   UNL A   1      41.920  36.309  28.172  1.00  0.00     0.135 A 
ATOM     90  F   UNL A   1      44.037  35.876  31.095  1.00  0.00    -0.206 F 
ATOM     91  C   UNL A   1      43.637  37.755  29.783  1.00  0.00     0.059 A 
ATOM     92  C   UNL A   1      42.217  37.624  27.840  1.00  0.00     0.059 A 
ATOM     93  F   UNL A   1      41.076  35.690  27.333  1.00  0.00    -0.206 F 
ATOM     94  C   UNL A   1      43.055  38.352  28.668  1.00  0.00     0.060 A 
BRANCH  94  95
ATOM     95  S   UNL A   1      43.439  40.061  28.253  1.00  0.00     0.124 S 
ATOM     96  O   UNL A   1      42.380  40.372  27.297  1.00  0.00    -0.237 OA
ATOM     97  O   UNL A   1      43.342  40.739  29.542  1.00  0.00    -0.237 OA
ATOM     98  O   UNL A   1      44.787  39.973  27.700  1.00  0.00    -0.744 OA
ENDBRANCH  94  95
ENDBRANCH  62  87
ENDBRANCH  36  37
ENDBRANCH  29  31
ENDBRANCH  28  29
ENDBRANCH   1  28
TORSDOF 16
ENDMDL
