MODEL 1
REMARK VINA RESULT:     -12.0      0.000      0.000
REMARK SMILES CC1(C)CC[C@@]2(C(=O)OCCOC(=O)c3ccc(-c4c5nc(c(-c6c(F)cc(S(=O)(=O)[O-])cc6F)c6ccc([nH]6)c(-c6c(F)cc(S(=O)(=O)[O-])cc6F)c6nc(c(-c7c(F)cc(S(=O)(=O)[O-])cc7F)c7ccc4[nH]7)C=C6)C=C5)cc3)CC[C@@]3(C)C(=CC[C@H]4[C@@]5(C)CC[C@H](O)C(C)(C)[C@@H]5CC[C@]43C)[C@@H]2C1
REMARK SMILES IDX 11 1 10 2 9 3 7 4 8 5 6 6 1 7 2 8 3 9 4 10 104 11 5 12
REMARK SMILES IDX 103 13 85 14 81 15 83 16 86 17 82 18 84 19 101 20 87 21
REMARK SMILES IDX 88 22 100 23 102 24 89 25 99 26 90 27 91 28 98 29 92 30
REMARK SMILES IDX 95 31 93 32 96 33 97 34 94 35 12 37 13 38 14 39 15 40 16 41
REMARK SMILES IDX 80 42 17 43 79 44 18 45 19 46 20 47 73 48 21 49 78 50 72 51
REMARK SMILES IDX 74 52 22 53 77 54 71 55 70 56 23 58 57 59 36 60 56 61 37 62
REMARK SMILES IDX 40 63 55 64 75 65 38 66 39 67 54 69 76 70 41 71 24 72 25 73
REMARK SMILES IDX 34 74 26 75 27 76 33 77 35 78 28 79 29 80 30 81 31 82 32 83
REMARK SMILES IDX 58 84 59 85 68 86 60 87 61 88 67 89 69 90 62 91 63 92 64 93
REMARK SMILES IDX 65 94 66 95 42 96 43 97 52 98 44 99 45 100 51 101 53 102
REMARK SMILES IDX 46 103 47 104 48 105 49 106 50 107
REMARK H PARENT 94 36 74 57 40 68
REMARK Flexibility Score: inf
ROOT
ATOM      1  C   UNL A   1      38.675  22.222  25.840  1.00  0.00     0.275 C 
ENDROOT
BRANCH   1   2
ATOM      2  C   UNL A   1      37.733  23.343  26.086  1.00  0.00     0.274 C 
BRANCH   2   3
ATOM      3  O   UNL A   1      37.035  23.674  24.949  1.00  0.00    -0.462 OA
BRANCH   3   4
ATOM      4  C   UNL A   1      35.757  23.426  25.287  1.00  0.00     0.312 C 
ATOM      5  O   UNL A   1      35.166  24.127  26.101  1.00  0.00    -0.252 OA
BRANCH   4   6
ATOM      6  C   UNL A   1      35.094  22.344  24.411  1.00  0.00     0.075 C 
ATOM      7  C   UNL A   1      32.924  19.750  26.847  1.00  0.00     0.011 C 
ATOM      8  C   UNL A   1      33.253  21.239  26.633  1.00  0.00    -0.035 C 
ATOM      9  C   UNL A   1      32.523  22.030  27.754  1.00  0.00     0.011 C 
ATOM     10  C   UNL A   1      34.784  21.337  26.744  1.00  0.00     0.007 C 
ATOM     11  C   UNL A   1      32.668  21.778  25.307  1.00  0.00     0.015 C 
ATOM     12  C   UNL A   1      35.504  21.165  25.358  1.00  0.00     0.020 C 
ATOM     13  C   UNL A   1      33.571  22.119  24.092  1.00  0.00     0.033 C 
ATOM     14  C   UNL A   1      32.810  23.085  23.107  1.00  0.00    -0.063 C 
ATOM     15  C   UNL A   1      35.722  22.549  22.998  1.00  0.00     0.020 C 
ATOM     16  C   UNL A   1      33.506  23.936  22.026  1.00  0.00    -0.006 C 
ATOM     17  C   UNL A   1      31.460  23.135  23.159  1.00  0.00    -0.027 C 
ATOM     18  C   UNL A   1      35.108  23.778  22.151  1.00  0.00     0.013 C 
ATOM     19  C   UNL A   1      33.278  23.160  20.661  1.00  0.00     0.017 C 
ATOM     20  C   UNL A   1      32.677  25.565  22.039  1.00  0.00    -0.020 C 
ATOM     21  C   UNL A   1      30.729  24.429  23.439  1.00  0.00     0.032 C 
ATOM     22  C   UNL A   1      31.482  25.745  23.170  1.00  0.00     0.006 C 
ATOM     23  C   UNL A   1      33.455  26.946  21.968  1.00  0.00     0.008 C 
ATOM     24  C   UNL A   1      31.894  25.578  20.650  1.00  0.00     0.012 C 
ATOM     25  C   UNL A   1      31.422  26.881  24.427  1.00  0.00    -0.025 C 
ATOM     26  C   UNL A   1      32.943  28.206  22.843  1.00  0.00     0.005 C 
ATOM     27  C   UNL A   1      30.080  27.639  24.245  1.00  0.00     0.012 C 
ATOM     28  C   UNL A   1      31.292  26.303  25.894  1.00  0.00     0.010 C 
ATOM     29  C   UNL A   1      32.573  27.924  24.332  1.00  0.00     0.003 C 
ATOM     30  C   UNL A   1      31.619  27.251  27.061  1.00  0.00     0.033 C 
ATOM     31  C   UNL A   1      32.806  28.979  25.544  1.00  0.00    -0.006 C 
ATOM     32  C   UNL A   1      32.846  28.138  26.875  1.00  0.00     0.120 C 
ATOM     33  C   UNL A   1      31.779  30.112  25.720  1.00  0.00     0.014 C 
ATOM     34  C   UNL A   1      34.182  29.711  25.460  1.00  0.00     0.014 C 
BRANCH  32  35
ATOM     35  O   UNL A   1      33.025  28.990  28.009  1.00  0.00    -0.393 OA
ATOM     36  H   UNL A   1      32.362  29.698  27.989  1.00  0.00     0.210 HD
ENDBRANCH  32  35
ENDBRANCH   4   6
ENDBRANCH   3   4
ENDBRANCH   2   3
ENDBRANCH   1   2
BRANCH   1  37
ATOM     37  O   UNL A   1      39.457  21.828  26.921  1.00  0.00    -0.458 OA
BRANCH  37  38
ATOM     38  C   UNL A   1      40.529  21.154  26.409  1.00  0.00     0.338 C 
ATOM     39  O   UNL A   1      40.626  19.996  26.126  1.00  0.00    -0.246 OA
BRANCH  38  40
ATOM     40  C   UNL A   1      41.651  22.021  26.724  1.00  0.00     0.060 A 
ATOM     41  C   UNL A   1      42.086  22.066  28.043  1.00  0.00     0.016 A 
ATOM     42  C   UNL A   1      42.278  22.698  25.667  1.00  0.00     0.016 A 
ATOM     43  C   UNL A   1      43.089  22.936  28.347  1.00  0.00     0.010 A 
ATOM     44  C   UNL A   1      43.308  23.560  25.967  1.00  0.00     0.010 A 
ATOM     45  C   UNL A   1      43.603  23.745  27.320  1.00  0.00    -0.014 A 
BRANCH  45  46
ATOM     46  C   UNL A   1      44.077  25.040  27.790  1.00  0.00     0.031 A 
ATOM     47  C   UNL A   1      45.524  25.338  27.527  1.00  0.00     0.074 A 
ATOM     48  C   UNL A   1      43.146  25.940  28.120  1.00  0.00     0.049 A 
ATOM     49  N   UNL A   1      46.133  26.488  27.508  1.00  0.00    -0.248 NA
ATOM     50  C   UNL A   1      46.398  24.198  27.178  1.00  0.00     0.031 C 
ATOM     51  C   UNL A   1      41.713  25.660  28.260  1.00  0.00     0.029 A 
ATOM     52  N   UNL A   1      43.259  27.278  28.315  1.00  0.00    -0.354 N 
ATOM     53  C   UNL A   1      47.438  26.209  27.117  1.00  0.00     0.074 A 
ATOM     54  C   UNL A   1      47.556  24.786  26.942  1.00  0.00     0.031 C 
ATOM     55  C   UNL A   1      41.072  26.815  28.495  1.00  0.00     0.029 A 
ATOM     56  C   UNL A   1      42.054  27.891  28.537  1.00  0.00     0.049 A 
ATOM     57  H   UNL A   1      44.118  27.759  28.298  1.00  0.00     0.167 HD
ATOM     58  C   UNL A   1      48.443  27.085  26.914  1.00  0.00     0.037 A 
ATOM     59  C   UNL A   1      41.806  29.193  28.747  1.00  0.00     0.037 A 
ATOM     60  C   UNL A   1      48.274  28.490  27.147  1.00  0.00     0.049 A 
ATOM     61  C   UNL A   1      42.975  30.133  28.631  1.00  0.00     0.074 A 
ATOM     62  C   UNL A   1      49.211  29.500  27.082  1.00  0.00     0.029 A 
ATOM     63  N   UNL A   1      47.065  29.075  27.513  1.00  0.00    -0.354 N 
ATOM     64  N   UNL A   1      44.219  29.865  28.297  1.00  0.00    -0.248 NA
ATOM     65  C   UNL A   1      42.710  31.544  28.905  1.00  0.00     0.031 C 
ATOM     66  C   UNL A   1      48.581  30.687  27.471  1.00  0.00     0.029 A 
ATOM     67  C   UNL A   1      47.236  30.430  27.709  1.00  0.00     0.049 A 
ATOM     68  H   UNL A   1      46.213  28.593  27.616  1.00  0.00     0.167 HD
ATOM     69  C   UNL A   1      44.887  31.082  28.308  1.00  0.00     0.074 A 
ATOM     70  C   UNL A   1      43.892  32.085  28.648  1.00  0.00     0.031 C 
ATOM     71  C   UNL A   1      46.196  31.362  28.069  1.00  0.00     0.037 A 
BRANCH  58  72
ATOM     72  C   UNL A   1      49.780  26.529  26.517  1.00  0.00     0.058 A 
ATOM     73  C   UNL A   1      50.173  26.408  25.173  1.00  0.00     0.135 A 
ATOM     74  C   UNL A   1      50.672  26.075  27.501  1.00  0.00     0.135 A 
ATOM     75  F   UNL A   1      49.340  26.778  24.188  1.00  0.00    -0.206 F 
ATOM     76  C   UNL A   1      51.402  25.853  24.821  1.00  0.00     0.059 A 
ATOM     77  C   UNL A   1      51.914  25.541  27.172  1.00  0.00     0.059 A 
ATOM     78  F   UNL A   1      50.332  26.133  28.797  1.00  0.00    -0.206 F 
ATOM     79  C   UNL A   1      52.268  25.428  25.829  1.00  0.00     0.060 A 
BRANCH  79  80
ATOM     80  S   UNL A   1      53.872  24.741  25.362  1.00  0.00     0.124 S 
ATOM     81  O   UNL A   1      54.633  24.902  26.597  1.00  0.00    -0.237 OA
ATOM     82  O   UNL A   1      53.528  23.369  25.003  1.00  0.00    -0.237 OA
ATOM     83  O   UNL A   1      54.294  25.589  24.251  1.00  0.00    -0.744 OA
ENDBRANCH  79  80
ENDBRANCH  58  72
BRANCH  59  84
ATOM     84  C   UNL A   1      40.436  29.641  29.101  1.00  0.00     0.058 A 
ATOM     85  C   UNL A   1      40.094  30.027  30.403  1.00  0.00     0.135 A 
ATOM     86  C   UNL A   1      39.434  29.701  28.118  1.00  0.00     0.135 A 
ATOM     87  F   UNL A   1      41.017  29.998  31.377  1.00  0.00    -0.206 F 
ATOM     88  C   UNL A   1      38.800  30.426  30.727  1.00  0.00     0.059 A 
ATOM     89  C   UNL A   1      38.144  30.126  28.409  1.00  0.00     0.059 A 
ATOM     90  F   UNL A   1      39.712  29.366  26.848  1.00  0.00    -0.206 F 
ATOM     91  C   UNL A   1      37.832  30.471  29.721  1.00  0.00     0.060 A 
BRANCH  91  92
ATOM     92  S   UNL A   1      36.159  31.001  30.146  1.00  0.00     0.124 S 
ATOM     93  O   UNL A   1      35.410  30.577  28.969  1.00  0.00    -0.237 OA
ATOM     94  O   UNL A   1      35.904  30.253  31.372  1.00  0.00    -0.237 OA
ATOM     95  O   UNL A   1      36.299  32.445  30.318  1.00  0.00    -0.744 OA
ENDBRANCH  91  92
ENDBRANCH  59  84
BRANCH  71  96
ATOM     96  C   UNL A   1      46.587  32.807  28.163  1.00  0.00     0.058 A 
ATOM     97  C   UNL A   1      46.461  33.674  27.068  1.00  0.00     0.135 A 
ATOM     98  C   UNL A   1      47.085  33.325  29.368  1.00  0.00     0.135 A 
ATOM     99  F   UNL A   1      45.987  33.221  25.896  1.00  0.00    -0.206 F 
ATOM    100  C   UNL A   1      46.877  34.995  27.145  1.00  0.00     0.059 A 
ATOM    101  C   UNL A   1      47.467  34.654  29.480  1.00  0.00     0.059 A 
ATOM    102  F   UNL A   1      47.200  32.537  30.450  1.00  0.00    -0.206 F 
ATOM    103  C   UNL A   1      47.386  35.472  28.355  1.00  0.00     0.060 A 
BRANCH 103 104
ATOM    104  S   UNL A   1      47.948  37.182  28.435  1.00  0.00     0.124 S 
ATOM    105  O   UNL A   1      48.501  37.369  27.098  1.00  0.00    -0.237 OA
ATOM    106  O   UNL A   1      46.713  37.905  28.719  1.00  0.00    -0.237 OA
ATOM    107  O   UNL A   1      48.924  37.167  29.522  1.00  0.00    -0.744 OA
ENDBRANCH 103 104
ENDBRANCH  71  96
ENDBRANCH  45  46
ENDBRANCH  38  40
ENDBRANCH  37  38
ENDBRANCH   1  37
TORSDOF 15
ENDMDL
MODEL 2
REMARK VINA RESULT:     -11.5      6.483     11.952
REMARK SMILES CC1(C)CC[C@@]2(C(=O)OCCOC(=O)c3ccc(-c4c5nc(c(-c6c(F)cc(S(=O)(=O)[O-])cc6F)c6ccc([nH]6)c(-c6c(F)cc(S(=O)(=O)[O-])cc6F)c6nc(c(-c7c(F)cc(S(=O)(=O)[O-])cc7F)c7ccc4[nH]7)C=C6)C=C5)cc3)CC[C@@]3(C)C(=CC[C@H]4[C@@]5(C)CC[C@H](O)C(C)(C)[C@@H]5CC[C@]43C)[C@@H]2C1
REMARK SMILES IDX 11 1 10 2 9 3 7 4 8 5 6 6 1 7 2 8 3 9 4 10 104 11 5 12
REMARK SMILES IDX 103 13 85 14 81 15 83 16 86 17 82 18 84 19 101 20 87 21
REMARK SMILES IDX 88 22 100 23 102 24 89 25 99 26 90 27 91 28 98 29 92 30
REMARK SMILES IDX 95 31 93 32 96 33 97 34 94 35 12 37 13 38 14 39 15 40 16 41
REMARK SMILES IDX 80 42 17 43 79 44 18 45 19 46 20 47 73 48 21 49 78 50 72 51
REMARK SMILES IDX 74 52 22 53 77 54 71 55 70 56 23 58 57 59 36 60 56 61 37 62
REMARK SMILES IDX 40 63 55 64 75 65 38 66 39 67 54 69 76 70 41 71 24 72 25 73
REMARK SMILES IDX 34 74 26 75 27 76 33 77 35 78 28 79 29 80 30 81 31 82 32 83
REMARK SMILES IDX 58 84 59 85 68 86 60 87 61 88 67 89 69 90 62 91 63 92 64 93
REMARK SMILES IDX 65 94 66 95 42 96 43 97 52 98 44 99 45 100 51 101 53 102
REMARK SMILES IDX 46 103 47 104 48 105 49 106 50 107
REMARK H PARENT 94 36 74 57 40 68
REMARK Flexibility Score: inf
ROOT
ATOM      1  C   UNL A   1      43.359  25.965  25.008  1.00  0.00     0.275 C 
ENDROOT
BRANCH   1   2
ATOM      2  C   UNL A   1      44.776  26.229  25.367  1.00  0.00     0.274 C 
BRANCH   2   3
ATOM      3  O   UNL A   1      45.066  25.783  26.634  1.00  0.00    -0.462 OA
BRANCH   3   4
ATOM      4  C   UNL A   1      46.130  26.527  26.987  1.00  0.00     0.312 C 
ATOM      5  O   UNL A   1      46.194  27.719  26.709  1.00  0.00    -0.252 OA
BRANCH   4   6
ATOM      6  C   UNL A   1      47.106  25.788  27.925  1.00  0.00     0.075 C 
ATOM      7  C   UNL A   1      50.772  25.326  25.996  1.00  0.00     0.011 C 
ATOM      8  C   UNL A   1      49.630  26.332  26.228  1.00  0.00    -0.035 C 
ATOM      9  C   UNL A   1      49.985  27.614  25.423  1.00  0.00     0.011 C 
ATOM     10  C   UNL A   1      48.363  25.638  25.700  1.00  0.00     0.007 C 
ATOM     11  C   UNL A   1      49.547  26.788  27.703  1.00  0.00     0.015 C 
ATOM     12  C   UNL A   1      47.617  24.813  26.811  1.00  0.00     0.020 C 
ATOM     13  C   UNL A   1      48.399  26.328  28.639  1.00  0.00     0.033 C 
ATOM     14  C   UNL A   1      48.283  27.302  29.872  1.00  0.00    -0.063 C 
ATOM     15  C   UNL A   1      46.218  25.316  29.117  1.00  0.00     0.020 C 
ATOM     16  C   UNL A   1      47.040  27.399  30.779  1.00  0.00    -0.006 C 
ATOM     17  C   UNL A   1      49.352  28.060  30.204  1.00  0.00    -0.027 C 
ATOM     18  C   UNL A   1      45.862  26.461  30.198  1.00  0.00     0.013 C 
ATOM     19  C   UNL A   1      47.401  26.578  32.086  1.00  0.00     0.017 C 
ATOM     20  C   UNL A   1      46.795  29.177  31.129  1.00  0.00    -0.020 C 
ATOM     21  C   UNL A   1      49.267  29.569  30.244  1.00  0.00     0.032 C 
ATOM     22  C   UNL A   1      47.870  30.199  30.396  1.00  0.00     0.006 C 
ATOM     23  C   UNL A   1      45.379  29.892  31.089  1.00  0.00     0.008 C 
ATOM     24  C   UNL A   1      47.155  29.289  32.677  1.00  0.00     0.012 C 
ATOM     25  C   UNL A   1      47.518  31.446  29.301  1.00  0.00    -0.025 C 
ATOM     26  C   UNL A   1      45.249  31.391  30.495  1.00  0.00     0.005 C 
ATOM     27  C   UNL A   1      48.139  32.731  29.912  1.00  0.00     0.012 C 
ATOM     28  C   UNL A   1      48.226  31.363  27.888  1.00  0.00     0.010 C 
ATOM     29  C   UNL A   1      45.987  31.683  29.152  1.00  0.00     0.003 C 
ATOM     30  C   UNL A   1      47.650  32.232  26.755  1.00  0.00     0.033 C 
ATOM     31  C   UNL A   1      45.436  32.698  28.012  1.00  0.00    -0.006 C 
ATOM     32  C   UNL A   1      46.128  32.279  26.661  1.00  0.00     0.120 C 
ATOM     33  C   UNL A   1      45.660  34.206  28.222  1.00  0.00     0.014 C 
ATOM     34  C   UNL A   1      43.901  32.564  27.765  1.00  0.00     0.014 C 
BRANCH  32  35
ATOM     35  O   UNL A   1      45.720  33.140  25.594  1.00  0.00    -0.393 OA
ATOM     36  H   UNL A   1      46.431  33.201  24.937  1.00  0.00     0.210 HD
ENDBRANCH  32  35
ENDBRANCH   4   6
ENDBRANCH   3   4
ENDBRANCH   2   3
ENDBRANCH   1   2
BRANCH   1  37
ATOM     37  O   UNL A   1      42.482  25.773  26.071  1.00  0.00    -0.458 OA
BRANCH  37  38
ATOM     38  C   UNL A   1      41.770  26.931  26.211  1.00  0.00     0.338 C 
ATOM     39  O   UNL A   1      41.470  27.737  25.380  1.00  0.00    -0.246 OA
BRANCH  38  40
ATOM     40  C   UNL A   1      41.864  27.211  27.632  1.00  0.00     0.060 A 
ATOM     41  C   UNL A   1      41.065  26.469  28.495  1.00  0.00     0.016 A 
ATOM     42  C   UNL A   1      42.810  28.156  28.057  1.00  0.00     0.016 A 
ATOM     43  C   UNL A   1      41.102  26.787  29.819  1.00  0.00     0.010 A 
ATOM     44  C   UNL A   1      42.867  28.463  29.398  1.00  0.00     0.010 A 
ATOM     45  C   UNL A   1      41.922  27.853  30.226  1.00  0.00    -0.014 A 
BRANCH  45  46
ATOM     46  C   UNL A   1      41.404  28.566  31.386  1.00  0.00     0.031 A 
ATOM     47  C   UNL A   1      42.268  28.525  32.613  1.00  0.00     0.074 A 
ATOM     48  C   UNL A   1      40.400  29.420  31.172  1.00  0.00     0.049 A 
ATOM     49  N   UNL A   1      42.259  29.313  33.648  1.00  0.00    -0.248 NA
ATOM     50  C   UNL A   1      43.330  27.496  32.660  1.00  0.00     0.031 C 
ATOM     51  C   UNL A   1      39.638  29.532  29.924  1.00  0.00     0.029 A 
ATOM     52  N   UNL A   1      39.909  30.405  31.967  1.00  0.00    -0.354 N 
ATOM     53  C   UNL A   1      43.322  28.895  34.441  1.00  0.00     0.074 A 
ATOM     54  C   UNL A   1      43.939  27.766  33.800  1.00  0.00     0.031 C 
ATOM     55  C   UNL A   1      38.783  30.561  30.034  1.00  0.00     0.029 A 
ATOM     56  C   UNL A   1      38.936  31.151  31.358  1.00  0.00     0.049 A 
ATOM     57  H   UNL A   1      40.221  30.566  32.887  1.00  0.00     0.167 HD
ATOM     58  C   UNL A   1      43.743  29.432  35.604  1.00  0.00     0.037 A 
ATOM     59  C   UNL A   1      38.260  32.202  31.848  1.00  0.00     0.037 A 
ATOM     60  C   UNL A   1      43.058  30.533  36.216  1.00  0.00     0.049 A 
ATOM     61  C   UNL A   1      38.675  32.702  33.205  1.00  0.00     0.074 A 
ATOM     62  C   UNL A   1      43.294  31.134  37.435  1.00  0.00     0.029 A 
ATOM     63  N   UNL A   1      41.975  31.190  35.638  1.00  0.00    -0.354 N 
ATOM     64  N   UNL A   1      39.659  32.283  33.973  1.00  0.00    -0.248 NA
ATOM     65  C   UNL A   1      37.907  33.817  33.755  1.00  0.00     0.031 C 
ATOM     66  C   UNL A   1      42.312  32.112  37.622  1.00  0.00     0.029 A 
ATOM     67  C   UNL A   1      41.509  32.170  36.489  1.00  0.00     0.049 A 
ATOM     68  H   UNL A   1      41.598  30.984  34.753  1.00  0.00     0.167 HD
ATOM     69  C   UNL A   1      39.635  33.096  35.098  1.00  0.00     0.074 A 
ATOM     70  C   UNL A   1      38.560  34.050  34.884  1.00  0.00     0.031 C 
ATOM     71  C   UNL A   1      40.414  33.069  36.212  1.00  0.00     0.037 A 
BRANCH  58  72
ATOM     72  C   UNL A   1      44.908  28.778  36.289  1.00  0.00     0.058 A 
ATOM     73  C   UNL A   1      44.771  27.605  37.050  1.00  0.00     0.135 A 
ATOM     74  C   UNL A   1      46.184  29.359  36.212  1.00  0.00     0.135 A 
ATOM     75  F   UNL A   1      43.565  27.034  37.202  1.00  0.00    -0.206 F 
ATOM     76  C   UNL A   1      45.855  27.033  37.712  1.00  0.00     0.059 A 
ATOM     77  C   UNL A   1      47.287  28.792  36.845  1.00  0.00     0.059 A 
ATOM     78  F   UNL A   1      46.365  30.500  35.530  1.00  0.00    -0.206 F 
ATOM     79  C   UNL A   1      47.111  27.632  37.597  1.00  0.00     0.060 A 
BRANCH  79  80
ATOM     80  S   UNL A   1      48.517  26.865  38.433  1.00  0.00     0.124 S 
ATOM     81  O   UNL A   1      49.184  28.026  39.015  1.00  0.00    -0.237 OA
ATOM     82  O   UNL A   1      47.863  25.968  39.380  1.00  0.00    -0.237 OA
ATOM     83  O   UNL A   1      49.239  26.207  37.349  1.00  0.00    -0.744 OA
ENDBRANCH  79  80
ENDBRANCH  58  72
BRANCH  59  84
ATOM     84  C   UNL A   1      37.144  32.795  31.071  1.00  0.00     0.058 A 
ATOM     85  C   UNL A   1      37.365  33.696  30.021  1.00  0.00     0.135 A 
ATOM     86  C   UNL A   1      35.813  32.451  31.366  1.00  0.00     0.135 A 
ATOM     87  F   UNL A   1      38.617  34.049  29.691  1.00  0.00    -0.206 F 
ATOM     88  C   UNL A   1      36.308  34.260  29.313  1.00  0.00     0.059 A 
ATOM     89  C   UNL A   1      34.743  32.976  30.652  1.00  0.00     0.059 A 
ATOM     90  F   UNL A   1      35.544  31.574  32.346  1.00  0.00    -0.206 F 
ATOM     91  C   UNL A   1      35.000  33.894  29.638  1.00  0.00     0.060 A 
BRANCH  91  92
ATOM     92  S   UNL A   1      33.635  34.621  28.707  1.00  0.00     0.124 S 
ATOM     93  O   UNL A   1      32.680  34.914  29.768  1.00  0.00    -0.237 OA
ATOM     94  O   UNL A   1      34.272  35.774  28.081  1.00  0.00    -0.237 OA
ATOM     95  O   UNL A   1      33.249  33.552  27.788  1.00  0.00    -0.744 OA
ENDBRANCH  91  92
ENDBRANCH  59  84
BRANCH  71  96
ATOM     96  C   UNL A   1      40.116  34.110  37.250  1.00  0.00     0.058 A 
ATOM     97  C   UNL A   1      39.274  33.839  38.338  1.00  0.00     0.135 A 
ATOM     98  C   UNL A   1      40.689  35.386  37.153  1.00  0.00     0.135 A 
ATOM     99  F   UNL A   1      38.705  32.629  38.471  1.00  0.00    -0.206 F 
ATOM    100  C   UNL A   1      38.958  34.823  39.264  1.00  0.00     0.059 A 
ATOM    101  C   UNL A   1      40.420  36.372  38.091  1.00  0.00     0.059 A 
ATOM    102  F   UNL A   1      41.521  35.682  36.141  1.00  0.00    -0.206 F 
ATOM    103  C   UNL A   1      39.531  36.089  39.126  1.00  0.00     0.060 A 
BRANCH 103 104
ATOM    104  S   UNL A   1      39.091  37.366  40.318  1.00  0.00     0.124 S 
ATOM    105  O   UNL A   1      38.401  36.584  41.339  1.00  0.00    -0.237 OA
ATOM    106  O   UNL A   1      40.394  37.900  40.699  1.00  0.00    -0.237 OA
ATOM    107  O   UNL A   1      38.248  38.274  39.546  1.00  0.00    -0.744 OA
ENDBRANCH 103 104
ENDBRANCH  71  96
ENDBRANCH  45  46
ENDBRANCH  38  40
ENDBRANCH  37  38
ENDBRANCH   1  37
TORSDOF 15
ENDMDL
MODEL 3
REMARK VINA RESULT:     -11.5      7.499     14.539
REMARK SMILES CC1(C)CC[C@@]2(C(=O)OCCOC(=O)c3ccc(-c4c5nc(c(-c6c(F)cc(S(=O)(=O)[O-])cc6F)c6ccc([nH]6)c(-c6c(F)cc(S(=O)(=O)[O-])cc6F)c6nc(c(-c7c(F)cc(S(=O)(=O)[O-])cc7F)c7ccc4[nH]7)C=C6)C=C5)cc3)CC[C@@]3(C)C(=CC[C@H]4[C@@]5(C)CC[C@H](O)C(C)(C)[C@@H]5CC[C@]43C)[C@@H]2C1
REMARK SMILES IDX 11 1 10 2 9 3 7 4 8 5 6 6 1 7 2 8 3 9 4 10 104 11 5 12
REMARK SMILES IDX 103 13 85 14 81 15 83 16 86 17 82 18 84 19 101 20 87 21
REMARK SMILES IDX 88 22 100 23 102 24 89 25 99 26 90 27 91 28 98 29 92 30
REMARK SMILES IDX 95 31 93 32 96 33 97 34 94 35 12 37 13 38 14 39 15 40 16 41
REMARK SMILES IDX 80 42 17 43 79 44 18 45 19 46 20 47 73 48 21 49 78 50 72 51
REMARK SMILES IDX 74 52 22 53 77 54 71 55 70 56 23 58 57 59 36 60 56 61 37 62
REMARK SMILES IDX 40 63 55 64 75 65 38 66 39 67 54 69 76 70 41 71 24 72 25 73
REMARK SMILES IDX 34 74 26 75 27 76 33 77 35 78 28 79 29 80 30 81 31 82 32 83
REMARK SMILES IDX 58 84 59 85 68 86 60 87 61 88 67 89 69 90 62 91 63 92 64 93
REMARK SMILES IDX 65 94 66 95 42 96 43 97 52 98 44 99 45 100 51 101 53 102
REMARK SMILES IDX 46 103 47 104 48 105 49 106 50 107
REMARK H PARENT 94 36 74 57 40 68
REMARK Flexibility Score: inf
ROOT
ATOM      1  C   UNL A   1      48.012  27.123  39.301  1.00  0.00     0.275 C 
ENDROOT
BRANCH   1   2
ATOM      2  C   UNL A   1      48.144  25.963  38.384  1.00  0.00     0.274 C 
BRANCH   2   3
ATOM      3  O   UNL A   1      46.970  25.254  38.297  1.00  0.00    -0.462 OA
BRANCH   3   4
ATOM      4  C   UNL A   1      47.076  24.625  37.113  1.00  0.00     0.312 C 
ATOM      5  O   UNL A   1      47.839  25.030  36.243  1.00  0.00    -0.252 OA
BRANCH   4   6
ATOM      6  C   UNL A   1      46.324  23.279  37.067  1.00  0.00     0.075 C 
ATOM      7  C   UNL A   1      43.602  23.339  33.912  1.00  0.00     0.011 C 
ATOM      8  C   UNL A   1      45.037  23.744  34.297  1.00  0.00    -0.035 C 
ATOM      9  C   UNL A   1      45.659  24.445  33.057  1.00  0.00     0.011 C 
ATOM     10  C   UNL A   1      44.882  24.695  35.496  1.00  0.00     0.007 C 
ATOM     11  C   UNL A   1      45.936  22.514  34.563  1.00  0.00     0.015 C 
ATOM     12  C   UNL A   1      44.918  23.943  36.875  1.00  0.00     0.020 C 
ATOM     13  C   UNL A   1      46.401  22.134  35.993  1.00  0.00     0.033 C 
ATOM     14  C   UNL A   1      47.661  21.191  35.919  1.00  0.00    -0.063 C 
ATOM     15  C   UNL A   1      46.742  22.555  38.384  1.00  0.00     0.020 C 
ATOM     16  C   UNL A   1      48.619  20.939  37.101  1.00  0.00    -0.006 C 
ATOM     17  C   UNL A   1      47.896  20.508  34.776  1.00  0.00    -0.027 C 
ATOM     18  C   UNL A   1      48.205  21.872  38.351  1.00  0.00     0.013 C 
ATOM     19  C   UNL A   1      48.206  19.525  37.689  1.00  0.00     0.017 C 
ATOM     20  C   UNL A   1      50.308  20.928  36.402  1.00  0.00    -0.020 C 
ATOM     21  C   UNL A   1      49.188  20.674  34.009  1.00  0.00     0.032 C 
ATOM     22  C   UNL A   1      50.406  21.221  34.776  1.00  0.00     0.006 C 
ATOM     23  C   UNL A   1      51.542  21.663  37.077  1.00  0.00     0.008 C 
ATOM     24  C   UNL A   1      50.742  19.401  36.543  1.00  0.00     0.012 C 
ATOM     25  C   UNL A   1      51.233  22.487  34.010  1.00  0.00    -0.025 C 
ATOM     26  C   UNL A   1      52.638  22.413  36.154  1.00  0.00     0.005 C 
ATOM     27  C   UNL A   1      52.201  21.810  33.003  1.00  0.00     0.012 C 
ATOM     28  C   UNL A   1      50.370  23.428  33.074  1.00  0.00     0.010 C 
ATOM     29  C   UNL A   1      52.091  23.318  35.007  1.00  0.00     0.003 C 
ATOM     30  C   UNL A   1      50.978  24.785  32.679  1.00  0.00     0.033 C 
ATOM     31  C   UNL A   1      52.805  24.688  34.509  1.00  0.00    -0.006 C 
ATOM     32  C   UNL A   1      51.694  25.543  33.792  1.00  0.00     0.120 C 
ATOM     33  C   UNL A   1      54.010  24.566  33.557  1.00  0.00     0.014 C 
ATOM     34  C   UNL A   1      53.328  25.568  35.687  1.00  0.00     0.014 C 
BRANCH  32  35
ATOM     35  O   UNL A   1      52.239  26.768  33.294  1.00  0.00    -0.393 OA
ATOM     36  H   UNL A   1      51.538  27.436  33.240  1.00  0.00     0.210 HD
ENDBRANCH  32  35
ENDBRANCH   4   6
ENDBRANCH   3   4
ENDBRANCH   2   3
ENDBRANCH   1   2
BRANCH   1  37
ATOM     37  O   UNL A   1      47.419  28.263  38.767  1.00  0.00    -0.458 OA
BRANCH  37  38
ATOM     38  C   UNL A   1      46.090  28.200  39.076  1.00  0.00     0.338 C 
ATOM     39  O   UNL A   1      45.559  27.702  40.025  1.00  0.00    -0.246 OA
BRANCH  38  40
ATOM     40  C   UNL A   1      45.439  28.438  37.800  1.00  0.00     0.060 A 
ATOM     41  C   UNL A   1      46.082  29.265  36.887  1.00  0.00     0.016 A 
ATOM     42  C   UNL A   1      44.240  27.759  37.534  1.00  0.00     0.016 A 
ATOM     43  C   UNL A   1      45.433  29.546  35.723  1.00  0.00     0.010 A 
ATOM     44  C   UNL A   1      43.593  28.021  36.348  1.00  0.00     0.010 A 
ATOM     45  C   UNL A   1      44.152  29.004  35.528  1.00  0.00    -0.014 A 
BRANCH  45  46
ATOM     46  C   UNL A   1      43.287  29.849  34.715  1.00  0.00     0.031 A 
ATOM     47  C   UNL A   1      42.940  29.311  33.357  1.00  0.00     0.074 A 
ATOM     48  C   UNL A   1      42.650  30.842  35.342  1.00  0.00     0.049 A 
ATOM     49  N   UNL A   1      41.958  29.642  32.572  1.00  0.00    -0.248 NA
ATOM     50  C   UNL A   1      43.773  28.207  32.833  1.00  0.00     0.031 C 
ATOM     51  C   UNL A   1      42.918  31.283  36.715  1.00  0.00     0.029 A 
ATOM     52  N   UNL A   1      41.598  31.597  34.935  1.00  0.00    -0.354 N 
ATOM     53  C   UNL A   1      42.040  28.772  31.490  1.00  0.00     0.074 A 
ATOM     54  C   UNL A   1      43.182  27.921  31.689  1.00  0.00     0.031 C 
ATOM     55  C   UNL A   1      42.022  32.225  37.046  1.00  0.00     0.029 A 
ATOM     56  C   UNL A   1      41.146  32.453  35.904  1.00  0.00     0.049 A 
ATOM     57  H   UNL A   1      41.201  31.535  34.037  1.00  0.00     0.167 HD
ATOM     58  C   UNL A   1      41.212  28.697  30.428  1.00  0.00     0.037 A 
ATOM     59  C   UNL A   1      40.121  33.318  35.841  1.00  0.00     0.037 A 
ATOM     60  C   UNL A   1      40.114  29.605  30.265  1.00  0.00     0.049 A 
ATOM     61  C   UNL A   1      39.288  33.292  34.589  1.00  0.00     0.074 A 
ATOM     62  C   UNL A   1      39.239  29.727  29.206  1.00  0.00     0.029 A 
ATOM     63  N   UNL A   1      39.757  30.567  31.205  1.00  0.00    -0.354 N 
ATOM     64  N   UNL A   1      39.388  32.494  33.548  1.00  0.00    -0.248 NA
ATOM     65  C   UNL A   1      38.202  34.267  34.505  1.00  0.00     0.031 C 
ATOM     66  C   UNL A   1      38.393  30.807  29.480  1.00  0.00     0.029 A 
ATOM     67  C   UNL A   1      38.694  31.312  30.739  1.00  0.00     0.049 A 
ATOM     68  H   UNL A   1      40.200  30.697  32.075  1.00  0.00     0.167 HD
ATOM     69  C   UNL A   1      38.364  32.862  32.686  1.00  0.00     0.074 A 
ATOM     70  C   UNL A   1      37.641  33.932  33.352  1.00  0.00     0.031 C 
ATOM     71  C   UNL A   1      38.041  32.380  31.457  1.00  0.00     0.037 A 
BRANCH  58  72
ATOM     72  C   UNL A   1      41.531  27.682  29.369  1.00  0.00     0.058 A 
ATOM     73  C   UNL A   1      42.642  27.808  28.517  1.00  0.00     0.135 A 
ATOM     74  C   UNL A   1      40.686  26.578  29.178  1.00  0.00     0.135 A 
ATOM     75  F   UNL A   1      43.456  28.871  28.620  1.00  0.00    -0.206 F 
ATOM     76  C   UNL A   1      42.901  26.877  27.514  1.00  0.00     0.059 A 
ATOM     77  C   UNL A   1      40.940  25.622  28.199  1.00  0.00     0.059 A 
ATOM     78  F   UNL A   1      39.591  26.427  29.939  1.00  0.00    -0.206 F 
ATOM     79  C   UNL A   1      42.046  25.783  27.367  1.00  0.00     0.060 A 
BRANCH  79  80
ATOM     80  S   UNL A   1      42.410  24.565  26.084  1.00  0.00     0.124 S 
ATOM     81  O   UNL A   1      43.706  24.055  26.520  1.00  0.00    -0.237 OA
ATOM     82  O   UNL A   1      41.289  23.639  26.208  1.00  0.00    -0.237 OA
ATOM     83  O   UNL A   1      42.430  25.358  24.859  1.00  0.00    -0.744 OA
ENDBRANCH  79  80
ENDBRANCH  58  72
BRANCH  59  84
ATOM     84  C   UNL A   1      39.874  34.258  36.962  1.00  0.00     0.058 A 
ATOM     85  C   UNL A   1      39.101  33.901  38.075  1.00  0.00     0.135 A 
ATOM     86  C   UNL A   1      40.429  35.549  36.941  1.00  0.00     0.135 A 
ATOM     87  F   UNL A   1      38.557  32.677  38.150  1.00  0.00    -0.206 F 
ATOM     88  C   UNL A   1      38.861  34.800  39.111  1.00  0.00     0.059 A 
ATOM     89  C   UNL A   1      40.230  36.452  37.977  1.00  0.00     0.059 A 
ATOM     90  F   UNL A   1      41.199  35.936  35.911  1.00  0.00    -0.206 F 
ATOM     91  C   UNL A   1      39.429  36.074  39.051  1.00  0.00     0.060 A 
BRANCH  91  92
ATOM     92  S   UNL A   1      39.122  37.229  40.404  1.00  0.00     0.124 S 
ATOM     93  O   UNL A   1      38.250  38.205  39.763  1.00  0.00    -0.237 OA
ATOM     94  O   UNL A   1      38.498  36.370  41.403  1.00  0.00    -0.237 OA
ATOM     95  O   UNL A   1      40.460  37.708  40.746  1.00  0.00    -0.744 OA
ENDBRANCH  91  92
ENDBRANCH  59  84
BRANCH  71  96
ATOM     96  C   UNL A   1      36.855  33.013  30.792  1.00  0.00     0.058 A 
ATOM     97  C   UNL A   1      37.005  33.910  29.724  1.00  0.00     0.135 A 
ATOM     98  C   UNL A   1      35.557  32.708  31.227  1.00  0.00     0.135 A 
ATOM     99  F   UNL A   1      38.230  34.229  29.274  1.00  0.00    -0.206 F 
ATOM    100  C   UNL A   1      35.907  34.535  29.151  1.00  0.00     0.059 A 
ATOM    101  C   UNL A   1      34.442  33.288  30.640  1.00  0.00     0.059 A 
ATOM    102  F   UNL A   1      35.365  31.835  32.230  1.00  0.00    -0.206 F 
ATOM    103  C   UNL A   1      34.630  34.222  29.622  1.00  0.00     0.060 A 
BRANCH 103 104
ATOM    104  S   UNL A   1      33.215  35.060  28.888  1.00  0.00     0.124 S 
ATOM    105  O   UNL A   1      32.795  34.092  27.880  1.00  0.00    -0.237 OA
ATOM    106  O   UNL A   1      32.319  35.218  30.029  1.00  0.00    -0.237 OA
ATOM    107  O   UNL A   1      33.786  36.300  28.370  1.00  0.00    -0.744 OA
ENDBRANCH 103 104
ENDBRANCH  71  96
ENDBRANCH  45  46
ENDBRANCH  38  40
ENDBRANCH  37  38
ENDBRANCH   1  37
TORSDOF 15
ENDMDL
