MODEL 1
REMARK VINA RESULT:     -12.4      0.000      0.000
REMARK SMILES Cc1ccc(NC(=O)C[NH+]2CCN(c3ccc(C(=O)OCCOC(=O)c4ccc(-c5c6nc(c(-c7c(F)cc(S(=O)(=O)[O-])cc7F)c7ccc([nH]7)c(-c7c(F)cc(S(=O)(=O)[O-])cc7F)c7nc(c(-c8c(F)cc(S(=O)(=O)[O-])cc8F)c8ccc5[nH]8)C=C7)C=C6)cc4)cc3NS(C)(=O)=O)CC2)cc1
REMARK SMILES IDX 21 1 20 2 18 3 19 4 17 5 14 6 15 7 93 8 16 9 92 10 13 11
REMARK SMILES IDX 10 12 11 13 100 14 12 16 99 17 9 18 7 19 6 20 8 22 5 23 1 24
REMARK SMILES IDX 2 25 3 26 102 27 4 28 101 29 94 30 95 32 96 33 97 34 98 35
REMARK SMILES IDX 22 36 23 37 24 38 25 39 26 40 27 41 91 42 28 43 90 44 29 45
REMARK SMILES IDX 30 46 31 47 84 48 32 49 89 50 83 51 85 52 33 53 88 54 82 55
REMARK SMILES IDX 81 56 34 58 68 59 47 60 67 61 48 62 51 63 66 64 86 65 49 66
REMARK SMILES IDX 50 67 65 69 87 70 52 71 35 72 36 73 45 74 37 75 38 76 44 77
REMARK SMILES IDX 46 78 39 79 40 80 41 81 42 82 43 83 69 84 70 85 79 86 71 87
REMARK SMILES IDX 72 88 78 89 80 90 73 91 74 92 75 93 76 94 77 95 53 96 54 97
REMARK SMILES IDX 63 98 55 99 56 100 62 101 64 102 57 103 58 104 59 105 60 106
REMARK SMILES IDX 61 107
REMARK H PARENT 10 15 6 21 94 31 85 57 51 68
REMARK Flexibility Score: inf
ROOT
ATOM      1  C   UNL A   1      40.425  21.456  26.898  1.00  0.00     0.275 C 
ENDROOT
BRANCH   1   2
ATOM      2  O   UNL A   1      39.596  21.480  25.718  1.00  0.00    -0.458 OA
BRANCH   2   3
ATOM      3  C   UNL A   1      38.961  20.346  25.353  1.00  0.00     0.338 C 
ATOM      4  O   UNL A   1      39.395  19.212  25.452  1.00  0.00    -0.246 OA
BRANCH   3   5
ATOM      5  C   UNL A   1      37.586  20.692  24.906  1.00  0.00     0.062 A 
ATOM      6  C   UNL A   1      35.051  21.749  24.586  1.00  0.00     0.062 A 
ATOM      7  C   UNL A   1      36.161  22.451  24.094  1.00  0.00     0.029 A 
ATOM      8  C   UNL A   1      35.178  20.374  24.967  1.00  0.00     0.073 A 
ATOM      9  C   UNL A   1      37.433  21.914  24.243  1.00  0.00     0.018 A 
ATOM     10  C   UNL A   1      36.460  19.907  25.246  1.00  0.00     0.044 A 
BRANCH   6  11
ATOM     11  N   UNL A   1      33.995  22.515  25.099  1.00  0.00    -0.359 N 
ATOM     12  N   UNL A   1      31.332  23.408  26.000  1.00  0.00    -0.324 N 
ATOM     13  C   UNL A   1      31.480  22.505  24.844  1.00  0.00     0.284 C 
ATOM     14  C   UNL A   1      32.395  23.009  26.970  1.00  0.00     0.284 C 
ATOM     15  H   UNL A   1      30.404  23.318  26.413  1.00  0.00     0.348 HD
ATOM     16  C   UNL A   1      32.855  22.568  24.179  1.00  0.00     0.178 C 
ATOM     17  C   UNL A   1      33.870  22.995  26.469  1.00  0.00     0.178 C 
BRANCH  12  18
ATOM     18  C   UNL A   1      31.430  24.846  25.619  1.00  0.00     0.364 C 
BRANCH  18  19
ATOM     19  C   UNL A   1      30.348  25.726  26.301  1.00  0.00     0.279 C 
ATOM     20  N   UNL A   1      30.491  27.058  26.607  1.00  0.00    -0.321 N 
ATOM     21  H   UNL A   1      29.689  27.459  27.013  1.00  0.00     0.170 HD
ATOM     22  O   UNL A   1      29.233  25.243  26.552  1.00  0.00    -0.268 OA
BRANCH  20  23
ATOM     23  C   UNL A   1      31.552  27.958  26.456  1.00  0.00     0.041 A 
ATOM     24  C   UNL A   1      33.845  31.459  27.232  1.00  0.00     0.044 C 
ATOM     25  C   UNL A   1      33.283  30.133  26.799  1.00  0.00    -0.051 A 
ATOM     26  C   UNL A   1      32.423  30.042  25.708  1.00  0.00     0.005 A 
ATOM     27  C   UNL A   1      33.457  28.990  27.566  1.00  0.00     0.005 A 
ATOM     28  C   UNL A   1      31.572  28.956  25.508  1.00  0.00     0.026 A 
ATOM     29  C   UNL A   1      32.605  27.892  27.380  1.00  0.00     0.026 A 
ENDBRANCH  20  23
ENDBRANCH  18  19
ENDBRANCH  12  18
ENDBRANCH   6  11
BRANCH   8  30
ATOM     30  N   UNL A   1      33.949  19.690  25.364  1.00  0.00    -0.282 N 
ATOM     31  H   UNL A   1      33.616  19.853  26.276  1.00  0.00     0.180 HD
BRANCH  30  32
ATOM     32  S   UNL A   1      33.052  18.642  24.385  1.00  0.00     0.229 S 
ATOM     33  C   UNL A   1      34.211  17.393  23.830  1.00  0.00     0.183 C 
ATOM     34  O   UNL A   1      32.162  17.957  25.310  1.00  0.00    -0.207 OA
ATOM     35  O   UNL A   1      32.538  19.302  23.224  1.00  0.00    -0.207 OA
ENDBRANCH  30  32
ENDBRANCH   8  30
ENDBRANCH   3   5
ENDBRANCH   2   3
ENDBRANCH   1   2
BRANCH   1  36
ATOM     36  C   UNL A   1      41.196  22.759  27.250  1.00  0.00     0.275 C 
BRANCH  36  37
ATOM     37  O   UNL A   1      40.523  23.718  28.077  1.00  0.00    -0.458 OA
BRANCH  37  38
ATOM     38  C   UNL A   1      39.585  24.474  27.460  1.00  0.00     0.338 C 
ATOM     39  O   UNL A   1      38.576  24.071  26.910  1.00  0.00    -0.246 OA
BRANCH  38  40
ATOM     40  C   UNL A   1      39.743  25.845  27.993  1.00  0.00     0.060 A 
ATOM     41  C   UNL A   1      40.190  26.881  27.170  1.00  0.00     0.016 A 
ATOM     42  C   UNL A   1      39.090  26.125  29.190  1.00  0.00     0.016 A 
ATOM     43  C   UNL A   1      40.021  28.195  27.553  1.00  0.00     0.010 A 
ATOM     44  C   UNL A   1      38.629  27.379  29.411  1.00  0.00     0.010 A 
ATOM     45  C   UNL A   1      39.264  28.392  28.700  1.00  0.00    -0.014 A 
BRANCH  45  46
ATOM     46  C   UNL A   1      39.469  29.518  29.581  1.00  0.00     0.031 A 
ATOM     47  C   UNL A   1      38.595  30.649  29.274  1.00  0.00     0.074 A 
ATOM     48  C   UNL A   1      40.331  29.161  30.571  1.00  0.00     0.049 A 
ATOM     49  N   UNL A   1      38.946  31.853  28.969  1.00  0.00    -0.248 NA
ATOM     50  C   UNL A   1      37.158  30.413  29.016  1.00  0.00     0.031 C 
ATOM     51  C   UNL A   1      40.761  29.746  31.818  1.00  0.00     0.029 A 
ATOM     52  N   UNL A   1      41.160  28.023  30.484  1.00  0.00    -0.354 N 
ATOM     53  C   UNL A   1      37.778  32.567  29.158  1.00  0.00     0.074 A 
ATOM     54  C   UNL A   1      36.741  31.653  28.757  1.00  0.00     0.031 C 
ATOM     55  C   UNL A   1      41.979  29.240  32.126  1.00  0.00     0.029 A 
ATOM     56  C   UNL A   1      42.371  28.275  31.100  1.00  0.00     0.049 A 
ATOM     57  H   UNL A   1      40.913  27.174  30.048  1.00  0.00     0.167 HD
ATOM     58  C   UNL A   1      37.738  33.488  30.176  1.00  0.00     0.037 A 
ATOM     59  C   UNL A   1      43.430  28.343  30.243  1.00  0.00     0.037 A 
ATOM     60  C   UNL A   1      39.033  33.473  30.892  1.00  0.00     0.049 A 
ATOM     61  C   UNL A   1      43.665  29.812  29.925  1.00  0.00     0.074 A 
ATOM     62  C   UNL A   1      39.408  33.013  32.145  1.00  0.00     0.029 A 
ATOM     63  N   UNL A   1      40.224  33.608  30.174  1.00  0.00    -0.354 N 
ATOM     64  N   UNL A   1      42.735  30.741  29.948  1.00  0.00    -0.248 NA
ATOM     65  C   UNL A   1      45.005  30.377  29.826  1.00  0.00     0.031 C 
ATOM     66  C   UNL A   1      40.821  32.820  32.142  1.00  0.00     0.029 A 
ATOM     67  C   UNL A   1      41.300  33.076  30.867  1.00  0.00     0.049 A 
ATOM     68  H   UNL A   1      40.291  34.030  29.286  1.00  0.00     0.167 HD
ATOM     69  C   UNL A   1      43.320  31.982  30.041  1.00  0.00     0.074 A 
ATOM     70  C   UNL A   1      44.744  31.694  29.925  1.00  0.00     0.031 C 
ATOM     71  C   UNL A   1      42.645  33.153  30.298  1.00  0.00     0.037 A 
BRANCH  58  72
ATOM     72  C   UNL A   1      36.453  34.089  30.749  1.00  0.00     0.058 A 
ATOM     73  C   UNL A   1      35.475  34.658  29.904  1.00  0.00     0.135 A 
ATOM     74  C   UNL A   1      36.095  34.098  32.119  1.00  0.00     0.135 A 
ATOM     75  F   UNL A   1      35.618  34.653  28.571  1.00  0.00    -0.206 F 
ATOM     76  C   UNL A   1      34.282  35.225  30.375  1.00  0.00     0.059 A 
ATOM     77  C   UNL A   1      34.935  34.702  32.619  1.00  0.00     0.059 A 
ATOM     78  F   UNL A   1      36.814  33.454  33.045  1.00  0.00    -0.206 F 
ATOM     79  C   UNL A   1      34.024  35.252  31.737  1.00  0.00     0.060 A 
BRANCH  79  80
ATOM     80  S   UNL A   1      32.454  35.914  32.329  1.00  0.00     0.124 S 
ATOM     81  O   UNL A   1      32.883  36.831  33.379  1.00  0.00    -0.237 OA
ATOM     82  O   UNL A   1      31.912  36.533  31.124  1.00  0.00    -0.237 OA
ATOM     83  O   UNL A   1      31.738  34.728  32.796  1.00  0.00    -0.744 OA
ENDBRANCH  79  80
ENDBRANCH  58  72
BRANCH  59  84
ATOM     84  C   UNL A   1      43.586  27.071  29.420  1.00  0.00     0.058 A 
ATOM     85  C   UNL A   1      43.692  27.248  28.012  1.00  0.00     0.135 A 
ATOM     86  C   UNL A   1      43.882  25.775  29.869  1.00  0.00     0.135 A 
ATOM     87  F   UNL A   1      43.375  28.436  27.468  1.00  0.00    -0.206 F 
ATOM     88  C   UNL A   1      44.182  26.274  27.135  1.00  0.00     0.059 A 
ATOM     89  C   UNL A   1      44.357  24.759  28.993  1.00  0.00     0.059 A 
ATOM     90  F   UNL A   1      43.784  25.481  31.173  1.00  0.00    -0.206 F 
ATOM     91  C   UNL A   1      44.540  25.031  27.634  1.00  0.00     0.060 A 
BRANCH  91  92
ATOM     92  S   UNL A   1      45.323  23.863  26.478  1.00  0.00     0.124 S 
ATOM     93  O   UNL A   1      44.633  22.615  26.794  1.00  0.00    -0.237 OA
ATOM     94  O   UNL A   1      44.983  24.446  25.183  1.00  0.00    -0.237 OA
ATOM     95  O   UNL A   1      46.732  23.899  26.845  1.00  0.00    -0.744 OA
ENDBRANCH  91  92
ENDBRANCH  59  84
BRANCH  71  96
ATOM     96  C   UNL A   1      43.202  34.556  30.121  1.00  0.00     0.058 A 
ATOM     97  C   UNL A   1      43.125  35.287  28.927  1.00  0.00     0.135 A 
ATOM     98  C   UNL A   1      43.667  35.290  31.249  1.00  0.00     0.135 A 
ATOM     99  F   UNL A   1      42.605  34.763  27.810  1.00  0.00    -0.206 F 
ATOM    100  C   UNL A   1      43.532  36.619  28.842  1.00  0.00     0.059 A 
ATOM    101  C   UNL A   1      43.980  36.640  31.207  1.00  0.00     0.059 A 
ATOM    102  F   UNL A   1      43.815  34.730  32.459  1.00  0.00    -0.206 F 
ATOM    103  C   UNL A   1      43.944  37.289  29.988  1.00  0.00     0.060 A 
BRANCH 103 104
ATOM    104  S   UNL A   1      44.398  39.024  29.892  1.00  0.00     0.124 S 
ATOM    105  O   UNL A   1      45.489  39.086  30.860  1.00  0.00    -0.237 OA
ATOM    106  O   UNL A   1      44.784  39.173  28.492  1.00  0.00    -0.237 OA
ATOM    107  O   UNL A   1      43.173  39.717  30.274  1.00  0.00    -0.744 OA
ENDBRANCH 103 104
ENDBRANCH  71  96
ENDBRANCH  45  46
ENDBRANCH  38  40
ENDBRANCH  37  38
ENDBRANCH  36  37
ENDBRANCH   1  36
TORSDOF 20
ENDMDL
MODEL 2
REMARK VINA RESULT:     -12.2      4.264     10.956
REMARK SMILES Cc1ccc(NC(=O)C[NH+]2CCN(c3ccc(C(=O)OCCOC(=O)c4ccc(-c5c6nc(c(-c7c(F)cc(S(=O)(=O)[O-])cc7F)c7ccc([nH]7)c(-c7c(F)cc(S(=O)(=O)[O-])cc7F)c7nc(c(-c8c(F)cc(S(=O)(=O)[O-])cc8F)c8ccc5[nH]8)C=C7)C=C6)cc4)cc3NS(C)(=O)=O)CC2)cc1
REMARK SMILES IDX 21 1 20 2 18 3 19 4 17 5 14 6 15 7 93 8 16 9 92 10 13 11
REMARK SMILES IDX 10 12 11 13 100 14 12 16 99 17 9 18 7 19 6 20 8 22 5 23 1 24
REMARK SMILES IDX 2 25 3 26 102 27 4 28 101 29 94 30 95 32 96 33 97 34 98 35
REMARK SMILES IDX 22 36 23 37 24 38 25 39 26 40 27 41 91 42 28 43 90 44 29 45
REMARK SMILES IDX 30 46 31 47 84 48 32 49 89 50 83 51 85 52 33 53 88 54 82 55
REMARK SMILES IDX 81 56 34 58 68 59 47 60 67 61 48 62 51 63 66 64 86 65 49 66
REMARK SMILES IDX 50 67 65 69 87 70 52 71 35 72 36 73 45 74 37 75 38 76 44 77
REMARK SMILES IDX 46 78 39 79 40 80 41 81 42 82 43 83 69 84 70 85 79 86 71 87
REMARK SMILES IDX 72 88 78 89 80 90 73 91 74 92 75 93 76 94 77 95 53 96 54 97
REMARK SMILES IDX 63 98 55 99 56 100 62 101 64 102 57 103 58 104 59 105 60 106
REMARK SMILES IDX 61 107
REMARK H PARENT 10 15 6 21 94 31 85 57 51 68
REMARK Flexibility Score: inf
ROOT
ATOM      1  C   UNL A   1      34.289  32.136  28.609  1.00  0.00     0.275 C 
ENDROOT
BRANCH   1   2
ATOM      2  O   UNL A   1      33.584  31.222  27.743  1.00  0.00    -0.458 OA
BRANCH   2   3
ATOM      3  C   UNL A   1      32.407  31.615  27.212  1.00  0.00     0.338 C 
ATOM      4  O   UNL A   1      31.952  32.745  27.224  1.00  0.00    -0.246 OA
BRANCH   3   5
ATOM      5  C   UNL A   1      31.793  30.461  26.504  1.00  0.00     0.062 A 
ATOM      6  C   UNL A   1      31.277  28.160  25.060  1.00  0.00     0.062 A 
ATOM      7  C   UNL A   1      31.632  28.063  26.414  1.00  0.00     0.029 A 
ATOM      8  C   UNL A   1      30.882  29.421  24.506  1.00  0.00     0.073 A 
ATOM      9  C   UNL A   1      31.878  29.219  27.143  1.00  0.00     0.018 A 
ATOM     10  C   UNL A   1      31.270  30.567  25.195  1.00  0.00     0.044 A 
BRANCH   6  11
ATOM     11  N   UNL A   1      31.739  27.145  24.212  1.00  0.00    -0.359 N 
ATOM     12  N   UNL A   1      31.868  24.909  22.293  1.00  0.00    -0.324 N 
ATOM     13  C   UNL A   1      30.770  25.009  23.271  1.00  0.00     0.284 C 
ATOM     14  C   UNL A   1      32.182  26.310  21.885  1.00  0.00     0.284 C 
ATOM     15  H   UNL A   1      31.586  24.346  21.491  1.00  0.00     0.348 HD
ATOM     16  C   UNL A   1      31.107  25.855  24.500  1.00  0.00     0.178 C 
ATOM     17  C   UNL A   1      32.537  27.333  23.006  1.00  0.00     0.178 C 
BRANCH  12  18
ATOM     18  C   UNL A   1      33.061  24.202  22.841  1.00  0.00     0.364 C 
BRANCH  18  19
ATOM     19  C   UNL A   1      32.817  22.684  23.057  1.00  0.00     0.279 C 
ATOM     20  N   UNL A   1      33.636  21.847  23.776  1.00  0.00    -0.321 N 
ATOM     21  H   UNL A   1      33.308  20.921  23.828  1.00  0.00     0.170 HD
ATOM     22  O   UNL A   1      31.784  22.160  22.613  1.00  0.00    -0.268 OA
BRANCH  20  23
ATOM     23  C   UNL A   1      34.847  22.052  24.448  1.00  0.00     0.041 A 
ATOM     24  C   UNL A   1      37.933  24.292  26.338  1.00  0.00     0.044 C 
ATOM     25  C   UNL A   1      36.987  23.258  25.792  1.00  0.00    -0.051 A 
ATOM     26  C   UNL A   1      37.105  22.800  24.484  1.00  0.00     0.005 A 
ATOM     27  C   UNL A   1      35.868  22.856  26.506  1.00  0.00     0.005 A 
ATOM     28  C   UNL A   1      36.059  22.176  23.806  1.00  0.00     0.026 A 
ATOM     29  C   UNL A   1      34.805  22.232  25.837  1.00  0.00     0.026 A 
ENDBRANCH  20  23
ENDBRANCH  18  19
ENDBRANCH  12  18
ENDBRANCH   6  11
BRANCH   8  30
ATOM     30  N   UNL A   1      30.424  29.409  23.120  1.00  0.00    -0.282 N 
ATOM     31  H   UNL A   1      31.078  29.153  22.430  1.00  0.00     0.180 HD
BRANCH  30  32
ATOM     32  S   UNL A   1      28.862  29.799  22.601  1.00  0.00     0.229 S 
ATOM     33  C   UNL A   1      27.844  28.390  23.038  1.00  0.00     0.183 C 
ATOM     34  O   UNL A   1      28.441  30.869  23.492  1.00  0.00    -0.207 OA
ATOM     35  O   UNL A   1      28.794  29.958  21.179  1.00  0.00    -0.207 OA
ENDBRANCH  30  32
ENDBRANCH   8  30
ENDBRANCH   3   5
ENDBRANCH   2   3
ENDBRANCH   1   2
BRANCH   1  36
ATOM     36  C   UNL A   1      35.810  31.889  28.812  1.00  0.00     0.275 C 
BRANCH  36  37
ATOM     37  O   UNL A   1      36.195  30.696  29.507  1.00  0.00    -0.458 OA
BRANCH  37  38
ATOM     38  C   UNL A   1      36.740  29.718  28.745  1.00  0.00     0.338 C 
ATOM     39  O   UNL A   1      36.301  29.291  27.693  1.00  0.00    -0.246 OA
BRANCH  38  40
ATOM     40  C   UNL A   1      38.161  29.625  29.146  1.00  0.00     0.060 A 
ATOM     41  C   UNL A   1      38.972  30.761  29.157  1.00  0.00     0.016 A 
ATOM     42  C   UNL A   1      38.534  28.482  29.849  1.00  0.00     0.016 A 
ATOM     43  C   UNL A   1      40.173  30.751  29.837  1.00  0.00     0.010 A 
ATOM     44  C   UNL A   1      39.520  28.571  30.773  1.00  0.00     0.010 A 
ATOM     45  C   UNL A   1      40.418  29.619  30.602  1.00  0.00    -0.014 A 
BRANCH  45  46
ATOM     46  C   UNL A   1      41.754  29.132  30.859  1.00  0.00     0.031 A 
ATOM     47  C   UNL A   1      42.194  28.131  29.889  1.00  0.00     0.074 A 
ATOM     48  C   UNL A   1      42.310  29.860  31.865  1.00  0.00     0.049 A 
ATOM     49  N   UNL A   1      42.575  26.922  30.127  1.00  0.00    -0.248 NA
ATOM     50  C   UNL A   1      41.966  28.363  28.445  1.00  0.00     0.031 C 
ATOM     51  C   UNL A   1      43.633  29.995  32.426  1.00  0.00     0.029 A 
ATOM     52  N   UNL A   1      41.542  30.660  32.739  1.00  0.00    -0.354 N 
ATOM     53  C   UNL A   1      43.220  26.571  28.955  1.00  0.00     0.074 A 
ATOM     54  C   UNL A   1      42.468  27.241  27.928  1.00  0.00     0.031 C 
ATOM     55  C   UNL A   1      43.510  30.435  33.700  1.00  0.00     0.029 A 
ATOM     56  C   UNL A   1      42.095  30.637  34.005  1.00  0.00     0.049 A 
ATOM     57  H   UNL A   1      40.733  31.161  32.484  1.00  0.00     0.167 HD
ATOM     58  C   UNL A   1      44.577  26.359  29.001  1.00  0.00     0.037 A 
ATOM     59  C   UNL A   1      41.334  29.988  34.933  1.00  0.00     0.037 A 
ATOM     60  C   UNL A   1      45.058  26.601  30.380  1.00  0.00     0.049 A 
ATOM     61  C   UNL A   1      41.860  28.564  35.040  1.00  0.00     0.074 A 
ATOM     62  C   UNL A   1      45.814  27.616  30.944  1.00  0.00     0.029 A 
ATOM     63  N   UNL A   1      44.439  25.956  31.453  1.00  0.00    -0.354 N 
ATOM     64  N   UNL A   1      42.468  27.916  34.070  1.00  0.00    -0.248 NA
ATOM     65  C   UNL A   1      41.981  27.878  36.320  1.00  0.00     0.031 C 
ATOM     66  C   UNL A   1      45.591  27.603  32.353  1.00  0.00     0.029 A 
ATOM     67  C   UNL A   1      44.633  26.643  32.641  1.00  0.00     0.049 A 
ATOM     68  H   UNL A   1      43.928  25.117  31.376  1.00  0.00     0.167 HD
ATOM     69  C   UNL A   1      43.181  26.862  34.590  1.00  0.00     0.074 A 
ATOM     70  C   UNL A   1      42.810  26.867  36.000  1.00  0.00     0.031 C 
ATOM     71  C   UNL A   1      44.094  26.108  33.891  1.00  0.00     0.037 A 
BRANCH  58  72
ATOM     72  C   UNL A   1      45.488  26.324  27.772  1.00  0.00     0.058 A 
ATOM     73  C   UNL A   1      46.006  25.105  27.284  1.00  0.00     0.135 A 
ATOM     74  C   UNL A   1      45.856  27.450  26.996  1.00  0.00     0.135 A 
ATOM     75  F   UNL A   1      45.685  23.934  27.852  1.00  0.00    -0.206 F 
ATOM     76  C   UNL A   1      46.848  25.015  26.167  1.00  0.00     0.059 A 
ATOM     77  C   UNL A   1      46.734  27.394  25.907  1.00  0.00     0.059 A 
ATOM     78  F   UNL A   1      45.324  28.659  27.203  1.00  0.00    -0.206 F 
ATOM     79  C   UNL A   1      47.216  26.167  25.488  1.00  0.00     0.060 A 
BRANCH  79  80
ATOM     80  S   UNL A   1      48.236  26.037  24.007  1.00  0.00     0.124 S 
ATOM     81  O   UNL A   1      47.859  27.236  23.267  1.00  0.00    -0.237 OA
ATOM     82  O   UNL A   1      49.584  26.029  24.566  1.00  0.00    -0.237 OA
ATOM     83  O   UNL A   1      47.805  24.776  23.405  1.00  0.00    -0.744 OA
ENDBRANCH  79  80
ENDBRANCH  58  72
BRANCH  59  84
ATOM     84  C   UNL A   1      39.937  30.583  35.049  1.00  0.00     0.058 A 
ATOM     85  C   UNL A   1      39.818  31.740  35.868  1.00  0.00     0.135 A 
ATOM     86  C   UNL A   1      38.803  30.297  34.275  1.00  0.00     0.135 A 
ATOM     87  F   UNL A   1      40.825  32.074  36.694  1.00  0.00    -0.206 F 
ATOM     88  C   UNL A   1      38.732  32.621  35.826  1.00  0.00     0.059 A 
ATOM     89  C   UNL A   1      37.674  31.164  34.234  1.00  0.00     0.059 A 
ATOM     90  F   UNL A   1      38.786  29.212  33.488  1.00  0.00    -0.206 F 
ATOM     91  C   UNL A   1      37.666  32.343  34.983  1.00  0.00     0.060 A 
BRANCH  91  92
ATOM     92  S   UNL A   1      36.360  33.604  34.848  1.00  0.00     0.124 S 
ATOM     93  O   UNL A   1      35.375  32.933  34.004  1.00  0.00    -0.237 OA
ATOM     94  O   UNL A   1      35.962  33.778  36.243  1.00  0.00    -0.237 OA
ATOM     95  O   UNL A   1      37.032  34.738  34.230  1.00  0.00    -0.744 OA
ENDBRANCH  91  92
ENDBRANCH  59  84
BRANCH  71  96
ATOM     96  C   UNL A   1      44.675  24.777  34.338  1.00  0.00     0.058 A 
ATOM     97  C   UNL A   1      46.002  24.601  34.756  1.00  0.00     0.135 A 
ATOM     98  C   UNL A   1      43.822  23.657  34.548  1.00  0.00     0.135 A 
ATOM     99  F   UNL A   1      46.892  25.600  34.724  1.00  0.00    -0.206 F 
ATOM    100  C   UNL A   1      46.462  23.393  35.282  1.00  0.00     0.059 A 
ATOM    101  C   UNL A   1      44.236  22.484  35.161  1.00  0.00     0.059 A 
ATOM    102  F   UNL A   1      42.531  23.659  34.186  1.00  0.00    -0.206 F 
ATOM    103  C   UNL A   1      45.570  22.347  35.493  1.00  0.00     0.060 A 
BRANCH 103 104
ATOM    104  S   UNL A   1      46.148  20.819  36.237  1.00  0.00     0.124 S 
ATOM    105  O   UNL A   1      45.397  19.828  35.472  1.00  0.00    -0.237 OA
ATOM    106  O   UNL A   1      47.585  20.863  35.978  1.00  0.00    -0.237 OA
ATOM    107  O   UNL A   1      45.767  20.958  37.639  1.00  0.00    -0.744 OA
ENDBRANCH 103 104
ENDBRANCH  71  96
ENDBRANCH  45  46
ENDBRANCH  38  40
ENDBRANCH  37  38
ENDBRANCH  36  37
ENDBRANCH   1  36
TORSDOF 20
ENDMDL
MODEL 3
REMARK VINA RESULT:     -11.9      2.667      3.787
REMARK SMILES Cc1ccc(NC(=O)C[NH+]2CCN(c3ccc(C(=O)OCCOC(=O)c4ccc(-c5c6nc(c(-c7c(F)cc(S(=O)(=O)[O-])cc7F)c7ccc([nH]7)c(-c7c(F)cc(S(=O)(=O)[O-])cc7F)c7nc(c(-c8c(F)cc(S(=O)(=O)[O-])cc8F)c8ccc5[nH]8)C=C7)C=C6)cc4)cc3NS(C)(=O)=O)CC2)cc1
REMARK SMILES IDX 21 1 20 2 18 3 19 4 17 5 14 6 15 7 93 8 16 9 92 10 13 11
REMARK SMILES IDX 10 12 11 13 100 14 12 16 99 17 9 18 7 19 6 20 8 22 5 23 1 24
REMARK SMILES IDX 2 25 3 26 102 27 4 28 101 29 94 30 95 32 96 33 97 34 98 35
REMARK SMILES IDX 22 36 23 37 24 38 25 39 26 40 27 41 91 42 28 43 90 44 29 45
REMARK SMILES IDX 30 46 31 47 84 48 32 49 89 50 83 51 85 52 33 53 88 54 82 55
REMARK SMILES IDX 81 56 34 58 68 59 47 60 67 61 48 62 51 63 66 64 86 65 49 66
REMARK SMILES IDX 50 67 65 69 87 70 52 71 35 72 36 73 45 74 37 75 38 76 44 77
REMARK SMILES IDX 46 78 39 79 40 80 41 81 42 82 43 83 69 84 70 85 79 86 71 87
REMARK SMILES IDX 72 88 78 89 80 90 73 91 74 92 75 93 76 94 77 95 53 96 54 97
REMARK SMILES IDX 63 98 55 99 56 100 62 101 64 102 57 103 58 104 59 105 60 106
REMARK SMILES IDX 61 107
REMARK H PARENT 10 15 6 21 94 31 85 57 51 68
REMARK Flexibility Score: inf
ROOT
ATOM      1  C   UNL A   1      40.266  21.790  26.368  1.00  0.00     0.275 C 
ENDROOT
BRANCH   1   2
ATOM      2  O   UNL A   1      38.883  21.997  26.013  1.00  0.00    -0.458 OA
BRANCH   2   3
ATOM      3  C   UNL A   1      38.249  21.038  25.305  1.00  0.00     0.338 C 
ATOM      4  O   UNL A   1      38.604  19.880  25.181  1.00  0.00    -0.246 OA
BRANCH   3   5
ATOM      5  C   UNL A   1      36.973  21.595  24.784  1.00  0.00     0.062 A 
ATOM      6  C   UNL A   1      34.806  23.178  24.117  1.00  0.00     0.062 A 
ATOM      7  C   UNL A   1      35.986  23.266  23.364  1.00  0.00     0.029 A 
ATOM      8  C   UNL A   1      34.603  22.079  25.013  1.00  0.00     0.073 A 
ATOM      9  C   UNL A   1      37.070  22.462  23.690  1.00  0.00     0.018 A 
ATOM     10  C   UNL A   1      35.734  21.382  25.431  1.00  0.00     0.044 A 
BRANCH   6  11
ATOM     11  N   UNL A   1      34.082  24.364  24.300  1.00  0.00    -0.359 N 
ATOM     12  N   UNL A   1      31.899  26.333  24.527  1.00  0.00    -0.324 N 
ATOM     13  C   UNL A   1      31.824  25.224  23.559  1.00  0.00     0.284 C 
ATOM     14  C   UNL A   1      32.583  25.780  25.733  1.00  0.00     0.284 C 
ATOM     15  H   UNL A   1      30.966  26.675  24.757  1.00  0.00     0.348 HD
ATOM     16  C   UNL A   1      33.185  24.642  23.175  1.00  0.00     0.178 C 
ATOM     17  C   UNL A   1      33.984  25.125  25.540  1.00  0.00     0.178 C 
BRANCH  12  18
ATOM     18  C   UNL A   1      32.605  27.526  23.978  1.00  0.00     0.364 C 
BRANCH  18  19
ATOM     19  C   UNL A   1      31.814  28.845  24.186  1.00  0.00     0.279 C 
ATOM     20  N   UNL A   1      32.076  29.779  25.160  1.00  0.00    -0.321 N 
ATOM     21  H   UNL A   1      31.487  30.566  25.122  1.00  0.00     0.170 HD
ATOM     22  O   UNL A   1      30.904  29.146  23.397  1.00  0.00    -0.268 OA
BRANCH  20  23
ATOM     23  C   UNL A   1      33.015  29.829  26.196  1.00  0.00     0.041 A 
ATOM     24  C   UNL A   1      36.542  31.102  28.211  1.00  0.00     0.044 C 
ATOM     25  C   UNL A   1      35.223  30.528  27.771  1.00  0.00    -0.051 A 
ATOM     26  C   UNL A   1      35.163  29.319  27.084  1.00  0.00     0.005 A 
ATOM     27  C   UNL A   1      34.047  31.256  27.876  1.00  0.00     0.005 A 
ATOM     28  C   UNL A   1      34.063  28.944  26.314  1.00  0.00     0.026 A 
ATOM     29  C   UNL A   1      32.934  30.894  27.104  1.00  0.00     0.026 A 
ENDBRANCH  20  23
ENDBRANCH  18  19
ENDBRANCH  12  18
ENDBRANCH   6  11
BRANCH   8  30
ATOM     30  N   UNL A   1      33.302  22.007  25.673  1.00  0.00    -0.282 N 
ATOM     31  H   UNL A   1      33.199  22.493  26.524  1.00  0.00     0.180 HD
BRANCH  30  32
ATOM     32  S   UNL A   1      31.957  21.158  25.098  1.00  0.00     0.229 S 
ATOM     33  C   UNL A   1      32.065  21.241  23.311  1.00  0.00     0.183 C 
ATOM     34  O   UNL A   1      32.234  19.770  25.435  1.00  0.00    -0.207 OA
ATOM     35  O   UNL A   1      30.726  21.777  25.487  1.00  0.00    -0.207 OA
ENDBRANCH  30  32
ENDBRANCH   8  30
ENDBRANCH   3   5
ENDBRANCH   2   3
ENDBRANCH   1   2
BRANCH   1  36
ATOM     36  C   UNL A   1      40.825  22.621  27.556  1.00  0.00     0.275 C 
BRANCH  36  37
ATOM     37  O   UNL A   1      40.022  23.711  28.031  1.00  0.00    -0.458 OA
BRANCH  37  38
ATOM     38  C   UNL A   1      40.014  24.820  27.254  1.00  0.00     0.338 C 
ATOM     39  O   UNL A   1      39.290  25.029  26.299  1.00  0.00    -0.246 OA
BRANCH  38  40
ATOM     40  C   UNL A   1      40.660  25.886  28.050  1.00  0.00     0.060 A 
ATOM     41  C   UNL A   1      41.636  25.573  28.999  1.00  0.00     0.016 A 
ATOM     42  C   UNL A   1      40.538  27.185  27.564  1.00  0.00     0.016 A 
ATOM     43  C   UNL A   1      42.468  26.557  29.492  1.00  0.00     0.010 A 
ATOM     44  C   UNL A   1      41.543  28.067  27.783  1.00  0.00     0.010 A 
ATOM     45  C   UNL A   1      42.358  27.796  28.876  1.00  0.00    -0.014 A 
BRANCH  45  46
ATOM     46  C   UNL A   1      42.626  29.034  29.573  1.00  0.00     0.031 A 
ATOM     47  C   UNL A   1      41.426  29.633  30.153  1.00  0.00     0.074 A 
ATOM     48  C   UNL A   1      43.970  29.234  29.630  1.00  0.00     0.049 A 
ATOM     49  N   UNL A   1      40.942  30.806  29.920  1.00  0.00    -0.248 NA
ATOM     50  C   UNL A   1      40.472  28.782  30.899  1.00  0.00     0.031 C 
ATOM     51  C   UNL A   1      44.845  30.140  30.335  1.00  0.00     0.029 A 
ATOM     52  N   UNL A   1      44.878  28.545  28.797  1.00  0.00    -0.354 N 
ATOM     53  C   UNL A   1      40.069  30.991  30.977  1.00  0.00     0.074 A 
ATOM     54  C   UNL A   1      39.537  29.677  31.224  1.00  0.00     0.031 C 
ATOM     55  C   UNL A   1      46.001  30.243  29.638  1.00  0.00     0.029 A 
ATOM     56  C   UNL A   1      45.932  29.374  28.463  1.00  0.00     0.049 A 
ATOM     57  H   UNL A   1      44.775  27.612  28.498  1.00  0.00     0.167 HD
ATOM     58  C   UNL A   1      40.365  31.965  31.899  1.00  0.00     0.037 A 
ATOM     59  C   UNL A   1      45.963  29.735  27.148  1.00  0.00     0.037 A 
ATOM     60  C   UNL A   1      41.647  32.607  31.530  1.00  0.00     0.049 A 
ATOM     61  C   UNL A   1      45.292  31.095  27.032  1.00  0.00     0.074 A 
ATOM     62  C   UNL A   1      42.916  32.554  32.085  1.00  0.00     0.029 A 
ATOM     63  N   UNL A   1      41.826  33.105  30.236  1.00  0.00    -0.354 N 
ATOM     64  N   UNL A   1      44.365  31.545  27.850  1.00  0.00    -0.248 NA
ATOM     65  C   UNL A   1      45.810  32.142  26.159  1.00  0.00     0.031 C 
ATOM     66  C   UNL A   1      43.852  32.969  31.091  1.00  0.00     0.029 A 
ATOM     67  C   UNL A   1      43.169  33.188  29.904  1.00  0.00     0.049 A 
ATOM     68  H   UNL A   1      41.090  33.364  29.635  1.00  0.00     0.167 HD
ATOM     69  C   UNL A   1      44.279  32.913  27.748  1.00  0.00     0.074 A 
ATOM     70  C   UNL A   1      45.183  33.227  26.649  1.00  0.00     0.031 C 
ATOM     71  C   UNL A   1      43.568  33.723  28.603  1.00  0.00     0.037 A 
BRANCH  58  72
ATOM     72  C   UNL A   1      39.730  32.063  33.287  1.00  0.00     0.058 A 
ATOM     73  C   UNL A   1      38.423  32.571  33.456  1.00  0.00     0.135 A 
ATOM     74  C   UNL A   1      40.332  31.630  34.493  1.00  0.00     0.135 A 
ATOM     75  F   UNL A   1      37.680  32.945  32.406  1.00  0.00    -0.206 F 
ATOM     76  C   UNL A   1      37.795  32.687  34.704  1.00  0.00     0.059 A 
ATOM     77  C   UNL A   1      39.747  31.781  35.756  1.00  0.00     0.059 A 
ATOM     78  F   UNL A   1      41.494  30.967  34.509  1.00  0.00    -0.206 F 
ATOM     79  C   UNL A   1      38.468  32.297  35.852  1.00  0.00     0.060 A 
BRANCH  79  80
ATOM     80  S   UNL A   1      37.626  32.377  37.445  1.00  0.00     0.124 S 
ATOM     81  O   UNL A   1      36.471  33.215  37.140  1.00  0.00    -0.237 OA
ATOM     82  O   UNL A   1      37.342  30.971  37.709  1.00  0.00    -0.237 OA
ATOM     83  O   UNL A   1      38.619  32.987  38.327  1.00  0.00    -0.744 OA
ENDBRANCH  79  80
ENDBRANCH  58  72
BRANCH  59  84
ATOM     84  C   UNL A   1      46.014  28.527  26.222  1.00  0.00     0.058 A 
ATOM     85  C   UNL A   1      47.269  27.863  26.131  1.00  0.00     0.135 A 
ATOM     86  C   UNL A   1      44.943  27.834  25.637  1.00  0.00     0.135 A 
ATOM     87  F   UNL A   1      48.373  28.465  26.608  1.00  0.00    -0.206 F 
ATOM     88  C   UNL A   1      47.435  26.568  25.632  1.00  0.00     0.059 A 
ATOM     89  C   UNL A   1      45.092  26.525  25.099  1.00  0.00     0.059 A 
ATOM     90  F   UNL A   1      43.718  28.377  25.633  1.00  0.00    -0.206 F 
ATOM     91  C   UNL A   1      46.333  25.885  25.137  1.00  0.00     0.060 A 
BRANCH  91  92
ATOM     92  S   UNL A   1      46.577  24.147  24.653  1.00  0.00     0.124 S 
ATOM     93  O   UNL A   1      47.003  23.538  25.910  1.00  0.00    -0.237 OA
ATOM     94  O   UNL A   1      45.240  23.768  24.205  1.00  0.00    -0.237 OA
ATOM     95  O   UNL A   1      47.602  24.212  23.621  1.00  0.00    -0.744 OA
ENDBRANCH  91  92
ENDBRANCH  59  84
BRANCH  71  96
ATOM     96  C   UNL A   1      43.216  35.180  28.358  1.00  0.00     0.058 A 
ATOM     97  C   UNL A   1      43.521  36.222  29.246  1.00  0.00     0.135 A 
ATOM     98  C   UNL A   1      42.721  35.596  27.089  1.00  0.00     0.135 A 
ATOM     99  F   UNL A   1      44.096  35.993  30.433  1.00  0.00    -0.206 F 
ATOM    100  C   UNL A   1      43.298  37.561  28.927  1.00  0.00     0.059 A 
ATOM    101  C   UNL A   1      42.588  36.924  26.717  1.00  0.00     0.059 A 
ATOM    102  F   UNL A   1      42.366  34.721  26.135  1.00  0.00    -0.206 F 
ATOM    103  C   UNL A   1      42.844  37.903  27.658  1.00  0.00     0.060 A 
BRANCH 103 104
ATOM    104  S   UNL A   1      42.626  39.631  27.224  1.00  0.00     0.124 S 
ATOM    105  O   UNL A   1      42.772  40.272  28.527  1.00  0.00    -0.237 OA
ATOM    106  O   UNL A   1      43.715  39.862  26.279  1.00  0.00    -0.237 OA
ATOM    107  O   UNL A   1      41.287  39.670  26.646  1.00  0.00    -0.744 OA
ENDBRANCH 103 104
ENDBRANCH  71  96
ENDBRANCH  45  46
ENDBRANCH  38  40
ENDBRANCH  37  38
ENDBRANCH  36  37
ENDBRANCH   1  36
TORSDOF 20
ENDMDL
