MODEL 1
REMARK VINA RESULT:     -11.5      0.000      0.000
REMARK SMILES COc1ccc(C(=O)Nc2cc(C(=O)OCCOC(=O)c3ccc(-c4c5nc(c(-c6c(F)cc(S(=O)(=O)[O-])cc6F)c6ccc([nH]6)c(-c6c(F)cc(S(=O)(=O)[O-])cc6F)c6nc(c(-c7c(F)cc(S(=O)(=O)[O-])cc7F)c7ccc4[nH]7)C=C6)C=C5)cc3)c(Cl)cc2Cl)cc1Cl
REMARK SMILES IDX 16 1 15 2 13 3 14 4 12 5 10 6 11 7 90 8 89 9 91 10 87 11
REMARK SMILES IDX 88 12 9 13 7 14 8 15 6 17 3 18 4 19 93 20 5 21 92 22 94 23
REMARK SMILES IDX 2 24 1 25 17 26 18 27 19 28 20 29 21 30 22 31 86 32 23 33
REMARK SMILES IDX 85 34 24 35 25 36 26 37 79 38 27 39 84 40 78 41 80 42 28 43
REMARK SMILES IDX 83 44 77 45 76 46 29 48 63 49 42 50 62 51 43 52 46 53 61 54
REMARK SMILES IDX 81 55 44 56 45 57 60 59 82 60 47 61 30 62 31 63 40 64 32 65
REMARK SMILES IDX 33 66 39 67 41 68 34 69 35 70 36 71 37 72 38 73 64 74 65 75
REMARK SMILES IDX 74 76 66 77 67 78 73 79 75 80 68 81 69 82 70 83 71 84 72 85
REMARK SMILES IDX 48 86 49 87 58 88 50 89 51 90 57 91 59 92 52 93 53 94 54 95
REMARK SMILES IDX 55 96 56 97
REMARK H PARENT 9 16 80 47 46 58
REMARK Flexibility Score: inf
ROOT
ATOM      1  C   UNL A   1      33.633  31.052  27.214  1.00  0.00     0.275 C 
ENDROOT
BRANCH   1   2
ATOM      2  O   UNL A   1      33.102  29.739  27.496  1.00  0.00    -0.458 OA
BRANCH   2   3
ATOM      3  C   UNL A   1      33.677  28.709  26.829  1.00  0.00     0.339 C 
ATOM      4  O   UNL A   1      34.847  28.378  26.876  1.00  0.00    -0.246 OA
BRANCH   3   5
ATOM      5  C   UNL A   1      32.678  27.922  26.072  1.00  0.00     0.080 A 
ATOM      6  C   UNL A   1      31.184  25.989  26.104  1.00  0.00     0.061 A 
ATOM      7  C   UNL A   1      32.081  26.844  26.746  1.00  0.00     0.045 A 
ATOM      8  C   UNL A   1      30.962  26.147  24.735  1.00  0.00     0.066 A 
ATOM      9  C   UNL A   1      31.526  27.232  24.057  1.00  0.00     0.044 A 
ATOM     10  Cl  UNL A   1      29.906  25.087  23.872  1.00  0.00    -0.082 Cl
ATOM     11  C   UNL A   1      32.375  28.128  24.726  1.00  0.00     0.057 A 
ATOM     12  Cl  UNL A   1      33.052  29.416  23.797  1.00  0.00    -0.083 Cl
BRANCH   6  13
ATOM     13  N   UNL A   1      30.507  24.994  26.829  1.00  0.00    -0.321 N 
ATOM     14  C   UNL A   1      30.734  23.631  26.874  1.00  0.00     0.255 C 
ATOM     15  O   UNL A   1      29.846  22.895  27.300  1.00  0.00    -0.269 OA
ATOM     16  H   UNL A   1      29.761  25.314  27.387  1.00  0.00     0.170 HD
BRANCH  14  17
ATOM     17  C   UNL A   1      32.074  23.045  26.551  1.00  0.00     0.041 A 
ATOM     18  C   UNL A   1      34.644  21.968  26.033  1.00  0.00     0.137 A 
ATOM     19  C   UNL A   1      34.159  22.097  27.337  1.00  0.00     0.049 A 
ATOM     20  C   UNL A   1      33.872  22.477  24.989  1.00  0.00     0.083 A 
ATOM     21  C   UNL A   1      32.887  22.618  27.601  1.00  0.00     0.018 A 
ATOM     22  C   UNL A   1      32.609  23.030  25.256  1.00  0.00     0.038 A 
ATOM     23  Cl  UNL A   1      34.409  22.557  23.347  1.00  0.00    -0.080 Cl
BRANCH  18  24
ATOM     24  O   UNL A   1      35.899  21.425  25.967  1.00  0.00    -0.495 OA
ATOM     25  C   UNL A   1      36.978  22.326  25.752  1.00  0.00     0.278 C 
ENDBRANCH  18  24
ENDBRANCH  14  17
ENDBRANCH   6  13
ENDBRANCH   3   5
ENDBRANCH   2   3
ENDBRANCH   1   2
BRANCH   1  26
ATOM     26  C   UNL A   1      34.431  31.632  28.391  1.00  0.00     0.275 C 
BRANCH  26  27
ATOM     27  O   UNL A   1      35.857  31.465  28.240  1.00  0.00    -0.458 OA
BRANCH  27  28
ATOM     28  C   UNL A   1      36.454  30.905  29.313  1.00  0.00     0.338 C 
ATOM     29  O   UNL A   1      36.023  30.898  30.456  1.00  0.00    -0.246 OA
BRANCH  28  30
ATOM     30  C   UNL A   1      37.669  30.159  28.956  1.00  0.00     0.060 A 
ATOM     31  C   UNL A   1      38.633  30.057  29.949  1.00  0.00     0.016 A 
ATOM     32  C   UNL A   1      37.975  29.787  27.647  1.00  0.00     0.016 A 
ATOM     33  C   UNL A   1      39.943  29.731  29.622  1.00  0.00     0.010 A 
ATOM     34  C   UNL A   1      39.272  29.329  27.345  1.00  0.00     0.010 A 
ATOM     35  C   UNL A   1      40.291  29.343  28.316  1.00  0.00    -0.014 A 
BRANCH  35  36
ATOM     36  C   UNL A   1      41.707  28.942  28.039  1.00  0.00     0.031 A 
ATOM     37  C   UNL A   1      42.855  29.926  28.094  1.00  0.00     0.074 A 
ATOM     38  C   UNL A   1      41.981  27.636  27.828  1.00  0.00     0.049 A 
ATOM     39  N   UNL A   1      44.146  29.701  28.024  1.00  0.00    -0.248 NA
ATOM     40  C   UNL A   1      42.523  31.344  28.273  1.00  0.00     0.031 C 
ATOM     41  C   UNL A   1      40.984  26.563  27.768  1.00  0.00     0.029 A 
ATOM     42  N   UNL A   1      43.175  26.982  27.645  1.00  0.00    -0.354 N 
ATOM     43  C   UNL A   1      44.769  30.932  28.210  1.00  0.00     0.074 A 
ATOM     44  C   UNL A   1      43.718  31.911  28.374  1.00  0.00     0.031 C 
ATOM     45  C   UNL A   1      41.605  25.388  27.612  1.00  0.00     0.029 A 
ATOM     46  C   UNL A   1      43.034  25.627  27.458  1.00  0.00     0.049 A 
ATOM     47  H   UNL A   1      44.047  27.439  27.647  1.00  0.00     0.167 HD
ATOM     48  C   UNL A   1      46.091  31.235  28.219  1.00  0.00     0.037 A 
ATOM     49  C   UNL A   1      43.938  24.679  27.143  1.00  0.00     0.037 A 
ATOM     50  C   UNL A   1      47.138  30.293  27.919  1.00  0.00     0.049 A 
ATOM     51  C   UNL A   1      45.377  25.068  26.978  1.00  0.00     0.074 A 
ATOM     52  C   UNL A   1      48.500  30.521  27.816  1.00  0.00     0.029 A 
ATOM     53  N   UNL A   1      46.934  28.954  27.626  1.00  0.00    -0.354 N 
ATOM     54  N   UNL A   1      45.940  26.235  27.175  1.00  0.00    -0.248 NA
ATOM     55  C   UNL A   1      46.299  24.020  26.524  1.00  0.00     0.031 C 
ATOM     56  C   UNL A   1      49.110  29.332  27.398  1.00  0.00     0.029 A 
ATOM     57  C   UNL A   1      48.137  28.352  27.294  1.00  0.00     0.049 A 
ATOM     58  H   UNL A   1      46.062  28.497  27.649  1.00  0.00     0.167 HD
ATOM     59  C   UNL A   1      47.285  26.061  26.878  1.00  0.00     0.074 A 
ATOM     60  C   UNL A   1      47.453  24.671  26.501  1.00  0.00     0.031 C 
ATOM     61  C   UNL A   1      48.288  26.971  26.911  1.00  0.00     0.037 A 
BRANCH  48  62
ATOM     62  C   UNL A   1      46.477  32.663  28.499  1.00  0.00     0.058 A 
ATOM     63  C   UNL A   1      46.547  33.618  27.473  1.00  0.00     0.135 A 
ATOM     64  C   UNL A   1      46.754  33.089  29.809  1.00  0.00     0.135 A 
ATOM     65  F   UNL A   1      46.303  33.263  26.202  1.00  0.00    -0.206 F 
ATOM     66  C   UNL A   1      46.897  34.941  27.732  1.00  0.00     0.059 A 
ATOM     67  C   UNL A   1      47.092  34.410  30.092  1.00  0.00     0.059 A 
ATOM     68  F   UNL A   1      46.706  32.216  30.827  1.00  0.00    -0.206 F 
ATOM     69  C   UNL A   1      47.173  35.326  29.045  1.00  0.00     0.060 A 
BRANCH  69  70
ATOM     70  S   UNL A   1      47.649  37.040  29.364  1.00  0.00     0.124 S 
ATOM     71  O   UNL A   1      49.047  36.888  29.753  1.00  0.00    -0.237 OA
ATOM     72  O   UNL A   1      47.417  37.677  28.072  1.00  0.00    -0.237 OA
ATOM     73  O   UNL A   1      46.744  37.453  30.434  1.00  0.00    -0.744 OA
ENDBRANCH  69  70
ENDBRANCH  48  62
BRANCH  49  74
ATOM     74  C   UNL A   1      43.474  23.290  26.879  1.00  0.00     0.058 A 
ATOM     75  C   UNL A   1      43.455  22.755  25.584  1.00  0.00     0.135 A 
ATOM     76  C   UNL A   1      43.075  22.458  27.938  1.00  0.00     0.135 A 
ATOM     77  F   UNL A   1      43.812  23.514  24.538  1.00  0.00    -0.206 F 
ATOM     78  C   UNL A   1      43.059  21.441  25.349  1.00  0.00     0.059 A 
ATOM     79  C   UNL A   1      42.707  21.134  27.732  1.00  0.00     0.059 A 
ATOM     80  F   UNL A   1      43.086  22.920  29.199  1.00  0.00    -0.206 F 
ATOM     81  C   UNL A   1      42.694  20.637  26.432  1.00  0.00     0.060 A 
BRANCH  81  82
ATOM     82  S   UNL A   1      42.246  18.913  26.132  1.00  0.00     0.124 S 
ATOM     83  O   UNL A   1      40.813  19.022  25.888  1.00  0.00    -0.237 OA
ATOM     84  O   UNL A   1      43.068  18.575  24.975  1.00  0.00    -0.237 OA
ATOM     85  O   UNL A   1      42.628  18.248  27.376  1.00  0.00    -0.744 OA
ENDBRANCH  81  82
ENDBRANCH  49  74
BRANCH  61  86
ATOM     86  C   UNL A   1      49.662  26.491  26.542  1.00  0.00     0.058 A 
ATOM     87  C   UNL A   1      50.565  26.035  27.515  1.00  0.00     0.135 A 
ATOM     88  C   UNL A   1      50.063  26.448  25.198  1.00  0.00     0.135 A 
ATOM     89  F   UNL A   1      50.232  26.065  28.814  1.00  0.00    -0.206 F 
ATOM     90  C   UNL A   1      51.828  25.569  27.168  1.00  0.00     0.059 A 
ATOM     91  C   UNL A   1      51.313  25.964  24.827  1.00  0.00     0.059 A 
ATOM     92  F   UNL A   1      49.232  26.867  24.231  1.00  0.00    -0.206 F 
ATOM     93  C   UNL A   1      52.193  25.536  25.820  1.00  0.00     0.060 A 
BRANCH  93  94
ATOM     94  S   UNL A   1      53.820  24.896  25.376  1.00  0.00     0.124 S 
ATOM     95  O   UNL A   1      54.176  25.751  24.249  1.00  0.00    -0.237 OA
ATOM     96  O   UNL A   1      54.587  25.108  26.601  1.00  0.00    -0.237 OA
ATOM     97  O   UNL A   1      53.556  23.498  25.046  1.00  0.00    -0.744 OA
ENDBRANCH  93  94
ENDBRANCH  61  86
ENDBRANCH  35  36
ENDBRANCH  28  30
ENDBRANCH  27  28
ENDBRANCH  26  27
ENDBRANCH   1  26
TORSDOF 17
ENDMDL
MODEL 2
REMARK VINA RESULT:     -11.4      2.063      8.679
REMARK SMILES COc1ccc(C(=O)Nc2cc(C(=O)OCCOC(=O)c3ccc(-c4c5nc(c(-c6c(F)cc(S(=O)(=O)[O-])cc6F)c6ccc([nH]6)c(-c6c(F)cc(S(=O)(=O)[O-])cc6F)c6nc(c(-c7c(F)cc(S(=O)(=O)[O-])cc7F)c7ccc4[nH]7)C=C6)C=C5)cc3)c(Cl)cc2Cl)cc1Cl
REMARK SMILES IDX 16 1 15 2 13 3 14 4 12 5 10 6 11 7 90 8 89 9 91 10 87 11
REMARK SMILES IDX 88 12 9 13 7 14 8 15 6 17 3 18 4 19 93 20 5 21 92 22 94 23
REMARK SMILES IDX 2 24 1 25 17 26 18 27 19 28 20 29 21 30 22 31 86 32 23 33
REMARK SMILES IDX 85 34 24 35 25 36 26 37 79 38 27 39 84 40 78 41 80 42 28 43
REMARK SMILES IDX 83 44 77 45 76 46 29 48 63 49 42 50 62 51 43 52 46 53 61 54
REMARK SMILES IDX 81 55 44 56 45 57 60 59 82 60 47 61 30 62 31 63 40 64 32 65
REMARK SMILES IDX 33 66 39 67 41 68 34 69 35 70 36 71 37 72 38 73 64 74 65 75
REMARK SMILES IDX 74 76 66 77 67 78 73 79 75 80 68 81 69 82 70 83 71 84 72 85
REMARK SMILES IDX 48 86 49 87 58 88 50 89 51 90 57 91 59 92 52 93 53 94 54 95
REMARK SMILES IDX 55 96 56 97
REMARK H PARENT 9 16 80 47 46 58
REMARK Flexibility Score: inf
ROOT
ATOM      1  C   UNL A   1      38.575  21.584  25.752  1.00  0.00     0.275 C 
ENDROOT
BRANCH   1   2
ATOM      2  O   UNL A   1      37.131  21.569  25.782  1.00  0.00    -0.458 OA
BRANCH   2   3
ATOM      3  C   UNL A   1      36.526  22.776  25.901  1.00  0.00     0.339 C 
ATOM      4  O   UNL A   1      36.957  23.748  26.492  1.00  0.00    -0.246 OA
BRANCH   3   5
ATOM      5  C   UNL A   1      35.268  22.836  25.123  1.00  0.00     0.080 A 
ATOM      6  C   UNL A   1      32.831  22.694  25.210  1.00  0.00     0.061 A 
ATOM      7  C   UNL A   1      34.071  22.727  25.849  1.00  0.00     0.045 A 
ATOM      8  C   UNL A   1      32.790  22.659  23.815  1.00  0.00     0.066 A 
ATOM      9  C   UNL A   1      33.971  22.795  23.079  1.00  0.00     0.044 A 
ATOM     10  Cl  UNL A   1      31.289  22.562  22.966  1.00  0.00    -0.082 Cl
ATOM     11  C   UNL A   1      35.211  22.896  23.730  1.00  0.00     0.057 A 
ATOM     12  Cl  UNL A   1      36.616  23.026  22.736  1.00  0.00    -0.083 Cl
BRANCH   6  13
ATOM     13  N   UNL A   1      31.643  22.709  25.961  1.00  0.00    -0.321 N 
ATOM     14  C   UNL A   1      30.961  23.781  26.505  1.00  0.00     0.255 C 
ATOM     15  O   UNL A   1      30.136  23.570  27.393  1.00  0.00    -0.269 OA
ATOM     16  H   UNL A   1      31.238  21.826  26.124  1.00  0.00     0.170 HD
BRANCH  14  17
ATOM     17  C   UNL A   1      31.096  25.165  25.948  1.00  0.00     0.041 A 
ATOM     18  C   UNL A   1      31.381  27.817  24.989  1.00  0.00     0.137 A 
ATOM     19  C   UNL A   1      32.137  27.347  26.066  1.00  0.00     0.049 A 
ATOM     20  C   UNL A   1      30.403  26.978  24.455  1.00  0.00     0.083 A 
ATOM     21  C   UNL A   1      32.011  26.036  26.539  1.00  0.00     0.018 A 
ATOM     22  C   UNL A   1      30.252  25.672  24.951  1.00  0.00     0.038 A 
ATOM     23  Cl  UNL A   1      29.269  27.472  23.248  1.00  0.00    -0.080 Cl
BRANCH  18  24
ATOM     24  O   UNL A   1      31.650  29.117  24.657  1.00  0.00    -0.495 OA
ATOM     25  C   UNL A   1      32.735  29.741  25.333  1.00  0.00     0.278 C 
ENDBRANCH  18  24
ENDBRANCH  14  17
ENDBRANCH   6  13
ENDBRANCH   3   5
ENDBRANCH   2   3
ENDBRANCH   1   2
BRANCH   1  26
ATOM     26  C   UNL A   1      39.178  20.177  25.642  1.00  0.00     0.275 C 
BRANCH  26  27
ATOM     27  O   UNL A   1      40.102  19.874  26.709  1.00  0.00    -0.458 OA
BRANCH  27  28
ATOM     28  C   UNL A   1      41.367  19.663  26.290  1.00  0.00     0.338 C 
ATOM     29  O   UNL A   1      41.781  18.663  25.724  1.00  0.00    -0.246 OA
BRANCH  28  30
ATOM     30  C   UNL A   1      42.223  20.845  26.466  1.00  0.00     0.060 A 
ATOM     31  C   UNL A   1      42.379  21.292  27.770  1.00  0.00     0.016 A 
ATOM     32  C   UNL A   1      42.655  21.636  25.401  1.00  0.00     0.016 A 
ATOM     33  C   UNL A   1      42.824  22.584  28.018  1.00  0.00     0.010 A 
ATOM     34  C   UNL A   1      43.229  22.895  25.666  1.00  0.00     0.010 A 
ATOM     35  C   UNL A   1      43.275  23.411  26.974  1.00  0.00    -0.014 A 
BRANCH  35  36
ATOM     36  C   UNL A   1      43.802  24.772  27.311  1.00  0.00     0.031 A 
ATOM     37  C   UNL A   1      45.262  25.139  27.157  1.00  0.00     0.074 A 
ATOM     38  C   UNL A   1      42.925  25.734  27.672  1.00  0.00     0.049 A 
ATOM     39  N   UNL A   1      45.839  26.312  27.267  1.00  0.00    -0.248 NA
ATOM     40  C   UNL A   1      46.198  24.062  26.813  1.00  0.00     0.031 C 
ATOM     41  C   UNL A   1      41.482  25.541  27.844  1.00  0.00     0.029 A 
ATOM     42  N   UNL A   1      43.109  27.068  27.943  1.00  0.00    -0.354 N 
ATOM     43  C   UNL A   1      47.181  26.120  26.948  1.00  0.00     0.074 A 
ATOM     44  C   UNL A   1      47.344  24.712  26.662  1.00  0.00     0.031 C 
ATOM     45  C   UNL A   1      40.909  26.713  28.140  1.00  0.00     0.029 A 
ATOM     46  C   UNL A   1      41.949  27.724  28.282  1.00  0.00     0.049 A 
ATOM     47  H   UNL A   1      43.987  27.512  27.898  1.00  0.00     0.167 HD
ATOM     48  C   UNL A   1      48.196  27.019  26.920  1.00  0.00     0.037 A 
ATOM     49  C   UNL A   1      41.738  28.982  28.713  1.00  0.00     0.037 A 
ATOM     50  C   UNL A   1      48.072  28.391  27.338  1.00  0.00     0.049 A 
ATOM     51  C   UNL A   1      42.906  29.913  28.850  1.00  0.00     0.074 A 
ATOM     52  C   UNL A   1      49.059  29.358  27.430  1.00  0.00     0.029 A 
ATOM     53  N   UNL A   1      46.897  28.978  27.780  1.00  0.00    -0.354 N 
ATOM     54  N   UNL A   1      44.159  29.710  28.527  1.00  0.00    -0.248 NA
ATOM     55  C   UNL A   1      42.636  31.234  29.431  1.00  0.00     0.031 C 
ATOM     56  C   UNL A   1      48.492  30.509  27.988  1.00  0.00     0.029 A 
ATOM     57  C   UNL A   1      47.141  30.278  28.192  1.00  0.00     0.049 A 
ATOM     58  H   UNL A   1      46.016  28.536  27.799  1.00  0.00     0.167 HD
ATOM     59  C   UNL A   1      44.830  30.880  28.858  1.00  0.00     0.074 A 
ATOM     60  C   UNL A   1      43.838  31.792  29.392  1.00  0.00     0.031 C 
ATOM     61  C   UNL A   1      46.147  31.171  28.732  1.00  0.00     0.037 A 
BRANCH  48  62
ATOM     62  C   UNL A   1      49.550  26.528  26.483  1.00  0.00     0.058 A 
ATOM     63  C   UNL A   1      50.008  26.713  25.169  1.00  0.00     0.135 A 
ATOM     64  C   UNL A   1      50.410  25.889  27.391  1.00  0.00     0.135 A 
ATOM     65  F   UNL A   1      49.223  27.307  24.257  1.00  0.00    -0.206 F 
ATOM     66  C   UNL A   1      51.264  26.266  24.766  1.00  0.00     0.059 A 
ATOM     67  C   UNL A   1      51.676  25.447  27.013  1.00  0.00     0.059 A 
ATOM     68  F   UNL A   1      50.021  25.683  28.659  1.00  0.00    -0.206 F 
ATOM     69  C   UNL A   1      52.089  25.629  25.695  1.00  0.00     0.060 A 
BRANCH  69  70
ATOM     70  S   UNL A   1      53.707  25.033  25.152  1.00  0.00     0.124 S 
ATOM     71  O   UNL A   1      53.567  23.592  25.343  1.00  0.00    -0.237 OA
ATOM     72  O   UNL A   1      53.760  25.485  23.766  1.00  0.00    -0.237 OA
ATOM     73  O   UNL A   1      54.638  25.696  26.061  1.00  0.00    -0.744 OA
ENDBRANCH  69  70
ENDBRANCH  48  62
BRANCH  49  74
ATOM     74  C   UNL A   1      40.368  29.388  29.130  1.00  0.00     0.058 A 
ATOM     75  C   UNL A   1      40.011  29.496  30.480  1.00  0.00     0.135 A 
ATOM     76  C   UNL A   1      39.399  29.717  28.167  1.00  0.00     0.135 A 
ATOM     77  F   UNL A   1      40.896  29.180  31.436  1.00  0.00    -0.206 F 
ATOM     78  C   UNL A   1      38.740  29.917  30.862  1.00  0.00     0.059 A 
ATOM     79  C   UNL A   1      38.135  30.170  28.524  1.00  0.00     0.059 A 
ATOM     80  F   UNL A   1      39.695  29.641  26.859  1.00  0.00    -0.206 F 
ATOM     81  C   UNL A   1      37.812  30.259  29.876  1.00  0.00     0.060 A 
BRANCH  81  82
ATOM     82  S   UNL A   1      36.187  30.870  30.374  1.00  0.00     0.124 S 
ATOM     83  O   UNL A   1      36.003  30.198  31.655  1.00  0.00    -0.237 OA
ATOM     84  O   UNL A   1      36.403  32.312  30.434  1.00  0.00    -0.237 OA
ATOM     85  O   UNL A   1      35.315  30.420  29.292  1.00  0.00    -0.744 OA
ENDBRANCH  81  82
ENDBRANCH  49  74
BRANCH  61  86
ATOM     86  C   UNL A   1      46.593  32.536  29.169  1.00  0.00     0.058 A 
ATOM     87  C   UNL A   1      47.041  32.778  30.477  1.00  0.00     0.135 A 
ATOM     88  C   UNL A   1      46.613  33.603  28.257  1.00  0.00     0.135 A 
ATOM     89  F   UNL A   1      47.032  31.793  31.388  1.00  0.00    -0.206 F 
ATOM     90  C   UNL A   1      47.476  34.038  30.871  1.00  0.00     0.059 A 
ATOM     91  C   UNL A   1      47.066  34.866  28.624  1.00  0.00     0.059 A 
ATOM     92  F   UNL A   1      46.201  33.420  26.993  1.00  0.00    -0.206 F 
ATOM     93  C   UNL A   1      47.485  35.076  29.937  1.00  0.00     0.060 A 
BRANCH  93  94
ATOM     94  S   UNL A   1      48.086  36.699  30.449  1.00  0.00     0.124 S 
ATOM     95  O   UNL A   1      49.485  36.638  30.040  1.00  0.00    -0.237 OA
ATOM     96  O   UNL A   1      47.239  37.605  29.679  1.00  0.00    -0.237 OA
ATOM     97  O   UNL A   1      47.852  36.707  31.890  1.00  0.00    -0.744 OA
ENDBRANCH  93  94
ENDBRANCH  61  86
ENDBRANCH  35  36
ENDBRANCH  28  30
ENDBRANCH  27  28
ENDBRANCH  26  27
ENDBRANCH   1  26
TORSDOF 17
ENDMDL
MODEL 3
REMARK VINA RESULT:     -11.2      2.802      8.702
REMARK SMILES COc1ccc(C(=O)Nc2cc(C(=O)OCCOC(=O)c3ccc(-c4c5nc(c(-c6c(F)cc(S(=O)(=O)[O-])cc6F)c6ccc([nH]6)c(-c6c(F)cc(S(=O)(=O)[O-])cc6F)c6nc(c(-c7c(F)cc(S(=O)(=O)[O-])cc7F)c7ccc4[nH]7)C=C6)C=C5)cc3)c(Cl)cc2Cl)cc1Cl
REMARK SMILES IDX 16 1 15 2 13 3 14 4 12 5 10 6 11 7 90 8 89 9 91 10 87 11
REMARK SMILES IDX 88 12 9 13 7 14 8 15 6 17 3 18 4 19 93 20 5 21 92 22 94 23
REMARK SMILES IDX 2 24 1 25 17 26 18 27 19 28 20 29 21 30 22 31 86 32 23 33
REMARK SMILES IDX 85 34 24 35 25 36 26 37 79 38 27 39 84 40 78 41 80 42 28 43
REMARK SMILES IDX 83 44 77 45 76 46 29 48 63 49 42 50 62 51 43 52 46 53 61 54
REMARK SMILES IDX 81 55 44 56 45 57 60 59 82 60 47 61 30 62 31 63 40 64 32 65
REMARK SMILES IDX 33 66 39 67 41 68 34 69 35 70 36 71 37 72 38 73 64 74 65 75
REMARK SMILES IDX 74 76 66 77 67 78 73 79 75 80 68 81 69 82 70 83 71 84 72 85
REMARK SMILES IDX 48 86 49 87 58 88 50 89 51 90 57 91 59 92 52 93 53 94 54 95
REMARK SMILES IDX 55 96 56 97
REMARK H PARENT 9 16 80 47 46 58
REMARK Flexibility Score: inf
ROOT
ATOM      1  C   UNL A   1      32.200  28.113  26.090  1.00  0.00     0.275 C 
ENDROOT
BRANCH   1   2
ATOM      2  O   UNL A   1      32.345  26.677  26.153  1.00  0.00    -0.458 OA
BRANCH   2   3
ATOM      3  C   UNL A   1      31.195  25.961  26.123  1.00  0.00     0.339 C 
ATOM      4  O   UNL A   1      30.178  26.197  26.748  1.00  0.00    -0.246 OA
BRANCH   3   5
ATOM      5  C   UNL A   1      31.260  24.862  25.134  1.00  0.00     0.080 A 
ATOM      6  C   UNL A   1      31.631  22.471  24.793  1.00  0.00     0.061 A 
ATOM      7  C   UNL A   1      31.475  23.570  25.641  1.00  0.00     0.045 A 
ATOM      8  C   UNL A   1      31.682  22.683  23.415  1.00  0.00     0.066 A 
ATOM      9  C   UNL A   1      31.441  23.958  22.895  1.00  0.00     0.044 A 
ATOM     10  Cl  UNL A   1      31.927  21.372  22.317  1.00  0.00    -0.082 Cl
ATOM     11  C   UNL A   1      31.218  25.048  23.752  1.00  0.00     0.057 A 
ATOM     12  Cl  UNL A   1      30.964  26.589  23.019  1.00  0.00    -0.083 Cl
BRANCH   6  13
ATOM     13  N   UNL A   1      31.722  21.173  25.323  1.00  0.00    -0.321 N 
ATOM     14  C   UNL A   1      32.797  20.304  25.339  1.00  0.00     0.255 C 
ATOM     15  O   UNL A   1      32.592  19.110  25.549  1.00  0.00    -0.269 OA
ATOM     16  H   UNL A   1      30.899  20.831  25.742  1.00  0.00     0.170 HD
BRANCH  14  17
ATOM     17  C   UNL A   1      34.209  20.797  25.250  1.00  0.00     0.041 A 
ATOM     18  C   UNL A   1      36.913  21.635  25.113  1.00  0.00     0.137 A 
ATOM     19  C   UNL A   1      36.559  20.293  24.957  1.00  0.00     0.049 A 
ATOM     20  C   UNL A   1      35.911  22.548  25.441  1.00  0.00     0.083 A 
ATOM     21  C   UNL A   1      35.225  19.871  25.012  1.00  0.00     0.018 A 
ATOM     22  C   UNL A   1      34.575  22.120  25.529  1.00  0.00     0.038 A 
ATOM     23  Cl  UNL A   1      36.211  24.202  25.843  1.00  0.00    -0.080 Cl
BRANCH  18  24
ATOM     24  O   UNL A   1      38.259  21.861  25.014  1.00  0.00    -0.495 OA
ATOM     25  C   UNL A   1      38.967  22.071  26.229  1.00  0.00     0.278 C 
ENDBRANCH  18  24
ENDBRANCH  14  17
ENDBRANCH   6  13
ENDBRANCH   3   5
ENDBRANCH   2   3
ENDBRANCH   1   2
BRANCH   1  26
ATOM     26  C   UNL A   1      33.538  28.833  25.872  1.00  0.00     0.275 C 
BRANCH  26  27
ATOM     27  O   UNL A   1      34.463  28.645  26.964  1.00  0.00    -0.458 OA
BRANCH  27  28
ATOM     28  C   UNL A   1      34.756  29.781  27.631  1.00  0.00     0.338 C 
ATOM     29  O   UNL A   1      33.980  30.692  27.876  1.00  0.00    -0.246 OA
BRANCH  28  30
ATOM     30  C   UNL A   1      36.121  29.780  28.174  1.00  0.00     0.060 A 
ATOM     31  C   UNL A   1      37.138  30.019  27.260  1.00  0.00     0.016 A 
ATOM     32  C   UNL A   1      36.429  29.324  29.455  1.00  0.00     0.016 A 
ATOM     33  C   UNL A   1      38.447  29.664  27.561  1.00  0.00     0.010 A 
ATOM     34  C   UNL A   1      37.775  29.091  29.800  1.00  0.00     0.010 A 
ATOM     35  C   UNL A   1      38.800  29.208  28.843  1.00  0.00    -0.014 A 
BRANCH  35  36
ATOM     36  C   UNL A   1      40.238  28.901  29.126  1.00  0.00     0.031 A 
ATOM     37  C   UNL A   1      40.857  27.554  28.822  1.00  0.00     0.074 A 
ATOM     38  C   UNL A   1      41.035  29.894  29.578  1.00  0.00     0.049 A 
ATOM     39  N   UNL A   1      42.115  27.187  28.872  1.00  0.00    -0.248 NA
ATOM     40  C   UNL A   1      39.958  26.481  28.381  1.00  0.00     0.031 C 
ATOM     41  C   UNL A   1      40.592  31.254  29.898  1.00  0.00     0.029 A 
ATOM     42  N   UNL A   1      42.385  29.924  29.829  1.00  0.00    -0.354 N 
ATOM     43  C   UNL A   1      42.159  25.872  28.416  1.00  0.00     0.074 A 
ATOM     44  C   UNL A   1      40.798  25.491  28.112  1.00  0.00     0.031 C 
ATOM     45  C   UNL A   1      41.648  31.994  30.254  1.00  0.00     0.029 A 
ATOM     46  C   UNL A   1      42.830  31.142  30.288  1.00  0.00     0.049 A 
ATOM     47  H   UNL A   1      42.977  29.149  29.695  1.00  0.00     0.167 HD
ATOM     48  C   UNL A   1      43.223  25.043  28.283  1.00  0.00     0.037 A 
ATOM     49  C   UNL A   1      44.038  31.529  30.741  1.00  0.00     0.037 A 
ATOM     50  C   UNL A   1      44.559  25.366  28.714  1.00  0.00     0.049 A 
ATOM     51  C   UNL A   1      45.164  30.538  30.757  1.00  0.00     0.074 A 
ATOM     52  C   UNL A   1      45.687  24.563  28.704  1.00  0.00     0.029 A 
ATOM     53  N   UNL A   1      44.935  26.576  29.276  1.00  0.00    -0.354 N 
ATOM     54  N   UNL A   1      45.181  29.309  30.305  1.00  0.00    -0.248 NA
ATOM     55  C   UNL A   1      46.425  30.978  31.364  1.00  0.00     0.031 C 
ATOM     56  C   UNL A   1      46.729  25.267  29.319  1.00  0.00     0.029 A 
ATOM     57  C   UNL A   1      46.264  26.526  29.663  1.00  0.00     0.049 A 
ATOM     58  H   UNL A   1      44.344  27.356  29.386  1.00  0.00     0.167 HD
ATOM     59  C   UNL A   1      46.458  28.827  30.566  1.00  0.00     0.074 A 
ATOM     60  C   UNL A   1      47.188  29.906  31.202  1.00  0.00     0.031 C 
ATOM     61  C   UNL A   1      46.976  27.603  30.304  1.00  0.00     0.037 A 
BRANCH  48  62
ATOM     62  C   UNL A   1      42.973  23.675  27.707  1.00  0.00     0.058 A 
ATOM     63  C   UNL A   1      43.061  23.433  26.327  1.00  0.00     0.135 A 
ATOM     64  C   UNL A   1      42.669  22.588  28.543  1.00  0.00     0.135 A 
ATOM     65  F   UNL A   1      43.338  24.438  25.482  1.00  0.00    -0.206 F 
ATOM     66  C   UNL A   1      42.838  22.166  25.794  1.00  0.00     0.059 A 
ATOM     67  C   UNL A   1      42.457  21.309  28.032  1.00  0.00     0.059 A 
ATOM     68  F   UNL A   1      42.569  22.764  29.869  1.00  0.00    -0.206 F 
ATOM     69  C   UNL A   1      42.530  21.111  26.655  1.00  0.00     0.060 A 
BRANCH  69  70
ATOM     70  S   UNL A   1      42.219  19.477  25.947  1.00  0.00     0.124 S 
ATOM     71  O   UNL A   1      40.781  19.532  25.706  1.00  0.00    -0.237 OA
ATOM     72  O   UNL A   1      43.062  19.484  24.757  1.00  0.00    -0.237 OA
ATOM     73  O   UNL A   1      42.640  18.562  27.004  1.00  0.00    -0.744 OA
ENDBRANCH  69  70
ENDBRANCH  48  62
BRANCH  49  74
ATOM     74  C   UNL A   1      44.201  32.899  31.298  1.00  0.00     0.058 A 
ATOM     75  C   UNL A   1      44.473  34.000  30.476  1.00  0.00     0.135 A 
ATOM     76  C   UNL A   1      44.046  33.132  32.675  1.00  0.00     0.135 A 
ATOM     77  F   UNL A   1      44.643  33.828  29.157  1.00  0.00    -0.206 F 
ATOM     78  C   UNL A   1      44.582  35.286  30.999  1.00  0.00     0.059 A 
ATOM     79  C   UNL A   1      44.119  34.409  33.216  1.00  0.00     0.059 A 
ATOM     80  F   UNL A   1      43.775  32.111  33.505  1.00  0.00    -0.206 F 
ATOM     81  C   UNL A   1      44.397  35.480  32.370  1.00  0.00     0.060 A 
BRANCH  81  82
ATOM     82  S   UNL A   1      44.472  37.157  33.036  1.00  0.00     0.124 S 
ATOM     83  O   UNL A   1      43.807  37.918  31.986  1.00  0.00    -0.237 OA
ATOM     84  O   UNL A   1      43.741  37.025  34.292  1.00  0.00    -0.237 OA
ATOM     85  O   UNL A   1      45.907  37.395  33.180  1.00  0.00    -0.744 OA
ENDBRANCH  81  82
ENDBRANCH  49  74
BRANCH  61  86
ATOM     86  C   UNL A   1      48.406  27.366  30.694  1.00  0.00     0.058 A 
ATOM     87  C   UNL A   1      48.743  26.760  31.915  1.00  0.00     0.135 A 
ATOM     88  C   UNL A   1      49.447  27.709  29.819  1.00  0.00     0.135 A 
ATOM     89  F   UNL A   1      47.783  26.423  32.790  1.00  0.00    -0.206 F 
ATOM     90  C   UNL A   1      50.067  26.520  32.262  1.00  0.00     0.059 A 
ATOM     91  C   UNL A   1      50.778  27.457  30.136  1.00  0.00     0.059 A 
ATOM     92  F   UNL A   1      49.176  28.284  28.636  1.00  0.00    -0.206 F 
ATOM     93  C   UNL A   1      51.078  26.871  31.365  1.00  0.00     0.060 A 
BRANCH  93  94
ATOM     94  S   UNL A   1      52.792  26.522  31.810  1.00  0.00     0.124 S 
ATOM     95  O   UNL A   1      52.839  26.988  33.192  1.00  0.00    -0.237 OA
ATOM     96  O   UNL A   1      52.878  25.077  31.625  1.00  0.00    -0.237 OA
ATOM     97  O   UNL A   1      53.558  27.316  30.853  1.00  0.00    -0.744 OA
ENDBRANCH  93  94
ENDBRANCH  61  86
ENDBRANCH  35  36
ENDBRANCH  28  30
ENDBRANCH  27  28
ENDBRANCH  26  27
ENDBRANCH   1  26
TORSDOF 17
ENDMDL
