MODEL 1
REMARK VINA RESULT:     -11.4      0.000      0.000
REMARK SMILES CC(C)[C@@H](C)[N@@H+]1[C@@H](C(=O)OCCOC(=O)c2ccc(-c3c4nc(c(-c5c(F)cc(S(=O)(=O)[O-])cc5F)c5ccc([nH]5)c(-c5c(F)cc(S(=O)(=O)[O-])cc5F)c5nc(c(-c6c(F)cc(S(=O)(=O)[O-])cc6F)c6ccc3[nH]6)C=C5)C=C4)cc2)C[C@H]2CCCC[C@H]21
REMARK SMILES IDX 12 1 11 2 10 3 8 4 9 5 7 6 6 7 88 8 82 10 83 11 87 12 84 13
REMARK SMILES IDX 86 14 85 15 4 16 5 17 2 18 1 19 3 20 13 21 14 22 15 23 16 24
REMARK SMILES IDX 17 25 81 26 18 27 80 28 19 29 20 30 21 31 74 32 22 33 79 34
REMARK SMILES IDX 73 35 75 36 23 37 78 38 72 39 71 40 24 42 58 43 37 44 57 45
REMARK SMILES IDX 38 46 41 47 56 48 76 49 39 50 40 51 55 53 77 54 42 55 25 56
REMARK SMILES IDX 26 57 35 58 27 59 28 60 34 61 36 62 29 63 30 64 31 65 32 66
REMARK SMILES IDX 33 67 59 68 60 69 69 70 61 71 62 72 68 73 70 74 63 75 64 76
REMARK SMILES IDX 65 77 66 78 67 79 43 80 44 81 53 82 45 83 46 84 52 85 54 86
REMARK SMILES IDX 47 87 48 88 49 89 50 90 51 91
REMARK H PARENT 6 9 75 41 41 52
REMARK Flexibility Score: inf
ROOT
ATOM      1  C   UNL A   1      33.099  31.157  27.257  1.00  0.00     0.275 C 
ENDROOT
BRANCH   1   2
ATOM      2  C   UNL A   1      32.054  30.276  26.582  1.00  0.00     0.274 C 
BRANCH   2   3
ATOM      3  O   UNL A   1      31.701  29.181  27.451  1.00  0.00    -0.458 OA
BRANCH   3   4
ATOM      4  C   UNL A   1      31.622  27.948  26.867  1.00  0.00     0.365 C 
ATOM      5  O   UNL A   1      30.823  27.082  27.202  1.00  0.00    -0.245 OA
BRANCH   4   6
ATOM      6  C   UNL A   1      32.623  27.834  25.698  1.00  0.00     0.296 C 
ATOM      7  N   UNL A   1      31.993  27.142  24.549  1.00  0.00    -0.318 N 
ATOM      8  C   UNL A   1      32.551  25.791  24.474  1.00  0.00     0.188 C 
ATOM      9  H   UNL A   1      30.994  27.052  24.731  1.00  0.00     0.349 HD
ATOM     10  C   UNL A   1      33.865  26.997  26.050  1.00  0.00     0.087 C 
ATOM     11  C   UNL A   1      33.995  26.004  24.901  1.00  0.00     0.054 C 
ATOM     12  C   UNL A   1      31.781  24.847  25.425  1.00  0.00     0.065 C 
ATOM     13  C   UNL A   1      34.727  24.708  25.239  1.00  0.00     0.010 C 
ATOM     14  C   UNL A   1      32.528  23.538  25.660  1.00  0.00     0.006 C 
ATOM     15  C   UNL A   1      33.944  23.787  26.171  1.00  0.00     0.001 C 
BRANCH   7  16
ATOM     16  C   UNL A   1      31.658  27.898  23.316  1.00  0.00     0.184 C 
ATOM     17  C   UNL A   1      32.852  28.756  22.843  1.00  0.00     0.075 C 
BRANCH  16  18
ATOM     18  C   UNL A   1      30.302  28.704  23.293  1.00  0.00     0.041 C 
ATOM     19  C   UNL A   1      30.068  29.529  22.013  1.00  0.00     0.013 C 
ATOM     20  C   UNL A   1      29.072  27.789  23.398  1.00  0.00     0.013 C 
ENDBRANCH  16  18
ENDBRANCH   7  16
ENDBRANCH   4   6
ENDBRANCH   3   4
ENDBRANCH   2   3
ENDBRANCH   1   2
BRANCH   1  21
ATOM     21  O   UNL A   1      33.992  30.330  28.021  1.00  0.00    -0.458 OA
BRANCH  21  22
ATOM     22  C   UNL A   1      34.898  30.982  28.787  1.00  0.00     0.338 C 
ATOM     23  O   UNL A   1      34.717  31.999  29.434  1.00  0.00    -0.246 OA
BRANCH  22  24
ATOM     24  C   UNL A   1      36.190  30.270  28.748  1.00  0.00     0.060 A 
ATOM     25  C   UNL A   1      36.728  29.724  29.910  1.00  0.00     0.016 A 
ATOM     26  C   UNL A   1      36.936  30.267  27.569  1.00  0.00     0.016 A 
ATOM     27  C   UNL A   1      38.052  29.279  29.915  1.00  0.00     0.010 A 
ATOM     28  C   UNL A   1      38.230  29.725  27.562  1.00  0.00     0.010 A 
ATOM     29  C   UNL A   1      38.835  29.274  28.749  1.00  0.00    -0.014 A 
BRANCH  29  30
ATOM     30  C   UNL A   1      40.283  28.879  28.779  1.00  0.00     0.031 A 
ATOM     31  C   UNL A   1      41.341  29.865  29.229  1.00  0.00     0.074 A 
ATOM     32  C   UNL A   1      40.685  27.636  28.438  1.00  0.00     0.049 A 
ATOM     33  N   UNL A   1      42.641  29.815  29.073  1.00  0.00    -0.248 NA
ATOM     34  C   UNL A   1      40.876  31.077  29.925  1.00  0.00     0.031 C 
ATOM     35  C   UNL A   1      39.812  26.537  28.026  1.00  0.00     0.029 A 
ATOM     36  N   UNL A   1      41.945  27.082  28.399  1.00  0.00    -0.354 N 
ATOM     37  C   UNL A   1      43.134  31.026  29.548  1.00  0.00     0.074 A 
ATOM     38  C   UNL A   1      41.996  31.780  30.030  1.00  0.00     0.031 C 
ATOM     39  C   UNL A   1      40.546  25.429  27.854  1.00  0.00     0.029 A 
ATOM     40  C   UNL A   1      41.956  25.762  28.015  1.00  0.00     0.049 A 
ATOM     41  H   UNL A   1      42.761  27.584  28.627  1.00  0.00     0.167 HD
ATOM     42  C   UNL A   1      44.414  31.474  29.566  1.00  0.00     0.037 A 
ATOM     43  C   UNL A   1      42.974  24.918  27.755  1.00  0.00     0.037 A 
ATOM     44  C   UNL A   1      45.562  30.682  29.204  1.00  0.00     0.049 A 
ATOM     45  C   UNL A   1      44.389  25.414  27.820  1.00  0.00     0.074 A 
ATOM     46  C   UNL A   1      46.899  31.044  29.225  1.00  0.00     0.029 A 
ATOM     47  N   UNL A   1      45.516  29.359  28.795  1.00  0.00    -0.354 N 
ATOM     48  N   UNL A   1      44.827  26.607  28.140  1.00  0.00    -0.248 NA
ATOM     49  C   UNL A   1      45.444  24.462  27.444  1.00  0.00     0.031 C 
ATOM     50  C   UNL A   1      47.660  29.944  28.809  1.00  0.00     0.029 A 
ATOM     51  C   UNL A   1      46.799  28.890  28.559  1.00  0.00     0.049 A 
ATOM     52  H   UNL A   1      44.692  28.830  28.687  1.00  0.00     0.167 HD
ATOM     53  C   UNL A   1      46.207  26.558  27.978  1.00  0.00     0.074 A 
ATOM     54  C   UNL A   1      46.535  25.207  27.571  1.00  0.00     0.031 C 
ATOM     55  C   UNL A   1      47.116  27.551  28.133  1.00  0.00     0.037 A 
BRANCH  42  56
ATOM     56  C   UNL A   1      44.650  32.910  29.949  1.00  0.00     0.058 A 
ATOM     57  C   UNL A   1      44.942  33.304  31.262  1.00  0.00     0.135 A 
ATOM     58  C   UNL A   1      44.634  33.904  28.955  1.00  0.00     0.135 A 
ATOM     59  F   UNL A   1      44.956  32.398  32.252  1.00  0.00    -0.206 F 
ATOM     60  C   UNL A   1      45.188  34.637  31.582  1.00  0.00     0.059 A 
ATOM     61  C   UNL A   1      44.898  35.239  29.248  1.00  0.00     0.059 A 
ATOM     62  F   UNL A   1      44.363  33.581  27.680  1.00  0.00    -0.206 F 
ATOM     63  C   UNL A   1      45.162  35.598  30.568  1.00  0.00     0.060 A 
BRANCH  63  64
ATOM     64  S   UNL A   1      45.491  37.323  30.989  1.00  0.00     0.124 S 
ATOM     65  O   UNL A   1      44.142  37.824  31.237  1.00  0.00    -0.237 OA
ATOM     66  O   UNL A   1      46.347  37.203  32.166  1.00  0.00    -0.237 OA
ATOM     67  O   UNL A   1      46.145  37.845  29.794  1.00  0.00    -0.744 OA
ENDBRANCH  63  64
ENDBRANCH  42  56
BRANCH  43  68
ATOM     68  C   UNL A   1      42.673  23.527  27.327  1.00  0.00     0.058 A 
ATOM     69  C   UNL A   1      42.695  23.167  25.973  1.00  0.00     0.135 A 
ATOM     70  C   UNL A   1      42.424  22.519  28.272  1.00  0.00     0.135 A 
ATOM     71  F   UNL A   1      42.909  24.100  25.033  1.00  0.00    -0.206 F 
ATOM     72  C   UNL A   1      42.501  21.850  25.569  1.00  0.00     0.059 A 
ATOM     73  C   UNL A   1      42.255  21.192  27.896  1.00  0.00     0.059 A 
ATOM     74  F   UNL A   1      42.401  22.815  29.580  1.00  0.00    -0.206 F 
ATOM     75  C   UNL A   1      42.295  20.867  26.540  1.00  0.00     0.060 A 
BRANCH  75  76
ATOM     76  S   UNL A   1      42.164  19.139  26.030  1.00  0.00     0.124 S 
ATOM     77  O   UNL A   1      43.021  19.117  24.851  1.00  0.00    -0.237 OA
ATOM     78  O   UNL A   1      42.668  18.426  27.200  1.00  0.00    -0.237 OA
ATOM     79  O   UNL A   1      40.734  18.977  25.780  1.00  0.00    -0.744 OA
ENDBRANCH  75  76
ENDBRANCH  43  68
BRANCH  55  80
ATOM     80  C   UNL A   1      48.551  27.216  27.850  1.00  0.00     0.058 A 
ATOM     81  C   UNL A   1      49.381  26.679  28.847  1.00  0.00     0.135 A 
ATOM     82  C   UNL A   1      49.096  27.407  26.573  1.00  0.00     0.135 A 
ATOM     83  F   UNL A   1      48.907  26.483  30.088  1.00  0.00    -0.206 F 
ATOM     84  C   UNL A   1      50.712  26.365  28.591  1.00  0.00     0.059 A 
ATOM     85  C   UNL A   1      50.421  27.085  26.290  1.00  0.00     0.059 A 
ATOM     86  F   UNL A   1      48.341  27.912  25.584  1.00  0.00    -0.206 F 
ATOM     87  C   UNL A   1      51.224  26.576  27.311  1.00  0.00     0.060 A 
BRANCH  87  88
ATOM     88  S   UNL A   1      52.950  26.156  26.984  1.00  0.00     0.124 S 
ATOM     89  O   UNL A   1      52.824  24.818  26.416  1.00  0.00    -0.237 OA
ATOM     90  O   UNL A   1      53.360  27.204  26.053  1.00  0.00    -0.237 OA
ATOM     91  O   UNL A   1      53.570  26.223  28.304  1.00  0.00    -0.744 OA
ENDBRANCH  87  88
ENDBRANCH  55  80
ENDBRANCH  29  30
ENDBRANCH  22  24
ENDBRANCH  21  22
ENDBRANCH   1  21
TORSDOF 16
ENDMDL
MODEL 2
REMARK VINA RESULT:     -11.3      0.769      2.289
REMARK SMILES CC(C)[C@@H](C)[N@@H+]1[C@@H](C(=O)OCCOC(=O)c2ccc(-c3c4nc(c(-c5c(F)cc(S(=O)(=O)[O-])cc5F)c5ccc([nH]5)c(-c5c(F)cc(S(=O)(=O)[O-])cc5F)c5nc(c(-c6c(F)cc(S(=O)(=O)[O-])cc6F)c6ccc3[nH]6)C=C5)C=C4)cc2)C[C@H]2CCCC[C@H]21
REMARK SMILES IDX 12 1 11 2 10 3 8 4 9 5 7 6 6 7 88 8 82 10 83 11 87 12 84 13
REMARK SMILES IDX 86 14 85 15 4 16 5 17 2 18 1 19 3 20 13 21 14 22 15 23 16 24
REMARK SMILES IDX 17 25 81 26 18 27 80 28 19 29 20 30 21 31 74 32 22 33 79 34
REMARK SMILES IDX 73 35 75 36 23 37 78 38 72 39 71 40 24 42 58 43 37 44 57 45
REMARK SMILES IDX 38 46 41 47 56 48 76 49 39 50 40 51 55 53 77 54 42 55 25 56
REMARK SMILES IDX 26 57 35 58 27 59 28 60 34 61 36 62 29 63 30 64 31 65 32 66
REMARK SMILES IDX 33 67 59 68 60 69 69 70 61 71 62 72 68 73 70 74 63 75 64 76
REMARK SMILES IDX 65 77 66 78 67 79 43 80 44 81 53 82 45 83 46 84 52 85 54 86
REMARK SMILES IDX 47 87 48 88 49 89 50 90 51 91
REMARK H PARENT 6 9 75 41 41 52
REMARK Flexibility Score: inf
ROOT
ATOM      1  C   UNL A   1      33.015  30.853  26.940  1.00  0.00     0.275 C 
ENDROOT
BRANCH   1   2
ATOM      2  C   UNL A   1      32.591  29.816  25.906  1.00  0.00     0.274 C 
BRANCH   2   3
ATOM      3  O   UNL A   1      32.264  28.575  26.561  1.00  0.00    -0.458 OA
BRANCH   3   4
ATOM      4  C   UNL A   1      33.017  27.490  26.207  1.00  0.00     0.365 C 
ATOM      5  O   UNL A   1      34.239  27.503  26.122  1.00  0.00    -0.245 OA
BRANCH   4   6
ATOM      6  C   UNL A   1      32.121  26.249  26.004  1.00  0.00     0.296 C 
ATOM      7  N   UNL A   1      32.463  25.574  24.730  1.00  0.00    -0.318 N 
ATOM      8  C   UNL A   1      31.396  25.858  23.768  1.00  0.00     0.188 C 
ATOM      9  H   UNL A   1      33.322  25.984  24.364  1.00  0.00     0.349 HD
ATOM     10  C   UNL A   1      30.627  26.600  25.895  1.00  0.00     0.087 C 
ATOM     11  C   UNL A   1      30.153  25.868  24.645  1.00  0.00     0.054 C 
ATOM     12  C   UNL A   1      31.651  27.219  23.080  1.00  0.00     0.065 C 
ATOM     13  C   UNL A   1      28.930  26.473  23.960  1.00  0.00     0.010 C 
ATOM     14  C   UNL A   1      30.414  27.730  22.349  1.00  0.00     0.006 C 
ATOM     15  C   UNL A   1      29.208  27.810  23.279  1.00  0.00     0.001 C 
BRANCH   7  16
ATOM     16  C   UNL A   1      33.145  24.257  24.744  1.00  0.00     0.184 C 
ATOM     17  C   UNL A   1      32.903  23.515  26.076  1.00  0.00     0.075 C 
BRANCH  16  18
ATOM     18  C   UNL A   1      34.660  24.208  24.304  1.00  0.00     0.041 C 
ATOM     19  C   UNL A   1      35.667  24.216  25.470  1.00  0.00     0.013 C 
ATOM     20  C   UNL A   1      34.999  22.939  23.505  1.00  0.00     0.013 C 
ENDBRANCH  16  18
ENDBRANCH   7  16
ENDBRANCH   4   6
ENDBRANCH   3   4
ENDBRANCH   2   3
ENDBRANCH   1   2
BRANCH   1  21
ATOM     21  O   UNL A   1      33.726  30.196  28.003  1.00  0.00    -0.458 OA
BRANCH  21  22
ATOM     22  C   UNL A   1      34.643  30.946  28.656  1.00  0.00     0.338 C 
ATOM     23  O   UNL A   1      34.465  32.030  29.185  1.00  0.00    -0.246 OA
BRANCH  22  24
ATOM     24  C   UNL A   1      35.945  30.252  28.660  1.00  0.00     0.060 A 
ATOM     25  C   UNL A   1      36.473  29.750  29.846  1.00  0.00     0.016 A 
ATOM     26  C   UNL A   1      36.710  30.223  27.493  1.00  0.00     0.016 A 
ATOM     27  C   UNL A   1      37.803  29.324  29.885  1.00  0.00     0.010 A 
ATOM     28  C   UNL A   1      38.011  29.700  27.522  1.00  0.00     0.010 A 
ATOM     29  C   UNL A   1      38.603  29.294  28.731  1.00  0.00    -0.014 A 
BRANCH  29  30
ATOM     30  C   UNL A   1      40.056  28.921  28.796  1.00  0.00     0.031 A 
ATOM     31  C   UNL A   1      41.087  29.921  29.276  1.00  0.00     0.074 A 
ATOM     32  C   UNL A   1      40.486  27.686  28.460  1.00  0.00     0.049 A 
ATOM     33  N   UNL A   1      42.392  29.891  29.152  1.00  0.00    -0.248 NA
ATOM     34  C   UNL A   1      40.588  31.122  29.966  1.00  0.00     0.031 C 
ATOM     35  C   UNL A   1      39.640  26.576  28.022  1.00  0.00     0.029 A 
ATOM     36  N   UNL A   1      41.755  27.151  28.450  1.00  0.00    -0.354 N 
ATOM     37  C   UNL A   1      42.854  31.108  29.644  1.00  0.00     0.074 A 
ATOM     38  C   UNL A   1      41.694  31.842  30.101  1.00  0.00     0.031 C 
ATOM     39  C   UNL A   1      40.395  25.480  27.863  1.00  0.00     0.029 A 
ATOM     40  C   UNL A   1      41.796  25.834  28.060  1.00  0.00     0.049 A 
ATOM     41  H   UNL A   1      42.557  27.665  28.700  1.00  0.00     0.167 HD
ATOM     42  C   UNL A   1      44.126  31.575  29.696  1.00  0.00     0.037 A 
ATOM     43  C   UNL A   1      42.833  25.006  27.822  1.00  0.00     0.037 A 
ATOM     44  C   UNL A   1      45.295  30.802  29.359  1.00  0.00     0.049 A 
ATOM     45  C   UNL A   1      44.238  25.523  27.925  1.00  0.00     0.074 A 
ATOM     46  C   UNL A   1      46.626  31.184  29.414  1.00  0.00     0.029 A 
ATOM     47  N   UNL A   1      45.279  29.480  28.943  1.00  0.00    -0.354 N 
ATOM     48  N   UNL A   1      44.650  26.722  28.260  1.00  0.00    -0.248 NA
ATOM     49  C   UNL A   1      45.316  24.589  27.571  1.00  0.00     0.031 C 
ATOM     50  C   UNL A   1      47.414  30.098  29.013  1.00  0.00     0.029 A 
ATOM     51  C   UNL A   1      46.575  29.032  28.737  1.00  0.00     0.049 A 
ATOM     52  H   UNL A   1      44.467  28.939  28.813  1.00  0.00     0.167 HD
ATOM     53  C   UNL A   1      46.033  26.694  28.132  1.00  0.00     0.074 A 
ATOM     54  C   UNL A   1      46.392  25.350  27.728  1.00  0.00     0.031 C 
ATOM     55  C   UNL A   1      46.923  27.700  28.314  1.00  0.00     0.037 A 
BRANCH  42  56
ATOM     56  C   UNL A   1      44.332  33.013  30.090  1.00  0.00     0.058 A 
ATOM     57  C   UNL A   1      44.610  33.402  31.408  1.00  0.00     0.135 A 
ATOM     58  C   UNL A   1      44.298  34.014  29.104  1.00  0.00     0.135 A 
ATOM     59  F   UNL A   1      44.640  32.489  32.390  1.00  0.00    -0.206 F 
ATOM     60  C   UNL A   1      44.827  34.738  31.739  1.00  0.00     0.059 A 
ATOM     61  C   UNL A   1      44.533  35.351  29.408  1.00  0.00     0.059 A 
ATOM     62  F   UNL A   1      44.039  33.694  27.825  1.00  0.00    -0.206 F 
ATOM     63  C   UNL A   1      44.784  35.706  30.731  1.00  0.00     0.060 A 
BRANCH  63  64
ATOM     64  S   UNL A   1      45.076  37.434  31.167  1.00  0.00     0.124 S 
ATOM     65  O   UNL A   1      45.365  37.329  32.594  1.00  0.00    -0.237 OA
ATOM     66  O   UNL A   1      46.209  37.788  30.317  1.00  0.00    -0.237 OA
ATOM     67  O   UNL A   1      43.815  38.086  30.827  1.00  0.00    -0.744 OA
ENDBRANCH  63  64
ENDBRANCH  42  56
BRANCH  43  68
ATOM     68  C   UNL A   1      42.563  23.612  27.381  1.00  0.00     0.058 A 
ATOM     69  C   UNL A   1      42.556  23.274  26.021  1.00  0.00     0.135 A 
ATOM     70  C   UNL A   1      42.375  22.583  28.317  1.00  0.00     0.135 A 
ATOM     71  F   UNL A   1      42.711  24.227  25.091  1.00  0.00    -0.206 F 
ATOM     72  C   UNL A   1      42.392  21.957  25.602  1.00  0.00     0.059 A 
ATOM     73  C   UNL A   1      42.238  21.257  27.925  1.00  0.00     0.059 A 
ATOM     74  F   UNL A   1      42.382  22.859  29.630  1.00  0.00    -0.206 F 
ATOM     75  C   UNL A   1      42.247  20.954  26.564  1.00  0.00     0.060 A 
BRANCH  75  76
ATOM     76  S   UNL A   1      42.156  19.231  26.030  1.00  0.00     0.124 S 
ATOM     77  O   UNL A   1      40.727  19.073  25.790  1.00  0.00    -0.237 OA
ATOM     78  O   UNL A   1      43.009  19.222  24.845  1.00  0.00    -0.237 OA
ATOM     79  O   UNL A   1      42.691  18.502  27.178  1.00  0.00    -0.744 OA
ENDBRANCH  75  76
ENDBRANCH  43  68
BRANCH  55  80
ATOM     80  C   UNL A   1      48.370  27.388  28.065  1.00  0.00     0.058 A 
ATOM     81  C   UNL A   1      49.193  26.897  29.091  1.00  0.00     0.135 A 
ATOM     82  C   UNL A   1      48.933  27.556  26.792  1.00  0.00     0.135 A 
ATOM     83  F   UNL A   1      48.701  26.725  30.328  1.00  0.00    -0.206 F 
ATOM     84  C   UNL A   1      50.534  26.604  28.867  1.00  0.00     0.059 A 
ATOM     85  C   UNL A   1      50.269  27.254  26.542  1.00  0.00     0.059 A 
ATOM     86  F   UNL A   1      48.185  28.016  25.777  1.00  0.00    -0.206 F 
ATOM     87  C   UNL A   1      51.064  26.791  27.590  1.00  0.00     0.060 A 
BRANCH  87  88
ATOM     88  S   UNL A   1      52.804  26.399  27.305  1.00  0.00     0.124 S 
ATOM     89  O   UNL A   1      53.300  26.255  28.670  1.00  0.00    -0.237 OA
ATOM     90  O   UNL A   1      52.728  25.168  26.525  1.00  0.00    -0.237 OA
ATOM     91  O   UNL A   1      53.298  27.564  26.577  1.00  0.00    -0.744 OA
ENDBRANCH  87  88
ENDBRANCH  55  80
ENDBRANCH  29  30
ENDBRANCH  22  24
ENDBRANCH  21  22
ENDBRANCH   1  21
TORSDOF 16
ENDMDL
MODEL 3
REMARK VINA RESULT:     -11.1      1.154      2.550
REMARK SMILES CC(C)[C@@H](C)[N@@H+]1[C@@H](C(=O)OCCOC(=O)c2ccc(-c3c4nc(c(-c5c(F)cc(S(=O)(=O)[O-])cc5F)c5ccc([nH]5)c(-c5c(F)cc(S(=O)(=O)[O-])cc5F)c5nc(c(-c6c(F)cc(S(=O)(=O)[O-])cc6F)c6ccc3[nH]6)C=C5)C=C4)cc2)C[C@H]2CCCC[C@H]21
REMARK SMILES IDX 12 1 11 2 10 3 8 4 9 5 7 6 6 7 88 8 82 10 83 11 87 12 84 13
REMARK SMILES IDX 86 14 85 15 4 16 5 17 2 18 1 19 3 20 13 21 14 22 15 23 16 24
REMARK SMILES IDX 17 25 81 26 18 27 80 28 19 29 20 30 21 31 74 32 22 33 79 34
REMARK SMILES IDX 73 35 75 36 23 37 78 38 72 39 71 40 24 42 58 43 37 44 57 45
REMARK SMILES IDX 38 46 41 47 56 48 76 49 39 50 40 51 55 53 77 54 42 55 25 56
REMARK SMILES IDX 26 57 35 58 27 59 28 60 34 61 36 62 29 63 30 64 31 65 32 66
REMARK SMILES IDX 33 67 59 68 60 69 69 70 61 71 62 72 68 73 70 74 63 75 64 76
REMARK SMILES IDX 65 77 66 78 67 79 43 80 44 81 53 82 45 83 46 84 52 85 54 86
REMARK SMILES IDX 47 87 48 88 49 89 50 90 51 91
REMARK H PARENT 6 9 75 41 41 52
REMARK Flexibility Score: inf
ROOT
ATOM      1  C   UNL A   1      33.901  30.834  27.247  1.00  0.00     0.275 C 
ENDROOT
BRANCH   1   2
ATOM      2  C   UNL A   1      32.619  30.131  26.818  1.00  0.00     0.274 C 
BRANCH   2   3
ATOM      3  O   UNL A   1      32.849  28.713  26.711  1.00  0.00    -0.458 OA
BRANCH   3   4
ATOM      4  C   UNL A   1      31.822  27.902  27.109  1.00  0.00     0.365 C 
ATOM      5  O   UNL A   1      31.056  28.170  28.027  1.00  0.00    -0.245 OA
BRANCH   4   6
ATOM      6  C   UNL A   1      31.727  26.658  26.201  1.00  0.00     0.296 C 
ATOM      7  N   UNL A   1      32.463  26.890  24.935  1.00  0.00    -0.318 N 
ATOM      8  C   UNL A   1      31.477  27.098  23.872  1.00  0.00     0.188 C 
ATOM      9  H   UNL A   1      33.002  27.750  25.026  1.00  0.00     0.349 HD
ATOM     10  C   UNL A   1      30.283  26.329  25.782  1.00  0.00     0.087 C 
ATOM     11  C   UNL A   1      30.355  26.152  24.270  1.00  0.00     0.054 C 
ATOM     12  C   UNL A   1      31.030  28.578  23.848  1.00  0.00     0.065 C 
ATOM     13  C   UNL A   1      29.050  26.408  23.521  1.00  0.00     0.010 C 
ATOM     14  C   UNL A   1      29.765  28.778  23.019  1.00  0.00     0.006 C 
ATOM     15  C   UNL A   1      28.633  27.876  23.501  1.00  0.00     0.001 C 
BRANCH   7  16
ATOM     16  C   UNL A   1      33.732  26.169  24.668  1.00  0.00     0.184 C 
ATOM     17  C   UNL A   1      33.913  25.896  23.158  1.00  0.00     0.075 C 
BRANCH  16  18
ATOM     18  C   UNL A   1      34.054  24.897  25.544  1.00  0.00     0.041 C 
ATOM     19  C   UNL A   1      33.201  23.657  25.213  1.00  0.00     0.013 C 
ATOM     20  C   UNL A   1      35.508  24.424  25.381  1.00  0.00     0.013 C 
ENDBRANCH  16  18
ENDBRANCH   7  16
ENDBRANCH   4   6
ENDBRANCH   3   4
ENDBRANCH   2   3
ENDBRANCH   1   2
BRANCH   1  21
ATOM     21  O   UNL A   1      34.529  30.074  28.293  1.00  0.00    -0.458 OA
BRANCH  21  22
ATOM     22  C   UNL A   1      35.514  30.702  28.975  1.00  0.00     0.338 C 
ATOM     23  O   UNL A   1      35.411  31.708  29.655  1.00  0.00    -0.246 OA
BRANCH  22  24
ATOM     24  C   UNL A   1      36.788  29.979  28.793  1.00  0.00     0.060 A 
ATOM     25  C   UNL A   1      37.454  29.440  29.890  1.00  0.00     0.016 A 
ATOM     26  C   UNL A   1      37.391  29.958  27.536  1.00  0.00     0.016 A 
ATOM     27  C   UNL A   1      38.766  28.984  29.746  1.00  0.00     0.010 A 
ATOM     28  C   UNL A   1      38.671  29.405  27.383  1.00  0.00     0.010 A 
ATOM     29  C   UNL A   1      39.407  28.960  28.496  1.00  0.00    -0.014 A 
BRANCH  29  30
ATOM     30  C   UNL A   1      40.846  28.553  28.361  1.00  0.00     0.031 A 
ATOM     31  C   UNL A   1      41.955  29.558  28.590  1.00  0.00     0.074 A 
ATOM     32  C   UNL A   1      41.198  27.284  28.064  1.00  0.00     0.049 A 
ATOM     33  N   UNL A   1      43.222  29.482  28.265  1.00  0.00    -0.248 NA
ATOM     34  C   UNL A   1      41.590  30.823  29.249  1.00  0.00     0.031 C 
ATOM     35  C   UNL A   1      40.276  26.167  27.856  1.00  0.00     0.029 A 
ATOM     36  N   UNL A   1      42.440  26.715  27.898  1.00  0.00    -0.354 N 
ATOM     37  C   UNL A   1      43.776  30.720  28.577  1.00  0.00     0.074 A 
ATOM     38  C   UNL A   1      42.714  31.520  29.150  1.00  0.00     0.031 C 
ATOM     39  C   UNL A   1      40.979  25.041  27.671  1.00  0.00     0.029 A 
ATOM     40  C   UNL A   1      42.399  25.370  27.616  1.00  0.00     0.049 A 
ATOM     41  H   UNL A   1      43.280  27.223  27.975  1.00  0.00     0.167 HD
ATOM     42  C   UNL A   1      45.047  31.154  28.390  1.00  0.00     0.037 A 
ATOM     43  C   UNL A   1      43.372  24.497  27.285  1.00  0.00     0.037 A 
ATOM     44  C   UNL A   1      46.135  30.325  27.937  1.00  0.00     0.049 A 
ATOM     45  C   UNL A   1      44.783  24.982  27.123  1.00  0.00     0.074 A 
ATOM     46  C   UNL A   1      47.464  30.672  27.751  1.00  0.00     0.029 A 
ATOM     47  N   UNL A   1      46.033  28.975  27.638  1.00  0.00    -0.354 N 
ATOM     48  N   UNL A   1      45.261  26.191  27.291  1.00  0.00    -0.248 NA
ATOM     49  C   UNL A   1      45.777  23.993  26.681  1.00  0.00     0.031 C 
ATOM     50  C   UNL A   1      48.161  29.537  27.320  1.00  0.00     0.029 A 
ATOM     51  C   UNL A   1      47.272  28.476  27.268  1.00  0.00     0.049 A 
ATOM     52  H   UNL A   1      45.202  28.449  27.682  1.00  0.00     0.167 HD
ATOM     53  C   UNL A   1      46.606  26.114  26.949  1.00  0.00     0.074 A 
ATOM     54  C   UNL A   1      46.875  24.733  26.604  1.00  0.00     0.031 C 
ATOM     55  C   UNL A   1      47.528  27.106  26.906  1.00  0.00     0.037 A 
BRANCH  42  56
ATOM     56  C   UNL A   1      45.334  32.612  28.628  1.00  0.00     0.058 A 
ATOM     57  C   UNL A   1      45.199  33.582  27.625  1.00  0.00     0.135 A 
ATOM     58  C   UNL A   1      45.703  33.045  29.913  1.00  0.00     0.135 A 
ATOM     59  F   UNL A   1      44.863  33.222  26.377  1.00  0.00    -0.206 F 
ATOM     60  C   UNL A   1      45.441  34.930  27.882  1.00  0.00     0.059 A 
ATOM     61  C   UNL A   1      45.929  34.388  30.198  1.00  0.00     0.059 A 
ATOM     62  F   UNL A   1      45.844  32.157  30.911  1.00  0.00    -0.206 F 
ATOM     63  C   UNL A   1      45.808  35.322  29.172  1.00  0.00     0.060 A 
BRANCH  63  64
ATOM     64  S   UNL A   1      46.111  37.073  29.499  1.00  0.00     0.124 S 
ATOM     65  O   UNL A   1      45.087  37.704  28.671  1.00  0.00    -0.237 OA
ATOM     66  O   UNL A   1      45.904  37.165  30.941  1.00  0.00    -0.237 OA
ATOM     67  O   UNL A   1      47.487  37.267  29.054  1.00  0.00    -0.744 OA
ENDBRANCH  63  64
ENDBRANCH  42  56
BRANCH  43  68
ATOM     68  C   UNL A   1      43.015  23.081  27.008  1.00  0.00     0.058 A 
ATOM     69  C   UNL A   1      42.954  22.596  25.694  1.00  0.00     0.135 A 
ATOM     70  C   UNL A   1      42.794  22.174  28.056  1.00  0.00     0.135 A 
ATOM     71  F   UNL A   1      43.138  23.431  24.661  1.00  0.00    -0.206 F 
ATOM     72  C   UNL A   1      42.707  21.253  25.428  1.00  0.00     0.059 A 
ATOM     73  C   UNL A   1      42.573  20.824  27.816  1.00  0.00     0.059 A 
ATOM     74  F   UNL A   1      42.849  22.592  29.329  1.00  0.00    -0.206 F 
ATOM     75  C   UNL A   1      42.531  20.372  26.497  1.00  0.00     0.060 A 
BRANCH  75  76
ATOM     76  S   UNL A   1      42.331  18.609  26.161  1.00  0.00     0.124 S 
ATOM     77  O   UNL A   1      42.656  18.025  27.457  1.00  0.00    -0.237 OA
ATOM     78  O   UNL A   1      40.932  18.522  25.753  1.00  0.00    -0.237 OA
ATOM     79  O   UNL A   1      43.299  18.366  25.094  1.00  0.00    -0.744 OA
ENDBRANCH  75  76
ENDBRANCH  43  68
BRANCH  55  80
ATOM     80  C   UNL A   1      48.912  26.735  26.458  1.00  0.00     0.058 A 
ATOM     81  C   UNL A   1      49.867  26.259  27.371  1.00  0.00     0.135 A 
ATOM     82  C   UNL A   1      49.283  26.831  25.109  1.00  0.00     0.135 A 
ATOM     83  F   UNL A   1      49.562  26.155  28.674  1.00  0.00    -0.206 F 
ATOM     84  C   UNL A   1      51.150  25.912  26.964  1.00  0.00     0.059 A 
ATOM     85  C   UNL A   1      50.557  26.475  24.676  1.00  0.00     0.059 A 
ATOM     86  F   UNL A   1      48.403  27.275  24.197  1.00  0.00    -0.206 F 
ATOM     87  C   UNL A   1      51.488  26.028  25.614  1.00  0.00     0.060 A 
BRANCH  87  88
ATOM     88  S   UNL A   1      53.153  25.567  25.091  1.00  0.00     0.124 S 
ATOM     89  O   UNL A   1      53.976  26.386  25.976  1.00  0.00    -0.237 OA
ATOM     90  O   UNL A   1      53.180  24.130  25.351  1.00  0.00    -0.237 OA
ATOM     91  O   UNL A   1      53.181  25.941  23.681  1.00  0.00    -0.744 OA
ENDBRANCH  87  88
ENDBRANCH  55  80
ENDBRANCH  29  30
ENDBRANCH  22  24
ENDBRANCH  21  22
ENDBRANCH   1  21
TORSDOF 16
ENDMDL
