MODEL 1
REMARK VINA RESULT:     -11.7      0.000      0.000
REMARK SMILES [NH3+][C@H](CS[C@@H]1CC(=O)N(c2ccc3ccccc3c2)C1=O)C(=O)OCCOC(=O)c1ccc(-c2c3nc(c(-c4c(F)cc(S(=O)(=O)[O-])cc4F)c4ccc([nH]4)c(-c4c(F)cc(S(=O)(=O)[O-])cc4F)c4nc(c(-c5c(F)cc(S(=O)(=O)[O-])cc5F)c5ccc2[nH]5)C=C4)C=C3)cc1
REMARK SMILES IDX 25 1 24 2 22 3 23 4 2 5 1 6 3 10 4 11 5 12 6 13 20 14 7 15
REMARK SMILES IDX 9 16 21 17 8 18 10 19 11 20 19 21 12 22 18 23 13 24 17 25
REMARK SMILES IDX 14 26 16 27 15 28 26 29 27 30 28 31 29 32 30 33 31 34 95 35
REMARK SMILES IDX 32 36 94 37 33 38 34 39 35 40 88 41 36 42 93 43 87 44 89 45
REMARK SMILES IDX 37 46 92 47 86 48 85 49 38 51 72 52 51 53 71 54 52 55 55 56
REMARK SMILES IDX 70 57 90 58 53 59 54 60 69 62 91 63 56 64 39 65 40 66 49 67
REMARK SMILES IDX 41 68 42 69 48 70 50 71 43 72 44 73 45 74 46 75 47 76 73 77
REMARK SMILES IDX 74 78 83 79 75 80 76 81 82 82 84 83 77 84 78 85 79 86 80 87
REMARK SMILES IDX 81 88 57 89 58 90 67 91 59 92 60 93 66 94 68 95 61 96 62 97
REMARK SMILES IDX 63 98 64 99 65 100
REMARK H PARENT 1 7 1 8 1 9 89 50 55 61
REMARK Flexibility Score: inf
ROOT
ATOM      1  C   UNL A   1      31.792  29.300  26.219  1.00  0.00     0.274 C 
ENDROOT
BRANCH   1   2
ATOM      2  O   UNL A   1      31.999  29.657  24.828  1.00  0.00    -0.458 OA
BRANCH   2   3
ATOM      3  C   UNL A   1      32.573  28.689  24.058  1.00  0.00     0.365 C 
ATOM      4  O   UNL A   1      33.563  28.049  24.414  1.00  0.00    -0.245 OA
BRANCH   3   5
ATOM      5  C   UNL A   1      31.876  28.415  22.699  1.00  0.00     0.301 C 
BRANCH   5   6
ATOM      6  N   UNL A   1      31.504  29.704  22.065  1.00  0.00    -0.345 N 
ATOM      7  H   UNL A   1      30.684  29.567  21.472  1.00  0.00     0.345 HD
ATOM      8  H   UNL A   1      32.281  30.042  21.498  1.00  0.00     0.345 HD
ATOM      9  H   UNL A   1      31.287  30.390  22.789  1.00  0.00     0.345 HD
ENDBRANCH   5   6
BRANCH   5  10
ATOM     10  C   UNL A   1      30.789  27.326  22.493  1.00  0.00     0.147 C 
BRANCH  10  11
ATOM     11  S   UNL A   1      29.669  26.755  23.855  1.00  0.00    -0.141 SA
BRANCH  11  12
ATOM     12  C   UNL A   1      30.518  25.306  24.585  1.00  0.00     0.146 C 
ATOM     13  C   UNL A   1      30.977  25.455  25.994  1.00  0.00     0.125 C 
ATOM     14  C   UNL A   1      31.815  24.823  23.945  1.00  0.00     0.247 C 
ATOM     15  C   UNL A   1      31.919  24.337  26.173  1.00  0.00     0.235 C 
ATOM     16  N   UNL A   1      32.522  24.155  24.950  1.00  0.00    -0.250 N 
ATOM     17  O   UNL A   1      32.092  24.910  22.758  1.00  0.00    -0.273 OA
ATOM     18  O   UNL A   1      32.131  23.840  27.266  1.00  0.00    -0.274 OA
BRANCH  16  19
ATOM     19  C   UNL A   1      33.779  23.502  24.842  1.00  0.00     0.052 A 
ATOM     20  C   UNL A   1      33.849  22.150  24.465  1.00  0.00     0.027 A 
ATOM     21  C   UNL A   1      34.955  24.133  25.256  1.00  0.00     0.035 A 
ATOM     22  C   UNL A   1      35.031  21.420  24.576  1.00  0.00     0.011 A 
ATOM     23  C   UNL A   1      36.148  23.402  25.409  1.00  0.00    -0.016 A 
ATOM     24  C   UNL A   1      36.181  22.028  25.077  1.00  0.00    -0.018 A 
ATOM     25  C   UNL A   1      37.302  23.995  25.943  1.00  0.00     0.009 A 
ATOM     26  C   UNL A   1      37.350  21.284  25.285  1.00  0.00     0.009 A 
ATOM     27  C   UNL A   1      38.456  23.240  26.158  1.00  0.00     0.001 A 
ATOM     28  C   UNL A   1      38.481  21.887  25.830  1.00  0.00     0.001 A 
ENDBRANCH  16  19
ENDBRANCH  11  12
ENDBRANCH  10  11
ENDBRANCH   5  10
ENDBRANCH   3   5
ENDBRANCH   2   3
ENDBRANCH   1   2
BRANCH   1  29
ATOM     29  C   UNL A   1      32.552  30.195  27.224  1.00  0.00     0.275 C 
BRANCH  29  30
ATOM     30  O   UNL A   1      33.943  29.896  27.498  1.00  0.00    -0.458 OA
BRANCH  30  31
ATOM     31  C   UNL A   1      34.655  30.723  28.277  1.00  0.00     0.338 C 
ATOM     32  O   UNL A   1      34.315  31.799  28.752  1.00  0.00    -0.246 OA
BRANCH  31  33
ATOM     33  C   UNL A   1      36.007  30.286  28.578  1.00  0.00     0.060 A 
ATOM     34  C   UNL A   1      36.868  30.188  27.474  1.00  0.00     0.016 A 
ATOM     35  C   UNL A   1      36.376  29.820  29.839  1.00  0.00     0.016 A 
ATOM     36  C   UNL A   1      38.130  29.653  27.633  1.00  0.00     0.010 A 
ATOM     37  C   UNL A   1      37.660  29.316  30.006  1.00  0.00     0.010 A 
ATOM     38  C   UNL A   1      38.542  29.263  28.911  1.00  0.00    -0.014 A 
BRANCH  38  39
ATOM     39  C   UNL A   1      39.969  29.000  29.137  1.00  0.00     0.031 A 
ATOM     40  C   UNL A   1      40.891  30.087  29.567  1.00  0.00     0.074 A 
ATOM     41  C   UNL A   1      40.387  27.747  28.884  1.00  0.00     0.049 A 
ATOM     42  N   UNL A   1      42.189  30.055  29.685  1.00  0.00    -0.248 NA
ATOM     43  C   UNL A   1      40.280  31.382  29.902  1.00  0.00     0.031 C 
ATOM     44  C   UNL A   1      39.512  26.641  28.473  1.00  0.00     0.029 A 
ATOM     45  N   UNL A   1      41.635  27.193  28.905  1.00  0.00    -0.354 N 
ATOM     46  C   UNL A   1      42.562  31.330  30.086  1.00  0.00     0.074 A 
ATOM     47  C   UNL A   1      41.349  32.114  30.188  1.00  0.00     0.031 C 
ATOM     48  C   UNL A   1      40.254  25.548  28.258  1.00  0.00     0.029 A 
ATOM     49  C   UNL A   1      41.653  25.894  28.461  1.00  0.00     0.049 A 
ATOM     50  H   UNL A   1      42.438  27.676  29.208  1.00  0.00     0.167 HD
ATOM     51  C   UNL A   1      43.814  31.785  30.327  1.00  0.00     0.037 A 
ATOM     52  C   UNL A   1      42.694  25.086  28.197  1.00  0.00     0.037 A 
ATOM     53  C   UNL A   1      44.990  30.963  30.184  1.00  0.00     0.049 A 
ATOM     54  C   UNL A   1      44.069  25.619  28.450  1.00  0.00     0.074 A 
ATOM     55  C   UNL A   1      46.313  31.296  30.408  1.00  0.00     0.029 A 
ATOM     56  N   UNL A   1      44.977  29.636  29.765  1.00  0.00    -0.354 N 
ATOM     57  N   UNL A   1      44.415  26.821  28.848  1.00  0.00    -0.248 NA
ATOM     58  C   UNL A   1      45.188  24.701  28.232  1.00  0.00     0.031 C 
ATOM     59  C   UNL A   1      47.100  30.184  30.085  1.00  0.00     0.029 A 
ATOM     60  C   UNL A   1      46.268  29.140  29.705  1.00  0.00     0.049 A 
ATOM     61  H   UNL A   1      44.166  29.123  29.542  1.00  0.00     0.167 HD
ATOM     62  C   UNL A   1      45.797  26.803  28.949  1.00  0.00     0.074 A 
ATOM     63  C   UNL A   1      46.219  25.466  28.572  1.00  0.00     0.031 C 
ATOM     64  C   UNL A   1      46.640  27.797  29.323  1.00  0.00     0.037 A 
BRANCH  51  65
ATOM     65  C   UNL A   1      43.963  33.233  30.706  1.00  0.00     0.058 A 
ATOM     66  C   UNL A   1      43.992  33.653  32.047  1.00  0.00     0.135 A 
ATOM     67  C   UNL A   1      44.059  34.223  29.715  1.00  0.00     0.135 A 
ATOM     68  F   UNL A   1      43.889  32.754  33.039  1.00  0.00    -0.206 F 
ATOM     69  C   UNL A   1      44.066  35.001  32.389  1.00  0.00     0.059 A 
ATOM     70  C   UNL A   1      44.158  35.575  30.033  1.00  0.00     0.059 A 
ATOM     71  F   UNL A   1      44.035  33.882  28.417  1.00  0.00    -0.206 F 
ATOM     72  C   UNL A   1      44.137  35.956  31.373  1.00  0.00     0.060 A 
BRANCH  72  73
ATOM     73  S   UNL A   1      44.187  37.704  31.826  1.00  0.00     0.124 S 
ATOM     74  O   UNL A   1      43.671  38.333  30.615  1.00  0.00    -0.237 OA
ATOM     75  O   UNL A   1      43.308  37.753  32.989  1.00  0.00    -0.237 OA
ATOM     76  O   UNL A   1      45.601  37.942  32.103  1.00  0.00    -0.744 OA
ENDBRANCH  72  73
ENDBRANCH  51  65
BRANCH  52  77
ATOM     77  C   UNL A   1      42.429  23.726  27.667  1.00  0.00     0.058 A 
ATOM     78  C   UNL A   1      42.333  23.495  26.289  1.00  0.00     0.135 A 
ATOM     79  C   UNL A   1      42.412  22.611  28.522  1.00  0.00     0.135 A 
ATOM     80  F   UNL A   1      42.354  24.528  25.434  1.00  0.00    -0.206 F 
ATOM     81  C   UNL A   1      42.242  22.206  25.774  1.00  0.00     0.059 A 
ATOM     82  C   UNL A   1      42.343  21.312  28.031  1.00  0.00     0.059 A 
ATOM     83  F   UNL A   1      42.535  22.780  29.849  1.00  0.00    -0.206 F 
ATOM     84  C   UNL A   1      42.260  21.120  26.652  1.00  0.00     0.060 A 
BRANCH  84  85
ATOM     85  S   UNL A   1      42.251  19.449  25.965  1.00  0.00     0.124 S 
ATOM     86  O   UNL A   1      43.166  19.590  24.839  1.00  0.00    -0.237 OA
ATOM     87  O   UNL A   1      42.738  18.653  27.088  1.00  0.00    -0.237 OA
ATOM     88  O   UNL A   1      40.849  19.235  25.618  1.00  0.00    -0.744 OA
ENDBRANCH  84  85
ENDBRANCH  52  77
BRANCH  64  89
ATOM     89  C   UNL A   1      48.099  27.454  29.373  1.00  0.00     0.058 A 
ATOM     90  C   UNL A   1      48.954  27.731  28.297  1.00  0.00     0.135 A 
ATOM     91  C   UNL A   1      48.651  26.899  30.537  1.00  0.00     0.135 A 
ATOM     92  F   UNL A   1      48.465  28.250  27.160  1.00  0.00    -0.206 F 
ATOM     93  C   UNL A   1      50.314  27.460  28.371  1.00  0.00     0.059 A 
ATOM     94  C   UNL A   1      50.011  26.640  30.640  1.00  0.00     0.059 A 
ATOM     95  F   UNL A   1      47.868  26.621  31.592  1.00  0.00    -0.206 F 
ATOM     96  C   UNL A   1      50.834  26.918  29.550  1.00  0.00     0.060 A 
BRANCH  96  97
ATOM     97  S   UNL A   1      52.611  26.624  29.656  1.00  0.00     0.124 S 
ATOM     98  O   UNL A   1      52.699  25.799  30.855  1.00  0.00    -0.237 OA
ATOM     99  O   UNL A   1      52.892  25.944  28.395  1.00  0.00    -0.237 OA
ATOM    100  O   UNL A   1      53.170  27.967  29.773  1.00  0.00    -0.744 OA
ENDBRANCH  96  97
ENDBRANCH  64  89
ENDBRANCH  38  39
ENDBRANCH  31  33
ENDBRANCH  30  31
ENDBRANCH  29  30
ENDBRANCH   1  29
TORSDOF 19
ENDMDL
MODEL 2
REMARK VINA RESULT:     -11.6      2.416      3.379
REMARK SMILES [NH3+][C@H](CS[C@@H]1CC(=O)N(c2ccc3ccccc3c2)C1=O)C(=O)OCCOC(=O)c1ccc(-c2c3nc(c(-c4c(F)cc(S(=O)(=O)[O-])cc4F)c4ccc([nH]4)c(-c4c(F)cc(S(=O)(=O)[O-])cc4F)c4nc(c(-c5c(F)cc(S(=O)(=O)[O-])cc5F)c5ccc2[nH]5)C=C4)C=C3)cc1
REMARK SMILES IDX 25 1 24 2 22 3 23 4 2 5 1 6 3 10 4 11 5 12 6 13 20 14 7 15
REMARK SMILES IDX 9 16 21 17 8 18 10 19 11 20 19 21 12 22 18 23 13 24 17 25
REMARK SMILES IDX 14 26 16 27 15 28 26 29 27 30 28 31 29 32 30 33 31 34 95 35
REMARK SMILES IDX 32 36 94 37 33 38 34 39 35 40 88 41 36 42 93 43 87 44 89 45
REMARK SMILES IDX 37 46 92 47 86 48 85 49 38 51 72 52 51 53 71 54 52 55 55 56
REMARK SMILES IDX 70 57 90 58 53 59 54 60 69 62 91 63 56 64 39 65 40 66 49 67
REMARK SMILES IDX 41 68 42 69 48 70 50 71 43 72 44 73 45 74 46 75 47 76 73 77
REMARK SMILES IDX 74 78 83 79 75 80 76 81 82 82 84 83 77 84 78 85 79 86 80 87
REMARK SMILES IDX 81 88 57 89 58 90 67 91 59 92 60 93 66 94 68 95 61 96 62 97
REMARK SMILES IDX 63 98 64 99 65 100
REMARK H PARENT 1 7 1 8 1 9 89 50 55 61
REMARK Flexibility Score: inf
ROOT
ATOM      1  C   UNL A   1      33.705  31.353  27.643  1.00  0.00     0.274 C 
ENDROOT
BRANCH   1   2
ATOM      2  O   UNL A   1      33.064  30.115  27.239  1.00  0.00    -0.458 OA
BRANCH   2   3
ATOM      3  C   UNL A   1      32.246  30.210  26.153  1.00  0.00     0.365 C 
ATOM      4  O   UNL A   1      31.436  31.125  26.002  1.00  0.00    -0.245 OA
BRANCH   3   5
ATOM      5  C   UNL A   1      32.420  29.098  25.085  1.00  0.00     0.301 C 
BRANCH   5   6
ATOM      6  N   UNL A   1      33.415  29.534  24.074  1.00  0.00    -0.345 N 
ATOM      7  H   UNL A   1      34.064  30.197  24.499  1.00  0.00     0.345 HD
ATOM      8  H   UNL A   1      32.934  29.982  23.294  1.00  0.00     0.345 HD
ATOM      9  H   UNL A   1      33.933  28.724  23.734  1.00  0.00     0.345 HD
ENDBRANCH   5   6
BRANCH   5  10
ATOM     10  C   UNL A   1      31.234  28.327  24.445  1.00  0.00     0.147 C 
BRANCH  10  11
ATOM     11  S   UNL A   1      30.712  26.640  25.009  1.00  0.00    -0.141 SA
BRANCH  11  12
ATOM     12  C   UNL A   1      32.173  25.575  24.720  1.00  0.00     0.146 C 
ATOM     13  C   UNL A   1      32.483  25.256  23.298  1.00  0.00     0.125 C 
ATOM     14  C   UNL A   1      32.174  24.166  25.302  1.00  0.00     0.247 C 
ATOM     15  C   UNL A   1      33.422  24.126  23.391  1.00  0.00     0.235 C 
ATOM     16  N   UNL A   1      33.043  23.414  24.505  1.00  0.00    -0.250 N 
ATOM     17  O   UNL A   1      31.614  23.828  26.334  1.00  0.00    -0.273 OA
ATOM     18  O   UNL A   1      34.246  23.898  22.521  1.00  0.00    -0.274 OA
BRANCH  16  19
ATOM     19  C   UNL A   1      33.401  22.048  24.659  1.00  0.00     0.052 A 
ATOM     20  C   UNL A   1      34.625  21.695  25.253  1.00  0.00     0.027 A 
ATOM     21  C   UNL A   1      32.629  21.033  24.087  1.00  0.00     0.035 A 
ATOM     22  C   UNL A   1      35.111  20.390  25.208  1.00  0.00     0.011 A 
ATOM     23  C   UNL A   1      33.121  19.717  24.000  1.00  0.00    -0.016 A 
ATOM     24  C   UNL A   1      34.382  19.397  24.556  1.00  0.00    -0.018 A 
ATOM     25  C   UNL A   1      32.411  18.718  23.319  1.00  0.00     0.009 A 
ATOM     26  C   UNL A   1      34.901  18.103  24.419  1.00  0.00     0.009 A 
ATOM     27  C   UNL A   1      32.945  17.436  23.176  1.00  0.00     0.001 A 
ATOM     28  C   UNL A   1      34.187  17.128  23.725  1.00  0.00     0.001 A 
ENDBRANCH  16  19
ENDBRANCH  11  12
ENDBRANCH  10  11
ENDBRANCH   5  10
ENDBRANCH   3   5
ENDBRANCH   2   3
ENDBRANCH   1   2
BRANCH   1  29
ATOM     29  C   UNL A   1      35.122  31.172  28.231  1.00  0.00     0.275 C 
BRANCH  29  30
ATOM     30  O   UNL A   1      35.589  29.827  28.499  1.00  0.00    -0.458 OA
BRANCH  30  31
ATOM     31  C   UNL A   1      36.405  29.606  29.541  1.00  0.00     0.338 C 
ATOM     32  O   UNL A   1      36.124  29.577  30.732  1.00  0.00    -0.246 OA
BRANCH  31  33
ATOM     33  C   UNL A   1      37.801  29.392  29.204  1.00  0.00     0.060 A 
ATOM     34  C   UNL A   1      38.681  29.323  30.296  1.00  0.00     0.016 A 
ATOM     35  C   UNL A   1      38.265  29.432  27.891  1.00  0.00     0.016 A 
ATOM     36  C   UNL A   1      40.042  29.257  30.077  1.00  0.00     0.010 A 
ATOM     37  C   UNL A   1      39.634  29.328  27.670  1.00  0.00     0.010 A 
ATOM     38  C   UNL A   1      40.514  29.210  28.763  1.00  0.00    -0.014 A 
BRANCH  38  39
ATOM     39  C   UNL A   1      41.911  28.821  28.532  1.00  0.00     0.031 A 
ATOM     40  C   UNL A   1      42.997  29.839  28.509  1.00  0.00     0.074 A 
ATOM     41  C   UNL A   1      42.130  27.515  28.296  1.00  0.00     0.049 A 
ATOM     42  N   UNL A   1      44.252  29.683  28.194  1.00  0.00    -0.248 NA
ATOM     43  C   UNL A   1      42.627  31.212  28.880  1.00  0.00     0.031 C 
ATOM     44  C   UNL A   1      41.093  26.474  28.325  1.00  0.00     0.029 A 
ATOM     45  N   UNL A   1      43.269  26.839  27.966  1.00  0.00    -0.354 N 
ATOM     46  C   UNL A   1      44.827  30.941  28.303  1.00  0.00     0.074 A 
ATOM     47  C   UNL A   1      43.778  31.852  28.713  1.00  0.00     0.031 C 
ATOM     48  C   UNL A   1      41.641  25.298  28.000  1.00  0.00     0.029 A 
ATOM     49  C   UNL A   1      43.045  25.513  27.688  1.00  0.00     0.049 A 
ATOM     50  H   UNL A   1      44.159  27.260  27.929  1.00  0.00     0.167 HD
ATOM     51  C   UNL A   1      46.114  31.284  28.064  1.00  0.00     0.037 A 
ATOM     52  C   UNL A   1      43.877  24.584  27.187  1.00  0.00     0.037 A 
ATOM     53  C   UNL A   1      47.112  30.336  27.634  1.00  0.00     0.049 A 
ATOM     54  C   UNL A   1      45.289  24.991  26.909  1.00  0.00     0.074 A 
ATOM     55  C   UNL A   1      48.452  30.548  27.369  1.00  0.00     0.029 A 
ATOM     56  N   UNL A   1      46.866  28.988  27.393  1.00  0.00    -0.354 N 
ATOM     57  N   UNL A   1      45.832  26.180  27.033  1.00  0.00    -0.248 NA
ATOM     58  C   UNL A   1      46.201  23.949  26.437  1.00  0.00     0.031 C 
ATOM     59  C   UNL A   1      49.004  29.339  26.930  1.00  0.00     0.029 A 
ATOM     60  C   UNL A   1      48.023  28.359  26.965  1.00  0.00     0.049 A 
ATOM     61  H   UNL A   1      45.994  28.544  27.509  1.00  0.00     0.167 HD
ATOM     62  C   UNL A   1      47.161  26.029  26.673  1.00  0.00     0.074 A 
ATOM     63  C   UNL A   1      47.337  24.628  26.329  1.00  0.00     0.031 C 
ATOM     64  C   UNL A   1      48.148  26.958  26.634  1.00  0.00     0.037 A 
BRANCH  51  65
ATOM     65  C   UNL A   1      46.484  32.735  28.209  1.00  0.00     0.058 A 
ATOM     66  C   UNL A   1      46.945  33.269  29.424  1.00  0.00     0.135 A 
ATOM     67  C   UNL A   1      46.355  33.614  27.122  1.00  0.00     0.135 A 
ATOM     68  F   UNL A   1      47.074  32.480  30.503  1.00  0.00    -0.206 F 
ATOM     69  C   UNL A   1      47.223  34.626  29.567  1.00  0.00     0.059 A 
ATOM     70  C   UNL A   1      46.650  34.970  27.234  1.00  0.00     0.059 A 
ATOM     71  F   UNL A   1      45.917  33.161  25.936  1.00  0.00    -0.206 F 
ATOM     72  C   UNL A   1      47.062  35.471  28.467  1.00  0.00     0.060 A 
BRANCH  72  73
ATOM     73  S   UNL A   1      47.383  37.237  28.675  1.00  0.00     0.124 S 
ATOM     74  O   UNL A   1      46.610  37.804  27.574  1.00  0.00    -0.237 OA
ATOM     75  O   UNL A   1      46.862  37.496  30.013  1.00  0.00    -0.237 OA
ATOM     76  O   UNL A   1      48.834  37.337  28.540  1.00  0.00    -0.744 OA
ENDBRANCH  72  73
ENDBRANCH  51  65
BRANCH  52  77
ATOM     77  C   UNL A   1      43.354  23.219  26.930  1.00  0.00     0.058 A 
ATOM     78  C   UNL A   1      43.223  22.732  25.623  1.00  0.00     0.135 A 
ATOM     79  C   UNL A   1      43.115  22.328  27.990  1.00  0.00     0.135 A 
ATOM     80  F   UNL A   1      43.451  23.543  24.580  1.00  0.00    -0.206 F 
ATOM     81  C   UNL A   1      42.885  21.405  25.374  1.00  0.00     0.059 A 
ATOM     82  C   UNL A   1      42.796  20.993  27.767  1.00  0.00     0.059 A 
ATOM     83  F   UNL A   1      43.260  22.741  29.259  1.00  0.00    -0.206 F 
ATOM     84  C   UNL A   1      42.685  20.541  26.453  1.00  0.00     0.060 A 
BRANCH  84  85
ATOM     85  S   UNL A   1      42.354  18.797  26.116  1.00  0.00     0.124 S 
ATOM     86  O   UNL A   1      42.625  18.191  27.413  1.00  0.00    -0.237 OA
ATOM     87  O   UNL A   1      40.954  18.824  25.703  1.00  0.00    -0.237 OA
ATOM     88  O   UNL A   1      43.304  18.472  25.055  1.00  0.00    -0.744 OA
ENDBRANCH  84  85
ENDBRANCH  52  77
BRANCH  64  89
ATOM     89  C   UNL A   1      49.510  26.472  26.236  1.00  0.00     0.058 A 
ATOM     90  C   UNL A   1      49.987  26.619  24.926  1.00  0.00     0.135 A 
ATOM     91  C   UNL A   1      50.364  25.910  27.197  1.00  0.00     0.135 A 
ATOM     92  F   UNL A   1      49.198  27.139  23.973  1.00  0.00    -0.206 F 
ATOM     93  C   UNL A   1      51.270  26.215  24.578  1.00  0.00     0.059 A 
ATOM     94  C   UNL A   1      51.658  25.520  26.875  1.00  0.00     0.059 A 
ATOM     95  F   UNL A   1      49.948  25.754  28.464  1.00  0.00    -0.206 F 
ATOM     96  C   UNL A   1      52.099  25.671  25.562  1.00  0.00     0.060 A 
BRANCH  96  97
ATOM     97  S   UNL A   1      53.783  25.204  25.112  1.00  0.00     0.124 S 
ATOM     98  O   UNL A   1      54.522  25.586  26.310  1.00  0.00    -0.237 OA
ATOM     99  O   UNL A   1      53.657  23.769  24.875  1.00  0.00    -0.237 OA
ATOM    100  O   UNL A   1      54.050  26.007  23.924  1.00  0.00    -0.744 OA
ENDBRANCH  96  97
ENDBRANCH  64  89
ENDBRANCH  38  39
ENDBRANCH  31  33
ENDBRANCH  30  31
ENDBRANCH  29  30
ENDBRANCH   1  29
TORSDOF 19
ENDMDL
MODEL 3
REMARK VINA RESULT:     -11.6      1.093      2.199
REMARK SMILES [NH3+][C@H](CS[C@@H]1CC(=O)N(c2ccc3ccccc3c2)C1=O)C(=O)OCCOC(=O)c1ccc(-c2c3nc(c(-c4c(F)cc(S(=O)(=O)[O-])cc4F)c4ccc([nH]4)c(-c4c(F)cc(S(=O)(=O)[O-])cc4F)c4nc(c(-c5c(F)cc(S(=O)(=O)[O-])cc5F)c5ccc2[nH]5)C=C4)C=C3)cc1
REMARK SMILES IDX 25 1 24 2 22 3 23 4 2 5 1 6 3 10 4 11 5 12 6 13 20 14 7 15
REMARK SMILES IDX 9 16 21 17 8 18 10 19 11 20 19 21 12 22 18 23 13 24 17 25
REMARK SMILES IDX 14 26 16 27 15 28 26 29 27 30 28 31 29 32 30 33 31 34 95 35
REMARK SMILES IDX 32 36 94 37 33 38 34 39 35 40 88 41 36 42 93 43 87 44 89 45
REMARK SMILES IDX 37 46 92 47 86 48 85 49 38 51 72 52 51 53 71 54 52 55 55 56
REMARK SMILES IDX 70 57 90 58 53 59 54 60 69 62 91 63 56 64 39 65 40 66 49 67
REMARK SMILES IDX 41 68 42 69 48 70 50 71 43 72 44 73 45 74 46 75 47 76 73 77
REMARK SMILES IDX 74 78 83 79 75 80 76 81 82 82 84 83 77 84 78 85 79 86 80 87
REMARK SMILES IDX 81 88 57 89 58 90 67 91 59 92 60 93 66 94 68 95 61 96 62 97
REMARK SMILES IDX 63 98 64 99 65 100
REMARK H PARENT 1 7 1 8 1 9 89 50 55 61
REMARK Flexibility Score: inf
ROOT
ATOM      1  C   UNL A   1      31.957  29.142  26.129  1.00  0.00     0.274 C 
ENDROOT
BRANCH   1   2
ATOM      2  O   UNL A   1      31.446  29.566  24.838  1.00  0.00    -0.458 OA
BRANCH   2   3
ATOM      3  C   UNL A   1      32.080  29.030  23.757  1.00  0.00     0.365 C 
ATOM      4  O   UNL A   1      33.299  28.860  23.711  1.00  0.00    -0.245 OA
BRANCH   3   5
ATOM      5  C   UNL A   1      31.160  28.613  22.580  1.00  0.00     0.301 C 
BRANCH   5   6
ATOM      6  N   UNL A   1      30.908  29.788  21.708  1.00  0.00    -0.345 N 
ATOM      7  H   UNL A   1      31.399  29.665  20.822  1.00  0.00     0.345 HD
ATOM      8  H   UNL A   1      31.246  30.633  22.169  1.00  0.00     0.345 HD
ATOM      9  H   UNL A   1      29.907  29.873  21.533  1.00  0.00     0.345 HD
ENDBRANCH   5   6
BRANCH   5  10
ATOM     10  C   UNL A   1      29.895  27.728  22.748  1.00  0.00     0.147 C 
BRANCH  10  11
ATOM     11  S   UNL A   1      29.758  26.408  24.042  1.00  0.00    -0.141 SA
BRANCH  11  12
ATOM     12  C   UNL A   1      31.312  25.451  23.904  1.00  0.00     0.146 C 
ATOM     13  C   UNL A   1      31.693  25.011  22.532  1.00  0.00     0.125 C 
ATOM     14  C   UNL A   1      31.414  24.116  24.635  1.00  0.00     0.247 C 
ATOM     15  C   UNL A   1      32.721  23.984  22.769  1.00  0.00     0.235 C 
ATOM     16  N   UNL A   1      32.368  23.363  23.944  1.00  0.00    -0.250 N 
ATOM     17  O   UNL A   1      30.851  23.841  25.684  1.00  0.00    -0.273 OA
ATOM     18  O   UNL A   1      33.590  23.738  21.948  1.00  0.00    -0.274 OA
BRANCH  16  19
ATOM     19  C   UNL A   1      32.835  22.058  24.253  1.00  0.00     0.052 A 
ATOM     20  C   UNL A   1      34.005  21.881  25.012  1.00  0.00     0.027 A 
ATOM     21  C   UNL A   1      32.241  20.927  23.685  1.00  0.00     0.035 A 
ATOM     22  C   UNL A   1      34.617  20.635  25.134  1.00  0.00     0.011 A 
ATOM     23  C   UNL A   1      32.866  19.668  23.767  1.00  0.00    -0.016 A 
ATOM     24  C   UNL A   1      34.073  19.526  24.488  1.00  0.00    -0.018 A 
ATOM     25  C   UNL A   1      32.345  18.553  23.095  1.00  0.00     0.009 A 
ATOM     26  C   UNL A   1      34.728  18.287  24.522  1.00  0.00     0.009 A 
ATOM     27  C   UNL A   1      33.014  17.328  23.124  1.00  0.00     0.001 A 
ATOM     28  C   UNL A   1      34.203  17.195  23.836  1.00  0.00     0.001 A 
ENDBRANCH  16  19
ENDBRANCH  11  12
ENDBRANCH  10  11
ENDBRANCH   5  10
ENDBRANCH   3   5
ENDBRANCH   2   3
ENDBRANCH   1   2
BRANCH   1  29
ATOM     29  C   UNL A   1      32.844  30.191  26.836  1.00  0.00     0.275 C 
BRANCH  29  30
ATOM     30  O   UNL A   1      33.901  29.724  27.709  1.00  0.00    -0.458 OA
BRANCH  30  31
ATOM     31  C   UNL A   1      34.668  30.616  28.355  1.00  0.00     0.338 C 
ATOM     32  O   UNL A   1      34.374  31.747  28.718  1.00  0.00    -0.246 OA
BRANCH  31  33
ATOM     33  C   UNL A   1      36.023  30.179  28.641  1.00  0.00     0.060 A 
ATOM     34  C   UNL A   1      36.902  30.185  27.547  1.00  0.00     0.016 A 
ATOM     35  C   UNL A   1      36.383  29.622  29.867  1.00  0.00     0.016 A 
ATOM     36  C   UNL A   1      38.172  29.662  27.684  1.00  0.00     0.010 A 
ATOM     37  C   UNL A   1      37.674  29.129  30.015  1.00  0.00     0.010 A 
ATOM     38  C   UNL A   1      38.573  29.180  28.933  1.00  0.00    -0.014 A 
BRANCH  38  39
ATOM     39  C   UNL A   1      40.001  28.925  29.161  1.00  0.00     0.031 A 
ATOM     40  C   UNL A   1      40.910  30.011  29.620  1.00  0.00     0.074 A 
ATOM     41  C   UNL A   1      40.433  27.682  28.881  1.00  0.00     0.049 A 
ATOM     42  N   UNL A   1      42.208  29.988  29.744  1.00  0.00    -0.248 NA
ATOM     43  C   UNL A   1      40.285  31.292  29.981  1.00  0.00     0.031 C 
ATOM     44  C   UNL A   1      39.570  26.577  28.441  1.00  0.00     0.029 A 
ATOM     45  N   UNL A   1      41.685  27.140  28.897  1.00  0.00    -0.354 N 
ATOM     46  C   UNL A   1      42.567  31.257  30.175  1.00  0.00     0.074 A 
ATOM     47  C   UNL A   1      41.346  32.027  30.290  1.00  0.00     0.031 C 
ATOM     48  C   UNL A   1      40.324  25.497  28.205  1.00  0.00     0.029 A 
ATOM     49  C   UNL A   1      41.718  25.851  28.423  1.00  0.00     0.049 A 
ATOM     50  H   UNL A   1      42.482  27.623  29.214  1.00  0.00     0.167 HD
ATOM     51  C   UNL A   1      43.813  31.719  30.433  1.00  0.00     0.037 A 
ATOM     52  C   UNL A   1      42.768  25.060  28.146  1.00  0.00     0.037 A 
ATOM     53  C   UNL A   1      44.997  30.912  30.278  1.00  0.00     0.049 A 
ATOM     54  C   UNL A   1      44.136  25.600  28.418  1.00  0.00     0.074 A 
ATOM     55  C   UNL A   1      46.316  31.252  30.516  1.00  0.00     0.029 A 
ATOM     56  N   UNL A   1      44.999  29.594  29.829  1.00  0.00    -0.354 N 
ATOM     57  N   UNL A   1      44.469  26.796  28.845  1.00  0.00    -0.248 NA
ATOM     58  C   UNL A   1      45.265  24.698  28.185  1.00  0.00     0.031 C 
ATOM     59  C   UNL A   1      47.116  30.155  30.172  1.00  0.00     0.029 A 
ATOM     60  C   UNL A   1      46.296  29.112  29.764  1.00  0.00     0.049 A 
ATOM     61  H   UNL A   1      44.195  29.079  29.590  1.00  0.00     0.167 HD
ATOM     62  C   UNL A   1      45.850  26.789  28.953  1.00  0.00     0.074 A 
ATOM     63  C   UNL A   1      46.287  25.464  28.548  1.00  0.00     0.031 C 
ATOM     64  C   UNL A   1      46.682  27.782  29.354  1.00  0.00     0.037 A 
BRANCH  51  65
ATOM     65  C   UNL A   1      43.946  33.160  30.846  1.00  0.00     0.058 A 
ATOM     66  C   UNL A   1      44.085  34.194  29.906  1.00  0.00     0.135 A 
ATOM     67  C   UNL A   1      43.957  33.512  32.205  1.00  0.00     0.135 A 
ATOM     68  F   UNL A   1      44.097  33.917  28.592  1.00  0.00    -0.206 F 
ATOM     69  C   UNL A   1      44.272  35.518  30.298  1.00  0.00     0.059 A 
ATOM     70  C   UNL A   1      44.119  34.832  32.621  1.00  0.00     0.059 A 
ATOM     71  F   UNL A   1      43.830  32.566  33.149  1.00  0.00    -0.206 F 
ATOM     72  C   UNL A   1      44.298  35.824  31.660  1.00  0.00     0.060 A 
BRANCH  72  73
ATOM     73  S   UNL A   1      44.587  37.536  32.159  1.00  0.00     0.124 S 
ATOM     74  O   UNL A   1      43.472  37.765  33.073  1.00  0.00    -0.237 OA
ATOM     75  O   UNL A   1      45.907  37.468  32.775  1.00  0.00    -0.237 OA
ATOM     76  O   UNL A   1      44.525  38.272  30.898  1.00  0.00    -0.744 OA
ENDBRANCH  72  73
ENDBRANCH  51  65
BRANCH  52  77
ATOM     77  C   UNL A   1      42.519  23.709  27.584  1.00  0.00     0.058 A 
ATOM     78  C   UNL A   1      42.589  23.478  26.205  1.00  0.00     0.135 A 
ATOM     79  C   UNL A   1      42.350  22.598  28.428  1.00  0.00     0.135 A 
ATOM     80  F   UNL A   1      42.760  24.508  25.362  1.00  0.00    -0.206 F 
ATOM     81  C   UNL A   1      42.513  22.192  25.680  1.00  0.00     0.059 A 
ATOM     82  C   UNL A   1      42.292  21.302  27.929  1.00  0.00     0.059 A 
ATOM     83  F   UNL A   1      42.310  22.766  29.760  1.00  0.00    -0.206 F 
ATOM     84  C   UNL A   1      42.377  21.110  26.551  1.00  0.00     0.060 A 
BRANCH  84  85
ATOM     85  S   UNL A   1      42.390  19.438  25.865  1.00  0.00     0.124 S 
ATOM     86  O   UNL A   1      42.922  18.666  26.981  1.00  0.00    -0.237 OA
ATOM     87  O   UNL A   1      40.980  19.223  25.555  1.00  0.00    -0.237 OA
ATOM     88  O   UNL A   1      43.266  19.557  24.703  1.00  0.00    -0.744 OA
ENDBRANCH  84  85
ENDBRANCH  52  77
BRANCH  64  89
ATOM     89  C   UNL A   1      48.144  27.452  29.403  1.00  0.00     0.058 A 
ATOM     90  C   UNL A   1      48.977  27.644  28.292  1.00  0.00     0.135 A 
ATOM     91  C   UNL A   1      48.722  26.998  30.598  1.00  0.00     0.135 A 
ATOM     92  F   UNL A   1      48.463  28.064  27.125  1.00  0.00    -0.206 F 
ATOM     93  C   UNL A   1      50.340  27.386  28.361  1.00  0.00     0.059 A 
ATOM     94  C   UNL A   1      50.086  26.756  30.696  1.00  0.00     0.059 A 
ATOM     95  F   UNL A   1      47.961  26.804  31.687  1.00  0.00    -0.206 F 
ATOM     96  C   UNL A   1      50.886  26.947  29.570  1.00  0.00     0.060 A 
BRANCH  96  97
ATOM     97  S   UNL A   1      52.667  26.672  29.666  1.00  0.00     0.124 S 
ATOM     98  O   UNL A   1      52.953  26.151  28.334  1.00  0.00    -0.237 OA
ATOM     99  O   UNL A   1      53.176  28.011  29.946  1.00  0.00    -0.237 OA
ATOM    100  O   UNL A   1      52.802  25.716  30.759  1.00  0.00    -0.744 OA
ENDBRANCH  96  97
ENDBRANCH  64  89
ENDBRANCH  38  39
ENDBRANCH  31  33
ENDBRANCH  30  31
ENDBRANCH  29  30
ENDBRANCH   1  29
TORSDOF 19
ENDMDL
