MODEL 1
REMARK VINA RESULT:     -11.8      0.000      0.000
REMARK SMILES Cc1cc(N(C)C2CCC(C)(C)CC2)cc(C(=O)OCCOC(=O)c2ccc(-c3c4nc(c(-c5c(F)cc(S(=O)(=O)[O-])cc5F)c5ccc([nH]5)c(-c5c(F)cc(S(=O)(=O)[O-])cc5F)c5nc(c(-c6c(F)cc(S(=O)(=O)[O-])cc6F)c6ccc3[nH]6)C=C5)C=C4)cc2)c1N
REMARK SMILES IDX 21 1 20 2 19 3 17 4 18 5 16 6 1 7 2 8 3 9 91 10 4 11 15 12
REMARK SMILES IDX 92 13 5 16 6 17 7 18 8 19 14 20 9 21 13 22 10 23 11 24 12 25
REMARK SMILES IDX 22 26 23 27 24 28 25 29 26 30 90 31 27 32 89 33 28 34 29 35
REMARK SMILES IDX 30 36 83 37 31 38 88 39 82 40 84 41 32 42 87 43 81 44 80 45
REMARK SMILES IDX 33 47 67 48 46 49 66 50 47 51 50 52 65 53 85 54 48 55 49 56
REMARK SMILES IDX 64 58 86 59 51 60 34 61 35 62 44 63 36 64 37 65 43 66 45 67
REMARK SMILES IDX 38 68 39 69 40 70 41 71 42 72 68 73 69 74 78 75 70 76 71 77
REMARK SMILES IDX 77 78 79 79 72 80 73 81 74 82 75 83 76 84 52 85 53 86 62 87
REMARK SMILES IDX 54 88 55 89 61 90 63 91 56 92 57 93 58 94 59 95 60 96
REMARK H PARENT 92 14 92 15 84 46 50 57
REMARK Flexibility Score: inf
ROOT
ATOM      1  C   UNL A   1      34.179  31.304  27.973  1.00  0.00     0.275 C 
ENDROOT
BRANCH   1   2
ATOM      2  C   UNL A   1      33.932  29.975  27.252  1.00  0.00     0.275 C 
BRANCH   2   3
ATOM      3  O   UNL A   1      32.671  29.967  26.551  1.00  0.00    -0.458 OA
BRANCH   3   4
ATOM      4  C   UNL A   1      31.893  28.900  26.857  1.00  0.00     0.340 C 
ATOM      5  O   UNL A   1      31.380  28.693  27.945  1.00  0.00    -0.246 OA
BRANCH   4   6
ATOM      6  C   UNL A   1      31.728  27.956  25.734  1.00  0.00     0.085 A 
ATOM      7  C   UNL A   1      29.530  28.422  22.719  1.00  0.00     0.047 C 
ATOM      8  C   UNL A   1      30.258  27.824  23.890  1.00  0.00    -0.025 A 
ATOM      9  C   UNL A   1      30.067  26.485  24.247  1.00  0.00     0.031 A 
ATOM     10  C   UNL A   1      31.285  28.494  24.529  1.00  0.00     0.049 A 
ATOM     11  C   UNL A   1      31.082  25.799  24.918  1.00  0.00     0.038 A 
ATOM     12  C   UNL A   1      31.713  26.573  25.896  1.00  0.00     0.043 A 
BRANCH  10  13
ATOM     13  N   UNL A   1      32.070  29.406  23.839  1.00  0.00    -0.398 N 
ATOM     14  H   UNL A   1      33.003  29.559  24.112  1.00  0.00     0.156 HD
ATOM     15  H   UNL A   1      31.693  29.900  23.075  1.00  0.00     0.156 HD
ENDBRANCH  10  13
BRANCH  11  16
ATOM     16  N   UNL A   1      31.517  24.527  24.535  1.00  0.00    -0.372 N 
ATOM     17  C   UNL A   1      30.898  23.377  25.199  1.00  0.00     0.144 C 
BRANCH  16  18
ATOM     18  C   UNL A   1      32.489  24.224  23.403  1.00  0.00     0.082 C 
ATOM     19  C   UNL A   1      33.884  24.837  23.458  1.00  0.00     0.025 C 
ATOM     20  C   UNL A   1      32.751  22.704  23.147  1.00  0.00     0.025 C 
ATOM     21  C   UNL A   1      34.648  24.255  24.644  1.00  0.00     0.008 C 
ATOM     22  C   UNL A   1      34.092  22.033  23.612  1.00  0.00     0.008 C 
ATOM     23  C   UNL A   1      35.192  22.879  24.311  1.00  0.00    -0.035 C 
ATOM     24  C   UNL A   1      35.644  22.189  25.618  1.00  0.00     0.011 C 
ATOM     25  C   UNL A   1      36.457  23.085  23.449  1.00  0.00     0.011 C 
ENDBRANCH  16  18
ENDBRANCH  11  16
ENDBRANCH   4   6
ENDBRANCH   3   4
ENDBRANCH   2   3
ENDBRANCH   1   2
BRANCH   1  26
ATOM     26  O   UNL A   1      35.583  31.604  28.129  1.00  0.00    -0.458 OA
BRANCH  26  27
ATOM     27  C   UNL A   1      36.127  31.178  29.289  1.00  0.00     0.338 C 
ATOM     28  O   UNL A   1      35.725  31.418  30.422  1.00  0.00    -0.246 OA
BRANCH  27  29
ATOM     29  C   UNL A   1      37.268  30.272  29.083  1.00  0.00     0.060 A 
ATOM     30  C   UNL A   1      38.065  29.994  30.184  1.00  0.00     0.016 A 
ATOM     31  C   UNL A   1      37.755  30.027  27.799  1.00  0.00     0.016 A 
ATOM     32  C   UNL A   1      39.409  29.678  29.995  1.00  0.00     0.010 A 
ATOM     33  C   UNL A   1      39.056  29.520  27.630  1.00  0.00     0.010 A 
ATOM     34  C   UNL A   1      39.929  29.390  28.724  1.00  0.00    -0.014 A 
BRANCH  34  35
ATOM     35  C   UNL A   1      41.362  28.968  28.568  1.00  0.00     0.031 A 
ATOM     36  C   UNL A   1      42.500  29.958  28.720  1.00  0.00     0.074 A 
ATOM     37  C   UNL A   1      41.662  27.675  28.304  1.00  0.00     0.049 A 
ATOM     38  N   UNL A   1      43.760  29.827  28.385  1.00  0.00    -0.248 NA
ATOM     39  C   UNL A   1      42.183  31.267  29.313  1.00  0.00     0.031 C 
ATOM     40  C   UNL A   1      40.691  26.583  28.176  1.00  0.00     0.029 A 
ATOM     41  N   UNL A   1      42.870  27.047  28.104  1.00  0.00    -0.354 N 
ATOM     42  C   UNL A   1      44.367  31.051  28.657  1.00  0.00     0.074 A 
ATOM     43  C   UNL A   1      43.336  31.914  29.193  1.00  0.00     0.031 C 
ATOM     44  C   UNL A   1      41.335  25.425  27.998  1.00  0.00     0.029 A 
ATOM     45  C   UNL A   1      42.751  25.703  27.826  1.00  0.00     0.049 A 
ATOM     46  H   UNL A   1      43.736  27.513  28.154  1.00  0.00     0.167 HD
ATOM     47  C   UNL A   1      45.660  31.419  28.470  1.00  0.00     0.037 A 
ATOM     48  C   UNL A   1      43.648  24.796  27.394  1.00  0.00     0.037 A 
ATOM     49  C   UNL A   1      46.692  30.528  27.995  1.00  0.00     0.049 A 
ATOM     50  C   UNL A   1      45.056  25.238  27.136  1.00  0.00     0.074 A 
ATOM     51  C   UNL A   1      48.032  30.801  27.772  1.00  0.00     0.029 A 
ATOM     52  N   UNL A   1      46.508  29.187  27.688  1.00  0.00    -0.354 N 
ATOM     53  N   UNL A   1      45.589  26.424  27.309  1.00  0.00    -0.248 NA
ATOM     54  C   UNL A   1      45.979  24.232  26.599  1.00  0.00     0.031 C 
ATOM     55  C   UNL A   1      48.645  29.642  27.287  1.00  0.00     0.029 A 
ATOM     56  C   UNL A   1      47.703  28.627  27.265  1.00  0.00     0.049 A 
ATOM     57  H   UNL A   1      45.653  28.704  27.761  1.00  0.00     0.167 HD
ATOM     58  C   UNL A   1      46.916  26.301  26.916  1.00  0.00     0.074 A 
ATOM     59  C   UNL A   1      47.109  24.921  26.519  1.00  0.00     0.031 C 
ATOM     60  C   UNL A   1      47.883  27.249  26.882  1.00  0.00     0.037 A 
BRANCH  47  61
ATOM     61  C   UNL A   1      46.047  32.855  28.737  1.00  0.00     0.058 A 
ATOM     62  C   UNL A   1      45.951  33.856  27.759  1.00  0.00     0.135 A 
ATOM     63  C   UNL A   1      46.450  33.248  30.027  1.00  0.00     0.135 A 
ATOM     64  F   UNL A   1      45.582  33.544  26.506  1.00  0.00    -0.206 F 
ATOM     65  C   UNL A   1      46.261  35.185  28.040  1.00  0.00     0.059 A 
ATOM     66  C   UNL A   1      46.736  34.575  30.339  1.00  0.00     0.059 A 
ATOM     67  F   UNL A   1      46.556  32.337  31.008  1.00  0.00    -0.206 F 
ATOM     68  C   UNL A   1      46.649  35.536  29.336  1.00  0.00     0.060 A 
BRANCH  68  69
ATOM     69  S   UNL A   1      47.030  37.266  29.688  1.00  0.00     0.124 S 
ATOM     70  O   UNL A   1      47.862  37.621  28.542  1.00  0.00    -0.237 OA
ATOM     71  O   UNL A   1      45.706  37.877  29.722  1.00  0.00    -0.237 OA
ATOM     72  O   UNL A   1      47.724  37.210  30.971  1.00  0.00    -0.744 OA
ENDBRANCH  68  69
ENDBRANCH  47  61
BRANCH  48  73
ATOM     73  C   UNL A   1      43.208  23.406  27.087  1.00  0.00     0.058 A 
ATOM     74  C   UNL A   1      42.974  22.990  25.768  1.00  0.00     0.135 A 
ATOM     75  C   UNL A   1      43.030  22.457  28.109  1.00  0.00     0.135 A 
ATOM     76  F   UNL A   1      43.118  23.859  24.755  1.00  0.00    -0.206 F 
ATOM     77  C   UNL A   1      42.567  21.692  25.475  1.00  0.00     0.059 A 
ATOM     78  C   UNL A   1      42.664  21.144  27.838  1.00  0.00     0.059 A 
ATOM     79  F   UNL A   1      43.251  22.796  29.389  1.00  0.00    -0.206 F 
ATOM     80  C   UNL A   1      42.420  20.775  26.518  1.00  0.00     0.060 A 
BRANCH  80  81
ATOM     81  S   UNL A   1      41.930  19.082  26.125  1.00  0.00     0.124 S 
ATOM     82  O   UNL A   1      42.263  18.388  27.363  1.00  0.00    -0.237 OA
ATOM     83  O   UNL A   1      40.507  19.233  25.838  1.00  0.00    -0.237 OA
ATOM     84  O   UNL A   1      42.763  18.751  24.972  1.00  0.00    -0.744 OA
ENDBRANCH  80  81
ENDBRANCH  48  73
BRANCH  60  85
ATOM     85  C   UNL A   1      49.254  26.809  26.446  1.00  0.00     0.058 A 
ATOM     86  C   UNL A   1      50.154  26.198  27.333  1.00  0.00     0.135 A 
ATOM     87  C   UNL A   1      49.660  26.981  25.113  1.00  0.00     0.135 A 
ATOM     88  F   UNL A   1      49.819  26.023  28.621  1.00  0.00    -0.206 F 
ATOM     89  C   UNL A   1      51.419  25.797  26.920  1.00  0.00     0.059 A 
ATOM     90  C   UNL A   1      50.909  26.558  24.670  1.00  0.00     0.059 A 
ATOM     91  F   UNL A   1      48.835  27.556  24.222  1.00  0.00    -0.206 F 
ATOM     92  C   UNL A   1      51.787  25.979  25.585  1.00  0.00     0.060 A 
BRANCH  92  93
ATOM     93  S   UNL A   1      53.421  25.427  25.056  1.00  0.00     0.124 S 
ATOM     94  O   UNL A   1      53.389  25.733  23.630  1.00  0.00    -0.237 OA
ATOM     95  O   UNL A   1      54.307  26.259  25.864  1.00  0.00    -0.237 OA
ATOM     96  O   UNL A   1      53.426  24.006  25.392  1.00  0.00    -0.744 OA
ENDBRANCH  92  93
ENDBRANCH  60  85
ENDBRANCH  34  35
ENDBRANCH  27  29
ENDBRANCH  26  27
ENDBRANCH   1  26
TORSDOF 17
ENDMDL
MODEL 2
REMARK VINA RESULT:     -11.6      1.881      2.520
REMARK SMILES Cc1cc(N(C)C2CCC(C)(C)CC2)cc(C(=O)OCCOC(=O)c2ccc(-c3c4nc(c(-c5c(F)cc(S(=O)(=O)[O-])cc5F)c5ccc([nH]5)c(-c5c(F)cc(S(=O)(=O)[O-])cc5F)c5nc(c(-c6c(F)cc(S(=O)(=O)[O-])cc6F)c6ccc3[nH]6)C=C5)C=C4)cc2)c1N
REMARK SMILES IDX 21 1 20 2 19 3 17 4 18 5 16 6 1 7 2 8 3 9 91 10 4 11 15 12
REMARK SMILES IDX 92 13 5 16 6 17 7 18 8 19 14 20 9 21 13 22 10 23 11 24 12 25
REMARK SMILES IDX 22 26 23 27 24 28 25 29 26 30 90 31 27 32 89 33 28 34 29 35
REMARK SMILES IDX 30 36 83 37 31 38 88 39 82 40 84 41 32 42 87 43 81 44 80 45
REMARK SMILES IDX 33 47 67 48 46 49 66 50 47 51 50 52 65 53 85 54 48 55 49 56
REMARK SMILES IDX 64 58 86 59 51 60 34 61 35 62 44 63 36 64 37 65 43 66 45 67
REMARK SMILES IDX 38 68 39 69 40 70 41 71 42 72 68 73 69 74 78 75 70 76 71 77
REMARK SMILES IDX 77 78 79 79 72 80 73 81 74 82 75 83 76 84 52 85 53 86 62 87
REMARK SMILES IDX 54 88 55 89 61 90 63 91 56 92 57 93 58 94 59 95 60 96
REMARK H PARENT 92 14 92 15 84 46 50 57
REMARK Flexibility Score: inf
ROOT
ATOM      1  C   UNL A   1      33.153  30.280  26.552  1.00  0.00     0.275 C 
ENDROOT
BRANCH   1   2
ATOM      2  C   UNL A   1      31.990  29.393  26.097  1.00  0.00     0.275 C 
BRANCH   2   3
ATOM      3  O   UNL A   1      31.606  29.665  24.732  1.00  0.00    -0.458 OA
BRANCH   3   4
ATOM      4  C   UNL A   1      30.847  28.687  24.183  1.00  0.00     0.340 C 
ATOM      5  O   UNL A   1      29.752  28.851  23.668  1.00  0.00    -0.246 OA
BRANCH   4   6
ATOM      6  C   UNL A   1      31.459  27.346  24.280  1.00  0.00     0.085 A 
ATOM      7  C   UNL A   1      32.790  25.279  21.434  1.00  0.00     0.047 C 
ATOM      8  C   UNL A   1      32.115  25.712  22.705  1.00  0.00    -0.025 A 
ATOM      9  C   UNL A   1      31.432  24.790  23.506  1.00  0.00     0.031 A 
ATOM     10  C   UNL A   1      32.306  26.973  23.240  1.00  0.00     0.049 A 
ATOM     11  C   UNL A   1      31.298  25.032  24.875  1.00  0.00     0.038 A 
ATOM     12  C   UNL A   1      31.022  26.370  25.171  1.00  0.00     0.043 A 
BRANCH  10  13
ATOM     13  N   UNL A   1      33.491  27.659  23.021  1.00  0.00    -0.398 N 
ATOM     14  H   UNL A   1      34.096  27.851  23.773  1.00  0.00     0.156 HD
ATOM     15  H   UNL A   1      33.727  27.956  22.111  1.00  0.00     0.156 HD
ENDBRANCH  10  13
BRANCH  11  16
ATOM     16  N   UNL A   1      31.572  24.063  25.845  1.00  0.00    -0.372 N 
ATOM     17  C   UNL A   1      30.478  23.164  26.223  1.00  0.00     0.144 C 
BRANCH  16  18
ATOM     18  C   UNL A   1      32.937  23.778  26.456  1.00  0.00     0.082 C 
ATOM     19  C   UNL A   1      33.570  22.413  26.217  1.00  0.00     0.025 C 
ATOM     20  C   UNL A   1      34.060  24.793  26.063  1.00  0.00     0.025 C 
ATOM     21  C   UNL A   1      33.891  22.254  24.733  1.00  0.00     0.008 C 
ATOM     22  C   UNL A   1      35.164  24.400  25.019  1.00  0.00     0.008 C 
ATOM     23  C   UNL A   1      35.171  22.985  24.378  1.00  0.00    -0.035 C 
ATOM     24  C   UNL A   1      35.275  23.097  22.840  1.00  0.00     0.011 C 
ATOM     25  C   UNL A   1      36.348  22.099  24.846  1.00  0.00     0.011 C 
ENDBRANCH  16  18
ENDBRANCH  11  16
ENDBRANCH   4   6
ENDBRANCH   3   4
ENDBRANCH   2   3
ENDBRANCH   1   2
BRANCH   1  26
ATOM     26  O   UNL A   1      33.457  30.127  27.955  1.00  0.00    -0.458 OA
BRANCH  26  27
ATOM     27  C   UNL A   1      34.525  30.832  28.384  1.00  0.00     0.338 C 
ATOM     28  O   UNL A   1      34.525  31.982  28.809  1.00  0.00    -0.246 OA
BRANCH  27  29
ATOM     29  C   UNL A   1      35.766  30.042  28.385  1.00  0.00     0.060 A 
ATOM     30  C   UNL A   1      36.251  29.621  29.614  1.00  0.00     0.016 A 
ATOM     31  C   UNL A   1      36.612  30.052  27.276  1.00  0.00     0.016 A 
ATOM     32  C   UNL A   1      37.620  29.419  29.778  1.00  0.00     0.010 A 
ATOM     33  C   UNL A   1      37.955  29.657  27.417  1.00  0.00     0.010 A 
ATOM     34  C   UNL A   1      38.499  29.387  28.685  1.00  0.00    -0.014 A 
BRANCH  34  35
ATOM     35  C   UNL A   1      39.955  29.079  28.890  1.00  0.00     0.031 A 
ATOM     36  C   UNL A   1      40.920  30.130  29.402  1.00  0.00     0.074 A 
ATOM     37  C   UNL A   1      40.427  27.838  28.634  1.00  0.00     0.049 A 
ATOM     38  N   UNL A   1      42.231  30.115  29.407  1.00  0.00    -0.248 NA
ATOM     39  C   UNL A   1      40.345  31.359  29.970  1.00  0.00     0.031 C 
ATOM     40  C   UNL A   1      39.624  26.696  28.182  1.00  0.00     0.029 A 
ATOM     41  N   UNL A   1      41.697  27.314  28.724  1.00  0.00    -0.354 N 
ATOM     42  C   UNL A   1      42.635  31.351  29.908  1.00  0.00     0.074 A 
ATOM     43  C   UNL A   1      41.426  32.092  30.204  1.00  0.00     0.031 C 
ATOM     44  C   UNL A   1      40.393  25.605  28.110  1.00  0.00     0.029 A 
ATOM     45  C   UNL A   1      41.774  25.993  28.340  1.00  0.00     0.049 A 
ATOM     46  H   UNL A   1      42.474  27.833  29.032  1.00  0.00     0.167 HD
ATOM     47  C   UNL A   1      43.894  31.822  30.096  1.00  0.00     0.037 A 
ATOM     48  C   UNL A   1      42.830  25.190  28.105  1.00  0.00     0.037 A 
ATOM     49  C   UNL A   1      45.089  31.048  29.858  1.00  0.00     0.049 A 
ATOM     50  C   UNL A   1      44.212  25.750  28.261  1.00  0.00     0.074 A 
ATOM     51  C   UNL A   1      46.411  31.431  30.018  1.00  0.00     0.029 A 
ATOM     52  N   UNL A   1      45.111  29.728  29.429  1.00  0.00    -0.354 N 
ATOM     53  N   UNL A   1      44.573  26.950  28.644  1.00  0.00    -0.248 NA
ATOM     54  C   UNL A   1      45.328  24.858  27.926  1.00  0.00     0.031 C 
ATOM     55  C   UNL A   1      47.230  30.363  29.640  1.00  0.00     0.029 A 
ATOM     56  C   UNL A   1      46.420  29.290  29.304  1.00  0.00     0.049 A 
ATOM     57  H   UNL A   1      44.314  29.183  29.241  1.00  0.00     0.167 HD
ATOM     58  C   UNL A   1      45.962  26.953  28.612  1.00  0.00     0.074 A 
ATOM     59  C   UNL A   1      46.374  25.629  28.194  1.00  0.00     0.031 C 
ATOM     60  C   UNL A   1      46.817  27.965  28.897  1.00  0.00     0.037 A 
BRANCH  47  61
ATOM     61  C   UNL A   1      44.068  33.253  30.547  1.00  0.00     0.058 A 
ATOM     62  C   UNL A   1      44.035  34.334  29.653  1.00  0.00     0.135 A 
ATOM     63  C   UNL A   1      44.194  33.550  31.916  1.00  0.00     0.135 A 
ATOM     64  F   UNL A   1      43.926  34.117  28.333  1.00  0.00    -0.206 F 
ATOM     65  C   UNL A   1      44.143  35.652  30.096  1.00  0.00     0.059 A 
ATOM     66  C   UNL A   1      44.273  34.860  32.384  1.00  0.00     0.059 A 
ATOM     67  F   UNL A   1      44.226  32.559  32.822  1.00  0.00    -0.206 F 
ATOM     68  C   UNL A   1      44.258  35.905  31.465  1.00  0.00     0.060 A 
BRANCH  68  69
ATOM     69  S   UNL A   1      44.379  37.619  32.022  1.00  0.00     0.124 S 
ATOM     70  O   UNL A   1      43.447  37.627  33.146  1.00  0.00    -0.237 OA
ATOM     71  O   UNL A   1      45.791  37.735  32.371  1.00  0.00    -0.237 OA
ATOM     72  O   UNL A   1      43.959  38.389  30.856  1.00  0.00    -0.744 OA
ENDBRANCH  68  69
ENDBRANCH  47  61
BRANCH  48  73
ATOM     73  C   UNL A   1      42.611  23.804  27.605  1.00  0.00     0.058 A 
ATOM     74  C   UNL A   1      42.520  23.531  26.232  1.00  0.00     0.135 A 
ATOM     75  C   UNL A   1      42.506  22.719  28.492  1.00  0.00     0.135 A 
ATOM     76  F   UNL A   1      42.601  24.532  25.342  1.00  0.00    -0.206 F 
ATOM     77  C   UNL A   1      42.319  22.238  25.759  1.00  0.00     0.059 A 
ATOM     78  C   UNL A   1      42.348  21.414  28.042  1.00  0.00     0.059 A 
ATOM     79  F   UNL A   1      42.598  22.920  29.816  1.00  0.00    -0.206 F 
ATOM     80  C   UNL A   1      42.240  21.185  26.673  1.00  0.00     0.060 A 
BRANCH  80  81
ATOM     81  S   UNL A   1      42.020  19.505  26.048  1.00  0.00     0.124 S 
ATOM     82  O   UNL A   1      42.888  19.515  24.876  1.00  0.00    -0.237 OA
ATOM     83  O   UNL A   1      42.474  18.697  27.174  1.00  0.00    -0.237 OA
ATOM     84  O   UNL A   1      40.587  19.435  25.773  1.00  0.00    -0.744 OA
ENDBRANCH  80  81
ENDBRANCH  48  73
BRANCH  60  85
ATOM     85  C   UNL A   1      48.287  27.660  28.815  1.00  0.00     0.058 A 
ATOM     86  C   UNL A   1      48.993  27.118  29.900  1.00  0.00     0.135 A 
ATOM     87  C   UNL A   1      48.991  27.892  27.622  1.00  0.00     0.135 A 
ATOM     88  F   UNL A   1      48.370  26.891  31.066  1.00  0.00    -0.206 F 
ATOM     89  C   UNL A   1      50.353  26.841  29.814  1.00  0.00     0.059 A 
ATOM     90  C   UNL A   1      50.344  27.592  27.504  1.00  0.00     0.059 A 
ATOM     91  F   UNL A   1      48.361  28.405  26.553  1.00  0.00    -0.206 F 
ATOM     92  C   UNL A   1      51.019  27.079  28.610  1.00  0.00     0.060 A 
BRANCH  92  93
ATOM     93  S   UNL A   1      52.777  26.688  28.504  1.00  0.00     0.124 S 
ATOM     94  O   UNL A   1      53.343  27.973  28.111  1.00  0.00    -0.237 OA
ATOM     95  O   UNL A   1      53.081  26.249  29.862  1.00  0.00    -0.237 OA
ATOM     96  O   UNL A   1      52.833  25.642  27.487  1.00  0.00    -0.744 OA
ENDBRANCH  92  93
ENDBRANCH  60  85
ENDBRANCH  34  35
ENDBRANCH  27  29
ENDBRANCH  26  27
ENDBRANCH   1  26
TORSDOF 17
ENDMDL
MODEL 3
REMARK VINA RESULT:     -11.5      6.497     11.876
REMARK SMILES Cc1cc(N(C)C2CCC(C)(C)CC2)cc(C(=O)OCCOC(=O)c2ccc(-c3c4nc(c(-c5c(F)cc(S(=O)(=O)[O-])cc5F)c5ccc([nH]5)c(-c5c(F)cc(S(=O)(=O)[O-])cc5F)c5nc(c(-c6c(F)cc(S(=O)(=O)[O-])cc6F)c6ccc3[nH]6)C=C5)C=C4)cc2)c1N
REMARK SMILES IDX 21 1 20 2 19 3 17 4 18 5 16 6 1 7 2 8 3 9 91 10 4 11 15 12
REMARK SMILES IDX 92 13 5 16 6 17 7 18 8 19 14 20 9 21 13 22 10 23 11 24 12 25
REMARK SMILES IDX 22 26 23 27 24 28 25 29 26 30 90 31 27 32 89 33 28 34 29 35
REMARK SMILES IDX 30 36 83 37 31 38 88 39 82 40 84 41 32 42 87 43 81 44 80 45
REMARK SMILES IDX 33 47 67 48 46 49 66 50 47 51 50 52 65 53 85 54 48 55 49 56
REMARK SMILES IDX 64 58 86 59 51 60 34 61 35 62 44 63 36 64 37 65 43 66 45 67
REMARK SMILES IDX 38 68 39 69 40 70 41 71 42 72 68 73 69 74 78 75 70 76 71 77
REMARK SMILES IDX 77 78 79 79 72 80 73 81 74 82 75 83 76 84 52 85 53 86 62 87
REMARK SMILES IDX 54 88 55 89 61 90 63 91 56 92 57 93 58 94 59 95 60 96
REMARK H PARENT 92 14 92 15 84 46 50 57
REMARK Flexibility Score: inf
ROOT
ATOM      1  C   UNL A   1      38.596  23.073  26.117  1.00  0.00     0.275 C 
ENDROOT
BRANCH   1   2
ATOM      2  C   UNL A   1      38.256  21.630  25.732  1.00  0.00     0.275 C 
BRANCH   2   3
ATOM      3  O   UNL A   1      37.459  21.566  24.530  1.00  0.00    -0.458 OA
BRANCH   3   4
ATOM      4  C   UNL A   1      36.170  21.219  24.758  1.00  0.00     0.340 C 
ATOM      5  O   UNL A   1      35.774  20.084  24.971  1.00  0.00    -0.246 OA
BRANCH   4   6
ATOM      6  C   UNL A   1      35.238  22.364  24.704  1.00  0.00     0.085 A 
ATOM      7  C   UNL A   1      32.140  22.832  26.783  1.00  0.00     0.047 C 
ATOM      8  C   UNL A   1      33.117  22.812  25.642  1.00  0.00    -0.025 A 
ATOM      9  C   UNL A   1      32.732  23.220  24.360  1.00  0.00     0.031 A 
ATOM     10  C   UNL A   1      34.468  22.592  25.841  1.00  0.00     0.049 A 
ATOM     11  C   UNL A   1      33.692  23.721  23.478  1.00  0.00     0.038 A 
ATOM     12  C   UNL A   1      34.897  23.015  23.521  1.00  0.00     0.043 A 
BRANCH  10  13
ATOM     13  N   UNL A   1      35.072  22.953  27.035  1.00  0.00    -0.398 N 
ATOM     14  H   UNL A   1      36.042  22.837  27.152  1.00  0.00     0.156 HD
ATOM     15  H   UNL A   1      34.530  23.325  27.769  1.00  0.00     0.156 HD
ENDBRANCH  10  13
BRANCH  11  16
ATOM     16  N   UNL A   1      33.509  24.901  22.751  1.00  0.00    -0.372 N 
ATOM     17  C   UNL A   1      32.946  24.780  21.404  1.00  0.00     0.144 C 
BRANCH  16  18
ATOM     18  C   UNL A   1      33.729  26.312  23.278  1.00  0.00     0.082 C 
ATOM     19  C   UNL A   1      32.575  27.305  23.202  1.00  0.00     0.025 C 
ATOM     20  C   UNL A   1      34.204  26.394  24.766  1.00  0.00     0.025 C 
ATOM     21  C   UNL A   1      31.444  26.841  24.115  1.00  0.00     0.008 C 
ATOM     22  C   UNL A   1      33.208  26.820  25.902  1.00  0.00     0.008 C 
ATOM     23  C   UNL A   1      31.739  27.192  25.560  1.00  0.00    -0.035 C 
ATOM     24  C   UNL A   1      30.766  26.413  26.474  1.00  0.00     0.011 C 
ATOM     25  C   UNL A   1      31.423  28.693  25.739  1.00  0.00     0.011 C 
ENDBRANCH  16  18
ENDBRANCH  11  16
ENDBRANCH   4   6
ENDBRANCH   3   4
ENDBRANCH   2   3
ENDBRANCH   1   2
BRANCH   1  26
ATOM     26  O   UNL A   1      39.644  23.156  27.107  1.00  0.00    -0.458 OA
BRANCH  26  27
ATOM     27  C   UNL A   1      40.558  24.123  26.885  1.00  0.00     0.338 C 
ATOM     28  O   UNL A   1      41.538  24.055  26.150  1.00  0.00    -0.246 OA
BRANCH  27  29
ATOM     29  C   UNL A   1      40.231  25.384  27.569  1.00  0.00     0.060 A 
ATOM     30  C   UNL A   1      41.148  26.420  27.466  1.00  0.00     0.016 A 
ATOM     31  C   UNL A   1      39.268  25.413  28.578  1.00  0.00     0.016 A 
ATOM     32  C   UNL A   1      41.235  27.362  28.490  1.00  0.00     0.010 A 
ATOM     33  C   UNL A   1      39.247  26.479  29.495  1.00  0.00     0.010 A 
ATOM     34  C   UNL A   1      40.268  27.446  29.503  1.00  0.00    -0.014 A 
BRANCH  34  35
ATOM     35  C   UNL A   1      40.347  28.529  30.540  1.00  0.00     0.031 A 
ATOM     36  C   UNL A   1      41.363  28.476  31.663  1.00  0.00     0.074 A 
ATOM     37  C   UNL A   1      39.512  29.592  30.474  1.00  0.00     0.049 A 
ATOM     38  N   UNL A   1      41.414  29.183  32.766  1.00  0.00    -0.248 NA
ATOM     39  C   UNL A   1      42.456  27.498  31.542  1.00  0.00     0.031 C 
ATOM     40  C   UNL A   1      38.507  29.823  29.430  1.00  0.00     0.029 A 
ATOM     41  N   UNL A   1      39.373  30.689  31.293  1.00  0.00    -0.354 N 
ATOM     42  C   UNL A   1      42.493  28.690  33.498  1.00  0.00     0.074 A 
ATOM     43  C   UNL A   1      43.075  27.625  32.709  1.00  0.00     0.031 C 
ATOM     44  C   UNL A   1      37.918  31.008  29.626  1.00  0.00     0.029 A 
ATOM     45  C   UNL A   1      38.371  31.547  30.897  1.00  0.00     0.049 A 
ATOM     46  H   UNL A   1      39.935  30.844  32.087  1.00  0.00     0.167 HD
ATOM     47  C   UNL A   1      42.947  29.086  34.714  1.00  0.00     0.037 A 
ATOM     48  C   UNL A   1      37.803  32.603  31.511  1.00  0.00     0.037 A 
ATOM     49  C   UNL A   1      42.395  30.193  35.460  1.00  0.00     0.049 A 
ATOM     50  C   UNL A   1      38.279  32.985  32.880  1.00  0.00     0.074 A 
ATOM     51  C   UNL A   1      42.783  30.676  36.699  1.00  0.00     0.029 A 
ATOM     52  N   UNL A   1      41.353  31.003  35.030  1.00  0.00    -0.354 N 
ATOM     53  N   UNL A   1      39.237  32.447  33.595  1.00  0.00    -0.248 NA
ATOM     54  C   UNL A   1      37.582  34.096  33.536  1.00  0.00     0.031 C 
ATOM     55  C   UNL A   1      41.946  31.743  37.039  1.00  0.00     0.029 A 
ATOM     56  C   UNL A   1      41.076  31.968  35.985  1.00  0.00     0.049 A 
ATOM     57  H   UNL A   1      40.880  30.906  34.173  1.00  0.00     0.167 HD
ATOM     58  C   UNL A   1      39.268  33.167  34.783  1.00  0.00     0.074 A 
ATOM     59  C   UNL A   1      38.249  34.191  34.679  1.00  0.00     0.031 C 
ATOM     60  C   UNL A   1      40.065  32.989  35.864  1.00  0.00     0.037 A 
BRANCH  47  61
ATOM     61  C   UNL A   1      44.072  28.307  35.352  1.00  0.00     0.058 A 
ATOM     62  C   UNL A   1      45.422  28.571  35.076  1.00  0.00     0.135 A 
ATOM     63  C   UNL A   1      43.789  27.323  36.317  1.00  0.00     0.135 A 
ATOM     64  F   UNL A   1      45.758  29.490  34.158  1.00  0.00    -0.206 F 
ATOM     65  C   UNL A   1      46.448  27.877  35.716  1.00  0.00     0.059 A 
ATOM     66  C   UNL A   1      44.798  26.638  36.991  1.00  0.00     0.059 A 
ATOM     67  F   UNL A   1      42.516  27.029  36.628  1.00  0.00    -0.206 F 
ATOM     68  C   UNL A   1      46.125  26.914  36.676  1.00  0.00     0.060 A 
BRANCH  68  69
ATOM     69  S   UNL A   1      47.467  26.036  37.508  1.00  0.00     0.124 S 
ATOM     70  O   UNL A   1      46.907  24.692  37.628  1.00  0.00    -0.237 OA
ATOM     71  O   UNL A   1      48.568  26.180  36.563  1.00  0.00    -0.237 OA
ATOM     72  O   UNL A   1      47.623  26.762  38.765  1.00  0.00    -0.744 OA
ENDBRANCH  68  69
ENDBRANCH  47  61
BRANCH  48  73
ATOM     73  C   UNL A   1      36.655  33.304  30.870  1.00  0.00     0.058 A 
ATOM     74  C   UNL A   1      36.846  34.173  29.786  1.00  0.00     0.135 A 
ATOM     75  C   UNL A   1      35.338  33.104  31.320  1.00  0.00     0.135 A 
ATOM     76  F   UNL A   1      38.084  34.409  29.325  1.00  0.00    -0.206 F 
ATOM     77  C   UNL A   1      35.778  34.828  29.181  1.00  0.00     0.059 A 
ATOM     78  C   UNL A   1      34.251  33.714  30.705  1.00  0.00     0.059 A 
ATOM     79  F   UNL A   1      35.095  32.273  32.346  1.00  0.00    -0.206 F 
ATOM     80  C   UNL A   1      34.483  34.587  29.645  1.00  0.00     0.060 A 
BRANCH  80  81
ATOM     81  S   UNL A   1      33.098  35.410  28.828  1.00  0.00     0.124 S 
ATOM     82  O   UNL A   1      33.787  36.428  28.044  1.00  0.00    -0.237 OA
ATOM     83  O   UNL A   1      32.496  34.318  28.071  1.00  0.00    -0.237 OA
ATOM     84  O   UNL A   1      32.298  35.906  29.944  1.00  0.00    -0.744 OA
ENDBRANCH  80  81
ENDBRANCH  48  73
BRANCH  60  85
ATOM     85  C   UNL A   1      39.899  33.959  37.001  1.00  0.00     0.058 A 
ATOM     86  C   UNL A   1      40.477  35.238  36.975  1.00  0.00     0.135 A 
ATOM     87  C   UNL A   1      39.128  33.609  38.122  1.00  0.00     0.135 A 
ATOM     88  F   UNL A   1      41.234  35.616  35.934  1.00  0.00    -0.206 F 
ATOM     89  C   UNL A   1      40.318  36.127  38.033  1.00  0.00     0.059 A 
ATOM     90  C   UNL A   1      38.930  34.494  39.176  1.00  0.00     0.059 A 
ATOM     91  F   UNL A   1      38.549  32.399  38.195  1.00  0.00    -0.206 F 
ATOM     92  C   UNL A   1      39.540  35.747  39.128  1.00  0.00     0.060 A 
BRANCH  92  93
ATOM     93  S   UNL A   1      39.319  36.921  40.480  1.00  0.00     0.124 S 
ATOM     94  O   UNL A   1      40.668  36.997  41.029  1.00  0.00    -0.237 OA
ATOM     95  O   UNL A   1      38.850  38.114  39.782  1.00  0.00    -0.237 OA
ATOM     96  O   UNL A   1      38.330  36.273  41.336  1.00  0.00    -0.744 OA
ENDBRANCH  92  93
ENDBRANCH  60  85
ENDBRANCH  34  35
ENDBRANCH  27  29
ENDBRANCH  26  27
ENDBRANCH   1  26
TORSDOF 17
ENDMDL
