MODEL 1
REMARK VINA RESULT:     -11.2      0.000      0.000
REMARK SMILES C[C@]1(C(=O)OCCOC(=O)c2ccc(-c3c4nc(c(-c5c(F)cc(S(=O)(=O)[O-])cc5F)c5ccc([nH]5)c(-c5c(F)cc(S(=O)(=O)[O-])cc5F)c5nc(c(-c6c(F)cc(S(=O)(=O)[O-])cc6F)c6ccc3[nH]6)C=C5)C=C4)cc2)COC[C@@H]1NC(=O)[C@H]1C=C[C@@H]([NH3+])C1
REMARK SMILES IDX 6 1 5 2 3 3 4 4 2 5 1 6 77 7 80 8 78 9 79 10 81 11 82 12
REMARK SMILES IDX 83 14 84 15 85 16 89 17 86 18 87 19 88 20 7 24 8 25 9 26
REMARK SMILES IDX 10 27 11 28 12 29 76 30 13 31 75 32 14 33 15 34 16 35 69 36
REMARK SMILES IDX 17 37 74 38 68 39 70 40 18 41 73 42 67 43 66 44 19 46 53 47
REMARK SMILES IDX 32 48 52 49 33 50 36 51 51 52 71 53 34 54 35 55 50 57 72 58
REMARK SMILES IDX 37 59 20 60 21 61 30 62 22 63 23 64 29 65 31 66 24 67 25 68
REMARK SMILES IDX 26 69 27 70 28 71 54 72 55 73 64 74 56 75 57 76 63 77 65 78
REMARK SMILES IDX 58 79 59 80 60 81 61 82 62 83 38 84 39 85 48 86 40 87 41 88
REMARK SMILES IDX 47 89 49 90 42 91 43 92 44 93 45 94 46 95
REMARK H PARENT 81 13 88 21 88 22 88 23 70 45 36 56
REMARK Flexibility Score: inf
ROOT
ATOM      1  C   UNL A   1      38.098  23.762  26.432  1.00  0.00     0.274 C 
ENDROOT
BRANCH   1   2
ATOM      2  O   UNL A   1      37.214  23.514  25.324  1.00  0.00    -0.462 OA
BRANCH   2   3
ATOM      3  C   UNL A   1      35.918  23.170  25.586  1.00  0.00     0.316 C 
ATOM      4  O   UNL A   1      35.457  23.028  26.709  1.00  0.00    -0.251 OA
BRANCH   3   5
ATOM      5  C   UNL A   1      35.164  22.853  24.290  1.00  0.00     0.111 C 
ATOM      6  C   UNL A   1      36.163  22.898  23.124  1.00  0.00     0.028 C 
ATOM      7  C   UNL A   1      34.555  21.472  24.555  1.00  0.00     0.181 C 
ATOM      8  C   UNL A   1      33.937  23.761  24.094  1.00  0.00     0.127 C 
ATOM      9  O   UNL A   1      33.128  21.538  24.439  1.00  0.00    -0.378 OA
ATOM     10  C   UNL A   1      32.712  22.902  24.384  1.00  0.00     0.186 C 
BRANCH   8  11
ATOM     11  N   UNL A   1      33.854  24.595  22.870  1.00  0.00    -0.349 N 
ATOM     12  C   UNL A   1      33.262  25.703  22.377  1.00  0.00     0.227 C 
ATOM     13  H   UNL A   1      34.432  24.204  22.176  1.00  0.00     0.163 HD
ATOM     14  O   UNL A   1      33.580  25.945  21.199  1.00  0.00    -0.274 OA
BRANCH  12  15
ATOM     15  C   UNL A   1      32.263  26.658  23.049  1.00  0.00     0.107 C 
ATOM     16  C   UNL A   1      33.025  27.800  23.679  1.00  0.00    -0.012 C 
ATOM     17  C   UNL A   1      31.188  27.386  22.261  1.00  0.00     0.087 C 
ATOM     18  C   UNL A   1      32.424  28.982  23.498  1.00  0.00     0.033 C 
ATOM     19  C   UNL A   1      31.146  28.841  22.750  1.00  0.00     0.205 C 
BRANCH  19  20
ATOM     20  N   UNL A   1      31.074  29.782  21.643  1.00  0.00    -0.352 N 
ATOM     21  H   UNL A   1      31.749  29.518  20.926  1.00  0.00     0.345 HD
ATOM     22  H   UNL A   1      31.288  30.722  21.980  1.00  0.00     0.345 HD
ATOM     23  H   UNL A   1      30.134  29.770  21.246  1.00  0.00     0.345 HD
ENDBRANCH  19  20
ENDBRANCH  12  15
ENDBRANCH   8  11
ENDBRANCH   3   5
ENDBRANCH   2   3
ENDBRANCH   1   2
BRANCH   1  24
ATOM     24  C   UNL A   1      39.475  23.125  26.231  1.00  0.00     0.275 C 
BRANCH  24  25
ATOM     25  O   UNL A   1      40.482  23.813  26.992  1.00  0.00    -0.458 OA
BRANCH  25  26
ATOM     26  C   UNL A   1      40.802  25.048  26.538  1.00  0.00     0.338 C 
ATOM     27  O   UNL A   1      40.915  25.377  25.365  1.00  0.00    -0.246 OA
BRANCH  26  28
ATOM     28  C   UNL A   1      40.812  26.023  27.651  1.00  0.00     0.060 A 
ATOM     29  C   UNL A   1      39.764  25.938  28.575  1.00  0.00     0.016 A 
ATOM     30  C   UNL A   1      41.811  26.985  27.817  1.00  0.00     0.016 A 
ATOM     31  C   UNL A   1      39.725  26.776  29.685  1.00  0.00     0.010 A 
ATOM     32  C   UNL A   1      41.752  27.857  28.910  1.00  0.00     0.010 A 
ATOM     33  C   UNL A   1      40.707  27.758  29.847  1.00  0.00    -0.014 A 
BRANCH  33  34
ATOM     34  C   UNL A   1      40.534  28.778  30.905  1.00  0.00     0.031 A 
ATOM     35  C   UNL A   1      41.420  28.708  32.116  1.00  0.00     0.074 A 
ATOM     36  C   UNL A   1      39.646  29.779  30.767  1.00  0.00     0.049 A 
ATOM     37  N   UNL A   1      41.440  29.472  33.175  1.00  0.00    -0.248 NA
ATOM     38  C   UNL A   1      42.425  27.632  32.127  1.00  0.00     0.031 C 
ATOM     39  C   UNL A   1      38.779  29.986  29.607  1.00  0.00     0.029 A 
ATOM     40  N   UNL A   1      39.328  30.812  31.613  1.00  0.00    -0.354 N 
ATOM     41  C   UNL A   1      42.453  28.969  33.982  1.00  0.00     0.074 A 
ATOM     42  C   UNL A   1      43.007  27.819  33.301  1.00  0.00     0.031 C 
ATOM     43  C   UNL A   1      38.018  31.074  29.821  1.00  0.00     0.029 A 
ATOM     44  C   UNL A   1      38.319  31.620  31.144  1.00  0.00     0.049 A 
ATOM     45  H   UNL A   1      39.779  30.960  32.475  1.00  0.00     0.167 HD
ATOM     46  C   UNL A   1      42.884  29.427  35.181  1.00  0.00     0.037 A 
ATOM     47  C   UNL A   1      37.697  32.663  31.729  1.00  0.00     0.037 A 
ATOM     48  C   UNL A   1      42.316  30.564  35.858  1.00  0.00     0.049 A 
ATOM     49  C   UNL A   1      38.139  33.106  33.103  1.00  0.00     0.074 A 
ATOM     50  C   UNL A   1      42.669  31.101  37.083  1.00  0.00     0.029 A 
ATOM     51  N   UNL A   1      41.269  31.335  35.371  1.00  0.00    -0.354 N 
ATOM     52  N   UNL A   1      39.095  32.620  33.861  1.00  0.00    -0.248 NA
ATOM     53  C   UNL A   1      37.422  34.240  33.699  1.00  0.00     0.031 C 
ATOM     54  C   UNL A   1      41.801  32.162  37.362  1.00  0.00     0.029 A 
ATOM     55  C   UNL A   1      40.949  32.330  36.281  1.00  0.00     0.049 A 
ATOM     56  H   UNL A   1      40.819  31.195  34.507  1.00  0.00     0.167 HD
ATOM     57  C   UNL A   1      39.119  33.415  35.004  1.00  0.00     0.074 A 
ATOM     58  C   UNL A   1      38.085  34.415  34.834  1.00  0.00     0.031 C 
ATOM     59  C   UNL A   1      39.925  33.329  36.092  1.00  0.00     0.037 A 
BRANCH  46  60
ATOM     60  C   UNL A   1      43.994  28.668  35.853  1.00  0.00     0.058 A 
ATOM     61  C   UNL A   1      45.344  29.002  35.663  1.00  0.00     0.135 A 
ATOM     62  C   UNL A   1      43.699  27.596  36.710  1.00  0.00     0.135 A 
ATOM     63  F   UNL A   1      45.685  30.003  34.835  1.00  0.00    -0.206 F 
ATOM     64  C   UNL A   1      46.365  28.281  36.276  1.00  0.00     0.059 A 
ATOM     65  C   UNL A   1      44.702  26.880  37.357  1.00  0.00     0.059 A 
ATOM     66  F   UNL A   1      42.426  27.229  36.923  1.00  0.00    -0.206 F 
ATOM     67  C   UNL A   1      46.033  27.220  37.121  1.00  0.00     0.060 A 
BRANCH  67  68
ATOM     68  S   UNL A   1      47.366  26.292  37.906  1.00  0.00     0.124 S 
ATOM     69  O   UNL A   1      46.879  24.922  37.782  1.00  0.00    -0.237 OA
ATOM     70  O   UNL A   1      48.516  26.633  37.074  1.00  0.00    -0.237 OA
ATOM     71  O   UNL A   1      47.399  26.824  39.265  1.00  0.00    -0.744 OA
ENDBRANCH  67  68
ENDBRANCH  46  60
BRANCH  47  72
ATOM     72  C   UNL A   1      36.579  33.357  31.032  1.00  0.00     0.058 A 
ATOM     73  C   UNL A   1      36.813  34.201  29.937  1.00  0.00     0.135 A 
ATOM     74  C   UNL A   1      35.251  33.202  31.461  1.00  0.00     0.135 A 
ATOM     75  F   UNL A   1      38.066  34.395  29.495  1.00  0.00    -0.206 F 
ATOM     76  C   UNL A   1      35.777  34.882  29.303  1.00  0.00     0.059 A 
ATOM     77  C   UNL A   1      34.194  33.848  30.826  1.00  0.00     0.059 A 
ATOM     78  F   UNL A   1      34.968  32.402  32.502  1.00  0.00    -0.206 F 
ATOM     79  C   UNL A   1      34.468  34.696  29.754  1.00  0.00     0.060 A 
BRANCH  79  80
ATOM     80  S   UNL A   1      33.127  35.551  28.899  1.00  0.00     0.124 S 
ATOM     81  O   UNL A   1      33.859  36.539  28.116  1.00  0.00    -0.237 OA
ATOM     82  O   UNL A   1      32.508  34.466  28.142  1.00  0.00    -0.237 OA
ATOM     83  O   UNL A   1      32.318  36.084  29.991  1.00  0.00    -0.744 OA
ENDBRANCH  79  80
ENDBRANCH  47  72
BRANCH  59  84
ATOM     84  C   UNL A   1      39.769  34.379  37.161  1.00  0.00     0.058 A 
ATOM     85  C   UNL A   1      39.013  34.157  38.322  1.00  0.00     0.135 A 
ATOM     86  C   UNL A   1      40.425  35.615  37.035  1.00  0.00     0.135 A 
ATOM     87  F   UNL A   1      38.363  32.995  38.495  1.00  0.00    -0.206 F 
ATOM     88  C   UNL A   1      38.883  35.137  39.303  1.00  0.00     0.059 A 
ATOM     89  C   UNL A   1      40.336  36.596  38.018  1.00  0.00     0.059 A 
ATOM     90  F   UNL A   1      41.174  35.877  35.952  1.00  0.00    -0.206 F 
ATOM     91  C   UNL A   1      39.548  36.353  39.141  1.00  0.00     0.060 A 
BRANCH  91  92
ATOM     92  S   UNL A   1      39.381  37.611  40.426  1.00  0.00     0.124 S 
ATOM     93  O   UNL A   1      40.732  38.159  40.478  1.00  0.00    -0.237 OA
ATOM     94  O   UNL A   1      38.360  38.493  39.869  1.00  0.00    -0.237 OA
ATOM     95  O   UNL A   1      38.968  36.847  41.599  1.00  0.00    -0.744 OA
ENDBRANCH  91  92
ENDBRANCH  59  84
ENDBRANCH  33  34
ENDBRANCH  26  28
ENDBRANCH  25  26
ENDBRANCH  24  25
ENDBRANCH   1  24
TORSDOF 17
ENDMDL
MODEL 2
REMARK VINA RESULT:     -11.2      1.391      2.425
REMARK SMILES C[C@]1(C(=O)OCCOC(=O)c2ccc(-c3c4nc(c(-c5c(F)cc(S(=O)(=O)[O-])cc5F)c5ccc([nH]5)c(-c5c(F)cc(S(=O)(=O)[O-])cc5F)c5nc(c(-c6c(F)cc(S(=O)(=O)[O-])cc6F)c6ccc3[nH]6)C=C5)C=C4)cc2)COC[C@@H]1NC(=O)[C@H]1C=C[C@@H]([NH3+])C1
REMARK SMILES IDX 6 1 5 2 3 3 4 4 2 5 1 6 77 7 80 8 78 9 79 10 81 11 82 12
REMARK SMILES IDX 83 14 84 15 85 16 89 17 86 18 87 19 88 20 7 24 8 25 9 26
REMARK SMILES IDX 10 27 11 28 12 29 76 30 13 31 75 32 14 33 15 34 16 35 69 36
REMARK SMILES IDX 17 37 74 38 68 39 70 40 18 41 73 42 67 43 66 44 19 46 53 47
REMARK SMILES IDX 32 48 52 49 33 50 36 51 51 52 71 53 34 54 35 55 50 57 72 58
REMARK SMILES IDX 37 59 20 60 21 61 30 62 22 63 23 64 29 65 31 66 24 67 25 68
REMARK SMILES IDX 26 69 27 70 28 71 54 72 55 73 64 74 56 75 57 76 63 77 65 78
REMARK SMILES IDX 58 79 59 80 60 81 61 82 62 83 38 84 39 85 48 86 40 87 41 88
REMARK SMILES IDX 47 89 49 90 42 91 43 92 44 93 45 94 46 95
REMARK H PARENT 81 13 88 21 88 22 88 23 70 45 36 56
REMARK Flexibility Score: inf
ROOT
ATOM      1  C   UNL A   1      39.294  21.620  25.889  1.00  0.00     0.274 C 
ENDROOT
BRANCH   1   2
ATOM      2  O   UNL A   1      38.017  22.275  25.792  1.00  0.00    -0.462 OA
BRANCH   2   3
ATOM      3  C   UNL A   1      37.021  21.665  25.084  1.00  0.00     0.316 C 
ATOM      4  O   UNL A   1      37.179  20.673  24.386  1.00  0.00    -0.251 OA
BRANCH   3   5
ATOM      5  C   UNL A   1      35.717  22.467  25.171  1.00  0.00     0.111 C 
ATOM      6  C   UNL A   1      35.941  23.653  26.120  1.00  0.00     0.028 C 
ATOM      7  C   UNL A   1      35.437  22.858  23.716  1.00  0.00     0.181 C 
ATOM      8  C   UNL A   1      34.515  21.584  25.550  1.00  0.00     0.127 C 
ATOM      9  O   UNL A   1      34.164  22.339  23.310  1.00  0.00    -0.378 OA
ATOM     10  C   UNL A   1      33.691  21.406  24.281  1.00  0.00     0.186 C 
BRANCH   8  11
ATOM     11  N   UNL A   1      33.740  21.918  26.770  1.00  0.00    -0.349 N 
ATOM     12  C   UNL A   1      32.699  22.662  27.196  1.00  0.00     0.227 C 
ATOM     13  H   UNL A   1      34.117  21.426  27.534  1.00  0.00     0.163 HD
ATOM     14  O   UNL A   1      32.483  22.550  28.416  1.00  0.00    -0.274 OA
BRANCH  12  15
ATOM     15  C   UNL A   1      31.790  23.616  26.404  1.00  0.00     0.107 C 
ATOM     16  C   UNL A   1      32.634  24.723  25.818  1.00  0.00    -0.012 C 
ATOM     17  C   UNL A   1      30.987  23.152  25.202  1.00  0.00     0.087 C 
ATOM     18  C   UNL A   1      32.280  25.031  24.565  1.00  0.00     0.033 C 
ATOM     19  C   UNL A   1      31.124  24.217  24.103  1.00  0.00     0.205 C 
BRANCH  19  20
ATOM     20  N   UNL A   1      31.382  23.621  22.801  1.00  0.00    -0.352 N 
ATOM     21  H   UNL A   1      30.892  24.151  22.081  1.00  0.00     0.345 HD
ATOM     22  H   UNL A   1      31.051  22.656  22.797  1.00  0.00     0.345 HD
ATOM     23  H   UNL A   1      32.385  23.637  22.612  1.00  0.00     0.345 HD
ENDBRANCH  19  20
ENDBRANCH  12  15
ENDBRANCH   8  11
ENDBRANCH   3   5
ENDBRANCH   2   3
ENDBRANCH   1   2
BRANCH   1  24
ATOM     24  C   UNL A   1      40.268  22.373  26.798  1.00  0.00     0.275 C 
BRANCH  24  25
ATOM     25  O   UNL A   1      40.268  23.781  26.504  1.00  0.00    -0.458 OA
BRANCH  25  26
ATOM     26  C   UNL A   1      41.394  24.442  26.863  1.00  0.00     0.338 C 
ATOM     27  O   UNL A   1      42.499  24.310  26.355  1.00  0.00    -0.246 OA
BRANCH  26  28
ATOM     28  C   UNL A   1      41.079  25.510  27.838  1.00  0.00     0.060 A 
ATOM     29  C   UNL A   1      42.077  26.462  28.077  1.00  0.00     0.016 A 
ATOM     30  C   UNL A   1      39.851  25.608  28.495  1.00  0.00     0.016 A 
ATOM     31  C   UNL A   1      41.846  27.534  28.934  1.00  0.00     0.010 A 
ATOM     32  C   UNL A   1      39.630  26.662  29.390  1.00  0.00     0.010 A 
ATOM     33  C   UNL A   1      40.629  27.627  29.614  1.00  0.00    -0.014 A 
BRANCH  33  34
ATOM     34  C   UNL A   1      40.478  28.642  30.681  1.00  0.00     0.031 A 
ATOM     35  C   UNL A   1      41.378  28.558  31.880  1.00  0.00     0.074 A 
ATOM     36  C   UNL A   1      39.597  29.652  30.559  1.00  0.00     0.049 A 
ATOM     37  N   UNL A   1      41.418  29.315  32.943  1.00  0.00    -0.248 NA
ATOM     38  C   UNL A   1      42.374  27.472  31.872  1.00  0.00     0.031 C 
ATOM     39  C   UNL A   1      38.717  29.873  29.412  1.00  0.00     0.029 A 
ATOM     40  N   UNL A   1      39.299  30.682  31.415  1.00  0.00    -0.354 N 
ATOM     41  C   UNL A   1      42.437  28.799  33.735  1.00  0.00     0.074 A 
ATOM     42  C   UNL A   1      42.973  27.647  33.040  1.00  0.00     0.031 C 
ATOM     43  C   UNL A   1      37.969  30.967  29.642  1.00  0.00     0.029 A 
ATOM     44  C   UNL A   1      38.291  31.502  30.964  1.00  0.00     0.049 A 
ATOM     45  H   UNL A   1      39.762  30.821  32.273  1.00  0.00     0.167 HD
ATOM     46  C   UNL A   1      42.887  29.246  34.931  1.00  0.00     0.037 A 
ATOM     47  C   UNL A   1      37.686  32.547  31.563  1.00  0.00     0.037 A 
ATOM     48  C   UNL A   1      42.338  30.383  35.621  1.00  0.00     0.049 A 
ATOM     49  C   UNL A   1      38.149  32.978  32.934  1.00  0.00     0.074 A 
ATOM     50  C   UNL A   1      42.711  30.910  36.845  1.00  0.00     0.029 A 
ATOM     51  N   UNL A   1      41.291  31.166  35.152  1.00  0.00    -0.354 N 
ATOM     52  N   UNL A   1      39.110  32.479  33.677  1.00  0.00    -0.248 NA
ATOM     53  C   UNL A   1      37.450  34.115  33.546  1.00  0.00     0.031 C 
ATOM     54  C   UNL A   1      41.855  31.977  37.140  1.00  0.00     0.029 A 
ATOM     55  C   UNL A   1      40.992  32.159  36.071  1.00  0.00     0.049 A 
ATOM     56  H   UNL A   1      40.829  31.035  34.293  1.00  0.00     0.167 HD
ATOM     57  C   UNL A   1      39.155  33.267  34.824  1.00  0.00     0.074 A 
ATOM     58  C   UNL A   1      38.129  34.278  34.673  1.00  0.00     0.031 C 
ATOM     59  C   UNL A   1      39.974  33.167  35.901  1.00  0.00     0.037 A 
BRANCH  46  60
ATOM     60  C   UNL A   1      43.998  28.473  35.584  1.00  0.00     0.058 A 
ATOM     61  C   UNL A   1      43.747  27.430  36.490  1.00  0.00     0.135 A 
ATOM     62  C   UNL A   1      45.338  28.774  35.289  1.00  0.00     0.135 A 
ATOM     63  F   UNL A   1      42.486  27.115  36.827  1.00  0.00    -0.206 F 
ATOM     64  C   UNL A   1      44.784  26.733  37.103  1.00  0.00     0.059 A 
ATOM     65  C   UNL A   1      46.390  28.071  35.867  1.00  0.00     0.059 A 
ATOM     66  F   UNL A   1      45.636  29.765  34.435  1.00  0.00    -0.206 F 
ATOM     67  C   UNL A   1      46.103  27.062  36.785  1.00  0.00     0.060 A 
BRANCH  67  68
ATOM     68  S   UNL A   1      47.438  26.152  37.590  1.00  0.00     0.124 S 
ATOM     69  O   UNL A   1      47.456  26.771  38.912  1.00  0.00    -0.237 OA
ATOM     70  O   UNL A   1      46.951  24.777  37.540  1.00  0.00    -0.237 OA
ATOM     71  O   UNL A   1      48.598  26.435  36.751  1.00  0.00    -0.744 OA
ENDBRANCH  67  68
ENDBRANCH  46  60
BRANCH  47  72
ATOM     72  C   UNL A   1      36.566  33.255  30.884  1.00  0.00     0.058 A 
ATOM     73  C   UNL A   1      36.798  34.146  29.826  1.00  0.00     0.135 A 
ATOM     74  C   UNL A   1      35.235  33.066  31.294  1.00  0.00     0.135 A 
ATOM     75  F   UNL A   1      38.053  34.373  29.405  1.00  0.00    -0.206 F 
ATOM     76  C   UNL A   1      35.760  34.839  29.211  1.00  0.00     0.059 A 
ATOM     77  C   UNL A   1      34.177  33.725  30.675  1.00  0.00     0.059 A 
ATOM     78  F   UNL A   1      34.954  32.221  32.298  1.00  0.00    -0.206 F 
ATOM     79  C   UNL A   1      34.450  34.618  29.641  1.00  0.00     0.060 A 
BRANCH  79  80
ATOM     80  S   UNL A   1      33.105  35.491  28.809  1.00  0.00     0.124 S 
ATOM     81  O   UNL A   1      33.836  36.475  28.020  1.00  0.00    -0.237 OA
ATOM     82  O   UNL A   1      32.465  34.416  28.056  1.00  0.00    -0.237 OA
ATOM     83  O   UNL A   1      32.317  36.027  29.915  1.00  0.00    -0.744 OA
ENDBRANCH  79  80
ENDBRANCH  47  72
BRANCH  59  84
ATOM     84  C   UNL A   1      39.841  34.212  36.978  1.00  0.00     0.058 A 
ATOM     85  C   UNL A   1      40.408  35.490  36.854  1.00  0.00     0.135 A 
ATOM     86  C   UNL A   1      39.097  33.939  38.138  1.00  0.00     0.135 A 
ATOM     87  F   UNL A   1      41.131  35.807  35.767  1.00  0.00    -0.206 F 
ATOM     88  C   UNL A   1      40.272  36.447  37.856  1.00  0.00     0.059 A 
ATOM     89  C   UNL A   1      38.920  34.890  39.138  1.00  0.00     0.059 A 
ATOM     90  F   UNL A   1      38.520  32.737  38.304  1.00  0.00    -0.206 F 
ATOM     91  C   UNL A   1      39.526  36.137  38.995  1.00  0.00     0.060 A 
BRANCH  91  92
ATOM     92  S   UNL A   1      39.346  37.390  40.283  1.00  0.00     0.124 S 
ATOM     93  O   UNL A   1      38.482  38.365  39.626  1.00  0.00    -0.237 OA
ATOM     94  O   UNL A   1      38.735  36.633  41.371  1.00  0.00    -0.237 OA
ATOM     95  O   UNL A   1      40.717  37.828  40.526  1.00  0.00    -0.744 OA
ENDBRANCH  91  92
ENDBRANCH  59  84
ENDBRANCH  33  34
ENDBRANCH  26  28
ENDBRANCH  25  26
ENDBRANCH  24  25
ENDBRANCH   1  24
TORSDOF 17
ENDMDL
MODEL 3
REMARK VINA RESULT:     -11.1      4.862     10.570
REMARK SMILES C[C@]1(C(=O)OCCOC(=O)c2ccc(-c3c4nc(c(-c5c(F)cc(S(=O)(=O)[O-])cc5F)c5ccc([nH]5)c(-c5c(F)cc(S(=O)(=O)[O-])cc5F)c5nc(c(-c6c(F)cc(S(=O)(=O)[O-])cc6F)c6ccc3[nH]6)C=C5)C=C4)cc2)COC[C@@H]1NC(=O)[C@H]1C=C[C@@H]([NH3+])C1
REMARK SMILES IDX 6 1 5 2 3 3 4 4 2 5 1 6 77 7 80 8 78 9 79 10 81 11 82 12
REMARK SMILES IDX 83 14 84 15 85 16 89 17 86 18 87 19 88 20 7 24 8 25 9 26
REMARK SMILES IDX 10 27 11 28 12 29 76 30 13 31 75 32 14 33 15 34 16 35 69 36
REMARK SMILES IDX 17 37 74 38 68 39 70 40 18 41 73 42 67 43 66 44 19 46 53 47
REMARK SMILES IDX 32 48 52 49 33 50 36 51 51 52 71 53 34 54 35 55 50 57 72 58
REMARK SMILES IDX 37 59 20 60 21 61 30 62 22 63 23 64 29 65 31 66 24 67 25 68
REMARK SMILES IDX 26 69 27 70 28 71 54 72 55 73 64 74 56 75 57 76 63 77 65 78
REMARK SMILES IDX 58 79 59 80 60 81 61 82 62 83 38 84 39 85 48 86 40 87 41 88
REMARK SMILES IDX 47 89 49 90 42 91 43 92 44 93 45 94 46 95
REMARK H PARENT 81 13 88 21 88 22 88 23 70 45 36 56
REMARK Flexibility Score: inf
ROOT
ATOM      1  C   UNL A   1      31.698  27.844  27.229  1.00  0.00     0.274 C 
ENDROOT
BRANCH   1   2
ATOM      2  O   UNL A   1      31.948  26.674  26.430  1.00  0.00    -0.462 OA
BRANCH   2   3
ATOM      3  C   UNL A   1      30.891  26.057  25.824  1.00  0.00     0.316 C 
ATOM      4  O   UNL A   1      29.960  25.538  26.425  1.00  0.00    -0.251 OA
BRANCH   3   5
ATOM      5  C   UNL A   1      31.096  25.980  24.308  1.00  0.00     0.111 C 
ATOM      6  C   UNL A   1      30.563  24.627  23.814  1.00  0.00     0.028 C 
ATOM      7  C   UNL A   1      30.332  27.198  23.778  1.00  0.00     0.181 C 
ATOM      8  C   UNL A   1      32.555  26.260  23.904  1.00  0.00     0.127 C 
ATOM      9  O   UNL A   1      31.226  28.058  23.060  1.00  0.00    -0.378 OA
ATOM     10  C   UNL A   1      32.575  27.656  23.294  1.00  0.00     0.186 C 
BRANCH   8  11
ATOM     11  N   UNL A   1      33.296  25.223  23.144  1.00  0.00    -0.349 N 
ATOM     12  C   UNL A   1      34.112  24.162  23.313  1.00  0.00     0.227 C 
ATOM     13  H   UNL A   1      33.137  25.356  22.182  1.00  0.00     0.163 HD
ATOM     14  O   UNL A   1      34.457  23.633  22.242  1.00  0.00    -0.274 OA
BRANCH  12  15
ATOM     15  C   UNL A   1      34.671  23.556  24.610  1.00  0.00     0.107 C 
ATOM     16  C   UNL A   1      35.240  22.190  24.308  1.00  0.00    -0.012 C 
ATOM     17  C   UNL A   1      35.802  24.211  25.384  1.00  0.00     0.087 C 
ATOM     18  C   UNL A   1      36.395  21.961  24.943  1.00  0.00     0.033 C 
ATOM     19  C   UNL A   1      36.788  23.110  25.803  1.00  0.00     0.205 C 
BRANCH  19  20
ATOM     20  N   UNL A   1      38.169  23.502  25.566  1.00  0.00    -0.352 N 
ATOM     21  H   UNL A   1      38.242  23.959  24.657  1.00  0.00     0.345 HD
ATOM     22  H   UNL A   1      38.764  22.673  25.578  1.00  0.00     0.345 HD
ATOM     23  H   UNL A   1      38.470  24.147  26.297  1.00  0.00     0.345 HD
ENDBRANCH  19  20
ENDBRANCH  12  15
ENDBRANCH   8  11
ENDBRANCH   3   5
ENDBRANCH   2   3
ENDBRANCH   1   2
BRANCH   1  24
ATOM     24  C   UNL A   1      32.649  28.994  26.891  1.00  0.00     0.275 C 
BRANCH  24  25
ATOM     25  O   UNL A   1      33.889  28.870  27.607  1.00  0.00    -0.458 OA
BRANCH  25  26
ATOM     26  C   UNL A   1      34.552  30.032  27.816  1.00  0.00     0.338 C 
ATOM     27  O   UNL A   1      34.057  31.151  27.828  1.00  0.00    -0.246 OA
BRANCH  26  28
ATOM     28  C   UNL A   1      35.947  29.766  28.229  1.00  0.00     0.060 A 
ATOM     29  C   UNL A   1      36.938  29.930  27.254  1.00  0.00     0.016 A 
ATOM     30  C   UNL A   1      36.302  29.386  29.526  1.00  0.00     0.016 A 
ATOM     31  C   UNL A   1      38.282  29.758  27.569  1.00  0.00     0.010 A 
ATOM     32  C   UNL A   1      37.651  29.172  29.835  1.00  0.00     0.010 A 
ATOM     33  C   UNL A   1      38.645  29.354  28.858  1.00  0.00    -0.014 A 
BRANCH  33  34
ATOM     34  C   UNL A   1      40.049  28.965  29.119  1.00  0.00     0.031 A 
ATOM     35  C   UNL A   1      40.950  29.955  29.800  1.00  0.00     0.074 A 
ATOM     36  C   UNL A   1      40.499  27.736  28.806  1.00  0.00     0.049 A 
ATOM     37  N   UNL A   1      42.213  29.850  30.112  1.00  0.00    -0.248 NA
ATOM     38  C   UNL A   1      40.335  31.236  30.187  1.00  0.00     0.031 C 
ATOM     39  C   UNL A   1      39.699  26.671  28.202  1.00  0.00     0.029 A 
ATOM     40  N   UNL A   1      41.743  27.178  28.957  1.00  0.00    -0.354 N 
ATOM     41  C   UNL A   1      42.550  31.049  30.727  1.00  0.00     0.074 A 
ATOM     42  C   UNL A   1      41.363  31.877  30.722  1.00  0.00     0.031 C 
ATOM     43  C   UNL A   1      40.478  25.590  28.024  1.00  0.00     0.029 A 
ATOM     44  C   UNL A   1      41.838  25.896  28.468  1.00  0.00     0.049 A 
ATOM     45  H   UNL A   1      42.499  27.651  29.376  1.00  0.00     0.167 HD
ATOM     46  C   UNL A   1      43.740  31.425  31.253  1.00  0.00     0.037 A 
ATOM     47  C   UNL A   1      42.905  25.079  28.369  1.00  0.00     0.037 A 
ATOM     48  C   UNL A   1      44.919  30.600  31.241  1.00  0.00     0.049 A 
ATOM     49  C   UNL A   1      44.242  25.550  28.887  1.00  0.00     0.074 A 
ATOM     50  C   UNL A   1      46.179  30.891  31.732  1.00  0.00     0.029 A 
ATOM     51  N   UNL A   1      44.988  29.322  30.701  1.00  0.00    -0.354 N 
ATOM     52  N   UNL A   1      44.551  26.689  29.463  1.00  0.00    -0.248 NA
ATOM     53  C   UNL A   1      45.374  24.625  28.747  1.00  0.00     0.031 C 
ATOM     54  C   UNL A   1      47.022  29.813  31.442  1.00  0.00     0.029 A 
ATOM     55  C   UNL A   1      46.273  28.821  30.829  1.00  0.00     0.049 A 
ATOM     56  H   UNL A   1      44.234  28.843  30.288  1.00  0.00     0.167 HD
ATOM     57  C   UNL A   1      45.902  26.599  29.788  1.00  0.00     0.074 A 
ATOM     58  C   UNL A   1      46.347  25.293  29.350  1.00  0.00     0.031 C 
ATOM     59  C   UNL A   1      46.700  27.512  30.399  1.00  0.00     0.037 A 
BRANCH  46  60
ATOM     60  C   UNL A   1      43.831  32.804  31.843  1.00  0.00     0.058 A 
ATOM     61  C   UNL A   1      44.172  33.924  31.067  1.00  0.00     0.135 A 
ATOM     62  C   UNL A   1      43.561  33.010  33.205  1.00  0.00     0.135 A 
ATOM     63  F   UNL A   1      44.464  33.782  29.764  1.00  0.00    -0.206 F 
ATOM     64  C   UNL A   1      44.270  35.195  31.628  1.00  0.00     0.059 A 
ATOM     65  C   UNL A   1      43.624  34.276  33.780  1.00  0.00     0.059 A 
ATOM     66  F   UNL A   1      43.236  31.975  33.995  1.00  0.00    -0.206 F 
ATOM     67  C   UNL A   1      43.995  35.359  32.986  1.00  0.00     0.060 A 
BRANCH  67  68
ATOM     68  S   UNL A   1      44.131  37.011  33.700  1.00  0.00     0.124 S 
ATOM     69  O   UNL A   1      44.713  37.761  32.591  1.00  0.00    -0.237 OA
ATOM     70  O   UNL A   1      42.742  37.328  34.017  1.00  0.00    -0.237 OA
ATOM     71  O   UNL A   1      45.006  36.816  34.852  1.00  0.00    -0.744 OA
ENDBRANCH  67  68
ENDBRANCH  46  60
BRANCH  47  72
ATOM     72  C   UNL A   1      42.765  23.735  27.744  1.00  0.00     0.058 A 
ATOM     73  C   UNL A   1      42.468  22.598  28.511  1.00  0.00     0.135 A 
ATOM     74  C   UNL A   1      42.944  23.557  26.362  1.00  0.00     0.135 A 
ATOM     75  F   UNL A   1      42.302  22.711  29.839  1.00  0.00    -0.206 F 
ATOM     76  C   UNL A   1      42.372  21.333  27.938  1.00  0.00     0.059 A 
ATOM     77  C   UNL A   1      42.823  22.307  25.761  1.00  0.00     0.059 A 
ATOM     78  F   UNL A   1      43.224  24.610  25.578  1.00  0.00    -0.206 F 
ATOM     79  C   UNL A   1      42.548  21.198  26.560  1.00  0.00     0.060 A 
BRANCH  79  80
ATOM     80  S   UNL A   1      42.380  19.559  25.820  1.00  0.00     0.124 S 
ATOM     81  O   UNL A   1      42.788  18.696  26.923  1.00  0.00    -0.237 OA
ATOM     82  O   UNL A   1      40.963  19.526  25.472  1.00  0.00    -0.237 OA
ATOM     83  O   UNL A   1      43.296  19.607  24.685  1.00  0.00    -0.744 OA
ENDBRANCH  79  80
ENDBRANCH  47  72
BRANCH  59  84
ATOM     84  C   UNL A   1      48.123  27.111  30.688  1.00  0.00     0.058 A 
ATOM     85  C   UNL A   1      49.187  27.471  29.846  1.00  0.00     0.135 A 
ATOM     86  C   UNL A   1      48.429  26.389  31.853  1.00  0.00     0.135 A 
ATOM     87  F   UNL A   1      48.953  28.160  28.717  1.00  0.00    -0.206 F 
ATOM     88  C   UNL A   1      50.497  27.097  30.130  1.00  0.00     0.059 A 
ATOM     89  C   UNL A   1      49.736  26.033  32.174  1.00  0.00     0.059 A 
ATOM     90  F   UNL A   1      47.453  26.031  32.704  1.00  0.00    -0.206 F 
ATOM     91  C   UNL A   1      50.761  26.378  31.296  1.00  0.00     0.060 A 
BRANCH  91  92
ATOM     92  S   UNL A   1      52.467  25.910  31.661  1.00  0.00     0.124 S 
ATOM     93  O   UNL A   1      53.105  26.088  30.361  1.00  0.00    -0.237 OA
ATOM     94  O   UNL A   1      52.842  26.876  32.689  1.00  0.00    -0.237 OA
ATOM     95  O   UNL A   1      52.351  24.529  32.119  1.00  0.00    -0.744 OA
ENDBRANCH  91  92
ENDBRANCH  59  84
ENDBRANCH  33  34
ENDBRANCH  26  28
ENDBRANCH  25  26
ENDBRANCH  24  25
ENDBRANCH   1  24
TORSDOF 17
ENDMDL
