MODEL 1
REMARK VINA RESULT:     -10.3      0.000      0.000
REMARK SMILES C[N@@H+](CC(C)(C)C(=O)OCCOC(=O)c1ccc(-c2c3nc(c(-c4c(F)cc(S(=O)(=O)[O-])cc4F)c4ccc([nH]4)c(-c4c(F)cc(S(=O)(=O)[O-])cc4F)c4nc(c(-c5c(F)cc(S(=O)(=O)[O-])cc5F)c5ccc2[nH]5)C=C4)C=C3)cc1)[C@@H]1CCCC[C@@H]1C[NH3+]
REMARK SMILES IDX 10 1 9 2 7 3 8 4 4 5 5 6 6 7 3 8 2 9 1 10 81 12 82 13 86 14
REMARK SMILES IDX 83 15 85 16 84 17 87 18 88 19 11 23 12 24 13 25 14 26 15 27
REMARK SMILES IDX 16 28 80 29 17 30 79 31 18 32 19 33 20 34 73 35 21 36 78 37
REMARK SMILES IDX 72 38 74 39 22 40 77 41 71 42 70 43 23 45 57 46 36 47 56 48
REMARK SMILES IDX 37 49 40 50 55 51 75 52 38 53 39 54 54 56 76 57 41 58 24 59
REMARK SMILES IDX 25 60 34 61 26 62 27 63 33 64 35 65 28 66 29 67 30 68 31 69
REMARK SMILES IDX 32 70 58 71 59 72 68 73 60 74 61 75 67 76 69 77 62 78 63 79
REMARK SMILES IDX 64 80 65 81 66 82 42 83 43 84 52 85 44 86 45 87 51 88 53 89
REMARK SMILES IDX 46 90 47 91 48 92 49 93 50 94
REMARK H PARENT 2 11 88 20 88 21 88 22 74 44 40 55
REMARK Flexibility Score: inf
ROOT
ATOM      1  C   UNL A   1      38.773  21.338  25.751  1.00  0.00     0.274 C 
ENDROOT
BRANCH   1   2
ATOM      2  O   UNL A   1      37.402  21.472  25.313  1.00  0.00    -0.461 OA
BRANCH   2   3
ATOM      3  C   UNL A   1      36.970  22.769  25.260  1.00  0.00     0.317 C 
ATOM      4  O   UNL A   1      37.741  23.697  25.393  1.00  0.00    -0.251 OA
BRANCH   3   5
ATOM      5  C   UNL A   1      35.458  22.897  24.996  1.00  0.00     0.111 C 
ATOM      6  C   UNL A   1      35.115  23.131  23.509  1.00  0.00     0.029 C 
ATOM      7  C   UNL A   1      34.961  24.171  25.724  1.00  0.00     0.029 C 
BRANCH   5   8
ATOM      8  C   UNL A   1      34.703  21.632  25.560  1.00  0.00     0.280 C 
BRANCH   8   9
ATOM      9  N   UNL A   1      33.469  21.096  24.964  1.00  0.00    -0.334 N 
ATOM     10  C   UNL A   1      32.198  21.650  25.395  1.00  0.00     0.333 C 
ATOM     11  H   UNL A   1      33.666  21.587  24.093  1.00  0.00     0.348 HD
BRANCH   9  12
ATOM     12  C   UNL A   1      33.484  19.915  24.114  1.00  0.00     0.192 C 
ATOM     13  C   UNL A   1      32.194  19.724  23.286  1.00  0.00     0.065 C 
ATOM     14  C   UNL A   1      33.846  18.569  24.803  1.00  0.00     0.102 C 
ATOM     15  C   UNL A   1      32.397  18.667  22.203  1.00  0.00     0.006 C 
ATOM     16  C   UNL A   1      34.131  17.537  23.693  1.00  0.00     0.015 C 
ATOM     17  C   UNL A   1      32.949  17.349  22.743  1.00  0.00     0.001 C 
BRANCH  14  18
ATOM     18  C   UNL A   1      32.844  18.037  25.844  1.00  0.00     0.268 C 
BRANCH  18  19
ATOM     19  N   UNL A   1      33.133  16.627  26.162  1.00  0.00    -0.357 N 
ATOM     20  H   UNL A   1      34.057  16.381  25.804  1.00  0.00     0.344 HD
ATOM     21  H   UNL A   1      32.431  16.029  25.726  1.00  0.00     0.344 HD
ATOM     22  H   UNL A   1      33.114  16.495  27.173  1.00  0.00     0.344 HD
ENDBRANCH  18  19
ENDBRANCH  14  18
ENDBRANCH   9  12
ENDBRANCH   8   9
ENDBRANCH   5   8
ENDBRANCH   3   5
ENDBRANCH   2   3
ENDBRANCH   1   2
BRANCH   1  23
ATOM     23  C   UNL A   1      39.381  19.948  25.499  1.00  0.00     0.275 C 
BRANCH  23  24
ATOM     24  O   UNL A   1      40.386  19.572  26.465  1.00  0.00    -0.458 OA
BRANCH  24  25
ATOM     25  C   UNL A   1      41.668  19.799  26.092  1.00  0.00     0.338 C 
ATOM     26  O   UNL A   1      42.342  19.091  25.353  1.00  0.00    -0.246 OA
BRANCH  25  27
ATOM     27  C   UNL A   1      42.129  21.133  26.532  1.00  0.00     0.060 A 
ATOM     28  C   UNL A   1      42.383  22.070  25.530  1.00  0.00     0.016 A 
ATOM     29  C   UNL A   1      42.404  21.463  27.859  1.00  0.00     0.016 A 
ATOM     30  C   UNL A   1      42.845  23.346  25.825  1.00  0.00     0.010 A 
ATOM     31  C   UNL A   1      42.915  22.742  28.160  1.00  0.00     0.010 A 
ATOM     32  C   UNL A   1      43.128  23.692  27.143  1.00  0.00    -0.014 A 
BRANCH  32  33
ATOM     33  C   UNL A   1      43.780  24.999  27.396  1.00  0.00     0.031 A 
ATOM     34  C   UNL A   1      42.946  26.126  27.933  1.00  0.00     0.074 A 
ATOM     35  C   UNL A   1      45.110  25.154  27.256  1.00  0.00     0.049 A 
ATOM     36  N   UNL A   1      43.285  27.364  28.180  1.00  0.00    -0.248 NA
ATOM     37  C   UNL A   1      41.544  25.807  28.249  1.00  0.00     0.031 C 
ATOM     38  C   UNL A   1      46.049  24.102  26.872  1.00  0.00     0.029 A 
ATOM     39  N   UNL A   1      45.902  26.265  27.424  1.00  0.00    -0.354 N 
ATOM     40  C   UNL A   1      42.137  27.977  28.666  1.00  0.00     0.074 A 
ATOM     41  C   UNL A   1      41.093  26.975  28.683  1.00  0.00     0.031 C 
ATOM     42  C   UNL A   1      47.288  24.622  26.813  1.00  0.00     0.029 A 
ATOM     43  C   UNL A   1      47.223  26.054  27.106  1.00  0.00     0.049 A 
ATOM     44  H   UNL A   1      45.555  27.129  27.743  1.00  0.00     0.167 HD
ATOM     45  C   UNL A   1      41.966  29.264  29.050  1.00  0.00     0.037 A 
ATOM     46  C   UNL A   1      48.249  26.925  27.022  1.00  0.00     0.037 A 
ATOM     47  C   UNL A   1      43.002  30.262  29.011  1.00  0.00     0.049 A 
ATOM     48  C   UNL A   1      48.005  28.383  27.333  1.00  0.00     0.074 A 
ATOM     49  C   UNL A   1      42.916  31.603  29.337  1.00  0.00     0.029 A 
ATOM     50  N   UNL A   1      44.309  30.031  28.610  1.00  0.00    -0.354 N 
ATOM     51  N   UNL A   1      46.906  28.966  27.748  1.00  0.00    -0.248 NA
ATOM     52  C   UNL A   1      49.138  29.303  27.154  1.00  0.00     0.031 C 
ATOM     53  C   UNL A   1      44.158  32.194  29.085  1.00  0.00     0.029 A 
ATOM     54  C   UNL A   1      45.035  31.209  28.657  1.00  0.00     0.049 A 
ATOM     55  H   UNL A   1      44.669  29.156  28.334  1.00  0.00     0.167 HD
ATOM     56  C   UNL A   1      47.223  30.313  27.906  1.00  0.00     0.074 A 
ATOM     57  C   UNL A   1      48.619  30.457  27.550  1.00  0.00     0.031 C 
ATOM     58  C   UNL A   1      46.429  31.337  28.311  1.00  0.00     0.037 A 
BRANCH  45  59
ATOM     59  C   UNL A   1      40.585  29.675  29.474  1.00  0.00     0.058 A 
ATOM     60  C   UNL A   1      39.540  29.833  28.552  1.00  0.00     0.135 A 
ATOM     61  C   UNL A   1      40.309  29.918  30.828  1.00  0.00     0.135 A 
ATOM     62  F   UNL A   1      39.757  29.639  27.241  1.00  0.00    -0.206 F 
ATOM     63  C   UNL A   1      38.273  30.243  28.955  1.00  0.00     0.059 A 
ATOM     64  C   UNL A   1      39.044  30.304  31.258  1.00  0.00     0.059 A 
ATOM     65  F   UNL A   1      41.277  29.789  31.749  1.00  0.00    -0.206 F 
ATOM     66  C   UNL A   1      38.037  30.479  30.312  1.00  0.00     0.060 A 
BRANCH  66  67
ATOM     67  S   UNL A   1      36.392  31.023  30.820  1.00  0.00     0.124 S 
ATOM     68  O   UNL A   1      36.677  32.353  31.351  1.00  0.00    -0.237 OA
ATOM     69  O   UNL A   1      35.649  30.988  29.565  1.00  0.00    -0.237 OA
ATOM     70  O   UNL A   1      35.994  30.026  31.809  1.00  0.00    -0.744 OA
ENDBRANCH  66  67
ENDBRANCH  45  59
BRANCH  46  71
ATOM     71  C   UNL A   1      49.591  26.466  26.566  1.00  0.00     0.058 A 
ATOM     72  C   UNL A   1      49.953  26.489  25.211  1.00  0.00     0.135 A 
ATOM     73  C   UNL A   1      50.531  25.960  27.480  1.00  0.00     0.135 A 
ATOM     74  F   UNL A   1      49.085  26.942  24.294  1.00  0.00    -0.206 F 
ATOM     75  C   UNL A   1      51.188  26.017  24.776  1.00  0.00     0.059 A 
ATOM     76  C   UNL A   1      51.782  25.509  27.073  1.00  0.00     0.059 A 
ATOM     77  F   UNL A   1      50.238  25.912  28.789  1.00  0.00    -0.206 F 
ATOM     78  C   UNL A   1      52.098  25.530  25.716  1.00  0.00     0.060 A 
BRANCH  78  79
ATOM     79  S   UNL A   1      53.714  24.955  25.148  1.00  0.00     0.124 S 
ATOM     80  O   UNL A   1      54.590  25.452  26.203  1.00  0.00    -0.237 OA
ATOM     81  O   UNL A   1      53.527  23.508  25.102  1.00  0.00    -0.237 OA
ATOM     82  O   UNL A   1      53.861  25.602  23.848  1.00  0.00    -0.744 OA
ENDBRANCH  78  79
ENDBRANCH  46  71
BRANCH  58  83
ATOM     83  C   UNL A   1      47.053  32.701  28.436  1.00  0.00     0.058 A 
ATOM     84  C   UNL A   1      47.766  33.089  29.581  1.00  0.00     0.135 A 
ATOM     85  C   UNL A   1      46.996  33.606  27.363  1.00  0.00     0.135 A 
ATOM     86  F   UNL A   1      47.848  32.266  30.638  1.00  0.00    -0.206 F 
ATOM     87  C   UNL A   1      48.386  34.333  29.664  1.00  0.00     0.059 A 
ATOM     88  C   UNL A   1      47.633  34.843  27.414  1.00  0.00     0.059 A 
ATOM     89  F   UNL A   1      46.338  33.281  26.239  1.00  0.00    -0.206 F 
ATOM     90  C   UNL A   1      48.318  35.202  28.573  1.00  0.00     0.060 A 
BRANCH  90  91
ATOM     91  S   UNL A   1      49.164  36.793  28.676  1.00  0.00     0.124 S 
ATOM     92  O   UNL A   1      50.549  36.378  28.872  1.00  0.00    -0.237 OA
ATOM     93  O   UNL A   1      48.860  37.393  27.380  1.00  0.00    -0.237 OA
ATOM     94  O   UNL A   1      48.535  37.440  29.823  1.00  0.00    -0.744 OA
ENDBRANCH  90  91
ENDBRANCH  58  83
ENDBRANCH  32  33
ENDBRANCH  25  27
ENDBRANCH  24  25
ENDBRANCH  23  24
ENDBRANCH   1  23
TORSDOF 19
ENDMDL
MODEL 2
REMARK VINA RESULT:     -10.2      3.314      7.582
REMARK SMILES C[N@@H+](CC(C)(C)C(=O)OCCOC(=O)c1ccc(-c2c3nc(c(-c4c(F)cc(S(=O)(=O)[O-])cc4F)c4ccc([nH]4)c(-c4c(F)cc(S(=O)(=O)[O-])cc4F)c4nc(c(-c5c(F)cc(S(=O)(=O)[O-])cc5F)c5ccc2[nH]5)C=C4)C=C3)cc1)[C@@H]1CCCC[C@@H]1C[NH3+]
REMARK SMILES IDX 10 1 9 2 7 3 8 4 4 5 5 6 6 7 3 8 2 9 1 10 81 12 82 13 86 14
REMARK SMILES IDX 83 15 85 16 84 17 87 18 88 19 11 23 12 24 13 25 14 26 15 27
REMARK SMILES IDX 16 28 80 29 17 30 79 31 18 32 19 33 20 34 73 35 21 36 78 37
REMARK SMILES IDX 72 38 74 39 22 40 77 41 71 42 70 43 23 45 57 46 36 47 56 48
REMARK SMILES IDX 37 49 40 50 55 51 75 52 38 53 39 54 54 56 76 57 41 58 24 59
REMARK SMILES IDX 25 60 34 61 26 62 27 63 33 64 35 65 28 66 29 67 30 68 31 69
REMARK SMILES IDX 32 70 58 71 59 72 68 73 60 74 61 75 67 76 69 77 62 78 63 79
REMARK SMILES IDX 64 80 65 81 66 82 42 83 43 84 52 85 44 86 45 87 51 88 53 89
REMARK SMILES IDX 46 90 47 91 48 92 49 93 50 94
REMARK H PARENT 2 11 88 20 88 21 88 22 74 44 40 55
REMARK Flexibility Score: inf
ROOT
ATOM      1  C   UNL A   1      33.390  27.120  25.990  1.00  0.00     0.274 C 
ENDROOT
BRANCH   1   2
ATOM      2  O   UNL A   1      32.411  26.652  25.034  1.00  0.00    -0.461 OA
BRANCH   2   3
ATOM      3  C   UNL A   1      32.965  26.077  23.924  1.00  0.00     0.317 C 
ATOM      4  O   UNL A   1      34.145  26.206  23.667  1.00  0.00    -0.251 OA
BRANCH   3   5
ATOM      5  C   UNL A   1      31.956  25.262  23.093  1.00  0.00     0.111 C 
ATOM      6  C   UNL A   1      31.917  25.674  21.604  1.00  0.00     0.029 C 
ATOM      7  C   UNL A   1      30.538  25.583  23.631  1.00  0.00     0.029 C 
BRANCH   5   8
ATOM      8  C   UNL A   1      32.248  23.721  23.247  1.00  0.00     0.280 C 
BRANCH   8   9
ATOM      9  N   UNL A   1      32.859  23.130  24.448  1.00  0.00    -0.334 N 
ATOM     10  C   UNL A   1      32.047  23.006  25.645  1.00  0.00     0.333 C 
ATOM     11  H   UNL A   1      32.814  22.203  24.026  1.00  0.00     0.348 HD
BRANCH   9  12
ATOM     12  C   UNL A   1      34.286  22.851  24.519  1.00  0.00     0.192 C 
ATOM     13  C   UNL A   1      34.997  22.876  23.148  1.00  0.00     0.065 C 
ATOM     14  C   UNL A   1      34.703  21.562  25.281  1.00  0.00     0.102 C 
ATOM     15  C   UNL A   1      36.514  22.889  23.325  1.00  0.00     0.006 C 
ATOM     16  C   UNL A   1      36.224  21.635  25.526  1.00  0.00     0.015 C 
ATOM     17  C   UNL A   1      37.025  21.771  24.232  1.00  0.00     0.001 C 
BRANCH  14  18
ATOM     18  C   UNL A   1      34.281  20.222  24.651  1.00  0.00     0.268 C 
BRANCH  18  19
ATOM     19  N   UNL A   1      35.239  19.160  25.011  1.00  0.00    -0.357 N 
ATOM     20  H   UNL A   1      36.156  19.575  25.182  1.00  0.00     0.344 HD
ATOM     21  H   UNL A   1      35.306  18.490  24.246  1.00  0.00     0.344 HD
ATOM     22  H   UNL A   1      34.918  18.685  25.854  1.00  0.00     0.344 HD
ENDBRANCH  18  19
ENDBRANCH  14  18
ENDBRANCH   9  12
ENDBRANCH   8   9
ENDBRANCH   5   8
ENDBRANCH   3   5
ENDBRANCH   2   3
ENDBRANCH   1   2
BRANCH   1  23
ATOM     23  C   UNL A   1      33.195  28.583  26.423  1.00  0.00     0.275 C 
BRANCH  23  24
ATOM     24  O   UNL A   1      33.654  28.855  27.765  1.00  0.00    -0.458 OA
BRANCH  24  25
ATOM     25  C   UNL A   1      34.266  30.050  27.941  1.00  0.00     0.338 C 
ATOM     26  O   UNL A   1      33.721  31.147  27.949  1.00  0.00    -0.246 OA
BRANCH  25  27
ATOM     27  C   UNL A   1      35.685  29.878  28.321  1.00  0.00     0.060 A 
ATOM     28  C   UNL A   1      36.628  30.041  27.306  1.00  0.00     0.016 A 
ATOM     29  C   UNL A   1      36.110  29.482  29.589  1.00  0.00     0.016 A 
ATOM     30  C   UNL A   1      37.988  29.877  27.540  1.00  0.00     0.010 A 
ATOM     31  C   UNL A   1      37.484  29.273  29.822  1.00  0.00     0.010 A 
ATOM     32  C   UNL A   1      38.429  29.480  28.799  1.00  0.00    -0.014 A 
BRANCH  32  33
ATOM     33  C   UNL A   1      39.865  29.150  28.961  1.00  0.00     0.031 A 
ATOM     34  C   UNL A   1      40.785  30.200  29.515  1.00  0.00     0.074 A 
ATOM     35  C   UNL A   1      40.328  27.909  28.724  1.00  0.00     0.049 A 
ATOM     36  N   UNL A   1      42.078  30.158  29.696  1.00  0.00    -0.248 NA
ATOM     37  C   UNL A   1      40.155  31.462  29.938  1.00  0.00     0.031 C 
ATOM     38  C   UNL A   1      39.514  26.766  28.313  1.00  0.00     0.029 A 
ATOM     39  N   UNL A   1      41.603  27.402  28.799  1.00  0.00    -0.354 N 
ATOM     40  C   UNL A   1      42.422  31.389  30.238  1.00  0.00     0.074 A 
ATOM     41  C   UNL A   1      41.200  32.156  30.362  1.00  0.00     0.031 C 
ATOM     42  C   UNL A   1      40.312  25.697  28.150  1.00  0.00     0.029 A 
ATOM     43  C   UNL A   1      41.700  26.090  28.398  1.00  0.00     0.049 A 
ATOM     44  H   UNL A   1      42.374  27.928  29.111  1.00  0.00     0.167 HD
ATOM     45  C   UNL A   1      43.647  31.845  30.589  1.00  0.00     0.037 A 
ATOM     46  C   UNL A   1      42.787  25.312  28.213  1.00  0.00     0.037 A 
ATOM     47  C   UNL A   1      44.862  31.086  30.444  1.00  0.00     0.049 A 
ATOM     48  C   UNL A   1      44.156  25.884  28.491  1.00  0.00     0.074 A 
ATOM     49  C   UNL A   1      46.158  31.476  30.729  1.00  0.00     0.029 A 
ATOM     50  N   UNL A   1      44.931  29.788  29.962  1.00  0.00    -0.354 N 
ATOM     51  N   UNL A   1      44.479  27.065  28.960  1.00  0.00    -0.248 NA
ATOM     52  C   UNL A   1      45.312  25.020  28.202  1.00  0.00     0.031 C 
ATOM     53  C   UNL A   1      47.017  30.431  30.372  1.00  0.00     0.029 A 
ATOM     54  C   UNL A   1      46.250  29.368  29.919  1.00  0.00     0.049 A 
ATOM     55  H   UNL A   1      44.156  29.243  29.691  1.00  0.00     0.167 HD
ATOM     56  C   UNL A   1      45.869  27.076  29.049  1.00  0.00     0.074 A 
ATOM     57  C   UNL A   1      46.326  25.780  28.593  1.00  0.00     0.031 C 
ATOM     58  C   UNL A   1      46.691  28.069  29.473  1.00  0.00     0.037 A 
BRANCH  45  59
ATOM     59  C   UNL A   1      43.736  33.256  31.092  1.00  0.00     0.058 A 
ATOM     60  C   UNL A   1      43.890  34.348  30.225  1.00  0.00     0.135 A 
ATOM     61  C   UNL A   1      43.668  33.517  32.470  1.00  0.00     0.135 A 
ATOM     62  F   UNL A   1      43.988  34.152  28.900  1.00  0.00    -0.206 F 
ATOM     63  C   UNL A   1      44.001  35.648  30.708  1.00  0.00     0.059 A 
ATOM     64  C   UNL A   1      43.751  34.810  32.975  1.00  0.00     0.059 A 
ATOM     65  F   UNL A   1      43.530  32.506  33.343  1.00  0.00    -0.206 F 
ATOM     66  C   UNL A   1      43.933  35.868  32.086  1.00  0.00     0.060 A 
BRANCH  66  67
ATOM     67  S   UNL A   1      44.090  37.558  32.700  1.00  0.00     0.124 S 
ATOM     68  O   UNL A   1      45.435  37.537  33.268  1.00  0.00    -0.237 OA
ATOM     69  O   UNL A   1      43.928  38.349  31.485  1.00  0.00    -0.237 OA
ATOM     70  O   UNL A   1      43.004  37.671  33.667  1.00  0.00    -0.744 OA
ENDBRANCH  66  67
ENDBRANCH  45  59
BRANCH  46  71
ATOM     71  C   UNL A   1      42.640  23.928  27.682  1.00  0.00     0.058 A 
ATOM     72  C   UNL A   1      42.613  23.671  26.303  1.00  0.00     0.135 A 
ATOM     73  C   UNL A   1      42.491  22.833  28.549  1.00  0.00     0.135 A 
ATOM     74  F   UNL A   1      42.729  24.684  25.430  1.00  0.00    -0.206 F 
ATOM     75  C   UNL A   1      42.429  22.385  25.803  1.00  0.00     0.059 A 
ATOM     76  C   UNL A   1      42.334  21.535  28.074  1.00  0.00     0.059 A 
ATOM     77  F   UNL A   1      42.507  23.020  29.878  1.00  0.00    -0.206 F 
ATOM     78  C   UNL A   1      42.292  21.322  26.697  1.00  0.00     0.060 A 
BRANCH  78  79
ATOM     79  S   UNL A   1      42.094  19.651  26.040  1.00  0.00     0.124 S 
ATOM     80  O   UNL A   1      42.992  19.678  24.891  1.00  0.00    -0.237 OA
ATOM     81  O   UNL A   1      42.522  18.825  27.166  1.00  0.00    -0.237 OA
ATOM     82  O   UNL A   1      40.670  19.580  25.728  1.00  0.00    -0.744 OA
ENDBRANCH  78  79
ENDBRANCH  46  71
BRANCH  58  83
ATOM     83  C   UNL A   1      48.170  27.789  29.508  1.00  0.00     0.058 A 
ATOM     84  C   UNL A   1      48.764  27.069  30.555  1.00  0.00     0.135 A 
ATOM     85  C   UNL A   1      48.990  28.185  28.438  1.00  0.00     0.135 A 
ATOM     86  F   UNL A   1      48.028  26.670  31.604  1.00  0.00    -0.206 F 
ATOM     87  C   UNL A   1      50.123  26.768  30.551  1.00  0.00     0.059 A 
ATOM     88  C   UNL A   1      50.346  27.870  28.399  1.00  0.00     0.059 A 
ATOM     89  F   UNL A   1      48.472  28.866  27.404  1.00  0.00    -0.206 F 
ATOM     90  C   UNL A   1      50.906  27.169  29.465  1.00  0.00     0.060 A 
BRANCH  90  91
ATOM     91  S   UNL A   1      52.658  26.732  29.449  1.00  0.00     0.124 S 
ATOM     92  O   UNL A   1      52.782  25.970  30.687  1.00  0.00    -0.237 OA
ATOM     93  O   UNL A   1      52.776  25.961  28.215  1.00  0.00    -0.237 OA
ATOM     94  O   UNL A   1      53.331  28.027  29.439  1.00  0.00    -0.744 OA
ENDBRANCH  90  91
ENDBRANCH  58  83
ENDBRANCH  32  33
ENDBRANCH  25  27
ENDBRANCH  24  25
ENDBRANCH  23  24
ENDBRANCH   1  23
TORSDOF 19
ENDMDL
MODEL 3
REMARK VINA RESULT:     -10.1      6.827     11.581
REMARK SMILES C[N@@H+](CC(C)(C)C(=O)OCCOC(=O)c1ccc(-c2c3nc(c(-c4c(F)cc(S(=O)(=O)[O-])cc4F)c4ccc([nH]4)c(-c4c(F)cc(S(=O)(=O)[O-])cc4F)c4nc(c(-c5c(F)cc(S(=O)(=O)[O-])cc5F)c5ccc2[nH]5)C=C4)C=C3)cc1)[C@@H]1CCCC[C@@H]1C[NH3+]
REMARK SMILES IDX 10 1 9 2 7 3 8 4 4 5 5 6 6 7 3 8 2 9 1 10 81 12 82 13 86 14
REMARK SMILES IDX 83 15 85 16 84 17 87 18 88 19 11 23 12 24 13 25 14 26 15 27
REMARK SMILES IDX 16 28 80 29 17 30 79 31 18 32 19 33 20 34 73 35 21 36 78 37
REMARK SMILES IDX 72 38 74 39 22 40 77 41 71 42 70 43 23 45 57 46 36 47 56 48
REMARK SMILES IDX 37 49 40 50 55 51 75 52 38 53 39 54 54 56 76 57 41 58 24 59
REMARK SMILES IDX 25 60 34 61 26 62 27 63 33 64 35 65 28 66 29 67 30 68 31 69
REMARK SMILES IDX 32 70 58 71 59 72 68 73 60 74 61 75 67 76 69 77 62 78 63 79
REMARK SMILES IDX 64 80 65 81 66 82 42 83 43 84 52 85 44 86 45 87 51 88 53 89
REMARK SMILES IDX 46 90 47 91 48 92 49 93 50 94
REMARK H PARENT 2 11 88 20 88 21 88 22 74 44 40 55
REMARK Flexibility Score: inf
ROOT
ATOM      1  C   UNL A   1      37.330  22.895  25.469  1.00  0.00     0.274 C 
ENDROOT
BRANCH   1   2
ATOM      2  O   UNL A   1      35.976  23.077  24.998  1.00  0.00    -0.461 OA
BRANCH   2   3
ATOM      3  C   UNL A   1      35.041  22.437  25.764  1.00  0.00     0.317 C 
ATOM      4  O   UNL A   1      35.339  21.490  26.464  1.00  0.00    -0.251 OA
BRANCH   3   5
ATOM      5  C   UNL A   1      33.635  23.055  25.651  1.00  0.00     0.111 C 
ATOM      6  C   UNL A   1      32.887  23.122  27.001  1.00  0.00     0.029 C 
ATOM      7  C   UNL A   1      32.778  22.112  24.768  1.00  0.00     0.029 C 
BRANCH   5   8
ATOM      8  C   UNL A   1      33.723  24.479  24.980  1.00  0.00     0.280 C 
BRANCH   8   9
ATOM      9  N   UNL A   1      32.662  25.492  25.090  1.00  0.00    -0.334 N 
ATOM     10  C   UNL A   1      31.563  25.446  24.142  1.00  0.00     0.333 C 
ATOM     11  H   UNL A   1      32.290  25.024  25.917  1.00  0.00     0.348 HD
BRANCH   9  12
ATOM     12  C   UNL A   1      32.785  26.630  25.989  1.00  0.00     0.192 C 
ATOM     13  C   UNL A   1      31.431  27.230  26.427  1.00  0.00     0.065 C 
ATOM     14  C   UNL A   1      33.721  27.782  25.525  1.00  0.00     0.102 C 
ATOM     15  C   UNL A   1      31.620  28.199  27.593  1.00  0.00     0.006 C 
ATOM     16  C   UNL A   1      33.969  28.700  26.738  1.00  0.00     0.015 C 
ATOM     17  C   UNL A   1      32.677  29.268  27.323  1.00  0.00     0.001 C 
BRANCH  14  18
ATOM     18  C   UNL A   1      33.277  28.572  24.280  1.00  0.00     0.268 C 
BRANCH  18  19
ATOM     19  N   UNL A   1      34.429  28.833  23.399  1.00  0.00    -0.357 N 
ATOM     20  H   UNL A   1      34.702  29.814  23.479  1.00  0.00     0.344 HD
ATOM     21  H   UNL A   1      34.171  28.631  22.433  1.00  0.00     0.344 HD
ATOM     22  H   UNL A   1      35.210  28.239  23.676  1.00  0.00     0.344 HD
ENDBRANCH  18  19
ENDBRANCH  14  18
ENDBRANCH   9  12
ENDBRANCH   8   9
ENDBRANCH   5   8
ENDBRANCH   3   5
ENDBRANCH   2   3
ENDBRANCH   1   2
BRANCH   1  23
ATOM     23  C   UNL A   1      37.945  24.148  26.118  1.00  0.00     0.275 C 
BRANCH  23  24
ATOM     24  O   UNL A   1      39.034  23.857  27.021  1.00  0.00    -0.458 OA
BRANCH  24  25
ATOM     25  C   UNL A   1      40.153  24.597  26.841  1.00  0.00     0.338 C 
ATOM     26  O   UNL A   1      40.881  24.579  25.856  1.00  0.00    -0.246 OA
BRANCH  25  27
ATOM     27  C   UNL A   1      40.313  25.602  27.914  1.00  0.00     0.060 A 
ATOM     28  C   UNL A   1      39.259  25.723  28.820  1.00  0.00     0.016 A 
ATOM     29  C   UNL A   1      41.396  26.475  28.009  1.00  0.00     0.016 A 
ATOM     30  C   UNL A   1      39.287  26.651  29.853  1.00  0.00     0.010 A 
ATOM     31  C   UNL A   1      41.411  27.448  29.029  1.00  0.00     0.010 A 
ATOM     32  C   UNL A   1      40.359  27.532  29.961  1.00  0.00    -0.014 A 
BRANCH  32  33
ATOM     33  C   UNL A   1      40.270  28.616  30.968  1.00  0.00     0.031 A 
ATOM     34  C   UNL A   1      41.213  28.590  32.137  1.00  0.00     0.074 A 
ATOM     35  C   UNL A   1      39.444  29.664  30.794  1.00  0.00     0.049 A 
ATOM     36  N   UNL A   1      41.285  29.397  33.162  1.00  0.00    -0.248 NA
ATOM     37  C   UNL A   1      42.220  27.516  32.138  1.00  0.00     0.031 C 
ATOM     38  C   UNL A   1      38.577  29.876  29.637  1.00  0.00     0.029 A 
ATOM     39  N   UNL A   1      39.202  30.753  31.597  1.00  0.00    -0.354 N 
ATOM     40  C   UNL A   1      42.334  28.923  33.939  1.00  0.00     0.074 A 
ATOM     41  C   UNL A   1      42.871  27.760  33.266  1.00  0.00     0.031 C 
ATOM     42  C   UNL A   1      37.881  31.013  29.814  1.00  0.00     0.029 A 
ATOM     43  C   UNL A   1      38.216  31.584  31.118  1.00  0.00     0.049 A 
ATOM     44  H   UNL A   1      39.688  30.922  32.436  1.00  0.00     0.167 HD
ATOM     45  C   UNL A   1      42.797  29.405  35.116  1.00  0.00     0.037 A 
ATOM     46  C   UNL A   1      37.626  32.656  31.687  1.00  0.00     0.037 A 
ATOM     47  C   UNL A   1      42.245  30.549  35.793  1.00  0.00     0.049 A 
ATOM     48  C   UNL A   1      38.074  33.101  33.059  1.00  0.00     0.074 A 
ATOM     49  C   UNL A   1      42.615  31.090  37.011  1.00  0.00     0.029 A 
ATOM     50  N   UNL A   1      41.196  31.321  35.315  1.00  0.00    -0.354 N 
ATOM     51  N   UNL A   1      39.036  32.620  33.810  1.00  0.00    -0.248 NA
ATOM     52  C   UNL A   1      37.348  34.227  33.666  1.00  0.00     0.031 C 
ATOM     53  C   UNL A   1      41.758  32.158  37.294  1.00  0.00     0.029 A 
ATOM     54  C   UNL A   1      40.890  32.319  36.225  1.00  0.00     0.049 A 
ATOM     55  H   UNL A   1      40.737  31.181  34.455  1.00  0.00     0.167 HD
ATOM     56  C   UNL A   1      39.049  33.402  34.963  1.00  0.00     0.074 A 
ATOM     57  C   UNL A   1      38.004  34.393  34.807  1.00  0.00     0.031 C 
ATOM     58  C   UNL A   1      39.854  33.308  36.051  1.00  0.00     0.037 A 
BRANCH  45  59
ATOM     59  C   UNL A   1      43.911  28.646  35.778  1.00  0.00     0.058 A 
ATOM     60  C   UNL A   1      45.260  28.952  35.546  1.00  0.00     0.135 A 
ATOM     61  C   UNL A   1      43.618  27.592  36.658  1.00  0.00     0.135 A 
ATOM     62  F   UNL A   1      45.596  29.933  34.692  1.00  0.00    -0.206 F 
ATOM     63  C   UNL A   1      46.282  28.221  36.143  1.00  0.00     0.059 A 
ATOM     64  C   UNL A   1      44.622  26.864  37.286  1.00  0.00     0.059 A 
ATOM     65  F   UNL A   1      42.343  27.255  36.907  1.00  0.00    -0.206 F 
ATOM     66  C   UNL A   1      45.952  27.176  37.010  1.00  0.00     0.060 A 
BRANCH  66  67
ATOM     67  S   UNL A   1      47.288  26.228  37.769  1.00  0.00     0.124 S 
ATOM     68  O   UNL A   1      48.409  26.554  36.893  1.00  0.00    -0.237 OA
ATOM     69  O   UNL A   1      47.347  26.793  39.112  1.00  0.00    -0.237 OA
ATOM     70  O   UNL A   1      46.813  24.850  37.691  1.00  0.00    -0.744 OA
ENDBRANCH  66  67
ENDBRANCH  45  59
BRANCH  46  71
ATOM     71  C   UNL A   1      36.504  33.352  30.997  1.00  0.00     0.058 A 
ATOM     72  C   UNL A   1      36.729  34.189  29.894  1.00  0.00     0.135 A 
ATOM     73  C   UNL A   1      35.182  33.218  31.451  1.00  0.00     0.135 A 
ATOM     74  F   UNL A   1      37.977  34.370  29.433  1.00  0.00    -0.206 F 
ATOM     75  C   UNL A   1      35.690  34.878  29.275  1.00  0.00     0.059 A 
ATOM     76  C   UNL A   1      34.122  33.874  30.832  1.00  0.00     0.059 A 
ATOM     77  F   UNL A   1      34.908  32.432  32.503  1.00  0.00    -0.206 F 
ATOM     78  C   UNL A   1      34.388  34.712  29.751  1.00  0.00     0.060 A 
BRANCH  78  79
ATOM     79  S   UNL A   1      33.040  35.579  28.918  1.00  0.00     0.124 S 
ATOM     80  O   UNL A   1      33.766  36.575  28.138  1.00  0.00    -0.237 OA
ATOM     81  O   UNL A   1      32.410  34.506  28.154  1.00  0.00    -0.237 OA
ATOM     82  O   UNL A   1      32.242  36.101  30.023  1.00  0.00    -0.744 OA
ENDBRANCH  78  79
ENDBRANCH  46  71
BRANCH  58  83
ATOM     83  C   UNL A   1      39.675  34.326  37.147  1.00  0.00     0.058 A 
ATOM     84  C   UNL A   1      38.912  34.056  38.292  1.00  0.00     0.135 A 
ATOM     85  C   UNL A   1      40.339  35.562  37.078  1.00  0.00     0.135 A 
ATOM     86  F   UNL A   1      38.252  32.893  38.407  1.00  0.00    -0.206 F 
ATOM     87  C   UNL A   1      38.797  34.983  39.324  1.00  0.00     0.059 A 
ATOM     88  C   UNL A   1      40.262  36.492  38.111  1.00  0.00     0.059 A 
ATOM     89  F   UNL A   1      41.093  35.867  36.011  1.00  0.00    -0.206 F 
ATOM     90  C   UNL A   1      39.480  36.198  39.227  1.00  0.00     0.060 A 
BRANCH  90  91
ATOM     91  S   UNL A   1      39.361  37.373  40.592  1.00  0.00     0.124 S 
ATOM     92  O   UNL A   1      38.932  36.509  41.687  1.00  0.00    -0.237 OA
ATOM     93  O   UNL A   1      40.725  37.884  40.685  1.00  0.00    -0.237 OA
ATOM     94  O   UNL A   1      38.368  38.336  40.127  1.00  0.00    -0.744 OA
ENDBRANCH  90  91
ENDBRANCH  58  83
ENDBRANCH  32  33
ENDBRANCH  25  27
ENDBRANCH  24  25
ENDBRANCH  23  24
ENDBRANCH   1  23
TORSDOF 19
ENDMDL
