MODEL 1
REMARK VINA RESULT:     -12.8      0.000      0.000
REMARK SMILES CS(=O)(=O)c1ccc(-c2cc(Cl)cnc2-c2ccc(C(=O)OCCOC(=O)c3ccc(-c4c5nc(c(-c6c(F)cc(S(=O)(=O)[O-])cc6F)c6ccc([nH]6)c(-c6c(F)cc(S(=O)(=O)[O-])cc6F)c6nc(c(-c7c(F)cc(S(=O)(=O)[O-])cc7F)c7ccc4[nH]7)C=C6)C=C5)cc3)nc2)cc1
REMARK SMILES IDX 23 1 22 2 20 3 21 4 19 5 16 6 17 7 95 8 18 9 94 10 15 11
REMARK SMILES IDX 9 12 10 13 11 14 14 15 12 16 13 17 8 18 5 19 6 20 97 21 7 22
REMARK SMILES IDX 96 23 2 24 1 25 3 26 4 27 24 28 25 29 26 30 27 31 28 32
REMARK SMILES IDX 29 33 93 34 30 35 92 36 31 37 32 38 33 39 86 40 34 41 91 42
REMARK SMILES IDX 85 43 87 44 35 45 90 46 84 47 83 48 36 50 70 51 49 52 69 53
REMARK SMILES IDX 50 54 53 55 68 56 88 57 51 58 52 59 67 61 89 62 54 63 37 64
REMARK SMILES IDX 38 65 47 66 39 67 40 68 46 69 48 70 41 71 42 72 43 73 44 74
REMARK SMILES IDX 45 75 71 76 72 77 81 78 73 79 74 80 80 81 82 82 75 83 76 84
REMARK SMILES IDX 77 85 78 86 79 87 55 88 56 89 65 90 57 91 58 92 64 93 66 94
REMARK SMILES IDX 59 95 60 96 61 97 62 98 63 99
REMARK H PARENT 87 49 53 60
REMARK Flexibility Score: inf
ROOT
ATOM      1  C   UNL A   1      34.145  32.418  28.019  1.00  0.00     0.275 C 
ENDROOT
BRANCH   1   2
ATOM      2  O   UNL A   1      34.012  31.208  27.247  1.00  0.00    -0.457 OA
BRANCH   2   3
ATOM      3  C   UNL A   1      32.731  30.856  26.955  1.00  0.00     0.357 C 
ATOM      4  O   UNL A   1      31.788  31.629  26.870  1.00  0.00    -0.244 OA
BRANCH   3   5
ATOM      5  C   UNL A   1      32.632  29.396  26.643  1.00  0.00     0.148 A 
ATOM      6  C   UNL A   1      32.597  26.739  25.895  1.00  0.00     0.019 A 
ATOM      7  C   UNL A   1      31.704  27.204  26.871  1.00  0.00     0.014 A 
ATOM      8  C   UNL A   1      33.501  27.658  25.381  1.00  0.00     0.122 A 
ATOM      9  C   UNL A   1      31.727  28.547  27.266  1.00  0.00     0.037 A 
ATOM     10  N   UNL A   1      33.503  28.968  25.693  1.00  0.00    -0.249 NA
BRANCH   6  11
ATOM     11  C   UNL A   1      32.509  25.409  25.293  1.00  0.00     0.080 A 
ATOM     12  C   UNL A   1      31.650  25.149  24.201  1.00  0.00     0.010 A 
ATOM     13  C   UNL A   1      31.682  23.864  23.645  1.00  0.00     0.033 A 
ATOM     14  C   UNL A   1      32.557  22.912  24.160  1.00  0.00     0.060 A 
ATOM     15  N   UNL A   1      33.361  24.487  25.808  1.00  0.00    -0.254 NA
ATOM     16  Cl  UNL A   1      32.617  21.334  23.488  1.00  0.00    -0.083 Cl
ATOM     17  C   UNL A   1      33.372  23.265  25.224  1.00  0.00     0.132 A 
BRANCH  12  18
ATOM     18  C   UNL A   1      30.754  26.187  23.664  1.00  0.00    -0.016 A 
ATOM     19  C   UNL A   1      29.156  28.382  22.952  1.00  0.00     0.067 A 
ATOM     20  C   UNL A   1      30.450  28.272  22.440  1.00  0.00     0.021 A 
ATOM     21  C   UNL A   1      28.631  27.380  23.771  1.00  0.00     0.021 A 
ATOM     22  C   UNL A   1      31.237  27.173  22.786  1.00  0.00     0.010 A 
ATOM     23  C   UNL A   1      29.431  26.287  24.122  1.00  0.00     0.010 A 
BRANCH  19  24
ATOM     24  S   UNL A   1      28.224  29.840  22.553  1.00  0.00     0.175 S 
ATOM     25  C   UNL A   1      28.981  31.180  23.422  1.00  0.00     0.163 C 
ATOM     26  O   UNL A   1      26.902  29.669  23.126  1.00  0.00    -0.224 OA
ATOM     27  O   UNL A   1      28.413  30.078  21.135  1.00  0.00    -0.224 OA
ENDBRANCH  19  24
ENDBRANCH  12  18
ENDBRANCH   6  11
ENDBRANCH   3   5
ENDBRANCH   2   3
ENDBRANCH   1   2
BRANCH   1  28
ATOM     28  C   UNL A   1      34.814  32.152  29.372  1.00  0.00     0.275 C 
BRANCH  28  29
ATOM     29  O   UNL A   1      35.535  30.905  29.388  1.00  0.00    -0.458 OA
BRANCH  29  30
ATOM     30  C   UNL A   1      36.430  30.770  30.396  1.00  0.00     0.338 C 
ATOM     31  O   UNL A   1      36.241  31.005  31.579  1.00  0.00    -0.246 OA
BRANCH  30  32
ATOM     32  C   UNL A   1      37.687  30.195  29.887  1.00  0.00     0.060 A 
ATOM     33  C   UNL A   1      38.643  29.809  30.821  1.00  0.00     0.016 A 
ATOM     34  C   UNL A   1      37.982  30.145  28.526  1.00  0.00     0.016 A 
ATOM     35  C   UNL A   1      39.914  29.416  30.419  1.00  0.00     0.010 A 
ATOM     36  C   UNL A   1      39.250  29.704  28.114  1.00  0.00     0.010 A 
ATOM     37  C   UNL A   1      40.234  29.354  29.060  1.00  0.00    -0.014 A 
BRANCH  37  38
ATOM     38  C   UNL A   1      41.606  28.950  28.653  1.00  0.00     0.031 A 
ATOM     39  C   UNL A   1      42.724  29.957  28.658  1.00  0.00     0.074 A 
ATOM     40  C   UNL A   1      41.859  27.667  28.326  1.00  0.00     0.049 A 
ATOM     41  N   UNL A   1      43.960  29.821  28.252  1.00  0.00    -0.248 NA
ATOM     42  C   UNL A   1      42.411  31.293  29.189  1.00  0.00     0.031 C 
ATOM     43  C   UNL A   1      40.874  26.583  28.334  1.00  0.00     0.029 A 
ATOM     44  N   UNL A   1      43.023  27.054  27.932  1.00  0.00    -0.354 N 
ATOM     45  C   UNL A   1      44.564  31.059  28.444  1.00  0.00     0.074 A 
ATOM     46  C   UNL A   1      43.554  31.937  28.997  1.00  0.00     0.031 C 
ATOM     47  C   UNL A   1      41.478  25.438  27.979  1.00  0.00     0.029 A 
ATOM     48  C   UNL A   1      42.874  25.714  27.659  1.00  0.00     0.049 A 
ATOM     49  H   UNL A   1      43.881  27.528  27.851  1.00  0.00     0.167 HD
ATOM     50  C   UNL A   1      45.842  31.426  28.185  1.00  0.00     0.037 A 
ATOM     51  C   UNL A   1      43.753  24.815  27.174  1.00  0.00     0.037 A 
ATOM     52  C   UNL A   1      46.851  30.537  27.669  1.00  0.00     0.049 A 
ATOM     53  C   UNL A   1      45.154  25.257  26.857  1.00  0.00     0.074 A 
ATOM     54  C   UNL A   1      48.176  30.815  27.375  1.00  0.00     0.029 A 
ATOM     55  N   UNL A   1      46.652  29.195  27.378  1.00  0.00    -0.354 N 
ATOM     56  N   UNL A   1      45.698  26.441  27.007  1.00  0.00    -0.248 NA
ATOM     57  C   UNL A   1      46.059  24.246  26.294  1.00  0.00     0.031 C 
ATOM     58  C   UNL A   1      48.768  29.649  26.877  1.00  0.00     0.029 A 
ATOM     59  C   UNL A   1      47.825  28.635  26.897  1.00  0.00     0.049 A 
ATOM     60  H   UNL A   1      45.803  28.712  27.496  1.00  0.00     0.167 HD
ATOM     61  C   UNL A   1      47.011  26.315  26.568  1.00  0.00     0.074 A 
ATOM     62  C   UNL A   1      47.185  24.934  26.164  1.00  0.00     0.031 C 
ATOM     63  C   UNL A   1      47.983  27.257  26.503  1.00  0.00     0.037 A 
BRANCH  50  64
ATOM     64  C   UNL A   1      46.216  32.862  28.426  1.00  0.00     0.058 A 
ATOM     65  C   UNL A   1      46.075  33.843  27.432  1.00  0.00     0.135 A 
ATOM     66  C   UNL A   1      46.688  33.269  29.685  1.00  0.00     0.135 A 
ATOM     67  F   UNL A   1      45.645  33.505  26.206  1.00  0.00    -0.206 F 
ATOM     68  C   UNL A   1      46.412  35.172  27.670  1.00  0.00     0.059 A 
ATOM     69  C   UNL A   1      47.008  34.596  29.953  1.00  0.00     0.059 A 
ATOM     70  F   UNL A   1      46.840  32.371  30.672  1.00  0.00    -0.206 F 
ATOM     71  C   UNL A   1      46.881  35.538  28.934  1.00  0.00     0.060 A 
BRANCH  71  72
ATOM     72  S   UNL A   1      47.310  37.267  29.231  1.00  0.00     0.124 S 
ATOM     73  O   UNL A   1      47.794  37.214  30.607  1.00  0.00    -0.237 OA
ATOM     74  O   UNL A   1      48.326  37.520  28.213  1.00  0.00    -0.237 OA
ATOM     75  O   UNL A   1      46.046  37.970  29.038  1.00  0.00    -0.744 OA
ENDBRANCH  71  72
ENDBRANCH  50  64
BRANCH  51  76
ATOM     76  C   UNL A   1      43.318  23.415  26.923  1.00  0.00     0.058 A 
ATOM     77  C   UNL A   1      43.111  22.942  25.619  1.00  0.00     0.135 A 
ATOM     78  C   UNL A   1      43.111  22.520  27.984  1.00  0.00     0.135 A 
ATOM     79  F   UNL A   1      43.286  23.763  24.572  1.00  0.00    -0.206 F 
ATOM     80  C   UNL A   1      42.703  21.634  25.376  1.00  0.00     0.059 A 
ATOM     81  C   UNL A   1      42.729  21.201  27.765  1.00  0.00     0.059 A 
ATOM     82  F   UNL A   1      43.306  22.921  29.251  1.00  0.00    -0.206 F 
ATOM     83  C   UNL A   1      42.516  20.770  26.456  1.00  0.00     0.060 A 
BRANCH  83  84
ATOM     84  S   UNL A   1      42.029  19.061  26.132  1.00  0.00     0.124 S 
ATOM     85  O   UNL A   1      42.278  18.436  27.425  1.00  0.00    -0.237 OA
ATOM     86  O   UNL A   1      40.628  19.204  25.751  1.00  0.00    -0.237 OA
ATOM     87  O   UNL A   1      42.926  18.658  25.052  1.00  0.00    -0.744 OA
ENDBRANCH  83  84
ENDBRANCH  51  76
BRANCH  63  88
ATOM     88  C   UNL A   1      49.329  26.822  25.999  1.00  0.00     0.058 A 
ATOM     89  C   UNL A   1      49.705  27.002  24.659  1.00  0.00     0.135 A 
ATOM     90  C   UNL A   1      50.269  26.258  26.876  1.00  0.00     0.135 A 
ATOM     91  F   UNL A   1      48.839  27.531  23.780  1.00  0.00    -0.206 F 
ATOM     92  C   UNL A   1      50.961  26.620  24.200  1.00  0.00     0.059 A 
ATOM     93  C   UNL A   1      51.539  25.888  26.444  1.00  0.00     0.059 A 
ATOM     94  F   UNL A   1      49.960  26.072  28.170  1.00  0.00    -0.206 F 
ATOM     95  C   UNL A   1      51.872  26.063  25.101  1.00  0.00     0.060 A 
BRANCH  95  96
ATOM     96  S   UNL A   1      53.511  25.598  24.505  1.00  0.00     0.124 S 
ATOM     97  O   UNL A   1      54.374  26.431  25.335  1.00  0.00    -0.237 OA
ATOM     98  O   UNL A   1      53.554  24.165  24.786  1.00  0.00    -0.237 OA
ATOM     99  O   UNL A   1      53.469  25.951  23.089  1.00  0.00    -0.744 OA
ENDBRANCH  95  96
ENDBRANCH  63  88
ENDBRANCH  37  38
ENDBRANCH  30  32
ENDBRANCH  29  30
ENDBRANCH  28  29
ENDBRANCH   1  28
TORSDOF 17
ENDMDL
MODEL 2
REMARK VINA RESULT:     -12.7      6.416     12.163
REMARK SMILES CS(=O)(=O)c1ccc(-c2cc(Cl)cnc2-c2ccc(C(=O)OCCOC(=O)c3ccc(-c4c5nc(c(-c6c(F)cc(S(=O)(=O)[O-])cc6F)c6ccc([nH]6)c(-c6c(F)cc(S(=O)(=O)[O-])cc6F)c6nc(c(-c7c(F)cc(S(=O)(=O)[O-])cc7F)c7ccc4[nH]7)C=C6)C=C5)cc3)nc2)cc1
REMARK SMILES IDX 23 1 22 2 20 3 21 4 19 5 16 6 17 7 95 8 18 9 94 10 15 11
REMARK SMILES IDX 9 12 10 13 11 14 14 15 12 16 13 17 8 18 5 19 6 20 97 21 7 22
REMARK SMILES IDX 96 23 2 24 1 25 3 26 4 27 24 28 25 29 26 30 27 31 28 32
REMARK SMILES IDX 29 33 93 34 30 35 92 36 31 37 32 38 33 39 86 40 34 41 91 42
REMARK SMILES IDX 85 43 87 44 35 45 90 46 84 47 83 48 36 50 70 51 49 52 69 53
REMARK SMILES IDX 50 54 53 55 68 56 88 57 51 58 52 59 67 61 89 62 54 63 37 64
REMARK SMILES IDX 38 65 47 66 39 67 40 68 46 69 48 70 41 71 42 72 43 73 44 74
REMARK SMILES IDX 45 75 71 76 72 77 81 78 73 79 74 80 80 81 82 82 75 83 76 84
REMARK SMILES IDX 77 85 78 86 79 87 55 88 56 89 65 90 57 91 58 92 64 93 66 94
REMARK SMILES IDX 59 95 60 96 61 97 62 98 63 99
REMARK H PARENT 87 49 53 60
REMARK Flexibility Score: inf
ROOT
ATOM      1  C   UNL A   1      39.958  21.800  26.651  1.00  0.00     0.275 C 
ENDROOT
BRANCH   1   2
ATOM      2  O   UNL A   1      38.825  22.514  26.118  1.00  0.00    -0.457 OA
BRANCH   2   3
ATOM      3  C   UNL A   1      37.996  21.767  25.340  1.00  0.00     0.357 C 
ATOM      4  O   UNL A   1      38.119  20.570  25.122  1.00  0.00    -0.244 OA
BRANCH   3   5
ATOM      5  C   UNL A   1      36.836  22.578  24.857  1.00  0.00     0.148 A 
ATOM      6  C   UNL A   1      34.651  24.126  24.185  1.00  0.00     0.019 A 
ATOM      7  C   UNL A   1      35.297  23.363  23.202  1.00  0.00     0.014 A 
ATOM      8  C   UNL A   1      35.190  24.092  25.462  1.00  0.00     0.122 A 
ATOM      9  C   UNL A   1      36.415  22.588  23.533  1.00  0.00     0.037 A 
ATOM     10  N   UNL A   1      36.222  23.307  25.824  1.00  0.00    -0.249 NA
BRANCH   6  11
ATOM     11  C   UNL A   1      33.374  24.804  23.965  1.00  0.00     0.080 A 
ATOM     12  C   UNL A   1      32.164  24.081  23.857  1.00  0.00     0.010 A 
ATOM     13  C   UNL A   1      30.981  24.817  23.716  1.00  0.00     0.033 A 
ATOM     14  C   UNL A   1      31.032  26.208  23.710  1.00  0.00     0.060 A 
ATOM     15  N   UNL A   1      33.435  26.159  23.953  1.00  0.00    -0.254 NA
ATOM     16  Cl  UNL A   1      29.592  27.128  23.546  1.00  0.00    -0.083 Cl
ATOM     17  C   UNL A   1      32.264  26.829  23.835  1.00  0.00     0.132 A 
BRANCH  12  18
ATOM     18  C   UNL A   1      32.143  22.609  23.893  1.00  0.00    -0.016 A 
ATOM     19  C   UNL A   1      32.494  19.823  23.910  1.00  0.00     0.067 A 
ATOM     20  C   UNL A   1      32.508  20.531  25.113  1.00  0.00     0.021 A 
ATOM     21  C   UNL A   1      32.252  20.484  22.703  1.00  0.00     0.021 A 
ATOM     22  C   UNL A   1      32.319  21.914  25.101  1.00  0.00     0.010 A 
ATOM     23  C   UNL A   1      32.076  21.872  22.700  1.00  0.00     0.010 A 
BRANCH  19  24
ATOM     24  S   UNL A   1      32.822  18.079  23.965  1.00  0.00     0.175 S 
ATOM     25  C   UNL A   1      34.544  17.899  24.328  1.00  0.00     0.163 C 
ATOM     26  O   UNL A   1      32.627  17.567  22.622  1.00  0.00    -0.224 OA
ATOM     27  O   UNL A   1      32.082  17.553  25.096  1.00  0.00    -0.224 OA
ENDBRANCH  19  24
ENDBRANCH  12  18
ENDBRANCH   6  11
ENDBRANCH   3   5
ENDBRANCH   2   3
ENDBRANCH   1   2
BRANCH   1  28
ATOM     28  C   UNL A   1      41.281  22.397  26.158  1.00  0.00     0.275 C 
BRANCH  28  29
ATOM     29  O   UNL A   1      41.775  23.428  27.034  1.00  0.00    -0.458 OA
BRANCH  29  30
ATOM     30  C   UNL A   1      41.839  24.666  26.488  1.00  0.00     0.338 C 
ATOM     31  O   UNL A   1      42.081  24.941  25.324  1.00  0.00    -0.246 OA
BRANCH  30  32
ATOM     32  C   UNL A   1      41.477  25.683  27.490  1.00  0.00     0.060 A 
ATOM     33  C   UNL A   1      42.316  26.785  27.623  1.00  0.00     0.016 A 
ATOM     34  C   UNL A   1      40.410  25.510  28.370  1.00  0.00     0.016 A 
ATOM     35  C   UNL A   1      42.136  27.698  28.654  1.00  0.00     0.010 A 
ATOM     36  C   UNL A   1      40.197  26.457  29.385  1.00  0.00     0.010 A 
ATOM     37  C   UNL A   1      41.071  27.550  29.548  1.00  0.00    -0.014 A 
BRANCH  37  38
ATOM     38  C   UNL A   1      40.908  28.527  30.656  1.00  0.00     0.031 A 
ATOM     39  C   UNL A   1      41.825  28.480  31.848  1.00  0.00     0.074 A 
ATOM     40  C   UNL A   1      39.969  29.490  30.569  1.00  0.00     0.049 A 
ATOM     41  N   UNL A   1      41.785  29.184  32.950  1.00  0.00    -0.248 NA
ATOM     42  C   UNL A   1      42.933  27.512  31.795  1.00  0.00     0.031 C 
ATOM     43  C   UNL A   1      39.053  29.679  29.442  1.00  0.00     0.029 A 
ATOM     44  N   UNL A   1      39.633  30.498  31.440  1.00  0.00    -0.354 N 
ATOM     45  C   UNL A   1      42.836  28.723  33.735  1.00  0.00     0.074 A 
ATOM     46  C   UNL A   1      43.492  27.672  32.986  1.00  0.00     0.031 C 
ATOM     47  C   UNL A   1      38.274  30.745  29.681  1.00  0.00     0.029 A 
ATOM     48  C   UNL A   1      38.589  31.278  31.003  1.00  0.00     0.049 A 
ATOM     49  H   UNL A   1      40.095  30.647  32.296  1.00  0.00     0.167 HD
ATOM     50  C   UNL A   1      43.217  29.141  34.967  1.00  0.00     0.037 A 
ATOM     51  C   UNL A   1      37.934  32.288  31.609  1.00  0.00     0.037 A 
ATOM     52  C   UNL A   1      42.582  30.211  35.692  1.00  0.00     0.049 A 
ATOM     53  C   UNL A   1      38.352  32.706  32.992  1.00  0.00     0.074 A 
ATOM     54  C   UNL A   1      42.897  30.709  36.945  1.00  0.00     0.029 A 
ATOM     55  N   UNL A   1      41.509  30.957  35.226  1.00  0.00    -0.354 N 
ATOM     56  N   UNL A   1      39.322  32.234  33.737  1.00  0.00    -0.248 NA
ATOM     57  C   UNL A   1      37.579  33.786  33.621  1.00  0.00     0.031 C 
ATOM     58  C   UNL A   1      41.995  31.734  37.250  1.00  0.00     0.029 A 
ATOM     59  C   UNL A   1      41.142  31.901  36.172  1.00  0.00     0.049 A 
ATOM     60  H   UNL A   1      41.071  30.832  34.354  1.00  0.00     0.167 HD
ATOM     61  C   UNL A   1      39.284  32.966  34.918  1.00  0.00     0.074 A 
ATOM     62  C   UNL A   1      38.207  33.925  34.781  1.00  0.00     0.031 C 
ATOM     63  C   UNL A   1      40.069  32.852  36.018  1.00  0.00     0.037 A 
BRANCH  50  64
ATOM     64  C   UNL A   1      44.359  28.417  35.625  1.00  0.00     0.058 A 
ATOM     65  C   UNL A   1      45.688  28.845  35.486  1.00  0.00     0.135 A 
ATOM     66  C   UNL A   1      44.113  27.298  36.438  1.00  0.00     0.135 A 
ATOM     67  F   UNL A   1      45.981  29.899  34.708  1.00  0.00    -0.206 F 
ATOM     68  C   UNL A   1      46.736  28.174  36.110  1.00  0.00     0.059 A 
ATOM     69  C   UNL A   1      45.142  26.626  37.090  1.00  0.00     0.059 A 
ATOM     70  F   UNL A   1      42.859  26.847  36.605  1.00  0.00    -0.206 F 
ATOM     71  C   UNL A   1      46.453  27.064  36.909  1.00  0.00     0.060 A 
BRANCH  71  72
ATOM     72  S   UNL A   1      47.821  26.206  37.717  1.00  0.00     0.124 S 
ATOM     73  O   UNL A   1      48.847  27.243  37.731  1.00  0.00    -0.237 OA
ATOM     74  O   UNL A   1      47.253  25.861  39.018  1.00  0.00    -0.237 OA
ATOM     75  O   UNL A   1      48.084  25.075  36.833  1.00  0.00    -0.744 OA
ENDBRANCH  71  72
ENDBRANCH  50  64
BRANCH  51  76
ATOM     76  C   UNL A   1      36.790  32.947  30.925  1.00  0.00     0.058 A 
ATOM     77  C   UNL A   1      35.465  32.652  31.278  1.00  0.00     0.135 A 
ATOM     78  C   UNL A   1      37.001  33.892  29.909  1.00  0.00     0.135 A 
ATOM     79  F   UNL A   1      35.212  31.746  32.236  1.00  0.00    -0.206 F 
ATOM     80  C   UNL A   1      34.389  33.262  30.642  1.00  0.00     0.059 A 
ATOM     81  C   UNL A   1      35.942  34.535  29.276  1.00  0.00     0.059 A 
ATOM     82  F   UNL A   1      38.250  34.217  29.541  1.00  0.00    -0.206 F 
ATOM     83  C   UNL A   1      34.638  34.204  29.642  1.00  0.00     0.060 A 
BRANCH  83  84
ATOM     84  S   UNL A   1      33.238  35.026  28.850  1.00  0.00     0.124 S 
ATOM     85  O   UNL A   1      32.693  33.950  28.031  1.00  0.00    -0.237 OA
ATOM     86  O   UNL A   1      32.428  35.431  29.994  1.00  0.00    -0.237 OA
ATOM     87  O   UNL A   1      33.866  36.122  28.117  1.00  0.00    -0.744 OA
ENDBRANCH  83  84
ENDBRANCH  51  76
BRANCH  63  88
ATOM     88  C   UNL A   1      39.808  33.803  37.150  1.00  0.00     0.058 A 
ATOM     89  C   UNL A   1      38.884  33.503  38.163  1.00  0.00     0.135 A 
ATOM     90  C   UNL A   1      40.519  35.009  37.245  1.00  0.00     0.135 A 
ATOM     91  F   UNL A   1      38.173  32.366  38.114  1.00  0.00    -0.206 F 
ATOM     92  C   UNL A   1      38.661  34.376  39.223  1.00  0.00     0.059 A 
ATOM     93  C   UNL A   1      40.329  35.887  38.307  1.00  0.00     0.059 A 
ATOM     94  F   UNL A   1      41.420  35.338  36.304  1.00  0.00    -0.206 F 
ATOM     95  C   UNL A   1      39.389  35.566  39.286  1.00  0.00     0.060 A 
BRANCH  95  96
ATOM     96  S   UNL A   1      39.117  36.679  40.682  1.00  0.00     0.124 S 
ATOM     97  O   UNL A   1      38.217  35.889  41.516  1.00  0.00    -0.237 OA
ATOM     98  O   UNL A   1      40.467  36.863  41.207  1.00  0.00    -0.237 OA
ATOM     99  O   UNL A   1      38.526  37.861  40.063  1.00  0.00    -0.744 OA
ENDBRANCH  95  96
ENDBRANCH  63  88
ENDBRANCH  37  38
ENDBRANCH  30  32
ENDBRANCH  29  30
ENDBRANCH  28  29
ENDBRANCH   1  28
TORSDOF 17
ENDMDL
MODEL 3
REMARK VINA RESULT:     -12.5      6.568     11.847
REMARK SMILES CS(=O)(=O)c1ccc(-c2cc(Cl)cnc2-c2ccc(C(=O)OCCOC(=O)c3ccc(-c4c5nc(c(-c6c(F)cc(S(=O)(=O)[O-])cc6F)c6ccc([nH]6)c(-c6c(F)cc(S(=O)(=O)[O-])cc6F)c6nc(c(-c7c(F)cc(S(=O)(=O)[O-])cc7F)c7ccc4[nH]7)C=C6)C=C5)cc3)nc2)cc1
REMARK SMILES IDX 23 1 22 2 20 3 21 4 19 5 16 6 17 7 95 8 18 9 94 10 15 11
REMARK SMILES IDX 9 12 10 13 11 14 14 15 12 16 13 17 8 18 5 19 6 20 97 21 7 22
REMARK SMILES IDX 96 23 2 24 1 25 3 26 4 27 24 28 25 29 26 30 27 31 28 32
REMARK SMILES IDX 29 33 93 34 30 35 92 36 31 37 32 38 33 39 86 40 34 41 91 42
REMARK SMILES IDX 85 43 87 44 35 45 90 46 84 47 83 48 36 50 70 51 49 52 69 53
REMARK SMILES IDX 50 54 53 55 68 56 88 57 51 58 52 59 67 61 89 62 54 63 37 64
REMARK SMILES IDX 38 65 47 66 39 67 40 68 46 69 48 70 41 71 42 72 43 73 44 74
REMARK SMILES IDX 45 75 71 76 72 77 81 78 73 79 74 80 80 81 82 82 75 83 76 84
REMARK SMILES IDX 77 85 78 86 79 87 55 88 56 89 65 90 57 91 58 92 64 93 66 94
REMARK SMILES IDX 59 95 60 96 61 97 62 98 63 99
REMARK H PARENT 87 49 53 60
REMARK Flexibility Score: inf
ROOT
ATOM      1  C   UNL A   1      39.992  21.856  26.519  1.00  0.00     0.275 C 
ENDROOT
BRANCH   1   2
ATOM      2  O   UNL A   1      38.606  22.238  26.410  1.00  0.00    -0.457 OA
BRANCH   2   3
ATOM      3  C   UNL A   1      37.919  21.610  25.418  1.00  0.00     0.357 C 
ATOM      4  O   UNL A   1      38.130  20.473  25.022  1.00  0.00    -0.244 OA
BRANCH   3   5
ATOM      5  C   UNL A   1      36.786  22.457  24.931  1.00  0.00     0.148 A 
ATOM      6  C   UNL A   1      34.633  24.046  24.251  1.00  0.00     0.019 A 
ATOM      7  C   UNL A   1      35.363  23.389  23.250  1.00  0.00     0.014 A 
ATOM      8  C   UNL A   1      35.076  23.889  25.557  1.00  0.00     0.122 A 
ATOM      9  C   UNL A   1      36.465  22.594  23.587  1.00  0.00     0.037 A 
ATOM     10  N   UNL A   1      36.090  23.080  25.916  1.00  0.00    -0.249 NA
BRANCH   6  11
ATOM     11  C   UNL A   1      33.366  24.733  24.003  1.00  0.00     0.080 A 
ATOM     12  C   UNL A   1      32.157  24.016  23.852  1.00  0.00     0.010 A 
ATOM     13  C   UNL A   1      30.981  24.759  23.687  1.00  0.00     0.033 A 
ATOM     14  C   UNL A   1      31.038  26.150  23.699  1.00  0.00     0.060 A 
ATOM     15  N   UNL A   1      33.434  26.088  24.010  1.00  0.00    -0.254 NA
ATOM     16  Cl  UNL A   1      29.608  27.079  23.505  1.00  0.00    -0.083 Cl
ATOM     17  C   UNL A   1      32.269  26.764  23.868  1.00  0.00     0.132 A 
BRANCH  12  18
ATOM     18  C   UNL A   1      32.128  22.544  23.869  1.00  0.00    -0.016 A 
ATOM     19  C   UNL A   1      32.468  19.757  23.878  1.00  0.00     0.067 A 
ATOM     20  C   UNL A   1      32.398  20.451  25.087  1.00  0.00     0.021 A 
ATOM     21  C   UNL A   1      32.315  20.433  22.665  1.00  0.00     0.021 A 
ATOM     22  C   UNL A   1      32.216  21.835  25.078  1.00  0.00     0.010 A 
ATOM     23  C   UNL A   1      32.145  21.821  22.665  1.00  0.00     0.010 A 
BRANCH  19  24
ATOM     24  S   UNL A   1      32.787  18.011  23.936  1.00  0.00     0.175 S 
ATOM     25  C   UNL A   1      34.507  17.821  24.297  1.00  0.00     0.163 C 
ATOM     26  O   UNL A   1      32.586  17.498  22.594  1.00  0.00    -0.224 OA
ATOM     27  O   UNL A   1      32.044  17.492  25.068  1.00  0.00    -0.224 OA
ENDBRANCH  19  24
ENDBRANCH  12  18
ENDBRANCH   6  11
ENDBRANCH   3   5
ENDBRANCH   2   3
ENDBRANCH   1   2
BRANCH   1  28
ATOM     28  C   UNL A   1      40.916  23.078  26.479  1.00  0.00     0.275 C 
BRANCH  28  29
ATOM     29  O   UNL A   1      40.182  24.316  26.411  1.00  0.00    -0.458 OA
BRANCH  29  30
ATOM     30  C   UNL A   1      40.936  25.421  26.204  1.00  0.00     0.338 C 
ATOM     31  O   UNL A   1      41.441  25.777  25.151  1.00  0.00    -0.246 OA
BRANCH  30  32
ATOM     32  C   UNL A   1      41.002  26.230  27.434  1.00  0.00     0.060 A 
ATOM     33  C   UNL A   1      40.054  25.982  28.420  1.00  0.00     0.016 A 
ATOM     34  C   UNL A   1      41.892  27.293  27.575  1.00  0.00     0.016 A 
ATOM     35  C   UNL A   1      39.946  26.810  29.531  1.00  0.00     0.010 A 
ATOM     36  C   UNL A   1      41.817  28.105  28.718  1.00  0.00     0.010 A 
ATOM     37  C   UNL A   1      40.829  27.881  29.698  1.00  0.00    -0.014 A 
BRANCH  37  38
ATOM     38  C   UNL A   1      40.683  28.767  30.882  1.00  0.00     0.031 A 
ATOM     39  C   UNL A   1      39.618  29.830  30.907  1.00  0.00     0.074 A 
ATOM     40  C   UNL A   1      41.474  28.584  31.959  1.00  0.00     0.049 A 
ATOM     41  N   UNL A   1      39.394  30.754  31.805  1.00  0.00    -0.248 NA
ATOM     42  C   UNL A   1      38.684  29.859  29.771  1.00  0.00     0.031 C 
ATOM     43  C   UNL A   1      42.508  27.553  32.083  1.00  0.00     0.029 A 
ATOM     44  N   UNL A   1      41.529  29.252  33.158  1.00  0.00    -0.354 N 
ATOM     45  C   UNL A   1      38.318  31.495  31.330  1.00  0.00     0.074 A 
ATOM     46  C   UNL A   1      37.939  30.917  30.057  1.00  0.00     0.031 C 
ATOM     47  C   UNL A   1      43.080  27.647  33.293  1.00  0.00     0.029 A 
ATOM     48  C   UNL A   1      42.501  28.780  34.007  1.00  0.00     0.049 A 
ATOM     49  H   UNL A   1      40.929  29.999  33.386  1.00  0.00     0.167 HD
ATOM     50  C   UNL A   1      37.704  32.558  31.904  1.00  0.00     0.037 A 
ATOM     51  C   UNL A   1      42.905  29.228  35.212  1.00  0.00     0.037 A 
ATOM     52  C   UNL A   1      38.063  33.106  33.187  1.00  0.00     0.049 A 
ATOM     53  C   UNL A   1      42.233  30.433  35.810  1.00  0.00     0.074 A 
ATOM     54  C   UNL A   1      37.499  34.180  33.853  1.00  0.00     0.029 A 
ATOM     55  N   UNL A   1      39.073  32.617  34.003  1.00  0.00    -0.354 N 
ATOM     56  N   UNL A   1      41.244  31.147  35.329  1.00  0.00    -0.248 NA
ATOM     57  C   UNL A   1      42.740  30.902  37.107  1.00  0.00     0.031 C 
ATOM     58  C   UNL A   1      38.188  34.360  35.057  1.00  0.00     0.029 A 
ATOM     59  C   UNL A   1      39.156  33.375  35.160  1.00  0.00     0.049 A 
ATOM     60  H   UNL A   1      39.646  31.846  33.791  1.00  0.00     0.167 HD
ATOM     61  C   UNL A   1      41.001  32.142  36.269  1.00  0.00     0.074 A 
ATOM     62  C   UNL A   1      41.936  31.927  37.355  1.00  0.00     0.031 C 
ATOM     63  C   UNL A   1      40.090  33.145  36.234  1.00  0.00     0.037 A 
BRANCH  50  64
ATOM     64  C   UNL A   1      36.597  33.221  31.133  1.00  0.00     0.058 A 
ATOM     65  C   UNL A   1      35.247  33.060  31.484  1.00  0.00     0.135 A 
ATOM     66  C   UNL A   1      36.894  34.062  30.048  1.00  0.00     0.135 A 
ATOM     67  F   UNL A   1      34.906  32.255  32.503  1.00  0.00    -0.206 F 
ATOM     68  C   UNL A   1      34.231  33.690  30.772  1.00  0.00     0.059 A 
ATOM     69  C   UNL A   1      35.896  34.720  29.336  1.00  0.00     0.059 A 
ATOM     70  F   UNL A   1      38.169  34.252  29.670  1.00  0.00    -0.206 F 
ATOM     71  C   UNL A   1      34.566  34.516  29.697  1.00  0.00     0.060 A 
BRANCH  71  72
ATOM     72  S   UNL A   1      33.238  35.331  28.783  1.00  0.00     0.124 S 
ATOM     73  O   UNL A   1      33.992  36.221  27.906  1.00  0.00    -0.237 OA
ATOM     74  O   UNL A   1      32.573  34.209  28.125  1.00  0.00    -0.237 OA
ATOM     75  O   UNL A   1      32.460  35.990  29.827  1.00  0.00    -0.744 OA
ENDBRANCH  71  72
ENDBRANCH  50  64
BRANCH  51  76
ATOM     76  C   UNL A   1      44.029  28.553  35.915  1.00  0.00     0.058 A 
ATOM     77  C   UNL A   1      43.796  27.503  36.815  1.00  0.00     0.135 A 
ATOM     78  C   UNL A   1      45.359  28.941  35.692  1.00  0.00     0.135 A 
ATOM     79  F   UNL A   1      42.541  27.103  37.069  1.00  0.00    -0.206 F 
ATOM     80  C   UNL A   1      44.842  26.868  37.477  1.00  0.00     0.059 A 
ATOM     81  C   UNL A   1      46.423  28.304  36.323  1.00  0.00     0.059 A 
ATOM     82  F   UNL A   1      45.635  29.935  34.833  1.00  0.00    -0.206 F 
ATOM     83  C   UNL A   1      46.153  27.275  37.223  1.00  0.00     0.060 A 
BRANCH  83  84
ATOM     84  S   UNL A   1      47.509  26.417  38.053  1.00  0.00     0.124 S 
ATOM     85  O   UNL A   1      47.287  26.796  39.444  1.00  0.00    -0.237 OA
ATOM     86  O   UNL A   1      47.243  25.022  37.721  1.00  0.00    -0.237 OA
ATOM     87  O   UNL A   1      48.698  26.987  37.425  1.00  0.00    -0.744 OA
ENDBRANCH  83  84
ENDBRANCH  51  76
BRANCH  63  88
ATOM     88  C   UNL A   1      40.040  34.070  37.416  1.00  0.00     0.058 A 
ATOM     89  C   UNL A   1      39.189  33.826  38.505  1.00  0.00     0.135 A 
ATOM     90  C   UNL A   1      40.884  35.190  37.479  1.00  0.00     0.135 A 
ATOM     91  F   UNL A   1      38.358  32.772  38.489  1.00  0.00    -0.206 F 
ATOM     92  C   UNL A   1      39.162  34.672  39.608  1.00  0.00     0.059 A 
ATOM     93  C   UNL A   1      40.890  36.038  38.582  1.00  0.00     0.059 A 
ATOM     94  F   UNL A   1      41.723  35.462  36.466  1.00  0.00    -0.206 F 
ATOM     95  C   UNL A   1      40.017  35.776  39.638  1.00  0.00     0.060 A 
BRANCH  95  96
ATOM     96  S   UNL A   1      39.998  36.851  41.088  1.00  0.00     0.124 S 
ATOM     97  O   UNL A   1      39.846  35.884  42.170  1.00  0.00    -0.237 OA
ATOM     98  O   UNL A   1      41.299  37.511  41.008  1.00  0.00    -0.237 OA
ATOM     99  O   UNL A   1      38.848  37.718  40.852  1.00  0.00    -0.744 OA
ENDBRANCH  95  96
ENDBRANCH  63  88
ENDBRANCH  37  38
ENDBRANCH  30  32
ENDBRANCH  29  30
ENDBRANCH  28  29
ENDBRANCH   1  28
TORSDOF 17
ENDMDL
