MODEL 1
REMARK VINA RESULT:     -10.7      0.000      0.000
REMARK SMILES O=C(C[C@@H](C(=O)N(c1ccccc1)c1ccccc1)[NH+]1CCOCC1)OCCOC(=O)c1ccc(-c2c3nc(c(-c4c(F)cc(S(=O)(=O)[O-])cc4F)c4ccc([nH]4)c(-c4c(F)cc(S(=O)(=O)[O-])cc4F)c4nc(c(-c5c(F)cc(S(=O)(=O)[O-])cc5F)c5ccc2[nH]5)C=C4)C=C3)cc1
REMARK SMILES IDX 27 1 26 2 2 3 1 4 3 5 4 6 5 7 6 8 7 9 8 10 9 11 13 12 10 13
REMARK SMILES IDX 12 14 11 15 14 16 15 17 19 18 16 19 18 20 17 21 20 22 21 23
REMARK SMILES IDX 25 24 22 26 24 27 23 28 28 29 29 30 30 31 31 32 32 33 33 34
REMARK SMILES IDX 97 35 34 36 96 37 35 38 36 39 37 40 90 41 38 42 95 43 89 44
REMARK SMILES IDX 91 45 39 46 94 47 88 48 87 49 40 51 74 52 53 53 73 54 54 55
REMARK SMILES IDX 57 56 72 57 92 58 55 59 56 60 71 62 93 63 58 64 41 65 42 66
REMARK SMILES IDX 51 67 43 68 44 69 50 70 52 71 45 72 46 73 47 74 48 75 49 76
REMARK SMILES IDX 75 77 76 78 85 79 77 80 78 81 84 82 86 83 79 84 80 85 81 86
REMARK SMILES IDX 82 87 83 88 59 89 60 90 69 91 61 92 62 93 68 94 70 95 63 96
REMARK SMILES IDX 64 97 65 98 66 99 67 100
REMARK H PARENT 20 25 91 50 57 61
REMARK Flexibility Score: inf
ROOT
ATOM      1  C   UNL A   1      32.869  33.162  27.253  1.00  0.00     0.274 C 
ENDROOT
BRANCH   1   2
ATOM      2  O   UNL A   1      32.946  33.888  28.496  1.00  0.00    -0.462 OA
BRANCH   2   3
ATOM      3  C   UNL A   1      34.111  34.121  29.130  1.00  0.00     0.312 C 
ATOM      4  O   UNL A   1      34.939  34.889  28.641  1.00  0.00    -0.252 OA
BRANCH   3   5
ATOM      5  C   UNL A   1      34.404  33.424  30.434  1.00  0.00     0.198 C 
BRANCH   5   6
ATOM      6  C   UNL A   1      34.119  34.099  31.790  1.00  0.00     0.286 C 
BRANCH   6   7
ATOM      7  C   UNL A   1      34.994  33.436  32.865  1.00  0.00     0.290 C 
ATOM      8  O   UNL A   1      34.461  33.229  33.971  1.00  0.00    -0.267 OA
ATOM      9  N   UNL A   1      36.367  33.154  32.651  1.00  0.00    -0.276 N 
BRANCH   9  10
ATOM     10  C   UNL A   1      37.237  33.396  31.491  1.00  0.00     0.049 A 
ATOM     11  C   UNL A   1      38.146  34.480  31.497  1.00  0.00     0.027 A 
ATOM     12  C   UNL A   1      37.232  32.670  30.298  1.00  0.00     0.027 A 
ATOM     13  C   UNL A   1      38.789  34.946  30.340  1.00  0.00     0.002 A 
ATOM     14  C   UNL A   1      37.862  33.128  29.126  1.00  0.00     0.002 A 
ATOM     15  C   UNL A   1      38.605  34.294  29.135  1.00  0.00     0.000 A 
ENDBRANCH   9  10
BRANCH   9  16
ATOM     16  C   UNL A   1      37.063  32.733  33.855  1.00  0.00     0.049 A 
ATOM     17  C   UNL A   1      37.158  33.595  34.963  1.00  0.00     0.027 A 
ATOM     18  C   UNL A   1      37.567  31.430  33.979  1.00  0.00     0.027 A 
ATOM     19  C   UNL A   1      37.789  33.185  36.138  1.00  0.00     0.002 A 
ATOM     20  C   UNL A   1      38.178  31.012  35.164  1.00  0.00     0.002 A 
ATOM     21  C   UNL A   1      38.299  31.893  36.237  1.00  0.00     0.000 A 
ENDBRANCH   9  16
ENDBRANCH   6   7
BRANCH   6  22
ATOM     22  N   UNL A   1      34.447  35.572  31.625  1.00  0.00    -0.320 N 
ATOM     23  C   UNL A   1      34.851  36.258  32.876  1.00  0.00     0.291 C 
ATOM     24  C   UNL A   1      33.320  36.364  31.078  1.00  0.00     0.291 C 
ATOM     25  H   UNL A   1      35.232  35.542  30.975  1.00  0.00     0.348 HD
ATOM     26  C   UNL A   1      33.694  36.574  33.851  1.00  0.00     0.221 C 
ATOM     27  C   UNL A   1      32.149  36.450  32.069  1.00  0.00     0.221 C 
ATOM     28  O   UNL A   1      32.564  37.185  33.218  1.00  0.00    -0.370 OA
ENDBRANCH   6  22
ENDBRANCH   5   6
ENDBRANCH   3   5
ENDBRANCH   2   3
ENDBRANCH   1   2
BRANCH   1  29
ATOM     29  C   UNL A   1      32.925  31.646  27.474  1.00  0.00     0.275 C 
BRANCH  29  30
ATOM     30  O   UNL A   1      34.274  31.213  27.748  1.00  0.00    -0.458 OA
BRANCH  30  31
ATOM     31  C   UNL A   1      34.477  29.878  27.888  1.00  0.00     0.338 C 
ATOM     32  O   UNL A   1      33.678  28.990  27.648  1.00  0.00    -0.246 OA
BRANCH  31  33
ATOM     33  C   UNL A   1      35.908  29.648  28.207  1.00  0.00     0.060 A 
ATOM     34  C   UNL A   1      36.870  29.885  27.214  1.00  0.00     0.016 A 
ATOM     35  C   UNL A   1      36.308  29.235  29.481  1.00  0.00     0.016 A 
ATOM     36  C   UNL A   1      38.230  29.714  27.499  1.00  0.00     0.010 A 
ATOM     37  C   UNL A   1      37.665  29.032  29.754  1.00  0.00     0.010 A 
ATOM     38  C   UNL A   1      38.634  29.257  28.764  1.00  0.00    -0.014 A 
BRANCH  38  39
ATOM     39  C   UNL A   1      40.049  28.873  29.016  1.00  0.00     0.031 A 
ATOM     40  C   UNL A   1      40.966  29.898  29.603  1.00  0.00     0.074 A 
ATOM     41  C   UNL A   1      40.525  27.657  28.687  1.00  0.00     0.049 A 
ATOM     42  N   UNL A   1      42.258  29.834  29.767  1.00  0.00    -0.248 NA
ATOM     43  C   UNL A   1      40.358  31.172  30.015  1.00  0.00     0.031 C 
ATOM     44  C   UNL A   1      39.724  26.622  28.063  1.00  0.00     0.029 A 
ATOM     45  N   UNL A   1      41.761  27.074  28.813  1.00  0.00    -0.354 N 
ATOM     46  C   UNL A   1      42.631  31.082  30.244  1.00  0.00     0.074 A 
ATOM     47  C   UNL A   1      41.425  31.869  30.378  1.00  0.00     0.031 C 
ATOM     48  C   UNL A   1      40.445  25.500  27.926  1.00  0.00     0.029 A 
ATOM     49  C   UNL A   1      41.814  25.776  28.341  1.00  0.00     0.049 A 
ATOM     50  H   UNL A   1      42.538  27.537  29.202  1.00  0.00     0.167 HD
ATOM     51  C   UNL A   1      43.878  31.530  30.502  1.00  0.00     0.037 A 
ATOM     52  C   UNL A   1      42.857  24.934  28.197  1.00  0.00     0.037 A 
ATOM     53  C   UNL A   1      45.063  30.728  30.355  1.00  0.00     0.049 A 
ATOM     54  C   UNL A   1      44.233  25.460  28.520  1.00  0.00     0.074 A 
ATOM     55  C   UNL A   1      46.373  31.082  30.620  1.00  0.00     0.029 A 
ATOM     56  N   UNL A   1      45.085  29.419  29.894  1.00  0.00    -0.354 N 
ATOM     57  N   UNL A   1      44.569  26.639  28.990  1.00  0.00    -0.248 NA
ATOM     58  C   UNL A   1      45.373  24.576  28.243  1.00  0.00     0.031 C 
ATOM     59  C   UNL A   1      47.193  30.005  30.273  1.00  0.00     0.029 A 
ATOM     60  C   UNL A   1      46.390  28.960  29.840  1.00  0.00     0.049 A 
ATOM     61  H   UNL A   1      44.291  28.896  29.641  1.00  0.00     0.167 HD
ATOM     62  C   UNL A   1      45.956  26.645  29.044  1.00  0.00     0.074 A 
ATOM     63  C   UNL A   1      46.398  25.336  28.606  1.00  0.00     0.031 C 
ATOM     64  C   UNL A   1      46.794  27.649  29.399  1.00  0.00     0.037 A 
BRANCH  51  65
ATOM     65  C   UNL A   1      44.029  32.965  30.902  1.00  0.00     0.058 A 
ATOM     66  C   UNL A   1      44.042  33.364  32.246  1.00  0.00     0.135 A 
ATOM     67  C   UNL A   1      44.210  33.951  29.918  1.00  0.00     0.135 A 
ATOM     68  F   UNL A   1      43.839  32.464  33.222  1.00  0.00    -0.206 F 
ATOM     69  C   UNL A   1      44.232  34.694  32.603  1.00  0.00     0.059 A 
ATOM     70  C   UNL A   1      44.424  35.283  30.253  1.00  0.00     0.059 A 
ATOM     71  F   UNL A   1      44.183  33.620  28.618  1.00  0.00    -0.206 F 
ATOM     72  C   UNL A   1      44.432  35.644  31.598  1.00  0.00     0.060 A 
BRANCH  72  73
ATOM     73  S   UNL A   1      44.732  37.357  32.082  1.00  0.00     0.124 S 
ATOM     74  O   UNL A   1      43.755  37.534  33.152  1.00  0.00    -0.237 OA
ATOM     75  O   UNL A   1      46.130  37.321  32.499  1.00  0.00    -0.237 OA
ATOM     76  O   UNL A   1      44.464  38.107  30.859  1.00  0.00    -0.744 OA
ENDBRANCH  72  73
ENDBRANCH  51  65
BRANCH  52  77
ATOM     77  C   UNL A   1      42.680  23.562  27.630  1.00  0.00     0.058 A 
ATOM     78  C   UNL A   1      42.430  22.456  28.458  1.00  0.00     0.135 A 
ATOM     79  C   UNL A   1      42.804  23.317  26.252  1.00  0.00     0.135 A 
ATOM     80  F   UNL A   1      42.323  22.623  29.786  1.00  0.00    -0.206 F 
ATOM     81  C   UNL A   1      42.332  21.161  27.949  1.00  0.00     0.059 A 
ATOM     82  C   UNL A   1      42.672  22.039  25.714  1.00  0.00     0.059 A 
ATOM     83  F   UNL A   1      43.044  24.331  25.407  1.00  0.00    -0.206 F 
ATOM     84  C   UNL A   1      42.457  20.963  26.572  1.00  0.00     0.060 A 
BRANCH  84  85
ATOM     85  S   UNL A   1      42.318  19.288  25.909  1.00  0.00     0.124 S 
ATOM     86  O   UNL A   1      43.136  19.382  24.705  1.00  0.00    -0.237 OA
ATOM     87  O   UNL A   1      42.868  18.476  26.991  1.00  0.00    -0.237 OA
ATOM     88  O   UNL A   1      40.884  19.133  25.688  1.00  0.00    -0.744 OA
ENDBRANCH  84  85
ENDBRANCH  52  77
BRANCH  64  89
ATOM     89  C   UNL A   1      48.268  27.370  29.333  1.00  0.00     0.058 A 
ATOM     90  C   UNL A   1      48.992  27.548  28.145  1.00  0.00     0.135 A 
ATOM     91  C   UNL A   1      48.972  26.995  30.487  1.00  0.00     0.135 A 
ATOM     92  F   UNL A   1      48.361  27.897  27.012  1.00  0.00    -0.206 F 
ATOM     93  C   UNL A   1      50.368  27.357  28.101  1.00  0.00     0.059 A 
ATOM     94  C   UNL A   1      50.351  26.824  30.473  1.00  0.00     0.059 A 
ATOM     95  F   UNL A   1      48.322  26.820  31.649  1.00  0.00    -0.206 F 
ATOM     96  C   UNL A   1      51.040  27.001  29.273  1.00  0.00     0.060 A 
BRANCH  96  97
ATOM     97  S   UNL A   1      52.834  26.813  29.217  1.00  0.00     0.124 S 
ATOM     98  O   UNL A   1      53.076  25.961  30.376  1.00  0.00    -0.237 OA
ATOM     99  O   UNL A   1      53.042  26.189  27.914  1.00  0.00    -0.237 OA
ATOM    100  O   UNL A   1      53.323  28.183  29.333  1.00  0.00    -0.744 OA
ENDBRANCH  96  97
ENDBRANCH  64  89
ENDBRANCH  38  39
ENDBRANCH  31  33
ENDBRANCH  30  31
ENDBRANCH  29  30
ENDBRANCH   1  29
TORSDOF 19
ENDMDL
MODEL 2
REMARK VINA RESULT:     -10.5      4.768     11.210
REMARK SMILES O=C(C[C@@H](C(=O)N(c1ccccc1)c1ccccc1)[NH+]1CCOCC1)OCCOC(=O)c1ccc(-c2c3nc(c(-c4c(F)cc(S(=O)(=O)[O-])cc4F)c4ccc([nH]4)c(-c4c(F)cc(S(=O)(=O)[O-])cc4F)c4nc(c(-c5c(F)cc(S(=O)(=O)[O-])cc5F)c5ccc2[nH]5)C=C4)C=C3)cc1
REMARK SMILES IDX 27 1 26 2 2 3 1 4 3 5 4 6 5 7 6 8 7 9 8 10 9 11 13 12 10 13
REMARK SMILES IDX 12 14 11 15 14 16 15 17 19 18 16 19 18 20 17 21 20 22 21 23
REMARK SMILES IDX 25 24 22 26 24 27 23 28 28 29 29 30 30 31 31 32 32 33 33 34
REMARK SMILES IDX 97 35 34 36 96 37 35 38 36 39 37 40 90 41 38 42 95 43 89 44
REMARK SMILES IDX 91 45 39 46 94 47 88 48 87 49 40 51 74 52 53 53 73 54 54 55
REMARK SMILES IDX 57 56 72 57 92 58 55 59 56 60 71 62 93 63 58 64 41 65 42 66
REMARK SMILES IDX 51 67 43 68 44 69 50 70 52 71 45 72 46 73 47 74 48 75 49 76
REMARK SMILES IDX 75 77 76 78 85 79 77 80 78 81 84 82 86 83 79 84 80 85 81 86
REMARK SMILES IDX 82 87 83 88 59 89 60 90 69 91 61 92 62 93 68 94 70 95 63 96
REMARK SMILES IDX 64 97 65 98 66 99 67 100
REMARK H PARENT 20 25 91 50 57 61
REMARK Flexibility Score: inf
ROOT
ATOM      1  C   UNL A   1      36.120  22.746  23.492  1.00  0.00     0.274 C 
ENDROOT
BRANCH   1   2
ATOM      2  O   UNL A   1      35.529  23.993  23.076  1.00  0.00    -0.462 OA
BRANCH   2   3
ATOM      3  C   UNL A   1      34.279  24.075  22.582  1.00  0.00     0.312 C 
ATOM      4  O   UNL A   1      33.787  23.120  21.982  1.00  0.00    -0.252 OA
BRANCH   3   5
ATOM      5  C   UNL A   1      33.490  25.348  22.753  1.00  0.00     0.198 C 
BRANCH   5   6
ATOM      6  C   UNL A   1      32.483  25.524  23.907  1.00  0.00     0.286 C 
BRANCH   6   7
ATOM      7  C   UNL A   1      31.328  26.413  23.422  1.00  0.00     0.290 C 
ATOM      8  O   UNL A   1      30.758  26.066  22.371  1.00  0.00    -0.267 OA
ATOM      9  N   UNL A   1      30.979  27.621  24.078  1.00  0.00    -0.276 N 
BRANCH   9  10
ATOM     10  C   UNL A   1      31.558  28.287  25.254  1.00  0.00     0.049 A 
ATOM     11  C   UNL A   1      32.408  29.407  25.091  1.00  0.00     0.027 A 
ATOM     12  C   UNL A   1      31.397  27.888  26.584  1.00  0.00     0.027 A 
ATOM     13  C   UNL A   1      33.218  29.909  26.121  1.00  0.00     0.002 A 
ATOM     14  C   UNL A   1      32.209  28.374  27.626  1.00  0.00     0.002 A 
ATOM     15  C   UNL A   1      33.153  29.354  27.386  1.00  0.00     0.000 A 
ENDBRANCH   9  10
BRANCH   9  16
ATOM     16  C   UNL A   1      30.013  28.418  23.342  1.00  0.00     0.049 A 
ATOM     17  C   UNL A   1      30.442  29.341  22.371  1.00  0.00     0.027 A 
ATOM     18  C   UNL A   1      28.635  28.217  23.509  1.00  0.00     0.027 A 
ATOM     19  C   UNL A   1      29.520  30.082  21.630  1.00  0.00     0.002 A 
ATOM     20  C   UNL A   1      27.713  28.943  22.750  1.00  0.00     0.002 A 
ATOM     21  C   UNL A   1      28.156  29.882  21.821  1.00  0.00     0.000 A 
ENDBRANCH   9  16
ENDBRANCH   6   7
BRANCH   6  22
ATOM     22  N   UNL A   1      32.006  24.135  24.288  1.00  0.00    -0.320 N 
ATOM     23  C   UNL A   1      30.610  24.078  24.787  1.00  0.00     0.291 C 
ATOM     24  C   UNL A   1      32.835  23.500  25.340  1.00  0.00     0.291 C 
ATOM     25  H   UNL A   1      32.080  23.635  23.402  1.00  0.00     0.348 HD
ATOM     26  C   UNL A   1      30.409  24.596  26.228  1.00  0.00     0.221 C 
ATOM     27  C   UNL A   1      32.695  24.221  26.689  1.00  0.00     0.221 C 
ATOM     28  O   UNL A   1      31.358  24.070  27.162  1.00  0.00    -0.370 OA
ENDBRANCH   6  22
ENDBRANCH   5   6
ENDBRANCH   3   5
ENDBRANCH   2   3
ENDBRANCH   1   2
BRANCH   1  29
ATOM     29  C   UNL A   1      36.473  22.750  24.983  1.00  0.00     0.275 C 
BRANCH  29  30
ATOM     30  O   UNL A   1      37.504  23.719  25.268  1.00  0.00    -0.458 OA
BRANCH  30  31
ATOM     31  C   UNL A   1      38.609  23.272  25.919  1.00  0.00     0.338 C 
ATOM     32  O   UNL A   1      39.178  22.209  25.743  1.00  0.00    -0.246 OA
BRANCH  31  33
ATOM     33  C   UNL A   1      39.138  24.372  26.763  1.00  0.00     0.060 A 
ATOM     34  C   UNL A   1      38.757  24.433  28.112  1.00  0.00     0.016 A 
ATOM     35  C   UNL A   1      40.028  25.318  26.246  1.00  0.00     0.016 A 
ATOM     36  C   UNL A   1      39.272  25.436  28.942  1.00  0.00     0.010 A 
ATOM     37  C   UNL A   1      40.514  26.340  27.068  1.00  0.00     0.010 A 
ATOM     38  C   UNL A   1      40.131  26.414  28.417  1.00  0.00    -0.014 A 
BRANCH  38  39
ATOM     39  C   UNL A   1      40.519  27.600  29.229  1.00  0.00     0.031 A 
ATOM     40  C   UNL A   1      41.811  27.551  29.977  1.00  0.00     0.074 A 
ATOM     41  C   UNL A   1      39.719  28.677  29.339  1.00  0.00     0.049 A 
ATOM     42  N   UNL A   1      42.274  28.397  30.856  1.00  0.00    -0.248 NA
ATOM     43  C   UNL A   1      42.671  26.381  29.742  1.00  0.00     0.031 C 
ATOM     44  C   UNL A   1      38.425  28.787  28.695  1.00  0.00     0.029 A 
ATOM     45  N   UNL A   1      39.845  29.867  30.012  1.00  0.00    -0.354 N 
ATOM     46  C   UNL A   1      43.450  27.832  31.327  1.00  0.00     0.074 A 
ATOM     47  C   UNL A   1      43.649  26.592  30.610  1.00  0.00     0.031 C 
ATOM     48  C   UNL A   1      37.897  29.999  28.924  1.00  0.00     0.029 A 
ATOM     49  C   UNL A   1      38.767  30.716  29.847  1.00  0.00     0.049 A 
ATOM     50  H   UNL A   1      40.629  30.094  30.562  1.00  0.00     0.167 HD
ATOM     51  C   UNL A   1      44.259  28.299  32.302  1.00  0.00     0.037 A 
ATOM     52  C   UNL A   1      38.483  31.901  30.425  1.00  0.00     0.037 A 
ATOM     53  C   UNL A   1      44.037  29.534  33.004  1.00  0.00     0.049 A 
ATOM     54  C   UNL A   1      39.424  32.404  31.491  1.00  0.00     0.074 A 
ATOM     55  C   UNL A   1      44.817  30.110  33.990  1.00  0.00     0.029 A 
ATOM     56  N   UNL A   1      42.952  30.377  32.806  1.00  0.00    -0.354 N 
ATOM     57  N   UNL A   1      40.545  31.867  31.912  1.00  0.00    -0.248 NA
ATOM     58  C   UNL A   1      39.040  33.632  32.199  1.00  0.00     0.031 C 
ATOM     59  C   UNL A   1      44.180  31.276  34.422  1.00  0.00     0.029 A 
ATOM     60  C   UNL A   1      43.028  31.454  33.671  1.00  0.00     0.049 A 
ATOM     61  H   UNL A   1      42.235  30.230  32.148  1.00  0.00     0.167 HD
ATOM     62  C   UNL A   1      40.989  32.679  32.948  1.00  0.00     0.074 A 
ATOM     63  C   UNL A   1      40.042  33.771  33.058  1.00  0.00     0.031 C 
ATOM     64  C   UNL A   1      42.067  32.526  33.754  1.00  0.00     0.037 A 
BRANCH  51  65
ATOM     65  C   UNL A   1      45.418  27.441  32.709  1.00  0.00     0.058 A 
ATOM     66  C   UNL A   1      46.690  27.593  32.142  1.00  0.00     0.135 A 
ATOM     67  C   UNL A   1      45.255  26.481  33.722  1.00  0.00     0.135 A 
ATOM     68  F   UNL A   1      46.888  28.472  31.147  1.00  0.00    -0.206 F 
ATOM     69  C   UNL A   1      47.767  26.821  32.566  1.00  0.00     0.059 A 
ATOM     70  C   UNL A   1      46.322  25.716  34.178  1.00  0.00     0.059 A 
ATOM     71  F   UNL A   1      44.051  26.286  34.280  1.00  0.00    -0.206 F 
ATOM     72  C   UNL A   1      47.574  25.893  33.592  1.00  0.00     0.060 A 
BRANCH  72  73
ATOM     73  S   UNL A   1      48.994  24.940  34.167  1.00  0.00     0.124 S 
ATOM     74  O   UNL A   1      49.540  24.441  32.909  1.00  0.00    -0.237 OA
ATOM     75  O   UNL A   1      49.793  25.954  34.847  1.00  0.00    -0.237 OA
ATOM     76  O   UNL A   1      48.397  23.931  35.036  1.00  0.00    -0.744 OA
ENDBRANCH  72  73
ENDBRANCH  51  65
BRANCH  52  77
ATOM     77  C   UNL A   1      37.223  32.641  30.109  1.00  0.00     0.058 A 
ATOM     78  C   UNL A   1      36.028  32.377  30.799  1.00  0.00     0.135 A 
ATOM     79  C   UNL A   1      37.173  33.596  29.081  1.00  0.00     0.135 A 
ATOM     80  F   UNL A   1      36.008  31.460  31.779  1.00  0.00    -0.206 F 
ATOM     81  C   UNL A   1      34.831  33.011  30.468  1.00  0.00     0.059 A 
ATOM     82  C   UNL A   1      35.999  34.271  28.755  1.00  0.00     0.059 A 
ATOM     83  F   UNL A   1      38.279  33.893  28.382  1.00  0.00    -0.206 F 
ATOM     84  C   UNL A   1      34.826  33.956  29.440  1.00  0.00     0.060 A 
BRANCH  84  85
ATOM     85  S   UNL A   1      33.279  34.787  29.017  1.00  0.00     0.124 S 
ATOM     86  O   UNL A   1      33.766  36.014  28.397  1.00  0.00    -0.237 OA
ATOM     87  O   UNL A   1      32.643  33.828  28.119  1.00  0.00    -0.237 OA
ATOM     88  O   UNL A   1      32.623  34.952  30.311  1.00  0.00    -0.744 OA
ENDBRANCH  84  85
ENDBRANCH  52  77
BRANCH  64  89
ATOM     89  C   UNL A   1      42.282  33.562  34.819  1.00  0.00     0.058 A 
ATOM     90  C   UNL A   1      43.013  34.732  34.562  1.00  0.00     0.135 A 
ATOM     91  C   UNL A   1      41.687  33.418  36.081  1.00  0.00     0.135 A 
ATOM     92  F   UNL A   1      43.609  34.911  33.372  1.00  0.00    -0.206 F 
ATOM     93  C   UNL A   1      43.153  35.723  35.526  1.00  0.00     0.059 A 
ATOM     94  C   UNL A   1      41.792  34.406  37.051  1.00  0.00     0.059 A 
ATOM     95  F   UNL A   1      40.972  32.318  36.369  1.00  0.00    -0.206 F 
ATOM     96  C   UNL A   1      42.533  35.554  36.766  1.00  0.00     0.060 A 
BRANCH  96  97
ATOM     97  S   UNL A   1      42.673  36.873  37.989  1.00  0.00     0.124 S 
ATOM     98  O   UNL A   1      43.409  36.207  39.057  1.00  0.00    -0.237 OA
ATOM     99  O   UNL A   1      43.406  37.901  37.257  1.00  0.00    -0.237 OA
ATOM    100  O   UNL A   1      41.283  37.202  38.295  1.00  0.00    -0.744 OA
ENDBRANCH  96  97
ENDBRANCH  64  89
ENDBRANCH  38  39
ENDBRANCH  31  33
ENDBRANCH  30  31
ENDBRANCH  29  30
ENDBRANCH   1  29
TORSDOF 19
ENDMDL
MODEL 3
REMARK VINA RESULT:     -10.1      2.011      2.520
REMARK SMILES O=C(C[C@@H](C(=O)N(c1ccccc1)c1ccccc1)[NH+]1CCOCC1)OCCOC(=O)c1ccc(-c2c3nc(c(-c4c(F)cc(S(=O)(=O)[O-])cc4F)c4ccc([nH]4)c(-c4c(F)cc(S(=O)(=O)[O-])cc4F)c4nc(c(-c5c(F)cc(S(=O)(=O)[O-])cc5F)c5ccc2[nH]5)C=C4)C=C3)cc1
REMARK SMILES IDX 27 1 26 2 2 3 1 4 3 5 4 6 5 7 6 8 7 9 8 10 9 11 13 12 10 13
REMARK SMILES IDX 12 14 11 15 14 16 15 17 19 18 16 19 18 20 17 21 20 22 21 23
REMARK SMILES IDX 25 24 22 26 24 27 23 28 28 29 29 30 30 31 31 32 32 33 33 34
REMARK SMILES IDX 97 35 34 36 96 37 35 38 36 39 37 40 90 41 38 42 95 43 89 44
REMARK SMILES IDX 91 45 39 46 94 47 88 48 87 49 40 51 74 52 53 53 73 54 54 55
REMARK SMILES IDX 57 56 72 57 92 58 55 59 56 60 71 62 93 63 58 64 41 65 42 66
REMARK SMILES IDX 51 67 43 68 44 69 50 70 52 71 45 72 46 73 47 74 48 75 49 76
REMARK SMILES IDX 75 77 76 78 85 79 77 80 78 81 84 82 86 83 79 84 80 85 81 86
REMARK SMILES IDX 82 87 83 88 59 89 60 90 69 91 61 92 62 93 68 94 70 95 63 96
REMARK SMILES IDX 64 97 65 98 66 99 67 100
REMARK H PARENT 20 25 91 50 57 61
REMARK Flexibility Score: inf
ROOT
ATOM      1  C   UNL A   1      33.020  33.055  27.195  1.00  0.00     0.274 C 
ENDROOT
BRANCH   1   2
ATOM      2  O   UNL A   1      33.040  33.686  28.491  1.00  0.00    -0.462 OA
BRANCH   2   3
ATOM      3  C   UNL A   1      34.184  33.970  29.142  1.00  0.00     0.312 C 
ATOM      4  O   UNL A   1      35.004  34.741  28.644  1.00  0.00    -0.252 OA
BRANCH   3   5
ATOM      5  C   UNL A   1      34.463  33.328  30.477  1.00  0.00     0.198 C 
BRANCH   5   6
ATOM      6  C   UNL A   1      34.133  34.045  31.801  1.00  0.00     0.286 C 
BRANCH   6   7
ATOM      7  C   UNL A   1      35.004  33.447  32.916  1.00  0.00     0.290 C 
ATOM      8  O   UNL A   1      34.453  33.261  34.017  1.00  0.00    -0.267 OA
ATOM      9  N   UNL A   1      36.389  33.201  32.742  1.00  0.00    -0.276 N 
BRANCH   9  10
ATOM     10  C   UNL A   1      37.277  33.431  31.592  1.00  0.00     0.049 A 
ATOM     11  C   UNL A   1      38.110  34.574  31.553  1.00  0.00     0.027 A 
ATOM     12  C   UNL A   1      37.358  32.632  30.448  1.00  0.00     0.027 A 
ATOM     13  C   UNL A   1      38.755  35.011  30.386  1.00  0.00     0.002 A 
ATOM     14  C   UNL A   1      37.992  33.060  29.267  1.00  0.00     0.002 A 
ATOM     15  C   UNL A   1      38.654  34.273  29.221  1.00  0.00     0.000 A 
ENDBRANCH   9  10
BRANCH   9  16
ATOM     16  C   UNL A   1      37.071  32.843  33.974  1.00  0.00     0.049 A 
ATOM     17  C   UNL A   1      37.499  31.521  34.194  1.00  0.00     0.027 A 
ATOM     18  C   UNL A   1      37.406  33.820  34.922  1.00  0.00     0.027 A 
ATOM     19  C   UNL A   1      38.191  31.176  35.356  1.00  0.00     0.002 A 
ATOM     20  C   UNL A   1      38.120  33.478  36.075  1.00  0.00     0.002 A 
ATOM     21  C   UNL A   1      38.500  32.156  36.296  1.00  0.00     0.000 A 
ENDBRANCH   9  16
ENDBRANCH   6   7
BRANCH   6  22
ATOM     22  N   UNL A   1      34.424  35.519  31.586  1.00  0.00    -0.320 N 
ATOM     23  C   UNL A   1      34.828  36.252  32.811  1.00  0.00     0.291 C 
ATOM     24  C   UNL A   1      33.270  36.268  31.032  1.00  0.00     0.291 C 
ATOM     25  H   UNL A   1      35.200  35.487  30.926  1.00  0.00     0.348 HD
ATOM     26  C   UNL A   1      33.677  36.571  33.791  1.00  0.00     0.221 C 
ATOM     27  C   UNL A   1      32.112  36.356  32.037  1.00  0.00     0.221 C 
ATOM     28  O   UNL A   1      32.525  37.136  33.157  1.00  0.00    -0.370 OA
ENDBRANCH   6  22
ENDBRANCH   5   6
ENDBRANCH   3   5
ENDBRANCH   2   3
ENDBRANCH   1   2
BRANCH   1  29
ATOM     29  C   UNL A   1      33.166  31.533  27.298  1.00  0.00     0.275 C 
BRANCH  29  30
ATOM     30  O   UNL A   1      34.548  31.156  27.467  1.00  0.00    -0.458 OA
BRANCH  30  31
ATOM     31  C   UNL A   1      34.835  29.829  27.433  1.00  0.00     0.338 C 
ATOM     32  O   UNL A   1      34.202  28.961  26.859  1.00  0.00    -0.246 OA
BRANCH  31  33
ATOM     33  C   UNL A   1      36.163  29.616  28.060  1.00  0.00     0.060 A 
ATOM     34  C   UNL A   1      37.317  29.847  27.297  1.00  0.00     0.016 A 
ATOM     35  C   UNL A   1      36.279  29.225  29.397  1.00  0.00     0.016 A 
ATOM     36  C   UNL A   1      38.584  29.692  27.873  1.00  0.00     0.010 A 
ATOM     37  C   UNL A   1      37.544  29.038  29.962  1.00  0.00     0.010 A 
ATOM     38  C   UNL A   1      38.705  29.257  29.202  1.00  0.00    -0.014 A 
BRANCH  38  39
ATOM     39  C   UNL A   1      40.033  28.889  29.763  1.00  0.00     0.031 A 
ATOM     40  C   UNL A   1      40.587  29.721  30.874  1.00  0.00     0.074 A 
ATOM     41  C   UNL A   1      40.756  27.868  29.265  1.00  0.00     0.049 A 
ATOM     42  N   UNL A   1      41.776  29.677  31.408  1.00  0.00    -0.248 NA
ATOM     43  C   UNL A   1      39.707  30.763  31.423  1.00  0.00     0.031 C 
ATOM     44  C   UNL A   1      40.323  27.044  28.153  1.00  0.00     0.029 A 
ATOM     45  N   UNL A   1      41.979  27.342  29.597  1.00  0.00    -0.354 N 
ATOM     46  C   UNL A   1      41.812  30.726  32.314  1.00  0.00     0.074 A 
ATOM     47  C   UNL A   1      40.514  31.364  32.285  1.00  0.00     0.031 C 
ATOM     48  C   UNL A   1      41.212  26.063  27.932  1.00  0.00     0.029 A 
ATOM     49  C   UNL A   1      42.353  26.266  28.814  1.00  0.00     0.049 A 
ATOM     50  H   UNL A   1      42.539  27.698  30.324  1.00  0.00     0.167 HD
ATOM     51  C   UNL A   1      42.857  31.135  33.065  1.00  0.00     0.037 A 
ATOM     52  C   UNL A   1      43.508  25.570  28.767  1.00  0.00     0.037 A 
ATOM     53  C   UNL A   1      44.140  30.486  33.072  1.00  0.00     0.049 A 
ATOM     54  C   UNL A   1      44.644  26.039  29.641  1.00  0.00     0.074 A 
ATOM     55  C   UNL A   1      45.256  30.807  33.823  1.00  0.00     0.029 A 
ATOM     56  N   UNL A   1      44.483  29.395  32.286  1.00  0.00    -0.354 N 
ATOM     57  N   UNL A   1      44.657  27.023  30.509  1.00  0.00    -0.248 NA
ATOM     58  C   UNL A   1      45.934  25.351  29.492  1.00  0.00     0.031 C 
ATOM     59  C   UNL A   1      46.290  29.941  33.456  1.00  0.00     0.029 A 
ATOM     60  C   UNL A   1      45.803  29.047  32.513  1.00  0.00     0.049 A 
ATOM     61  H   UNL A   1      43.878  28.937  31.659  1.00  0.00     0.167 HD
ATOM     62  C   UNL A   1      45.957  27.086  30.993  1.00  0.00     0.074 A 
ATOM     63  C   UNL A   1      46.692  26.010  30.359  1.00  0.00     0.031 C 
ATOM     64  C   UNL A   1      46.504  27.968  31.864  1.00  0.00     0.037 A 
BRANCH  51  65
ATOM     65  C   UNL A   1      42.675  32.374  33.887  1.00  0.00     0.058 A 
ATOM     66  C   UNL A   1      42.122  32.338  35.174  1.00  0.00     0.135 A 
ATOM     67  C   UNL A   1      43.108  33.614  33.388  1.00  0.00     0.135 A 
ATOM     68  F   UNL A   1      41.662  31.183  35.681  1.00  0.00    -0.206 F 
ATOM     69  C   UNL A   1      42.005  33.490  35.943  1.00  0.00     0.059 A 
ATOM     70  C   UNL A   1      43.023  34.775  34.149  1.00  0.00     0.059 A 
ATOM     71  F   UNL A   1      43.625  33.702  32.153  1.00  0.00    -0.206 F 
ATOM     72  C   UNL A   1      42.468  34.702  35.424  1.00  0.00     0.060 A 
BRANCH  72  73
ATOM     73  S   UNL A   1      42.360  36.177  36.458  1.00  0.00     0.124 S 
ATOM     74  O   UNL A   1      43.162  35.785  37.613  1.00  0.00    -0.237 OA
ATOM     75  O   UNL A   1      42.945  37.202  35.599  1.00  0.00    -0.237 OA
ATOM     76  O   UNL A   1      40.928  36.314  36.706  1.00  0.00    -0.744 OA
ENDBRANCH  72  73
ENDBRANCH  51  65
BRANCH  52  77
ATOM     77  C   UNL A   1      43.701  24.443  27.805  1.00  0.00     0.058 A 
ATOM     78  C   UNL A   1      43.257  23.144  28.102  1.00  0.00     0.135 A 
ATOM     79  C   UNL A   1      44.376  24.627  26.587  1.00  0.00     0.135 A 
ATOM     80  F   UNL A   1      42.624  22.901  29.261  1.00  0.00    -0.206 F 
ATOM     81  C   UNL A   1      43.492  22.070  27.244  1.00  0.00     0.059 A 
ATOM     82  C   UNL A   1      44.591  23.579  25.695  1.00  0.00     0.059 A 
ATOM     83  F   UNL A   1      44.827  25.843  26.244  1.00  0.00    -0.206 F 
ATOM     84  C   UNL A   1      44.164  22.298  26.042  1.00  0.00     0.060 A 
BRANCH  84  85
ATOM     85  S   UNL A   1      44.459  20.911  24.923  1.00  0.00     0.124 S 
ATOM     86  O   UNL A   1      45.730  20.398  25.423  1.00  0.00    -0.237 OA
ATOM     87  O   UNL A   1      43.294  20.064  25.159  1.00  0.00    -0.237 OA
ATOM     88  O   UNL A   1      44.507  21.544  23.609  1.00  0.00    -0.744 OA
ENDBRANCH  84  85
ENDBRANCH  52  77
BRANCH  64  89
ATOM     89  C   UNL A   1      47.962  27.803  32.184  1.00  0.00     0.058 A 
ATOM     90  C   UNL A   1      48.950  28.493  31.466  1.00  0.00     0.135 A 
ATOM     91  C   UNL A   1      48.366  27.009  33.267  1.00  0.00     0.135 A 
ATOM     92  F   UNL A   1      48.613  29.259  30.415  1.00  0.00    -0.206 F 
ATOM     93  C   UNL A   1      50.293  28.395  31.807  1.00  0.00     0.059 A 
ATOM     94  C   UNL A   1      49.700  26.916  33.642  1.00  0.00     0.059 A 
ATOM     95  F   UNL A   1      47.455  26.336  33.989  1.00  0.00    -0.206 F 
ATOM     96  C   UNL A   1      50.658  27.609  32.901  1.00  0.00     0.060 A 
BRANCH  96  97
ATOM     97  S   UNL A   1      52.399  27.535  33.371  1.00  0.00     0.124 S 
ATOM     98  O   UNL A   1      52.939  28.700  32.678  1.00  0.00    -0.237 OA
ATOM     99  O   UNL A   1      52.335  27.634  34.825  1.00  0.00    -0.237 OA
ATOM    100  O   UNL A   1      52.836  26.241  32.856  1.00  0.00    -0.744 OA
ENDBRANCH  96  97
ENDBRANCH  64  89
ENDBRANCH  38  39
ENDBRANCH  31  33
ENDBRANCH  30  31
ENDBRANCH  29  30
ENDBRANCH   1  29
TORSDOF 19
ENDMDL
