MODEL 1
REMARK VINA RESULT:     -12.9      0.000      0.000
REMARK SMILES COc1ccc([C@H]2CC(c3ccc(S(C)(=O)=O)cc3)=NN2c2ccc(C(=O)OCCOC(=O)c3ccc(-c4c5nc(c(-c6c(F)cc(S(=O)(=O)[O-])cc6F)c6ccc([nH]6)c(-c6c(F)cc(S(=O)(=O)[O-])cc6F)c6nc(c(-c7c(F)cc(S(=O)(=O)[O-])cc7F)c7ccc4[nH]7)C=C6)C=C5)cc3)cc2)cc1
REMARK SMILES IDX 29 1 28 2 26 3 27 4 25 5 22 6 23 7 101 8 24 9 100 10 21 11
REMARK SMILES IDX 7 12 8 13 9 14 20 15 6 16 3 17 4 18 103 19 5 20 102 21 2 22
REMARK SMILES IDX 1 23 10 24 11 25 19 26 12 27 18 28 13 29 14 30 15 31 16 32
REMARK SMILES IDX 17 33 30 34 31 35 32 36 33 37 34 38 35 39 99 40 36 41 98 42
REMARK SMILES IDX 37 43 38 44 39 45 92 46 40 47 97 48 91 49 93 50 41 51 96 52
REMARK SMILES IDX 90 53 89 54 42 56 76 57 55 58 75 59 56 60 59 61 74 62 94 63
REMARK SMILES IDX 57 64 58 65 73 67 95 68 60 69 43 70 44 71 53 72 45 73 46 74
REMARK SMILES IDX 52 75 54 76 47 77 48 78 49 79 50 80 51 81 77 82 78 83 87 84
REMARK SMILES IDX 79 85 80 86 86 87 88 88 81 89 82 90 83 91 84 92 85 93 61 94
REMARK SMILES IDX 62 95 71 96 63 97 64 98 70 99 72 100 65 101 66 102 67 103
REMARK SMILES IDX 68 104 69 105
REMARK H PARENT 93 55 59 66
REMARK Flexibility Score: inf
ROOT
ATOM      1  C   UNL A   1      35.700  31.587  28.166  1.00  0.00     0.275 C 
ENDROOT
BRANCH   1   2
ATOM      2  O   UNL A   1      35.118  30.413  27.562  1.00  0.00    -0.458 OA
BRANCH   2   3
ATOM      3  C   UNL A   1      33.766  30.433  27.456  1.00  0.00     0.338 C 
ATOM      4  O   UNL A   1      33.046  31.417  27.541  1.00  0.00    -0.246 OA
BRANCH   3   5
ATOM      5  C   UNL A   1      33.232  29.089  27.154  1.00  0.00     0.060 A 
ATOM      6  C   UNL A   1      32.192  26.625  26.276  1.00  0.00     0.060 A 
ATOM      7  C   UNL A   1      33.501  26.997  25.968  1.00  0.00     0.029 A 
ATOM      8  C   UNL A   1      31.426  27.486  27.077  1.00  0.00     0.029 A 
ATOM      9  C   UNL A   1      33.998  28.231  26.364  1.00  0.00     0.018 A 
ATOM     10  C   UNL A   1      31.948  28.707  27.537  1.00  0.00     0.018 A 
BRANCH   6  11
ATOM     11  N   UNL A   1      31.678  25.450  25.746  1.00  0.00    -0.257 N 
ATOM     12  C   UNL A   1      30.460  25.380  24.937  1.00  0.00     0.144 C 
ATOM     13  C   UNL A   1      30.581  24.005  24.261  1.00  0.00     0.091 C 
ATOM     14  C   UNL A   1      31.865  23.518  24.869  1.00  0.00     0.071 C 
ATOM     15  N   UNL A   1      32.465  24.345  25.663  1.00  0.00    -0.176 NA
BRANCH  12  16
ATOM     16  C   UNL A   1      30.305  26.530  23.950  1.00  0.00    -0.023 A 
ATOM     17  C   UNL A   1      29.933  28.659  22.125  1.00  0.00     0.118 A 
ATOM     18  C   UNL A   1      28.940  28.333  23.047  1.00  0.00     0.047 A 
ATOM     19  C   UNL A   1      31.133  27.951  22.140  1.00  0.00     0.047 A 
ATOM     20  C   UNL A   1      29.117  27.277  23.943  1.00  0.00     0.010 A 
ATOM     21  C   UNL A   1      31.320  26.902  23.052  1.00  0.00     0.010 A 
BRANCH  17  22
ATOM     22  O   UNL A   1      29.629  29.704  21.296  1.00  0.00    -0.497 OA
ATOM     23  C   UNL A   1      29.042  30.844  21.915  1.00  0.00     0.278 C 
ENDBRANCH  17  22
ENDBRANCH  12  16
BRANCH  14  24
ATOM     24  C   UNL A   1      32.359  22.154  24.630  1.00  0.00    -0.002 A 
ATOM     25  C   UNL A   1      32.994  21.492  25.689  1.00  0.00     0.011 A 
ATOM     26  C   UNL A   1      32.174  21.515  23.402  1.00  0.00     0.011 A 
ATOM     27  C   UNL A   1      33.409  20.171  25.537  1.00  0.00     0.021 A 
ATOM     28  C   UNL A   1      32.615  20.197  23.237  1.00  0.00     0.021 A 
ATOM     29  C   UNL A   1      33.220  19.531  24.309  1.00  0.00     0.067 A 
BRANCH  29  30
ATOM     30  S   UNL A   1      33.695  17.825  24.148  1.00  0.00     0.175 S 
ATOM     31  C   UNL A   1      32.855  17.000  25.474  1.00  0.00     0.163 C 
ATOM     32  O   UNL A   1      33.140  17.361  22.890  1.00  0.00    -0.224 OA
ATOM     33  O   UNL A   1      35.123  17.740  24.399  1.00  0.00    -0.224 OA
ENDBRANCH  29  30
ENDBRANCH  14  24
ENDBRANCH   6  11
ENDBRANCH   3   5
ENDBRANCH   2   3
ENDBRANCH   1   2
BRANCH   1  34
ATOM     34  C   UNL A   1      35.832  31.443  29.683  1.00  0.00     0.275 C 
BRANCH  34  35
ATOM     35  O   UNL A   1      36.109  30.079  30.045  1.00  0.00    -0.458 OA
BRANCH  35  36
ATOM     36  C   UNL A   1      36.984  29.922  31.064  1.00  0.00     0.338 C 
ATOM     37  O   UNL A   1      36.723  29.740  32.241  1.00  0.00    -0.246 OA
BRANCH  36  38
ATOM     38  C   UNL A   1      38.367  29.959  30.564  1.00  0.00     0.060 A 
ATOM     39  C   UNL A   1      38.578  30.122  29.201  1.00  0.00     0.016 A 
ATOM     40  C   UNL A   1      39.433  29.627  31.396  1.00  0.00     0.016 A 
ATOM     41  C   UNL A   1      39.804  29.779  28.638  1.00  0.00     0.010 A 
ATOM     42  C   UNL A   1      40.707  29.444  30.844  1.00  0.00     0.010 A 
ATOM     43  C   UNL A   1      40.902  29.459  29.450  1.00  0.00    -0.014 A 
BRANCH  43  44
ATOM     44  C   UNL A   1      42.228  29.124  28.844  1.00  0.00     0.031 A 
ATOM     45  C   UNL A   1      42.498  27.739  28.302  1.00  0.00     0.074 A 
ATOM     46  C   UNL A   1      43.197  30.060  28.761  1.00  0.00     0.049 A 
ATOM     47  N   UNL A   1      43.629  27.205  27.912  1.00  0.00    -0.248 NA
ATOM     48  C   UNL A   1      41.347  26.828  28.202  1.00  0.00     0.031 C 
ATOM     49  C   UNL A   1      43.072  31.455  29.190  1.00  0.00     0.029 A 
ATOM     50  N   UNL A   1      44.480  29.986  28.273  1.00  0.00    -0.354 N 
ATOM     51  C   UNL A   1      43.338  25.884  27.583  1.00  0.00     0.074 A 
ATOM     52  C   UNL A   1      41.925  25.695  27.833  1.00  0.00     0.031 C 
ATOM     53  C   UNL A   1      44.197  32.117  28.887  1.00  0.00     0.029 A 
ATOM     54  C   UNL A   1      45.169  31.174  28.351  1.00  0.00     0.049 A 
ATOM     55  H   UNL A   1      44.869  29.161  27.903  1.00  0.00     0.167 HD
ATOM     56  C   UNL A   1      44.171  24.919  27.115  1.00  0.00     0.037 A 
ATOM     57  C   UNL A   1      46.452  31.473  28.070  1.00  0.00     0.037 A 
ATOM     58  C   UNL A   1      45.566  25.131  26.822  1.00  0.00     0.049 A 
ATOM     59  C   UNL A   1      47.372  30.379  27.612  1.00  0.00     0.074 A 
ATOM     60  C   UNL A   1      46.494  24.224  26.339  1.00  0.00     0.029 A 
ATOM     61  N   UNL A   1      46.234  26.339  26.973  1.00  0.00    -0.354 N 
ATOM     62  N   UNL A   1      47.097  29.119  27.373  1.00  0.00    -0.248 NA
ATOM     63  C   UNL A   1      48.781  30.741  27.413  1.00  0.00     0.031 C 
ATOM     64  C   UNL A   1      47.731  24.872  26.237  1.00  0.00     0.029 A 
ATOM     65  C   UNL A   1      47.564  26.197  26.607  1.00  0.00     0.049 A 
ATOM     66  H   UNL A   1      45.823  27.175  27.292  1.00  0.00     0.167 HD
ATOM     67  C   UNL A   1      48.297  28.540  26.977  1.00  0.00     0.074 A 
ATOM     68  C   UNL A   1      49.295  29.591  26.996  1.00  0.00     0.031 C 
ATOM     69  C   UNL A   1      48.547  27.254  26.630  1.00  0.00     0.037 A 
BRANCH  56  70
ATOM     70  C   UNL A   1      43.598  23.536  26.933  1.00  0.00     0.058 A 
ATOM     71  C   UNL A   1      43.442  22.642  28.004  1.00  0.00     0.135 A 
ATOM     72  C   UNL A   1      43.205  23.095  25.657  1.00  0.00     0.135 A 
ATOM     73  F   UNL A   1      43.807  23.002  29.245  1.00  0.00    -0.206 F 
ATOM     74  C   UNL A   1      42.972  21.345  27.809  1.00  0.00     0.059 A 
ATOM     75  C   UNL A   1      42.702  21.814  25.444  1.00  0.00     0.059 A 
ATOM     76  F   UNL A   1      43.318  23.909  24.596  1.00  0.00    -0.206 F 
ATOM     77  C   UNL A   1      42.615  20.937  26.523  1.00  0.00     0.060 A 
BRANCH  77  78
ATOM     78  S   UNL A   1      42.051  19.239  26.278  1.00  0.00     0.124 S 
ATOM     79  O   UNL A   1      42.192  18.691  27.625  1.00  0.00    -0.237 OA
ATOM     80  O   UNL A   1      40.681  19.427  25.813  1.00  0.00    -0.237 OA
ATOM     81  O   UNL A   1      42.980  18.711  25.285  1.00  0.00    -0.744 OA
ENDBRANCH  77  78
ENDBRANCH  56  70
BRANCH  57  82
ATOM     82  C   UNL A   1      46.940  32.869  28.241  1.00  0.00     0.058 A 
ATOM     83  C   UNL A   1      46.812  33.802  27.203  1.00  0.00     0.135 A 
ATOM     84  C   UNL A   1      47.493  33.310  29.454  1.00  0.00     0.135 A 
ATOM     85  F   UNL A   1      46.301  33.426  26.021  1.00  0.00    -0.206 F 
ATOM     86  C   UNL A   1      47.209  35.126  27.361  1.00  0.00     0.059 A 
ATOM     87  C   UNL A   1      47.870  34.636  29.646  1.00  0.00     0.059 A 
ATOM     88  F   UNL A   1      47.628  32.459  30.482  1.00  0.00    -0.206 F 
ATOM     89  C   UNL A   1      47.727  35.536  28.592  1.00  0.00     0.060 A 
BRANCH  89  90
ATOM     90  S   UNL A   1      48.160  37.275  28.812  1.00  0.00     0.124 S 
ATOM     91  O   UNL A   1      49.538  37.297  28.334  1.00  0.00    -0.237 OA
ATOM     92  O   UNL A   1      47.179  37.944  27.963  1.00  0.00    -0.237 OA
ATOM     93  O   UNL A   1      47.985  37.486  30.246  1.00  0.00    -0.744 OA
ENDBRANCH  89  90
ENDBRANCH  57  82
BRANCH  69  94
ATOM     94  C   UNL A   1      49.950  26.919  26.204  1.00  0.00     0.058 A 
ATOM     95  C   UNL A   1      50.924  26.508  27.126  1.00  0.00     0.135 A 
ATOM     96  C   UNL A   1      50.313  26.983  24.850  1.00  0.00     0.135 A 
ATOM     97  F   UNL A   1      50.631  26.443  28.435  1.00  0.00    -0.206 F 
ATOM     98  C   UNL A   1      52.218  26.193  26.723  1.00  0.00     0.059 A 
ATOM     99  C   UNL A   1      51.593  26.646  24.420  1.00  0.00     0.059 A 
ATOM    100  F   UNL A   1      49.416  27.365  23.926  1.00  0.00    -0.206 F 
ATOM    101  C   UNL A   1      52.542  26.264  25.367  1.00  0.00     0.060 A 
BRANCH 101 102
ATOM    102  S   UNL A   1      54.215  25.824  24.852  1.00  0.00     0.124 S 
ATOM    103  O   UNL A   1      54.178  24.368  24.943  1.00  0.00    -0.237 OA
ATOM    104  O   UNL A   1      54.281  26.373  23.500  1.00  0.00    -0.237 OA
ATOM    105  O   UNL A   1      55.061  26.494  25.835  1.00  0.00    -0.744 OA
ENDBRANCH 101 102
ENDBRANCH  69  94
ENDBRANCH  43  44
ENDBRANCH  36  38
ENDBRANCH  35  36
ENDBRANCH  34  35
ENDBRANCH   1  34
TORSDOF 19
ENDMDL
MODEL 2
REMARK VINA RESULT:     -12.8      0.731      7.758
REMARK SMILES COc1ccc([C@H]2CC(c3ccc(S(C)(=O)=O)cc3)=NN2c2ccc(C(=O)OCCOC(=O)c3ccc(-c4c5nc(c(-c6c(F)cc(S(=O)(=O)[O-])cc6F)c6ccc([nH]6)c(-c6c(F)cc(S(=O)(=O)[O-])cc6F)c6nc(c(-c7c(F)cc(S(=O)(=O)[O-])cc7F)c7ccc4[nH]7)C=C6)C=C5)cc3)cc2)cc1
REMARK SMILES IDX 29 1 28 2 26 3 27 4 25 5 22 6 23 7 101 8 24 9 100 10 21 11
REMARK SMILES IDX 7 12 8 13 9 14 20 15 6 16 3 17 4 18 103 19 5 20 102 21 2 22
REMARK SMILES IDX 1 23 10 24 11 25 19 26 12 27 18 28 13 29 14 30 15 31 16 32
REMARK SMILES IDX 17 33 30 34 31 35 32 36 33 37 34 38 35 39 99 40 36 41 98 42
REMARK SMILES IDX 37 43 38 44 39 45 92 46 40 47 97 48 91 49 93 50 41 51 96 52
REMARK SMILES IDX 90 53 89 54 42 56 76 57 55 58 75 59 56 60 59 61 74 62 94 63
REMARK SMILES IDX 57 64 58 65 73 67 95 68 60 69 43 70 44 71 53 72 45 73 46 74
REMARK SMILES IDX 52 75 54 76 47 77 48 78 49 79 50 80 51 81 77 82 78 83 87 84
REMARK SMILES IDX 79 85 80 86 86 87 88 88 81 89 82 90 83 91 84 92 85 93 61 94
REMARK SMILES IDX 62 95 71 96 63 97 64 98 70 99 72 100 65 101 66 102 67 103
REMARK SMILES IDX 68 104 69 105
REMARK H PARENT 93 55 59 66
REMARK Flexibility Score: inf
ROOT
ATOM      1  C   UNL A   1      35.440  31.835  28.123  1.00  0.00     0.275 C 
ENDROOT
BRANCH   1   2
ATOM      2  O   UNL A   1      34.871  30.522  27.930  1.00  0.00    -0.458 OA
BRANCH   2   3
ATOM      3  C   UNL A   1      33.588  30.512  27.493  1.00  0.00     0.338 C 
ATOM      4  O   UNL A   1      32.876  31.489  27.311  1.00  0.00    -0.246 OA
BRANCH   3   5
ATOM      5  C   UNL A   1      33.137  29.139  27.186  1.00  0.00     0.060 A 
ATOM      6  C   UNL A   1      32.228  26.625  26.305  1.00  0.00     0.060 A 
ATOM      7  C   UNL A   1      33.484  27.101  25.929  1.00  0.00     0.029 A 
ATOM      8  C   UNL A   1      31.452  27.408  27.174  1.00  0.00     0.029 A 
ATOM      9  C   UNL A   1      33.913  28.360  26.329  1.00  0.00     0.018 A 
ATOM     10  C   UNL A   1      31.910  28.653  27.636  1.00  0.00     0.018 A 
BRANCH   6  11
ATOM     11  N   UNL A   1      31.770  25.428  25.775  1.00  0.00    -0.257 N 
ATOM     12  C   UNL A   1      30.566  25.303  24.952  1.00  0.00     0.144 C 
ATOM     13  C   UNL A   1      30.752  23.931  24.284  1.00  0.00     0.091 C 
ATOM     14  C   UNL A   1      32.049  23.501  24.909  1.00  0.00     0.071 C 
ATOM     15  N   UNL A   1      32.604  24.356  25.705  1.00  0.00    -0.176 NA
BRANCH  12  16
ATOM     16  C   UNL A   1      30.374  26.441  23.958  1.00  0.00    -0.023 A 
ATOM     17  C   UNL A   1      29.934  28.550  22.125  1.00  0.00     0.118 A 
ATOM     18  C   UNL A   1      28.994  28.261  23.114  1.00  0.00     0.047 A 
ATOM     19  C   UNL A   1      31.117  27.816  22.077  1.00  0.00     0.047 A 
ATOM     20  C   UNL A   1      29.204  27.215  24.014  1.00  0.00     0.010 A 
ATOM     21  C   UNL A   1      31.338  26.776  22.992  1.00  0.00     0.010 A 
BRANCH  17  22
ATOM     22  O   UNL A   1      29.601  29.590  21.300  1.00  0.00    -0.497 OA
ATOM     23  C   UNL A   1      28.941  30.691  21.915  1.00  0.00     0.278 C 
ENDBRANCH  17  22
ENDBRANCH  12  16
BRANCH  14  24
ATOM     24  C   UNL A   1      32.602  22.158  24.681  1.00  0.00    -0.002 A 
ATOM     25  C   UNL A   1      33.738  21.786  25.411  1.00  0.00     0.011 A 
ATOM     26  C   UNL A   1      32.001  21.260  23.795  1.00  0.00     0.011 A 
ATOM     27  C   UNL A   1      34.254  20.497  25.290  1.00  0.00     0.021 A 
ATOM     28  C   UNL A   1      32.534  19.975  23.651  1.00  0.00     0.021 A 
ATOM     29  C   UNL A   1      33.650  19.599  24.407  1.00  0.00     0.067 A 
BRANCH  29  30
ATOM     30  S   UNL A   1      34.278  17.937  24.309  1.00  0.00     0.175 S 
ATOM     31  C   UNL A   1      33.368  17.043  25.541  1.00  0.00     0.163 C 
ATOM     32  O   UNL A   1      33.903  17.433  23.001  1.00  0.00    -0.224 OA
ATOM     33  O   UNL A   1      35.671  17.970  24.714  1.00  0.00    -0.224 OA
ENDBRANCH  29  30
ENDBRANCH  14  24
ENDBRANCH   6  11
ENDBRANCH   3   5
ENDBRANCH   2   3
ENDBRANCH   1   2
BRANCH   1  34
ATOM     34  C   UNL A   1      35.355  32.285  29.582  1.00  0.00     0.275 C 
BRANCH  34  35
ATOM     35  O   UNL A   1      36.614  32.092  30.252  1.00  0.00    -0.458 OA
BRANCH  35  36
ATOM     36  C   UNL A   1      36.750  30.907  30.889  1.00  0.00     0.338 C 
ATOM     37  O   UNL A   1      36.022  30.444  31.750  1.00  0.00    -0.246 OA
BRANCH  36  38
ATOM     38  C   UNL A   1      37.919  30.178  30.373  1.00  0.00     0.060 A 
ATOM     39  C   UNL A   1      38.715  29.477  31.270  1.00  0.00     0.016 A 
ATOM     40  C   UNL A   1      38.343  30.355  29.059  1.00  0.00     0.016 A 
ATOM     41  C   UNL A   1      40.010  29.110  30.914  1.00  0.00     0.010 A 
ATOM     42  C   UNL A   1      39.581  29.836  28.659  1.00  0.00     0.010 A 
ATOM     43  C   UNL A   1      40.460  29.257  29.595  1.00  0.00    -0.014 A 
BRANCH  43  44
ATOM     44  C   UNL A   1      41.841  28.830  29.206  1.00  0.00     0.031 A 
ATOM     45  C   UNL A   1      43.006  29.783  29.340  1.00  0.00     0.074 A 
ATOM     46  C   UNL A   1      42.065  27.581  28.745  1.00  0.00     0.049 A 
ATOM     47  N   UNL A   1      44.231  29.666  28.889  1.00  0.00    -0.248 NA
ATOM     48  C   UNL A   1      42.757  31.042  30.059  1.00  0.00     0.031 C 
ATOM     49  C   UNL A   1      41.054  26.529  28.611  1.00  0.00     0.029 A 
ATOM     50  N   UNL A   1      43.222  26.975  28.316  1.00  0.00    -0.354 N 
ATOM     51  C   UNL A   1      44.876  30.857  29.213  1.00  0.00     0.074 A 
ATOM     52  C   UNL A   1      43.901  31.688  29.886  1.00  0.00     0.031 C 
ATOM     53  C   UNL A   1      41.642  25.397  28.199  1.00  0.00     0.029 A 
ATOM     54  C   UNL A   1      43.047  25.668  27.926  1.00  0.00     0.049 A 
ATOM     55  H   UNL A   1      44.092  27.433  28.289  1.00  0.00     0.167 HD
ATOM     56  C   UNL A   1      46.161  31.222  28.973  1.00  0.00     0.037 A 
ATOM     57  C   UNL A   1      43.902  24.789  27.368  1.00  0.00     0.037 A 
ATOM     58  C   UNL A   1      47.139  30.369  28.346  1.00  0.00     0.049 A 
ATOM     59  C   UNL A   1      45.302  25.232  27.054  1.00  0.00     0.074 A 
ATOM     60  C   UNL A   1      48.466  30.639  28.062  1.00  0.00     0.029 A 
ATOM     61  N   UNL A   1      46.898  29.071  27.914  1.00  0.00    -0.354 N 
ATOM     62  N   UNL A   1      45.875  26.385  27.303  1.00  0.00    -0.248 NA
ATOM     63  C   UNL A   1      46.160  24.265  26.359  1.00  0.00     0.031 C 
ATOM     64  C   UNL A   1      49.017  29.522  27.424  1.00  0.00     0.029 A 
ATOM     65  C   UNL A   1      48.047  28.534  27.355  1.00  0.00     0.049 A 
ATOM     66  H   UNL A   1      46.037  28.600  27.996  1.00  0.00     0.167 HD
ATOM     67  C   UNL A   1      47.170  26.276  26.811  1.00  0.00     0.074 A 
ATOM     68  C   UNL A   1      47.297  24.941  26.262  1.00  0.00     0.031 C 
ATOM     69  C   UNL A   1      48.161  27.201  26.813  1.00  0.00     0.037 A 
BRANCH  56  70
ATOM     70  C   UNL A   1      46.567  32.624  29.354  1.00  0.00     0.058 A 
ATOM     71  C   UNL A   1      47.107  32.933  30.612  1.00  0.00     0.135 A 
ATOM     72  C   UNL A   1      46.403  33.681  28.441  1.00  0.00     0.135 A 
ATOM     73  F   UNL A   1      47.281  31.967  31.529  1.00  0.00    -0.206 F 
ATOM     74  C   UNL A   1      47.416  34.242  30.972  1.00  0.00     0.059 A 
ATOM     75  C   UNL A   1      46.735  34.993  28.767  1.00  0.00     0.059 A 
ATOM     76  F   UNL A   1      45.902  33.446  27.218  1.00  0.00    -0.206 F 
ATOM     77  C   UNL A   1      47.216  35.268  30.046  1.00  0.00     0.060 A 
BRANCH  77  78
ATOM     78  S   UNL A   1      47.578  36.966  30.542  1.00  0.00     0.124 S 
ATOM     79  O   UNL A   1      47.550  37.654  29.254  1.00  0.00    -0.237 OA
ATOM     80  O   UNL A   1      46.475  37.271  31.447  1.00  0.00    -0.237 OA
ATOM     81  O   UNL A   1      48.891  36.865  31.171  1.00  0.00    -0.744 OA
ENDBRANCH  77  78
ENDBRANCH  56  70
BRANCH  57  82
ATOM     82  C   UNL A   1      43.441  23.410  27.050  1.00  0.00     0.058 A 
ATOM     83  C   UNL A   1      43.151  23.040  25.729  1.00  0.00     0.135 A 
ATOM     84  C   UNL A   1      43.331  22.425  28.044  1.00  0.00     0.135 A 
ATOM     85  F   UNL A   1      43.230  23.949  24.744  1.00  0.00    -0.206 F 
ATOM     86  C   UNL A   1      42.775  21.742  25.402  1.00  0.00     0.059 A 
ATOM     87  C   UNL A   1      42.984  21.112  27.739  1.00  0.00     0.059 A 
ATOM     88  F   UNL A   1      43.606  22.725  29.323  1.00  0.00    -0.206 F 
ATOM     89  C   UNL A   1      42.705  20.782  26.414  1.00  0.00     0.060 A 
BRANCH  89  90
ATOM     90  S   UNL A   1      42.297  19.081  25.965  1.00  0.00     0.124 S 
ATOM     91  O   UNL A   1      42.689  18.356  27.168  1.00  0.00    -0.237 OA
ATOM     92  O   UNL A   1      40.862  19.167  25.711  1.00  0.00    -0.237 OA
ATOM     93  O   UNL A   1      43.121  18.838  24.785  1.00  0.00    -0.744 OA
ENDBRANCH  89  90
ENDBRANCH  57  82
BRANCH  69  94
ATOM     94  C   UNL A   1      49.487  26.785  26.238  1.00  0.00     0.058 A 
ATOM     95  C   UNL A   1      50.450  26.118  27.011  1.00  0.00     0.135 A 
ATOM     96  C   UNL A   1      49.783  27.031  24.889  1.00  0.00     0.135 A 
ATOM     97  F   UNL A   1      50.221  25.870  28.311  1.00  0.00    -0.206 F 
ATOM     98  C   UNL A   1      51.672  25.730  26.470  1.00  0.00     0.059 A 
ATOM     99  C   UNL A   1      50.987  26.627  24.320  1.00  0.00     0.059 A 
ATOM    100  F   UNL A   1      48.893  27.660  24.105  1.00  0.00    -0.206 F 
ATOM    101  C   UNL A   1      51.930  25.988  25.123  1.00  0.00     0.060 A 
BRANCH 101 102
ATOM    102  S   UNL A   1      53.506  25.452  24.425  1.00  0.00     0.124 S 
ATOM    103  O   UNL A   1      53.346  25.818  23.022  1.00  0.00    -0.237 OA
ATOM    104  O   UNL A   1      54.470  26.246  25.182  1.00  0.00    -0.237 OA
ATOM    105  O   UNL A   1      53.530  24.018  24.701  1.00  0.00    -0.744 OA
ENDBRANCH 101 102
ENDBRANCH  69  94
ENDBRANCH  43  44
ENDBRANCH  36  38
ENDBRANCH  35  36
ENDBRANCH  34  35
ENDBRANCH   1  34
TORSDOF 19
ENDMDL
MODEL 3
REMARK VINA RESULT:     -12.3      6.409     12.188
REMARK SMILES COc1ccc([C@H]2CC(c3ccc(S(C)(=O)=O)cc3)=NN2c2ccc(C(=O)OCCOC(=O)c3ccc(-c4c5nc(c(-c6c(F)cc(S(=O)(=O)[O-])cc6F)c6ccc([nH]6)c(-c6c(F)cc(S(=O)(=O)[O-])cc6F)c6nc(c(-c7c(F)cc(S(=O)(=O)[O-])cc7F)c7ccc4[nH]7)C=C6)C=C5)cc3)cc2)cc1
REMARK SMILES IDX 29 1 28 2 26 3 27 4 25 5 22 6 23 7 101 8 24 9 100 10 21 11
REMARK SMILES IDX 7 12 8 13 9 14 20 15 6 16 3 17 4 18 103 19 5 20 102 21 2 22
REMARK SMILES IDX 1 23 10 24 11 25 19 26 12 27 18 28 13 29 14 30 15 31 16 32
REMARK SMILES IDX 17 33 30 34 31 35 32 36 33 37 34 38 35 39 99 40 36 41 98 42
REMARK SMILES IDX 37 43 38 44 39 45 92 46 40 47 97 48 91 49 93 50 41 51 96 52
REMARK SMILES IDX 90 53 89 54 42 56 76 57 55 58 75 59 56 60 59 61 74 62 94 63
REMARK SMILES IDX 57 64 58 65 73 67 95 68 60 69 43 70 44 71 53 72 45 73 46 74
REMARK SMILES IDX 52 75 54 76 47 77 48 78 49 79 50 80 51 81 77 82 78 83 87 84
REMARK SMILES IDX 79 85 80 86 86 87 88 88 81 89 82 90 83 91 84 92 85 93 61 94
REMARK SMILES IDX 62 95 71 96 63 97 64 98 70 99 72 100 65 101 66 102 67 103
REMARK SMILES IDX 68 104 69 105
REMARK H PARENT 93 55 59 66
REMARK Flexibility Score: inf
ROOT
ATOM      1  C   UNL A   1      40.961  23.179  26.886  1.00  0.00     0.275 C 
ENDROOT
BRANCH   1   2
ATOM      2  O   UNL A   1      39.612  23.348  26.403  1.00  0.00    -0.458 OA
BRANCH   2   3
ATOM      3  C   UNL A   1      38.991  22.203  26.024  1.00  0.00     0.338 C 
ATOM      4  O   UNL A   1      39.432  21.069  26.135  1.00  0.00    -0.246 OA
BRANCH   3   5
ATOM      5  C   UNL A   1      37.639  22.477  25.495  1.00  0.00     0.060 A 
ATOM      6  C   UNL A   1      35.206  23.176  24.264  1.00  0.00     0.060 A 
ATOM      7  C   UNL A   1      36.080  22.273  23.656  1.00  0.00     0.029 A 
ATOM      8  C   UNL A   1      35.548  23.686  25.525  1.00  0.00     0.029 A 
ATOM      9  C   UNL A   1      37.299  21.963  24.244  1.00  0.00     0.018 A 
ATOM     10  C   UNL A   1      36.750  23.323  26.155  1.00  0.00     0.018 A 
BRANCH   6  11
ATOM     11  N   UNL A   1      34.063  23.574  23.585  1.00  0.00    -0.257 N 
ATOM     12  C   UNL A   1      33.152  22.653  22.904  1.00  0.00     0.144 C 
ATOM     13  C   UNL A   1      31.886  23.505  22.719  1.00  0.00     0.091 C 
ATOM     14  C   UNL A   1      32.347  24.807  23.310  1.00  0.00     0.071 C 
ATOM     15  N   UNL A   1      33.542  24.810  23.806  1.00  0.00    -0.176 NA
BRANCH  12  16
ATOM     16  C   UNL A   1      32.904  21.354  23.659  1.00  0.00    -0.023 A 
ATOM     17  C   UNL A   1      32.481  18.974  25.129  1.00  0.00     0.118 A 
ATOM     18  C   UNL A   1      32.686  20.187  25.785  1.00  0.00     0.047 A 
ATOM     19  C   UNL A   1      32.443  18.954  23.736  1.00  0.00     0.047 A 
ATOM     20  C   UNL A   1      32.904  21.362  25.062  1.00  0.00     0.010 A 
ATOM     21  C   UNL A   1      32.643  20.136  23.008  1.00  0.00     0.010 A 
BRANCH  17  22
ATOM     22  O   UNL A   1      32.294  17.898  25.952  1.00  0.00    -0.497 OA
ATOM     23  C   UNL A   1      33.021  16.720  25.618  1.00  0.00     0.278 C 
ENDBRANCH  17  22
ENDBRANCH  12  16
BRANCH  14  24
ATOM     24  C   UNL A   1      31.513  26.015  23.251  1.00  0.00    -0.002 A 
ATOM     25  C   UNL A   1      32.072  27.171  22.691  1.00  0.00     0.011 A 
ATOM     26  C   UNL A   1      30.191  26.013  23.704  1.00  0.00     0.011 A 
ATOM     27  C   UNL A   1      31.296  28.318  22.540  1.00  0.00     0.021 A 
ATOM     28  C   UNL A   1      29.418  27.173  23.580  1.00  0.00     0.021 A 
ATOM     29  C   UNL A   1      29.973  28.315  22.990  1.00  0.00     0.067 A 
BRANCH  29  30
ATOM     30  S   UNL A   1      28.975  29.764  22.734  1.00  0.00     0.175 S 
ATOM     31  C   UNL A   1      27.318  29.231  23.076  1.00  0.00     0.163 C 
ATOM     32  O   UNL A   1      29.372  30.720  23.750  1.00  0.00    -0.224 OA
ATOM     33  O   UNL A   1      29.055  30.110  21.326  1.00  0.00    -0.224 OA
ENDBRANCH  29  30
ENDBRANCH  14  24
ENDBRANCH   6  11
ENDBRANCH   3   5
ENDBRANCH   2   3
ENDBRANCH   1   2
BRANCH   1  34
ATOM     34  C   UNL A   1      41.998  23.559  25.828  1.00  0.00     0.275 C 
BRANCH  34  35
ATOM     35  O   UNL A   1      42.799  24.668  26.271  1.00  0.00    -0.458 OA
BRANCH  35  36
ATOM     36  C   UNL A   1      42.194  25.876  26.206  1.00  0.00     0.338 C 
ATOM     37  O   UNL A   1      41.665  26.385  25.233  1.00  0.00    -0.246 OA
BRANCH  36  38
ATOM     38  C   UNL A   1      42.212  26.531  27.524  1.00  0.00     0.060 A 
ATOM     39  C   UNL A   1      41.427  26.002  28.540  1.00  0.00     0.016 A 
ATOM     40  C   UNL A   1      42.828  27.768  27.693  1.00  0.00     0.016 A 
ATOM     41  C   UNL A   1      41.107  26.779  29.650  1.00  0.00     0.010 A 
ATOM     42  C   UNL A   1      42.635  28.475  28.887  1.00  0.00     0.010 A 
ATOM     43  C   UNL A   1      41.724  28.021  29.859  1.00  0.00    -0.014 A 
BRANCH  43  44
ATOM     44  C   UNL A   1      41.404  28.838  31.070  1.00  0.00     0.031 A 
ATOM     45  C   UNL A   1      40.226  29.786  31.069  1.00  0.00     0.074 A 
ATOM     46  C   UNL A   1      42.156  28.730  32.187  1.00  0.00     0.049 A 
ATOM     47  N   UNL A   1      39.899  30.706  31.942  1.00  0.00    -0.248 NA
ATOM     48  C   UNL A   1      39.305  29.700  29.924  1.00  0.00     0.031 C 
ATOM     49  C   UNL A   1      43.291  27.822  32.363  1.00  0.00     0.029 A 
ATOM     50  N   UNL A   1      42.070  29.380  33.395  1.00  0.00    -0.354 N 
ATOM     51  C   UNL A   1      38.777  31.346  31.423  1.00  0.00     0.074 A 
ATOM     52  C   UNL A   1      38.489  30.718  30.152  1.00  0.00     0.031 C 
ATOM     53  C   UNL A   1      43.750  27.921  33.618  1.00  0.00     0.029 A 
ATOM     54  C   UNL A   1      43.024  28.982  34.303  1.00  0.00     0.049 A 
ATOM     55  H   UNL A   1      41.392  30.065  33.592  1.00  0.00     0.167 HD
ATOM     56  C   UNL A   1      38.053  32.363  31.958  1.00  0.00     0.037 A 
ATOM     57  C   UNL A   1      43.321  29.443  35.533  1.00  0.00     0.037 A 
ATOM     58  C   UNL A   1      38.316  32.949  33.248  1.00  0.00     0.049 A 
ATOM     59  C   UNL A   1      42.549  30.608  36.082  1.00  0.00     0.074 A 
ATOM     60  C   UNL A   1      37.641  33.977  33.884  1.00  0.00     0.029 A 
ATOM     61  N   UNL A   1      39.332  32.552  34.108  1.00  0.00    -0.354 N 
ATOM     62  N   UNL A   1      41.537  31.248  35.549  1.00  0.00    -0.248 NA
ATOM     63  C   UNL A   1      42.978  31.129  37.386  1.00  0.00     0.031 C 
ATOM     64  C   UNL A   1      38.272  34.227  35.109  1.00  0.00     0.029 A 
ATOM     65  C   UNL A   1      39.311  33.322  35.260  1.00  0.00     0.049 A 
ATOM     66  H   UNL A   1      39.973  31.827  33.926  1.00  0.00     0.167 HD
ATOM     67  C   UNL A   1      41.194  32.239  36.461  1.00  0.00     0.074 A 
ATOM     68  C   UNL A   1      42.100  32.103  37.584  1.00  0.00     0.031 C 
ATOM     69  C   UNL A   1      40.218  33.175  36.373  1.00  0.00     0.037 A 
BRANCH  56  70
ATOM     70  C   UNL A   1      36.932  32.931  31.124  1.00  0.00     0.058 A 
ATOM     71  C   UNL A   1      35.590  32.572  31.326  1.00  0.00     0.135 A 
ATOM     72  C   UNL A   1      37.210  33.848  30.095  1.00  0.00     0.135 A 
ATOM     73  F   UNL A   1      35.262  31.694  32.288  1.00  0.00    -0.206 F 
ATOM     74  C   UNL A   1      34.574  33.055  30.505  1.00  0.00     0.059 A 
ATOM     75  C   UNL A   1      36.207  34.370  29.283  1.00  0.00     0.059 A 
ATOM     76  F   UNL A   1      38.473  34.239  29.862  1.00  0.00    -0.206 F 
ATOM     77  C   UNL A   1      34.894  33.945  29.479  1.00  0.00     0.060 A 
BRANCH  77  78
ATOM     78  S   UNL A   1      33.573  34.528  28.394  1.00  0.00     0.124 S 
ATOM     79  O   UNL A   1      32.682  35.180  29.350  1.00  0.00    -0.237 OA
ATOM     80  O   UNL A   1      34.284  35.419  27.484  1.00  0.00    -0.237 OA
ATOM     81  O   UNL A   1      33.060  33.302  27.793  1.00  0.00    -0.744 OA
ENDBRANCH  77  78
ENDBRANCH  56  70
BRANCH  57  82
ATOM     82  C   UNL A   1      44.420  28.811  36.314  1.00  0.00     0.058 A 
ATOM     83  C   UNL A   1      45.719  29.335  36.272  1.00  0.00     0.135 A 
ATOM     84  C   UNL A   1      44.184  27.709  37.153  1.00  0.00     0.135 A 
ATOM     85  F   UNL A   1      45.998  30.379  35.477  1.00  0.00    -0.206 F 
ATOM     86  C   UNL A   1      46.747  28.794  37.039  1.00  0.00     0.059 A 
ATOM     87  C   UNL A   1      45.189  27.169  37.950  1.00  0.00     0.059 A 
ATOM     88  F   UNL A   1      42.956  27.176  37.236  1.00  0.00    -0.206 F 
ATOM     89  C   UNL A   1      46.468  27.718  37.884  1.00  0.00     0.060 A 
BRANCH  89  90
ATOM     90  S   UNL A   1      47.790  27.079  38.935  1.00  0.00     0.124 S 
ATOM     91  O   UNL A   1      48.456  26.144  38.035  1.00  0.00    -0.237 OA
ATOM     92  O   UNL A   1      48.535  28.292  39.261  1.00  0.00    -0.237 OA
ATOM     93  O   UNL A   1      47.069  26.476  40.052  1.00  0.00    -0.744 OA
ENDBRANCH  89  90
ENDBRANCH  57  82
BRANCH  69  94
ATOM     94  C   UNL A   1      40.053  34.104  37.543  1.00  0.00     0.058 A 
ATOM     95  C   UNL A   1      40.735  35.329  37.618  1.00  0.00     0.135 A 
ATOM     96  C   UNL A   1      39.176  33.777  38.590  1.00  0.00     0.135 A 
ATOM     97  F   UNL A   1      41.595  35.683  36.649  1.00  0.00    -0.206 F 
ATOM     98  C   UNL A   1      40.571  36.186  38.700  1.00  0.00     0.059 A 
ATOM     99  C   UNL A   1      38.975  34.632  39.669  1.00  0.00     0.059 A 
ATOM    100  F   UNL A   1      38.494  32.621  38.563  1.00  0.00    -0.206 F 
ATOM    101  C   UNL A   1      39.688  35.830  39.721  1.00  0.00     0.060 A 
BRANCH 101 102
ATOM    102  S   UNL A   1      39.460  36.964  41.106  1.00  0.00     0.124 S 
ATOM    103  O   UNL A   1      38.696  36.142  42.038  1.00  0.00    -0.237 OA
ATOM    104  O   UNL A   1      40.835  37.258  41.499  1.00  0.00    -0.237 OA
ATOM    105  O   UNL A   1      38.733  38.083  40.513  1.00  0.00    -0.744 OA
ENDBRANCH 101 102
ENDBRANCH  69  94
ENDBRANCH  43  44
ENDBRANCH  36  38
ENDBRANCH  35  36
ENDBRANCH  34  35
ENDBRANCH   1  34
TORSDOF 19
ENDMDL
