MODEL 1
REMARK VINA RESULT:     -11.9      0.000      0.000
REMARK SMILES Cc1cc(F)cc(N[C@H](C(=O)OCCOC(=O)c2ccc(-c3c4nc(c(-c5c(F)cc(S(=O)(=O)[O-])cc5F)c5ccc([nH]5)c(-c5c(F)cc(S(=O)(=O)[O-])cc5F)c5nc(c(-c6c(F)cc(S(=O)(=O)[O-])cc6F)c6ccc3[nH]6)C=C5)C=C4)cc2)c2cc(C)cc(C)c2)c1
REMARK SMILES IDX 14 1 13 2 12 3 10 4 11 5 9 6 8 7 7 9 1 10 2 11 3 12 92 13
REMARK SMILES IDX 4 14 5 15 6 16 84 17 85 18 91 19 86 20 89 21 87 22 88 23
REMARK SMILES IDX 90 24 15 25 16 26 17 27 18 28 19 29 83 30 20 31 82 32 21 33
REMARK SMILES IDX 22 34 23 35 76 36 24 37 81 38 75 39 77 40 25 41 80 42 74 43
REMARK SMILES IDX 73 44 26 46 60 47 39 48 59 49 40 50 43 51 58 52 78 53 41 54
REMARK SMILES IDX 42 55 57 57 79 58 44 59 27 60 28 61 37 62 29 63 30 64 36 65
REMARK SMILES IDX 38 66 31 67 32 68 33 69 34 70 35 71 61 72 62 73 71 74 63 75
REMARK SMILES IDX 64 76 70 77 72 78 65 79 66 80 67 81 68 82 69 83 45 84 46 85
REMARK SMILES IDX 55 86 47 87 48 88 54 89 56 90 49 91 50 92 51 93 52 94 53 95
REMARK H PARENT 8 8 77 45 43 56
REMARK Flexibility Score: inf
ROOT
ATOM      1  C   UNL A   1      40.264  22.792  26.513  1.00  0.00     0.275 C 
ENDROOT
BRANCH   1   2
ATOM      2  C   UNL A   1      39.232  21.750  26.055  1.00  0.00     0.274 C 
BRANCH   2   3
ATOM      3  O   UNL A   1      37.873  22.194  26.220  1.00  0.00    -0.460 OA
BRANCH   3   4
ATOM      4  C   UNL A   1      36.990  21.686  25.304  1.00  0.00     0.333 C 
ATOM      5  O   UNL A   1      37.315  21.410  24.153  1.00  0.00    -0.249 OA
BRANCH   4   6
ATOM      6  C   UNL A   1      35.605  21.391  25.927  1.00  0.00     0.221 C 
BRANCH   6   7
ATOM      7  N   UNL A   1      35.088  22.489  26.785  1.00  0.00    -0.369 N 
ATOM      8  H   UNL A   1      35.581  22.619  27.627  1.00  0.00     0.161 HD
BRANCH   7   9
ATOM      9  C   UNL A   1      34.033  23.355  26.594  1.00  0.00     0.038 A 
ATOM     10  C   UNL A   1      33.542  26.953  25.335  1.00  0.00     0.044 C 
ATOM     11  C   UNL A   1      33.261  25.599  25.909  1.00  0.00    -0.046 A 
ATOM     12  C   UNL A   1      31.961  25.286  26.304  1.00  0.00     0.042 A 
ATOM     13  C   UNL A   1      34.285  24.643  26.086  1.00  0.00     0.029 A 
ATOM     14  C   UNL A   1      31.699  24.027  26.805  1.00  0.00     0.125 A 
ATOM     15  F   UNL A   1      30.454  23.710  27.182  1.00  0.00    -0.207 F 
ATOM     16  C   UNL A   1      32.708  23.078  26.916  1.00  0.00     0.065 A 
ENDBRANCH   7   9
ENDBRANCH   6   7
BRANCH   6  17
ATOM     17  C   UNL A   1      34.565  20.855  24.940  1.00  0.00    -0.014 A 
ATOM     18  C   UNL A   1      33.892  21.725  24.068  1.00  0.00     0.010 A 
ATOM     19  C   UNL A   1      34.206  19.498  24.901  1.00  0.00     0.010 A 
ATOM     20  C   UNL A   1      32.756  21.337  23.364  1.00  0.00    -0.051 A 
ATOM     21  C   UNL A   1      33.174  19.052  24.054  1.00  0.00    -0.051 A 
ATOM     22  C   UNL A   1      31.865  22.397  22.789  1.00  0.00     0.044 C 
ATOM     23  C   UNL A   1      32.409  19.989  23.345  1.00  0.00     0.006 A 
ATOM     24  C   UNL A   1      32.834  17.596  23.926  1.00  0.00     0.044 C 
ENDBRANCH   6  17
ENDBRANCH   4   6
ENDBRANCH   3   4
ENDBRANCH   2   3
ENDBRANCH   1   2
BRANCH   1  25
ATOM     25  O   UNL A   1      39.755  24.140  26.533  1.00  0.00    -0.458 OA
BRANCH  25  26
ATOM     26  C   UNL A   1      40.688  25.107  26.373  1.00  0.00     0.338 C 
ATOM     27  O   UNL A   1      41.332  25.329  25.350  1.00  0.00    -0.246 OA
BRANCH  26  28
ATOM     28  C   UNL A   1      40.753  26.000  27.546  1.00  0.00     0.060 A 
ATOM     29  C   UNL A   1      39.721  25.903  28.487  1.00  0.00     0.016 A 
ATOM     30  C   UNL A   1      41.748  26.968  27.700  1.00  0.00     0.016 A 
ATOM     31  C   UNL A   1      39.668  26.769  29.573  1.00  0.00     0.010 A 
ATOM     32  C   UNL A   1      41.691  27.847  28.792  1.00  0.00     0.010 A 
ATOM     33  C   UNL A   1      40.642  27.762  29.726  1.00  0.00    -0.014 A 
BRANCH  33  34
ATOM     34  C   UNL A   1      40.504  28.745  30.830  1.00  0.00     0.031 A 
ATOM     35  C   UNL A   1      41.406  28.652  32.029  1.00  0.00     0.074 A 
ATOM     36  C   UNL A   1      39.614  29.750  30.730  1.00  0.00     0.049 A 
ATOM     37  N   UNL A   1      41.439  29.401  33.101  1.00  0.00    -0.248 NA
ATOM     38  C   UNL A   1      42.407  27.574  32.019  1.00  0.00     0.031 C 
ATOM     39  C   UNL A   1      38.721  29.975  29.593  1.00  0.00     0.029 A 
ATOM     40  N   UNL A   1      39.317  30.772  31.596  1.00  0.00    -0.354 N 
ATOM     41  C   UNL A   1      42.453  28.883  33.897  1.00  0.00     0.074 A 
ATOM     42  C   UNL A   1      42.993  27.737  33.197  1.00  0.00     0.031 C 
ATOM     43  C   UNL A   1      37.972  31.064  29.833  1.00  0.00     0.029 A 
ATOM     44  C   UNL A   1      38.305  31.592  31.154  1.00  0.00     0.049 A 
ATOM     45  H   UNL A   1      39.783  30.906  32.452  1.00  0.00     0.167 HD
ATOM     46  C   UNL A   1      42.896  29.326  35.099  1.00  0.00     0.037 A 
ATOM     47  C   UNL A   1      37.700  32.635  31.756  1.00  0.00     0.037 A 
ATOM     48  C   UNL A   1      42.355  30.471  35.788  1.00  0.00     0.049 A 
ATOM     49  C   UNL A   1      38.167  33.069  33.121  1.00  0.00     0.074 A 
ATOM     50  C   UNL A   1      42.741  31.004  37.004  1.00  0.00     0.029 A 
ATOM     51  N   UNL A   1      41.308  31.255  35.323  1.00  0.00    -0.354 N 
ATOM     52  N   UNL A   1      39.132  32.574  33.859  1.00  0.00    -0.248 NA
ATOM     53  C   UNL A   1      37.467  34.207  33.733  1.00  0.00     0.031 C 
ATOM     54  C   UNL A   1      41.897  32.078  37.301  1.00  0.00     0.029 A 
ATOM     55  C   UNL A   1      41.022  32.254  36.241  1.00  0.00     0.049 A 
ATOM     56  H   UNL A   1      40.838  31.122  34.469  1.00  0.00     0.167 HD
ATOM     57  C   UNL A   1      39.177  33.361  35.005  1.00  0.00     0.074 A 
ATOM     58  C   UNL A   1      38.146  34.368  34.860  1.00  0.00     0.031 C 
ATOM     59  C   UNL A   1      40.001  33.261  36.079  1.00  0.00     0.037 A 
BRANCH  46  60
ATOM     60  C   UNL A   1      44.002  28.552  35.764  1.00  0.00     0.058 A 
ATOM     61  C   UNL A   1      45.356  28.864  35.555  1.00  0.00     0.135 A 
ATOM     62  C   UNL A   1      43.704  27.506  36.653  1.00  0.00     0.135 A 
ATOM     63  F   UNL A   1      45.701  29.844  34.704  1.00  0.00    -0.206 F 
ATOM     64  C   UNL A   1      46.372  28.149  36.181  1.00  0.00     0.059 A 
ATOM     65  C   UNL A   1      44.702  26.796  37.311  1.00  0.00     0.059 A 
ATOM     66  F   UNL A   1      42.427  27.165  36.890  1.00  0.00    -0.206 F 
ATOM     67  C   UNL A   1      46.036  27.115  37.057  1.00  0.00     0.060 A 
BRANCH  67  68
ATOM     68  S   UNL A   1      47.366  26.196  37.860  1.00  0.00     0.124 S 
ATOM     69  O   UNL A   1      47.741  25.252  36.812  1.00  0.00    -0.237 OA
ATOM     70  O   UNL A   1      48.340  27.243  38.147  1.00  0.00    -0.237 OA
ATOM     71  O   UNL A   1      46.718  25.610  39.029  1.00  0.00    -0.744 OA
ENDBRANCH  67  68
ENDBRANCH  46  60
BRANCH  47  72
ATOM     72  C   UNL A   1      36.577  33.335  31.076  1.00  0.00     0.058 A 
ATOM     73  C   UNL A   1      36.804  34.193  29.991  1.00  0.00     0.135 A 
ATOM     74  C   UNL A   1      35.249  33.158  31.501  1.00  0.00     0.135 A 
ATOM     75  F   UNL A   1      38.055  34.405  29.553  1.00  0.00    -0.206 F 
ATOM     76  C   UNL A   1      35.760  34.863  29.360  1.00  0.00     0.059 A 
ATOM     77  C   UNL A   1      34.187  33.794  30.869  1.00  0.00     0.059 A 
ATOM     78  F   UNL A   1      34.976  32.340  32.530  1.00  0.00    -0.206 F 
ATOM     79  C   UNL A   1      34.453  34.655  29.805  1.00  0.00     0.060 A 
BRANCH  79  80
ATOM     80  S   UNL A   1      33.103  35.499  28.953  1.00  0.00     0.124 S 
ATOM     81  O   UNL A   1      32.335  36.028  30.073  1.00  0.00    -0.237 OA
ATOM     82  O   UNL A   1      33.817  36.483  28.146  1.00  0.00    -0.237 OA
ATOM     83  O   UNL A   1      32.461  34.426  28.198  1.00  0.00    -0.744 OA
ENDBRANCH  79  80
ENDBRANCH  47  72
BRANCH  59  84
ATOM     84  C   UNL A   1      39.861  34.296  37.163  1.00  0.00     0.058 A 
ATOM     85  C   UNL A   1      40.471  35.556  37.072  1.00  0.00     0.135 A 
ATOM     86  C   UNL A   1      39.060  34.037  38.288  1.00  0.00     0.135 A 
ATOM     87  F   UNL A   1      41.251  35.857  36.021  1.00  0.00    -0.206 F 
ATOM     88  C   UNL A   1      40.313  36.513  38.070  1.00  0.00     0.059 A 
ATOM     89  C   UNL A   1      38.865  34.989  39.283  1.00  0.00     0.059 A 
ATOM     90  F   UNL A   1      38.444  32.850  38.421  1.00  0.00    -0.206 F 
ATOM     91  C   UNL A   1      39.506  36.221  39.172  1.00  0.00     0.060 A 
BRANCH  91  92
ATOM     92  S   UNL A   1      39.285  37.483  40.445  1.00  0.00     0.124 S 
ATOM     93  O   UNL A   1      38.198  38.279  39.886  1.00  0.00    -0.237 OA
ATOM     94  O   UNL A   1      38.947  36.684  41.619  1.00  0.00    -0.237 OA
ATOM     95  O   UNL A   1      40.586  38.144  40.498  1.00  0.00    -0.744 OA
ENDBRANCH  91  92
ENDBRANCH  59  84
ENDBRANCH  33  34
ENDBRANCH  26  28
ENDBRANCH  25  26
ENDBRANCH   1  25
TORSDOF 17
ENDMDL
MODEL 2
REMARK VINA RESULT:     -11.8      1.148      2.989
REMARK SMILES Cc1cc(F)cc(N[C@H](C(=O)OCCOC(=O)c2ccc(-c3c4nc(c(-c5c(F)cc(S(=O)(=O)[O-])cc5F)c5ccc([nH]5)c(-c5c(F)cc(S(=O)(=O)[O-])cc5F)c5nc(c(-c6c(F)cc(S(=O)(=O)[O-])cc6F)c6ccc3[nH]6)C=C5)C=C4)cc2)c2cc(C)cc(C)c2)c1
REMARK SMILES IDX 14 1 13 2 12 3 10 4 11 5 9 6 8 7 7 9 1 10 2 11 3 12 92 13
REMARK SMILES IDX 4 14 5 15 6 16 84 17 85 18 91 19 86 20 89 21 87 22 88 23
REMARK SMILES IDX 90 24 15 25 16 26 17 27 18 28 19 29 83 30 20 31 82 32 21 33
REMARK SMILES IDX 22 34 23 35 76 36 24 37 81 38 75 39 77 40 25 41 80 42 74 43
REMARK SMILES IDX 73 44 26 46 60 47 39 48 59 49 40 50 43 51 58 52 78 53 41 54
REMARK SMILES IDX 42 55 57 57 79 58 44 59 27 60 28 61 37 62 29 63 30 64 36 65
REMARK SMILES IDX 38 66 31 67 32 68 33 69 34 70 35 71 61 72 62 73 71 74 63 75
REMARK SMILES IDX 64 76 70 77 72 78 65 79 66 80 67 81 68 82 69 83 45 84 46 85
REMARK SMILES IDX 55 86 47 87 48 88 54 89 56 90 49 91 50 92 51 93 52 94 53 95
REMARK H PARENT 8 8 77 45 43 56
REMARK Flexibility Score: inf
ROOT
ATOM      1  C   UNL A   1      38.944  23.110  26.236  1.00  0.00     0.275 C 
ENDROOT
BRANCH   1   2
ATOM      2  C   UNL A   1      37.508  23.358  25.751  1.00  0.00     0.274 C 
BRANCH   2   3
ATOM      3  O   UNL A   1      36.899  22.190  25.174  1.00  0.00    -0.460 OA
BRANCH   3   4
ATOM      4  C   UNL A   1      36.017  22.447  24.158  1.00  0.00     0.333 C 
ATOM      5  O   UNL A   1      36.369  22.897  23.072  1.00  0.00    -0.249 OA
BRANCH   4   6
ATOM      6  C   UNL A   1      34.579  21.987  24.501  1.00  0.00     0.221 C 
BRANCH   6   7
ATOM      7  N   UNL A   1      34.514  20.638  25.119  1.00  0.00    -0.369 N 
ATOM      8  H   UNL A   1      34.803  20.602  26.059  1.00  0.00     0.161 HD
BRANCH   7   9
ATOM      9  C   UNL A   1      34.114  19.428  24.592  1.00  0.00     0.038 A 
ATOM     10  C   UNL A   1      35.114  15.735  24.955  1.00  0.00     0.044 C 
ATOM     11  C   UNL A   1      34.438  16.983  24.476  1.00  0.00    -0.046 A 
ATOM     12  C   UNL A   1      33.487  16.892  23.461  1.00  0.00     0.042 A 
ATOM     13  C   UNL A   1      34.761  18.250  25.008  1.00  0.00     0.029 A 
ATOM     14  C   UNL A   1      32.844  18.039  23.043  1.00  0.00     0.125 A 
ATOM     15  F   UNL A   1      31.922  17.966  22.074  1.00  0.00    -0.207 F 
ATOM     16  C   UNL A   1      33.132  19.271  23.619  1.00  0.00     0.065 A 
ENDBRANCH   7   9
ENDBRANCH   6   7
BRANCH   6  17
ATOM     17  C   UNL A   1      33.736  23.031  25.237  1.00  0.00    -0.014 A 
ATOM     18  C   UNL A   1      32.601  22.647  25.967  1.00  0.00     0.010 A 
ATOM     19  C   UNL A   1      34.027  24.404  25.174  1.00  0.00     0.010 A 
ATOM     20  C   UNL A   1      31.657  23.569  26.410  1.00  0.00    -0.051 A 
ATOM     21  C   UNL A   1      33.176  25.347  25.777  1.00  0.00    -0.051 A 
ATOM     22  C   UNL A   1      30.297  23.077  26.807  1.00  0.00     0.044 C 
ATOM     23  C   UNL A   1      31.958  24.925  26.329  1.00  0.00     0.006 A 
ATOM     24  C   UNL A   1      33.512  26.810  25.802  1.00  0.00     0.044 C 
ENDBRANCH   6  17
ENDBRANCH   4   6
ENDBRANCH   3   4
ENDBRANCH   2   3
ENDBRANCH   1   2
BRANCH   1  25
ATOM     25  O   UNL A   1      39.797  24.268  26.139  1.00  0.00    -0.458 OA
BRANCH  25  26
ATOM     26  C   UNL A   1      40.758  24.354  27.088  1.00  0.00     0.338 C 
ATOM     27  O   UNL A   1      41.789  23.688  27.136  1.00  0.00    -0.246 OA
BRANCH  26  28
ATOM     28  C   UNL A   1      40.507  25.474  28.016  1.00  0.00     0.060 A 
ATOM     29  C   UNL A   1      41.560  26.366  28.249  1.00  0.00     0.016 A 
ATOM     30  C   UNL A   1      39.304  25.618  28.711  1.00  0.00     0.016 A 
ATOM     31  C   UNL A   1      41.427  27.394  29.175  1.00  0.00     0.010 A 
ATOM     32  C   UNL A   1      39.172  26.652  29.651  1.00  0.00     0.010 A 
ATOM     33  C   UNL A   1      40.239  27.536  29.899  1.00  0.00    -0.014 A 
BRANCH  33  34
ATOM     34  C   UNL A   1      40.158  28.570  30.960  1.00  0.00     0.031 A 
ATOM     35  C   UNL A   1      41.070  28.487  32.153  1.00  0.00     0.074 A 
ATOM     36  C   UNL A   1      39.314  29.610  30.826  1.00  0.00     0.049 A 
ATOM     37  N   UNL A   1      41.149  29.279  33.191  1.00  0.00    -0.248 NA
ATOM     38  C   UNL A   1      42.021  27.365  32.180  1.00  0.00     0.031 C 
ATOM     39  C   UNL A   1      38.418  29.826  29.689  1.00  0.00     0.029 A 
ATOM     40  N   UNL A   1      39.073  30.681  31.650  1.00  0.00    -0.354 N 
ATOM     41  C   UNL A   1      42.148  28.749  34.000  1.00  0.00     0.074 A 
ATOM     42  C   UNL A   1      42.628  27.551  33.344  1.00  0.00     0.031 C 
ATOM     43  C   UNL A   1      37.723  30.958  29.890  1.00  0.00     0.029 A 
ATOM     44  C   UNL A   1      38.094  31.526  31.184  1.00  0.00     0.049 A 
ATOM     45  H   UNL A   1      39.555  30.829  32.495  1.00  0.00     0.167 HD
ATOM     46  C   UNL A   1      42.625  29.222  35.176  1.00  0.00     0.037 A 
ATOM     47  C   UNL A   1      37.544  32.620  31.747  1.00  0.00     0.037 A 
ATOM     48  C   UNL A   1      42.144  30.419  35.821  1.00  0.00     0.049 A 
ATOM     49  C   UNL A   1      38.047  33.090  33.087  1.00  0.00     0.074 A 
ATOM     50  C   UNL A   1      42.569  30.985  37.010  1.00  0.00     0.029 A 
ATOM     51  N   UNL A   1      41.129  31.230  35.334  1.00  0.00    -0.354 N 
ATOM     52  N   UNL A   1      38.997  32.584  33.835  1.00  0.00    -0.248 NA
ATOM     53  C   UNL A   1      37.406  34.284  33.656  1.00  0.00     0.031 C 
ATOM     54  C   UNL A   1      41.777  32.109  37.268  1.00  0.00     0.029 A 
ATOM     55  C   UNL A   1      40.899  32.279  36.210  1.00  0.00     0.049 A 
ATOM     56  H   UNL A   1      40.643  31.082  34.491  1.00  0.00     0.167 HD
ATOM     57  C   UNL A   1      39.091  33.415  34.947  1.00  0.00     0.074 A 
ATOM     58  C   UNL A   1      38.105  34.462  34.768  1.00  0.00     0.031 C 
ATOM     59  C   UNL A   1      39.922  33.324  36.015  1.00  0.00     0.037 A 
BRANCH  46  60
ATOM     60  C   UNL A   1      43.703  28.428  35.863  1.00  0.00     0.058 A 
ATOM     61  C   UNL A   1      45.067  28.697  35.660  1.00  0.00     0.135 A 
ATOM     62  C   UNL A   1      43.367  27.406  36.766  1.00  0.00     0.135 A 
ATOM     63  F   UNL A   1      45.447  29.653  34.797  1.00  0.00    -0.206 F 
ATOM     64  C   UNL A   1      46.057  27.963  36.307  1.00  0.00     0.059 A 
ATOM     65  C   UNL A   1      44.340  26.678  37.444  1.00  0.00     0.059 A 
ATOM     66  F   UNL A   1      42.079  27.106  36.998  1.00  0.00    -0.206 F 
ATOM     67  C   UNL A   1      45.684  26.954  37.196  1.00  0.00     0.060 A 
BRANCH  67  68
ATOM     68  S   UNL A   1      46.980  26.010  38.025  1.00  0.00     0.124 S 
ATOM     69  O   UNL A   1      48.017  27.025  38.192  1.00  0.00    -0.237 OA
ATOM     70  O   UNL A   1      46.317  25.577  39.250  1.00  0.00    -0.237 OA
ATOM     71  O   UNL A   1      47.290  24.947  37.074  1.00  0.00    -0.744 OA
ENDBRANCH  67  68
ENDBRANCH  46  60
BRANCH  47  72
ATOM     72  C   UNL A   1      36.446  33.341  31.048  1.00  0.00     0.058 A 
ATOM     73  C   UNL A   1      36.705  34.174  29.950  1.00  0.00     0.135 A 
ATOM     74  C   UNL A   1      35.111  33.209  31.467  1.00  0.00     0.135 A 
ATOM     75  F   UNL A   1      37.963  34.343  29.518  1.00  0.00    -0.206 F 
ATOM     76  C   UNL A   1      35.684  34.864  29.302  1.00  0.00     0.059 A 
ATOM     77  C   UNL A   1      34.072  33.865  30.818  1.00  0.00     0.059 A 
ATOM     78  F   UNL A   1      34.808  32.416  32.507  1.00  0.00    -0.206 F 
ATOM     79  C   UNL A   1      34.369  34.701  29.743  1.00  0.00     0.060 A 
BRANCH  79  80
ATOM     80  S   UNL A   1      33.049  35.569  28.868  1.00  0.00     0.124 S 
ATOM     81  O   UNL A   1      32.277  36.120  29.975  1.00  0.00    -0.237 OA
ATOM     82  O   UNL A   1      33.795  36.534  28.067  1.00  0.00    -0.237 OA
ATOM     83  O   UNL A   1      32.394  34.507  28.109  1.00  0.00    -0.744 OA
ENDBRANCH  79  80
ENDBRANCH  47  72
BRANCH  59  84
ATOM     84  C   UNL A   1      39.842  34.409  37.055  1.00  0.00     0.058 A 
ATOM     85  C   UNL A   1      40.513  35.632  36.907  1.00  0.00     0.135 A 
ATOM     86  C   UNL A   1      39.038  34.238  38.195  1.00  0.00     0.135 A 
ATOM     87  F   UNL A   1      41.299  35.849  35.840  1.00  0.00    -0.206 F 
ATOM     88  C   UNL A   1      40.411  36.638  37.865  1.00  0.00     0.059 A 
ATOM     89  C   UNL A   1      38.898  35.240  39.149  1.00  0.00     0.059 A 
ATOM     90  F   UNL A   1      38.365  33.090  38.381  1.00  0.00    -0.206 F 
ATOM     91  C   UNL A   1      39.598  36.433  38.982  1.00  0.00     0.060 A 
BRANCH  91  92
ATOM     92  S   UNL A   1      39.450  37.756  40.202  1.00  0.00     0.124 S 
ATOM     93  O   UNL A   1      39.126  37.008  41.411  1.00  0.00    -0.237 OA
ATOM     94  O   UNL A   1      40.778  38.361  40.167  1.00  0.00    -0.237 OA
ATOM     95  O   UNL A   1      38.375  38.588  39.671  1.00  0.00    -0.744 OA
ENDBRANCH  91  92
ENDBRANCH  59  84
ENDBRANCH  33  34
ENDBRANCH  26  28
ENDBRANCH  25  26
ENDBRANCH   1  25
TORSDOF 17
ENDMDL
MODEL 3
REMARK VINA RESULT:     -11.7      5.239     10.755
REMARK SMILES Cc1cc(F)cc(N[C@H](C(=O)OCCOC(=O)c2ccc(-c3c4nc(c(-c5c(F)cc(S(=O)(=O)[O-])cc5F)c5ccc([nH]5)c(-c5c(F)cc(S(=O)(=O)[O-])cc5F)c5nc(c(-c6c(F)cc(S(=O)(=O)[O-])cc6F)c6ccc3[nH]6)C=C5)C=C4)cc2)c2cc(C)cc(C)c2)c1
REMARK SMILES IDX 14 1 13 2 12 3 10 4 11 5 9 6 8 7 7 9 1 10 2 11 3 12 92 13
REMARK SMILES IDX 4 14 5 15 6 16 84 17 85 18 91 19 86 20 89 21 87 22 88 23
REMARK SMILES IDX 90 24 15 25 16 26 17 27 18 28 19 29 83 30 20 31 82 32 21 33
REMARK SMILES IDX 22 34 23 35 76 36 24 37 81 38 75 39 77 40 25 41 80 42 74 43
REMARK SMILES IDX 73 44 26 46 60 47 39 48 59 49 40 50 43 51 58 52 78 53 41 54
REMARK SMILES IDX 42 55 57 57 79 58 44 59 27 60 28 61 37 62 29 63 30 64 36 65
REMARK SMILES IDX 38 66 31 67 32 68 33 69 34 70 35 71 61 72 62 73 71 74 63 75
REMARK SMILES IDX 64 76 70 77 72 78 65 79 66 80 67 81 68 82 69 83 45 84 46 85
REMARK SMILES IDX 55 86 47 87 48 88 54 89 56 90 49 91 50 92 51 93 52 94 53 95
REMARK H PARENT 8 8 77 45 43 56
REMARK Flexibility Score: inf
ROOT
ATOM      1  C   UNL A   1      32.523  28.613  27.097  1.00  0.00     0.275 C 
ENDROOT
BRANCH   1   2
ATOM      2  C   UNL A   1      31.923  27.954  25.846  1.00  0.00     0.274 C 
BRANCH   2   3
ATOM      3  O   UNL A   1      31.581  28.903  24.820  1.00  0.00    -0.460 OA
BRANCH   3   4
ATOM      4  C   UNL A   1      32.357  28.832  23.694  1.00  0.00     0.333 C 
ATOM      5  O   UNL A   1      33.581  28.916  23.726  1.00  0.00    -0.249 OA
BRANCH   4   6
ATOM      6  C   UNL A   1      31.526  28.509  22.429  1.00  0.00     0.221 C 
BRANCH   6   7
ATOM      7  N   UNL A   1      31.620  27.090  21.997  1.00  0.00    -0.369 N 
ATOM      8  H   UNL A   1      31.266  26.910  21.096  1.00  0.00     0.161 HD
BRANCH   7   9
ATOM      9  C   UNL A   1      32.121  25.985  22.652  1.00  0.00     0.038 A 
ATOM     10  C   UNL A   1      30.846  23.411  25.204  1.00  0.00     0.044 C 
ATOM     11  C   UNL A   1      31.752  24.169  24.284  1.00  0.00    -0.046 A 
ATOM     12  C   UNL A   1      33.087  23.785  24.179  1.00  0.00     0.042 A 
ATOM     13  C   UNL A   1      31.292  25.280  23.544  1.00  0.00     0.029 A 
ATOM     14  C   UNL A   1      33.912  24.467  23.308  1.00  0.00     0.125 A 
ATOM     15  F   UNL A   1      35.196  24.104  23.190  1.00  0.00    -0.207 F 
ATOM     16  C   UNL A   1      33.428  25.521  22.542  1.00  0.00     0.065 A 
ENDBRANCH   7   9
ENDBRANCH   6   7
BRANCH   6  17
ATOM     17  C   UNL A   1      30.090  29.037  22.459  1.00  0.00    -0.014 A 
ATOM     18  C   UNL A   1      29.789  30.316  21.966  1.00  0.00     0.010 A 
ATOM     19  C   UNL A   1      29.036  28.298  23.021  1.00  0.00     0.010 A 
ATOM     20  C   UNL A   1      28.573  30.944  22.225  1.00  0.00    -0.051 A 
ATOM     21  C   UNL A   1      27.747  28.852  23.126  1.00  0.00    -0.051 A 
ATOM     22  C   UNL A   1      28.471  32.427  22.033  1.00  0.00     0.044 C 
ATOM     23  C   UNL A   1      27.544  30.198  22.792  1.00  0.00     0.006 A 
ATOM     24  C   UNL A   1      26.585  28.051  23.637  1.00  0.00     0.044 C 
ENDBRANCH   6  17
ENDBRANCH   4   6
ENDBRANCH   3   4
ENDBRANCH   2   3
ENDBRANCH   1   2
BRANCH   1  25
ATOM     25  O   UNL A   1      33.947  28.819  27.016  1.00  0.00    -0.458 OA
BRANCH  25  26
ATOM     26  C   UNL A   1      34.400  29.938  27.627  1.00  0.00     0.338 C 
ATOM     27  O   UNL A   1      33.731  30.928  27.913  1.00  0.00    -0.246 OA
BRANCH  26  28
ATOM     28  C   UNL A   1      35.800  29.788  28.068  1.00  0.00     0.060 A 
ATOM     29  C   UNL A   1      36.799  29.925  27.098  1.00  0.00     0.016 A 
ATOM     30  C   UNL A   1      36.143  29.442  29.377  1.00  0.00     0.016 A 
ATOM     31  C   UNL A   1      38.135  29.712  27.419  1.00  0.00     0.010 A 
ATOM     32  C   UNL A   1      37.491  29.219  29.700  1.00  0.00     0.010 A 
ATOM     33  C   UNL A   1      38.492  29.339  28.719  1.00  0.00    -0.014 A 
BRANCH  33  34
ATOM     34  C   UNL A   1      39.909  29.008  29.012  1.00  0.00     0.031 A 
ATOM     35  C   UNL A   1      40.787  30.023  29.691  1.00  0.00     0.074 A 
ATOM     36  C   UNL A   1      40.389  27.784  28.725  1.00  0.00     0.049 A 
ATOM     37  N   UNL A   1      42.049  29.937  30.022  1.00  0.00    -0.248 NA
ATOM     38  C   UNL A   1      40.159  31.306  30.046  1.00  0.00     0.031 C 
ATOM     39  C   UNL A   1      39.620  26.699  28.114  1.00  0.00     0.029 A 
ATOM     40  N   UNL A   1      41.638  27.245  28.911  1.00  0.00    -0.354 N 
ATOM     41  C   UNL A   1      42.372  31.152  30.614  1.00  0.00     0.074 A 
ATOM     42  C   UNL A   1      41.179  31.970  30.572  1.00  0.00     0.031 C 
ATOM     43  C   UNL A   1      40.414  25.626  27.973  1.00  0.00     0.029 A 
ATOM     44  C   UNL A   1      41.757  25.957  28.446  1.00  0.00     0.049 A 
ATOM     45  H   UNL A   1      42.378  27.735  29.336  1.00  0.00     0.167 HD
ATOM     46  C   UNL A   1      43.553  31.546  31.150  1.00  0.00     0.037 A 
ATOM     47  C   UNL A   1      42.831  25.145  28.387  1.00  0.00     0.037 A 
ATOM     48  C   UNL A   1      44.736  30.723  31.191  1.00  0.00     0.049 A 
ATOM     49  C   UNL A   1      44.150  25.629  28.930  1.00  0.00     0.074 A 
ATOM     50  C   UNL A   1      45.977  31.028  31.720  1.00  0.00     0.029 A 
ATOM     51  N   UNL A   1      44.826  29.435  30.681  1.00  0.00    -0.354 N 
ATOM     52  N   UNL A   1      44.438  26.777  29.495  1.00  0.00    -0.248 NA
ATOM     53  C   UNL A   1      45.288  24.705  28.834  1.00  0.00     0.031 C 
ATOM     54  C   UNL A   1      46.833  29.947  31.484  1.00  0.00     0.029 A 
ATOM     55  C   UNL A   1      46.109  28.943  30.862  1.00  0.00     0.049 A 
ATOM     56  H   UNL A   1      44.088  28.945  30.252  1.00  0.00     0.167 HD
ATOM     57  C   UNL A   1      45.780  26.701  29.851  1.00  0.00     0.074 A 
ATOM     58  C   UNL A   1      46.245  25.391  29.444  1.00  0.00     0.031 C 
ATOM     59  C   UNL A   1      46.557  27.630  30.464  1.00  0.00     0.037 A 
BRANCH  46  60
ATOM     60  C   UNL A   1      43.636  32.941  31.707  1.00  0.00     0.058 A 
ATOM     61  C   UNL A   1      44.100  34.021  30.939  1.00  0.00     0.135 A 
ATOM     62  C   UNL A   1      43.212  33.209  33.020  1.00  0.00     0.135 A 
ATOM     63  F   UNL A   1      44.533  33.821  29.683  1.00  0.00    -0.206 F 
ATOM     64  C   UNL A   1      44.166  35.309  31.460  1.00  0.00     0.059 A 
ATOM     65  C   UNL A   1      43.243  34.493  33.552  1.00  0.00     0.059 A 
ATOM     66  F   UNL A   1      42.759  32.214  33.800  1.00  0.00    -0.206 F 
ATOM     67  C   UNL A   1      43.736  35.537  32.769  1.00  0.00     0.060 A 
BRANCH  67  68
ATOM     68  S   UNL A   1      43.829  37.214  33.430  1.00  0.00     0.124 S 
ATOM     69  O   UNL A   1      42.677  37.237  34.326  1.00  0.00    -0.237 OA
ATOM     70  O   UNL A   1      45.135  37.221  34.079  1.00  0.00    -0.237 OA
ATOM     71  O   UNL A   1      43.717  38.055  32.243  1.00  0.00    -0.744 OA
ENDBRANCH  67  68
ENDBRANCH  46  60
BRANCH  47  72
ATOM     72  C   UNL A   1      42.706  23.792  27.781  1.00  0.00     0.058 A 
ATOM     73  C   UNL A   1      42.789  23.605  26.393  1.00  0.00     0.135 A 
ATOM     74  C   UNL A   1      42.503  22.655  28.581  1.00  0.00     0.135 A 
ATOM     75  F   UNL A   1      42.971  24.660  25.584  1.00  0.00    -0.206 F 
ATOM     76  C   UNL A   1      42.657  22.345  25.818  1.00  0.00     0.059 A 
ATOM     77  C   UNL A   1      42.397  21.382  28.032  1.00  0.00     0.059 A 
ATOM     78  F   UNL A   1      42.426  22.778  29.916  1.00  0.00    -0.206 F 
ATOM     79  C   UNL A   1      42.464  21.238  26.647  1.00  0.00     0.060 A 
BRANCH  79  80
ATOM     80  S   UNL A   1      42.335  19.602  25.893  1.00  0.00     0.124 S 
ATOM     81  O   UNL A   1      43.346  19.682  24.846  1.00  0.00    -0.237 OA
ATOM     82  O   UNL A   1      42.645  18.722  27.015  1.00  0.00    -0.237 OA
ATOM     83  O   UNL A   1      40.950  19.553  25.431  1.00  0.00    -0.744 OA
ENDBRANCH  79  80
ENDBRANCH  47  72
BRANCH  59  84
ATOM     84  C   UNL A   1      47.979  27.250  30.782  1.00  0.00     0.058 A 
ATOM     85  C   UNL A   1      48.335  26.658  32.003  1.00  0.00     0.135 A 
ATOM     86  C   UNL A   1      48.990  27.436  29.825  1.00  0.00     0.135 A 
ATOM     87  F   UNL A   1      47.410  26.460  32.956  1.00  0.00    -0.206 F 
ATOM     88  C   UNL A   1      49.650  26.289  32.274  1.00  0.00     0.059 A 
ATOM     89  C   UNL A   1      50.305  27.048  30.064  1.00  0.00     0.059 A 
ATOM     90  F   UNL A   1      48.702  27.988  28.635  1.00  0.00    -0.206 F 
ATOM     91  C   UNL A   1      50.627  26.485  31.297  1.00  0.00     0.060 A 
BRANCH  91  92
ATOM     92  S   UNL A   1      52.323  25.974  31.650  1.00  0.00     0.124 S 
ATOM     93  O   UNL A   1      52.707  26.923  32.690  1.00  0.00    -0.237 OA
ATOM     94  O   UNL A   1      52.147  24.592  32.087  1.00  0.00    -0.237 OA
ATOM     95  O   UNL A   1      53.001  26.138  30.368  1.00  0.00    -0.744 OA
ENDBRANCH  91  92
ENDBRANCH  59  84
ENDBRANCH  33  34
ENDBRANCH  26  28
ENDBRANCH  25  26
ENDBRANCH   1  25
TORSDOF 17
ENDMDL
