MODEL 1
REMARK VINA RESULT:     -13.0      0.000      0.000
REMARK SMILES Cc1ccccc1OCC(=O)N[C@@H](Cc1c[nH]c2ccccc12)C(=O)OCCOC(=O)c1ccc(-c2c3nc(c(-c4c(F)cc(S(=O)(=O)[O-])cc4F)c4ccc([nH]4)c(-c4c(F)cc(S(=O)(=O)[O-])cc4F)c4nc(c(-c5c(F)cc(S(=O)(=O)[O-])cc5F)c5ccc2[nH]5)C=C4)C=C3)cc1
REMARK SMILES IDX 27 1 26 2 24 3 25 4 13 5 12 6 10 7 11 8 9 10 8 11 7 12 1 13
REMARK SMILES IDX 2 14 3 15 4 16 6 17 5 18 14 19 15 20 16 21 23 22 17 23 18 24
REMARK SMILES IDX 22 25 19 27 21 28 20 29 28 30 29 31 30 32 31 33 32 34 33 35
REMARK SMILES IDX 97 36 34 37 96 38 35 39 36 40 37 41 90 42 38 43 95 44 89 45
REMARK SMILES IDX 91 46 39 47 94 48 88 49 87 50 40 52 74 53 53 54 73 55 54 56
REMARK SMILES IDX 57 57 72 58 92 59 55 60 56 61 71 63 93 64 58 65 41 66 42 67
REMARK SMILES IDX 51 68 43 69 44 70 50 71 52 72 45 73 46 74 47 75 48 76 49 77
REMARK SMILES IDX 75 78 76 79 85 80 77 81 78 82 84 83 86 84 79 85 80 86 81 87
REMARK SMILES IDX 82 88 83 89 59 90 60 91 69 92 61 93 62 94 68 95 70 96 63 97
REMARK SMILES IDX 64 98 65 99 66 100 67 101
REMARK H PARENT 12 9 17 26 91 51 57 62
REMARK Flexibility Score: inf
ROOT
ATOM      1  C   UNL A   1      39.821  22.222  26.042  1.00  0.00     0.274 C 
ENDROOT
BRANCH   1   2
ATOM      2  O   UNL A   1      38.426  21.806  26.110  1.00  0.00    -0.461 OA
BRANCH   2   3
ATOM      3  C   UNL A   1      37.168  22.224  25.862  1.00  0.00     0.329 C 
ATOM      4  O   UNL A   1      37.119  23.384  25.474  1.00  0.00    -0.250 OA
BRANCH   3   5
ATOM      5  C   UNL A   1      35.723  21.528  25.894  1.00  0.00     0.196 C 
BRANCH   5   6
ATOM      6  N   UNL A   1      35.077  19.786  24.810  1.00  0.00    -0.339 N 
ATOM      7  C   UNL A   1      33.761  19.300  24.130  1.00  0.00     0.258 C 
ATOM      8  O   UNL A   1      33.686  18.088  23.878  1.00  0.00    -0.271 OA
ATOM      9  H   UNL A   1      35.800  19.124  24.720  1.00  0.00     0.164 HD
BRANCH   7  10
ATOM     10  C   UNL A   1      32.429  20.291  23.731  1.00  0.00     0.329 C 
BRANCH  10  11
ATOM     11  O   UNL A   1      32.094  21.552  24.326  1.00  0.00    -0.484 OA
BRANCH  11  12
ATOM     12  C   UNL A   1      32.082  22.732  23.641  1.00  0.00     0.122 A 
ATOM     13  C   UNL A   1      34.597  22.946  23.043  1.00  0.00     0.048 C 
ATOM     14  C   UNL A   1      33.157  23.353  23.006  1.00  0.00    -0.009 A 
ATOM     15  C   UNL A   1      32.915  24.521  22.248  1.00  0.00     0.007 A 
ATOM     16  C   UNL A   1      31.664  25.122  22.181  1.00  0.00     0.001 A 
ATOM     17  C   UNL A   1      30.827  23.396  23.633  1.00  0.00     0.047 A 
ATOM     18  C   UNL A   1      30.617  24.577  22.903  1.00  0.00     0.004 A 
ENDBRANCH  11  12
ENDBRANCH  10  11
ENDBRANCH   7  10
ENDBRANCH   5   6
BRANCH   5  19
ATOM     19  C   UNL A   1      34.226  21.806  27.351  1.00  0.00     0.074 C 
BRANCH  19  20
ATOM     20  C   UNL A   1      33.219  23.522  27.122  1.00  0.00    -0.020 A 
ATOM     21  C   UNL A   1      31.760  23.578  27.331  1.00  0.00     0.087 A 
ATOM     22  C   UNL A   1      33.260  24.851  26.329  1.00  0.00     0.003 A 
ATOM     23  N   UNL A   1      31.067  24.580  26.804  1.00  0.00    -0.361 N 
ATOM     24  C   UNL A   1      31.942  25.411  26.244  1.00  0.00     0.046 A 
ATOM     25  C   UNL A   1      34.194  25.645  25.629  1.00  0.00     0.010 A 
ATOM     26  H   UNL A   1      30.089  24.688  26.824  1.00  0.00     0.166 HD
ATOM     27  C   UNL A   1      31.516  26.597  25.657  1.00  0.00     0.026 A 
ATOM     28  C   UNL A   1      33.788  26.897  25.055  1.00  0.00     0.001 A 
ATOM     29  C   UNL A   1      32.478  27.374  25.087  1.00  0.00     0.002 A 
ENDBRANCH  19  20
ENDBRANCH   5  19
ENDBRANCH   3   5
ENDBRANCH   2   3
ENDBRANCH   1   2
BRANCH   1  30
ATOM     30  C   UNL A   1      40.370  22.950  27.307  1.00  0.00     0.275 C 
BRANCH  30  31
ATOM     31  O   UNL A   1      41.215  24.174  27.209  1.00  0.00    -0.458 OA
BRANCH  31  32
ATOM     32  C   UNL A   1      41.225  25.314  26.429  1.00  0.00     0.338 C 
ATOM     33  O   UNL A   1      40.704  25.354  25.321  1.00  0.00    -0.246 OA
BRANCH  32  34
ATOM     34  C   UNL A   1      41.629  26.562  27.087  1.00  0.00     0.060 A 
ATOM     35  C   UNL A   1      43.231  27.308  27.327  1.00  0.00     0.016 A 
ATOM     36  C   UNL A   1      40.177  27.459  27.404  1.00  0.00     0.016 A 
ATOM     37  C   UNL A   1      43.172  29.112  27.877  1.00  0.00     0.010 A 
ATOM     38  C   UNL A   1      40.037  28.782  28.241  1.00  0.00     0.010 A 
ATOM     39  C   UNL A   1      41.375  29.570  28.610  1.00  0.00    -0.014 A 
BRANCH  39  40
ATOM     40  C   UNL A   1      40.969  29.562  30.529  1.00  0.00     0.031 A 
ATOM     41  C   UNL A   1      40.601  31.118  31.340  1.00  0.00     0.074 A 
ATOM     42  C   UNL A   1      41.074  28.715  31.669  1.00  0.00     0.049 A 
ATOM     43  N   UNL A   1      39.480  31.123  31.985  1.00  0.00    -0.248 NA
ATOM     44  C   UNL A   1      41.012  32.593  31.069  1.00  0.00     0.031 C 
ATOM     45  C   UNL A   1      40.250  28.755  32.915  1.00  0.00     0.029 A 
ATOM     46  N   UNL A   1      42.034  27.804  32.139  1.00  0.00    -0.354 N 
ATOM     47  C   UNL A   1      38.970  32.388  31.951  1.00  0.00     0.074 A 
ATOM     48  C   UNL A   1      39.839  33.240  31.207  1.00  0.00     0.031 C 
ATOM     49  C   UNL A   1      40.868  28.168  33.958  1.00  0.00     0.029 A 
ATOM     50  C   UNL A   1      42.194  27.816  33.529  1.00  0.00     0.049 A 
ATOM     51  H   UNL A   1      42.550  27.212  31.544  1.00  0.00     0.167 HD
ATOM     52  C   UNL A   1      38.002  32.680  32.826  1.00  0.00     0.037 A 
ATOM     53  C   UNL A   1      43.352  27.962  34.250  1.00  0.00     0.037 A 
ATOM     54  C   UNL A   1      38.348  32.004  34.059  1.00  0.00     0.049 A 
ATOM     55  C   UNL A   1      43.204  29.113  35.223  1.00  0.00     0.074 A 
ATOM     56  C   UNL A   1      38.015  30.821  34.680  1.00  0.00     0.029 A 
ATOM     57  N   UNL A   1      39.580  32.370  34.574  1.00  0.00    -0.354 N 
ATOM     58  N   UNL A   1      42.285  30.030  35.062  1.00  0.00    -0.248 NA
ATOM     59  C   UNL A   1      43.979  29.320  36.441  1.00  0.00     0.031 C 
ATOM     60  C   UNL A   1      39.074  30.519  35.602  1.00  0.00     0.029 A 
ATOM     61  C   UNL A   1      40.033  31.525  35.547  1.00  0.00     0.049 A 
ATOM     62  H   UNL A   1      40.082  33.160  34.268  1.00  0.00     0.167 HD
ATOM     63  C   UNL A   1      42.256  30.870  36.139  1.00  0.00     0.074 A 
ATOM     64  C   UNL A   1      43.361  30.401  36.958  1.00  0.00     0.031 C 
ATOM     65  C   UNL A   1      41.297  31.844  36.235  1.00  0.00     0.037 A 
BRANCH  52  66
ATOM     66  C   UNL A   1      36.799  33.474  32.482  1.00  0.00     0.058 A 
ATOM     67  C   UNL A   1      36.589  34.670  33.177  1.00  0.00     0.135 A 
ATOM     68  C   UNL A   1      35.733  33.028  31.659  1.00  0.00     0.135 A 
ATOM     69  F   UNL A   1      37.523  35.151  34.008  1.00  0.00    -0.206 F 
ATOM     70  C   UNL A   1      35.402  35.379  33.087  1.00  0.00     0.059 A 
ATOM     71  C   UNL A   1      34.537  33.745  31.530  1.00  0.00     0.059 A 
ATOM     72  F   UNL A   1      35.797  31.853  31.007  1.00  0.00    -0.206 F 
ATOM     73  C   UNL A   1      34.380  34.915  32.266  1.00  0.00     0.060 A 
BRANCH  73  74
ATOM     74  S   UNL A   1      32.859  35.879  32.222  1.00  0.00     0.124 S 
ATOM     75  O   UNL A   1      33.134  36.919  33.207  1.00  0.00    -0.237 OA
ATOM     76  O   UNL A   1      32.818  36.316  30.831  1.00  0.00    -0.237 OA
ATOM     77  O   UNL A   1      31.830  34.916  32.604  1.00  0.00    -0.744 OA
ENDBRANCH  73  74
ENDBRANCH  52  66
BRANCH  53  78
ATOM     78  C   UNL A   1      44.638  27.479  33.648  1.00  0.00     0.058 A 
ATOM     79  C   UNL A   1      44.788  26.092  33.418  1.00  0.00     0.135 A 
ATOM     80  C   UNL A   1      45.475  28.338  32.913  1.00  0.00     0.135 A 
ATOM     81  F   UNL A   1      44.073  25.212  34.141  1.00  0.00    -0.206 F 
ATOM     82  C   UNL A   1      45.540  25.590  32.350  1.00  0.00     0.059 A 
ATOM     83  C   UNL A   1      46.271  27.854  31.851  1.00  0.00     0.059 A 
ATOM     84  F   UNL A   1      45.318  29.667  33.025  1.00  0.00    -0.206 F 
ATOM     85  C   UNL A   1      46.221  26.485  31.523  1.00  0.00     0.060 A 
BRANCH  85  86
ATOM     86  S   UNL A   1      46.557  25.944  29.801  1.00  0.00     0.124 S 
ATOM     87  O   UNL A   1      47.972  25.603  29.867  1.00  0.00    -0.237 OA
ATOM     88  O   UNL A   1      45.648  24.813  29.623  1.00  0.00    -0.237 OA
ATOM     89  O   UNL A   1      46.226  27.119  28.999  1.00  0.00    -0.744 OA
ENDBRANCH  85  86
ENDBRANCH  53  78
BRANCH  65  90
ATOM     90  C   UNL A   1      41.413  33.168  36.999  1.00  0.00     0.058 A 
ATOM     91  C   UNL A   1      41.205  33.329  38.376  1.00  0.00     0.135 A 
ATOM     92  C   UNL A   1      41.820  34.372  36.348  1.00  0.00     0.135 A 
ATOM     93  F   UNL A   1      40.948  32.309  39.194  1.00  0.00    -0.206 F 
ATOM     94  C   UNL A   1      41.281  34.565  39.018  1.00  0.00     0.059 A 
ATOM     95  C   UNL A   1      41.926  35.608  36.969  1.00  0.00     0.059 A 
ATOM     96  F   UNL A   1      42.209  34.428  35.071  1.00  0.00    -0.206 F 
ATOM     97  C   UNL A   1      41.624  35.700  38.305  1.00  0.00     0.060 A 
BRANCH  97  98
ATOM     98  S   UNL A   1      41.677  37.275  39.147  1.00  0.00     0.124 S 
ATOM     99  O   UNL A   1      41.923  36.858  40.524  1.00  0.00    -0.237 OA
ATOM    100  O   UNL A   1      42.792  37.935  38.474  1.00  0.00    -0.237 OA
ATOM    101  O   UNL A   1      40.361  37.850  38.889  1.00  0.00    -0.744 OA
ENDBRANCH  97  98
ENDBRANCH  65  90
ENDBRANCH  39  40
ENDBRANCH  32  34
ENDBRANCH  31  32
ENDBRANCH  30  31
ENDBRANCH   1  30
TORSDOF 20
ENDMDL
MODEL 2
REMARK VINA RESULT:     -12.9      4.234      6.166
REMARK SMILES Cc1ccccc1OCC(=O)N[C@@H](Cc1c[nH]c2ccccc12)C(=O)OCCOC(=O)c1ccc(-c2c3nc(c(-c4c(F)cc(S(=O)(=O)[O-])cc4F)c4ccc([nH]4)c(-c4c(F)cc(S(=O)(=O)[O-])cc4F)c4nc(c(-c5c(F)cc(S(=O)(=O)[O-])cc5F)c5ccc2[nH]5)C=C4)C=C3)cc1
REMARK SMILES IDX 27 1 26 2 24 3 25 4 13 5 12 6 10 7 11 8 9 10 8 11 7 12 1 13
REMARK SMILES IDX 2 14 3 15 4 16 6 17 5 18 14 19 15 20 16 21 23 22 17 23 18 24
REMARK SMILES IDX 22 25 19 27 21 28 20 29 28 30 29 31 30 32 31 33 32 34 33 35
REMARK SMILES IDX 97 36 34 37 96 38 35 39 36 40 37 41 90 42 38 43 95 44 89 45
REMARK SMILES IDX 91 46 39 47 94 48 88 49 87 50 40 52 74 53 53 54 73 55 54 56
REMARK SMILES IDX 57 57 72 58 92 59 55 60 56 61 71 63 93 64 58 65 41 66 42 67
REMARK SMILES IDX 51 68 43 69 44 70 50 71 52 72 45 73 46 74 47 75 48 76 49 77
REMARK SMILES IDX 75 78 76 79 85 80 77 81 78 82 84 83 86 84 79 85 80 86 81 87
REMARK SMILES IDX 82 88 83 89 59 90 60 91 69 92 61 93 62 94 68 95 70 96 63 97
REMARK SMILES IDX 64 98 65 99 66 100 67 101
REMARK H PARENT 12 9 17 26 91 51 57 62
REMARK Flexibility Score: inf
ROOT
ATOM      1  C   UNL A   1      40.189  21.441  26.669  1.00  0.00     0.274 C 
ENDROOT
BRANCH   1   2
ATOM      2  O   UNL A   1      39.228  22.242  25.922  1.00  0.00    -0.461 OA
BRANCH   2   3
ATOM      3  C   UNL A   1      38.176  23.072  26.071  1.00  0.00     0.329 C 
ATOM      4  O   UNL A   1      38.492  24.165  26.523  1.00  0.00    -0.250 OA
BRANCH   3   5
ATOM      5  C   UNL A   1      36.611  22.981  25.729  1.00  0.00     0.196 C 
BRANCH   5   6
ATOM      6  N   UNL A   1      34.962  22.971  27.109  1.00  0.00    -0.339 N 
ATOM      7  C   UNL A   1      33.638  22.165  27.285  1.00  0.00     0.258 C 
ATOM      8  O   UNL A   1      32.782  22.669  28.028  1.00  0.00    -0.271 OA
ATOM      9  H   UNL A   1      35.071  23.650  27.812  1.00  0.00     0.164 HD
BRANCH   7  10
ATOM     10  C   UNL A   1      33.277  20.679  26.529  1.00  0.00     0.329 C 
BRANCH  10  11
ATOM     11  O   UNL A   1      34.107  19.968  25.600  1.00  0.00    -0.484 OA
BRANCH  11  12
ATOM     12  C   UNL A   1      33.625  19.305  24.509  1.00  0.00     0.122 A 
ATOM     13  C   UNL A   1      34.934  17.075  24.705  1.00  0.00     0.048 C 
ATOM     14  C   UNL A   1      33.921  18.002  24.111  1.00  0.00    -0.009 A 
ATOM     15  C   UNL A   1      33.227  17.455  23.008  1.00  0.00     0.007 A 
ATOM     16  C   UNL A   1      32.325  18.195  22.252  1.00  0.00     0.001 A 
ATOM     17  C   UNL A   1      32.765  20.077  23.684  1.00  0.00     0.047 A 
ATOM     18  C   UNL A   1      32.114  19.525  22.570  1.00  0.00     0.004 A 
ENDBRANCH  11  12
ENDBRANCH  10  11
ENDBRANCH   7  10
ENDBRANCH   5   6
BRANCH   5  19
ATOM     19  C   UNL A   1      35.709  23.342  23.859  1.00  0.00     0.074 C 
BRANCH  19  20
ATOM     20  C   UNL A   1      33.942  24.271  24.008  1.00  0.00    -0.020 A 
ATOM     21  C   UNL A   1      33.062  24.421  22.832  1.00  0.00     0.087 A 
ATOM     22  C   UNL A   1      33.223  25.380  24.815  1.00  0.00     0.003 A 
ATOM     23  N   UNL A   1      32.119  25.355  22.844  1.00  0.00    -0.361 N 
ATOM     24  C   UNL A   1      32.135  25.917  24.049  1.00  0.00     0.046 A 
ATOM     25  C   UNL A   1      33.350  26.049  26.051  1.00  0.00     0.010 A 
ATOM     26  H   UNL A   1      31.520  25.587  22.098  1.00  0.00     0.166 HD
ATOM     27  C   UNL A   1      31.210  26.898  24.385  1.00  0.00     0.026 A 
ATOM     28  C   UNL A   1      32.379  27.032  26.442  1.00  0.00     0.001 A 
ATOM     29  C   UNL A   1      31.316  27.433  25.633  1.00  0.00     0.002 A 
ENDBRANCH  19  20
ENDBRANCH   5  19
ENDBRANCH   3   5
ENDBRANCH   2   3
ENDBRANCH   1   2
BRANCH   1  30
ATOM     30  C   UNL A   1      41.690  21.752  26.385  1.00  0.00     0.275 C 
BRANCH  30  31
ATOM     31  O   UNL A   1      42.439  22.792  27.147  1.00  0.00    -0.458 OA
BRANCH  31  32
ATOM     32  C   UNL A   1      43.202  23.898  26.832  1.00  0.00     0.338 C 
ATOM     33  O   UNL A   1      43.002  24.566  25.825  1.00  0.00    -0.246 OA
BRANCH  32  34
ATOM     34  C   UNL A   1      44.077  24.420  27.888  1.00  0.00     0.060 A 
ATOM     35  C   UNL A   1      45.783  24.088  28.284  1.00  0.00     0.016 A 
ATOM     36  C   UNL A   1      43.240  25.751  28.626  1.00  0.00     0.016 A 
ATOM     37  C   UNL A   1      46.556  25.319  29.486  1.00  0.00     0.010 A 
ATOM     38  C   UNL A   1      43.661  26.548  29.913  1.00  0.00     0.010 A 
ATOM     39  C   UNL A   1      45.145  26.336  30.462  1.00  0.00    -0.014 A 
BRANCH  39  40
ATOM     40  C   UNL A   1      44.519  25.845  32.254  1.00  0.00     0.031 A 
ATOM     41  C   UNL A   1      44.459  27.108  33.525  1.00  0.00     0.074 A 
ATOM     42  C   UNL A   1      44.267  24.691  33.051  1.00  0.00     0.049 A 
ATOM     43  N   UNL A   1      43.305  27.223  34.098  1.00  0.00    -0.248 NA
ATOM     44  C   UNL A   1      45.259  28.419  33.774  1.00  0.00     0.031 C 
ATOM     45  C   UNL A   1      43.334  24.568  34.212  1.00  0.00     0.029 A 
ATOM     46  N   UNL A   1      44.902  23.450  33.221  1.00  0.00    -0.354 N 
ATOM     47  C   UNL A   1      43.139  28.526  34.470  1.00  0.00     0.074 A 
ATOM     48  C   UNL A   1      44.279  29.290  34.081  1.00  0.00     0.031 C 
ATOM     49  C   UNL A   1      43.652  23.538  35.019  1.00  0.00     0.029 A 
ATOM     50  C   UNL A   1      44.888  22.983  34.541  1.00  0.00     0.049 A 
ATOM     51  H   UNL A   1      45.321  22.954  32.480  1.00  0.00     0.167 HD
ATOM     52  C   UNL A   1      42.176  28.787  35.361  1.00  0.00     0.037 A 
ATOM     53  C   UNL A   1      45.949  22.569  35.306  1.00  0.00     0.037 A 
ATOM     54  C   UNL A   1      42.187  27.693  36.309  1.00  0.00     0.049 A 
ATOM     55  C   UNL A   1      45.978  23.354  36.602  1.00  0.00     0.074 A 
ATOM     56  C   UNL A   1      41.494  26.518  36.489  1.00  0.00     0.029 A 
ATOM     57  N   UNL A   1      43.399  27.523  36.956  1.00  0.00    -0.354 N 
ATOM     58  N   UNL A   1      45.347  24.492  36.725  1.00  0.00    -0.248 NA
ATOM     59  C   UNL A   1      46.626  22.947  37.844  1.00  0.00     0.031 C 
ATOM     60  C   UNL A   1      42.321  25.662  37.293  1.00  0.00     0.029 A 
ATOM     61  C   UNL A   1      43.502  26.327  37.607  1.00  0.00     0.049 A 
ATOM     62  H   UNL A   1      44.118  28.197  36.947  1.00  0.00     0.167 HD
ATOM     63  C   UNL A   1      45.399  24.928  38.019  1.00  0.00     0.074 A 
ATOM     64  C   UNL A   1      46.242  23.940  38.670  1.00  0.00     0.031 C 
ATOM     65  C   UNL A   1      44.712  26.050  38.402  1.00  0.00     0.037 A 
BRANCH  52  66
ATOM     66  C   UNL A   1      41.263  29.951  35.262  1.00  0.00     0.058 A 
ATOM     67  C   UNL A   1      41.417  30.979  36.198  1.00  0.00     0.135 A 
ATOM     68  C   UNL A   1      40.114  30.020  34.433  1.00  0.00     0.135 A 
ATOM     69  F   UNL A   1      42.450  30.980  37.051  1.00  0.00    -0.206 F 
ATOM     70  C   UNL A   1      40.494  32.004  36.329  1.00  0.00     0.059 A 
ATOM     71  C   UNL A   1      39.184  31.063  34.528  1.00  0.00     0.059 A 
ATOM     72  F   UNL A   1      39.827  29.044  33.552  1.00  0.00    -0.206 F 
ATOM     73  C   UNL A   1      39.381  32.043  35.496  1.00  0.00     0.060 A 
BRANCH  73  74
ATOM     74  S   UNL A   1      38.214  33.393  35.744  1.00  0.00     0.124 S 
ATOM     75  O   UNL A   1      38.715  34.001  36.972  1.00  0.00    -0.237 OA
ATOM     76  O   UNL A   1      38.396  34.178  34.528  1.00  0.00    -0.237 OA
ATOM     77  O   UNL A   1      36.926  32.717  35.864  1.00  0.00    -0.744 OA
ENDBRANCH  73  74
ENDBRANCH  52  66
BRANCH  53  78
ATOM     78  C   UNL A   1      47.136  21.960  34.620  1.00  0.00     0.058 A 
ATOM     79  C   UNL A   1      48.267  22.776  34.393  1.00  0.00     0.135 A 
ATOM     80  C   UNL A   1      47.343  20.569  34.606  1.00  0.00     0.135 A 
ATOM     81  F   UNL A   1      48.126  24.111  34.318  1.00  0.00    -0.206 F 
ATOM     82  C   UNL A   1      49.569  22.264  34.400  1.00  0.00     0.059 A 
ATOM     83  C   UNL A   1      48.646  20.023  34.579  1.00  0.00     0.059 A 
ATOM     84  F   UNL A   1      46.323  19.746  34.902  1.00  0.00    -0.206 F 
ATOM     85  C   UNL A   1      49.755  20.890  34.568  1.00  0.00     0.060 A 
BRANCH  85  86
ATOM     86  S   UNL A   1      51.351  20.344  35.292  1.00  0.00     0.124 S 
ATOM     87  O   UNL A   1      51.226  18.893  35.228  1.00  0.00    -0.237 OA
ATOM     88  O   UNL A   1      52.344  20.927  34.391  1.00  0.00    -0.237 OA
ATOM     89  O   UNL A   1      51.338  20.922  36.633  1.00  0.00    -0.744 OA
ENDBRANCH  85  86
ENDBRANCH  53  78
BRANCH  65  90
ATOM     90  C   UNL A   1      45.064  26.984  39.567  1.00  0.00     0.058 A 
ATOM     91  C   UNL A   1      44.726  26.765  40.909  1.00  0.00     0.135 A 
ATOM     92  C   UNL A   1      45.849  28.160  39.370  1.00  0.00     0.135 A 
ATOM     93  F   UNL A   1      44.112  25.660  41.331  1.00  0.00    -0.206 F 
ATOM     94  C   UNL A   1      45.033  27.666  41.929  1.00  0.00     0.059 A 
ATOM     95  C   UNL A   1      46.187  29.060  40.369  1.00  0.00     0.059 A 
ATOM     96  F   UNL A   1      46.402  28.493  38.200  1.00  0.00    -0.206 F 
ATOM     97  C   UNL A   1      45.746  28.819  41.647  1.00  0.00     0.060 A 
BRANCH  97  98
ATOM     98  S   UNL A   1      46.092  29.973  42.967  1.00  0.00     0.124 S 
ATOM     99  O   UNL A   1      46.385  31.190  42.215  1.00  0.00    -0.237 OA
ATOM    100  O   UNL A   1      44.831  29.970  43.703  1.00  0.00    -0.237 OA
ATOM    101  O   UNL A   1      47.226  29.374  43.662  1.00  0.00    -0.744 OA
ENDBRANCH  97  98
ENDBRANCH  65  90
ENDBRANCH  39  40
ENDBRANCH  32  34
ENDBRANCH  31  32
ENDBRANCH  30  31
ENDBRANCH   1  30
TORSDOF 20
ENDMDL
MODEL 3
REMARK VINA RESULT:     -12.9      5.950     11.100
REMARK SMILES Cc1ccccc1OCC(=O)N[C@@H](Cc1c[nH]c2ccccc12)C(=O)OCCOC(=O)c1ccc(-c2c3nc(c(-c4c(F)cc(S(=O)(=O)[O-])cc4F)c4ccc([nH]4)c(-c4c(F)cc(S(=O)(=O)[O-])cc4F)c4nc(c(-c5c(F)cc(S(=O)(=O)[O-])cc5F)c5ccc2[nH]5)C=C4)C=C3)cc1
REMARK SMILES IDX 27 1 26 2 24 3 25 4 13 5 12 6 10 7 11 8 9 10 8 11 7 12 1 13
REMARK SMILES IDX 2 14 3 15 4 16 6 17 5 18 14 19 15 20 16 21 23 22 17 23 18 24
REMARK SMILES IDX 22 25 19 27 21 28 20 29 28 30 29 31 30 32 31 33 32 34 33 35
REMARK SMILES IDX 97 36 34 37 96 38 35 39 36 40 37 41 90 42 38 43 95 44 89 45
REMARK SMILES IDX 91 46 39 47 94 48 88 49 87 50 40 52 74 53 53 54 73 55 54 56
REMARK SMILES IDX 57 57 72 58 92 59 55 60 56 61 71 63 93 64 58 65 41 66 42 67
REMARK SMILES IDX 51 68 43 69 44 70 50 71 52 72 45 73 46 74 47 75 48 76 49 77
REMARK SMILES IDX 75 78 76 79 85 80 77 81 78 82 84 83 86 84 79 85 80 86 81 87
REMARK SMILES IDX 82 88 83 89 59 90 60 91 69 92 61 93 62 94 68 95 70 96 63 97
REMARK SMILES IDX 64 98 65 99 66 100 67 101
REMARK H PARENT 12 9 17 26 91 51 57 62
REMARK Flexibility Score: inf
ROOT
ATOM      1  C   UNL A   1      34.911  29.517  27.600  1.00  0.00     0.274 C 
ENDROOT
BRANCH   1   2
ATOM      2  O   UNL A   1      33.539  29.587  27.114  1.00  0.00    -0.461 OA
BRANCH   2   3
ATOM      3  C   UNL A   1      32.483  28.823  26.767  1.00  0.00     0.329 C 
ATOM      4  O   UNL A   1      31.733  28.592  27.706  1.00  0.00    -0.250 OA
BRANCH   3   5
ATOM      5  C   UNL A   1      31.947  28.201  25.389  1.00  0.00     0.196 C 
BRANCH   5   6
ATOM      6  N   UNL A   1      32.826  28.382  23.434  1.00  0.00    -0.339 N 
ATOM      7  C   UNL A   1      33.404  27.412  22.358  1.00  0.00     0.258 C 
ATOM      8  O   UNL A   1      34.118  27.923  21.483  1.00  0.00    -0.271 OA
ATOM      9  H   UNL A   1      32.876  29.321  23.143  1.00  0.00     0.164 HD
BRANCH   7  10
ATOM     10  C   UNL A   1      33.149  25.725  22.310  1.00  0.00     0.329 C 
BRANCH  10  11
ATOM     11  O   UNL A   1      34.160  24.707  22.310  1.00  0.00    -0.484 OA
BRANCH  11  12
ATOM     12  C   UNL A   1      33.994  23.478  22.879  1.00  0.00     0.122 A 
ATOM     13  C   UNL A   1      36.462  22.866  23.390  1.00  0.00     0.048 C 
ATOM     14  C   UNL A   1      34.981  22.656  23.423  1.00  0.00    -0.009 A 
ATOM     15  C   UNL A   1      34.589  21.463  24.071  1.00  0.00     0.007 A 
ATOM     16  C   UNL A   1      33.268  21.034  24.110  1.00  0.00     0.001 A 
ATOM     17  C   UNL A   1      32.660  22.993  22.854  1.00  0.00     0.047 A 
ATOM     18  C   UNL A   1      32.298  21.785  23.471  1.00  0.00     0.004 A 
ENDBRANCH  11  12
ENDBRANCH  10  11
ENDBRANCH   7  10
ENDBRANCH   5   6
BRANCH   5  19
ATOM     19  C   UNL A   1      30.541  26.646  25.173  1.00  0.00     0.074 C 
BRANCH  19  20
ATOM     20  C   UNL A   1      31.243  24.867  25.764  1.00  0.00    -0.020 A 
ATOM     21  C   UNL A   1      30.345  23.854  26.352  1.00  0.00     0.087 A 
ATOM     22  C   UNL A   1      32.526  24.194  26.311  1.00  0.00     0.003 A 
ATOM     23  N   UNL A   1      30.863  22.876  27.086  1.00  0.00    -0.361 N 
ATOM     24  C   UNL A   1      32.186  23.003  27.035  1.00  0.00     0.046 A 
ATOM     25  C   UNL A   1      33.918  24.429  26.350  1.00  0.00     0.010 A 
ATOM     26  H   UNL A   1      30.360  22.187  27.576  1.00  0.00     0.166 HD
ATOM     27  C   UNL A   1      33.010  22.078  27.664  1.00  0.00     0.026 A 
ATOM     28  C   UNL A   1      34.795  23.465  26.953  1.00  0.00     0.001 A 
ATOM     29  C   UNL A   1      34.351  22.301  27.579  1.00  0.00     0.002 A 
ENDBRANCH  19  20
ENDBRANCH   5  19
ENDBRANCH   3   5
ENDBRANCH   2   3
ENDBRANCH   1   2
BRANCH   1  30
ATOM     30  C   UNL A   1      35.421  30.780  28.359  1.00  0.00     0.275 C 
BRANCH  30  31
ATOM     31  O   UNL A   1      36.633  30.743  29.228  1.00  0.00    -0.458 OA
BRANCH  31  32
ATOM     32  C   UNL A   1      36.908  30.981  30.559  1.00  0.00     0.338 C 
ATOM     33  O   UNL A   1      36.552  30.218  31.449  1.00  0.00    -0.246 OA
BRANCH  32  34
ATOM     34  C   UNL A   1      37.890  32.031  30.853  1.00  0.00     0.060 A 
ATOM     35  C   UNL A   1      37.695  33.705  31.435  1.00  0.00     0.016 A 
ATOM     36  C   UNL A   1      39.456  31.281  30.822  1.00  0.00     0.016 A 
ATOM     37  C   UNL A   1      39.291  34.508  32.041  1.00  0.00     0.010 A 
ATOM     38  C   UNL A   1      40.855  31.990  30.906  1.00  0.00     0.010 A 
ATOM     39  C   UNL A   1      40.884  33.522  31.354  1.00  0.00    -0.014 A 
BRANCH  39  40
ATOM     40  C   UNL A   1      41.879  34.076  29.758  1.00  0.00     0.031 A 
ATOM     41  C   UNL A   1      43.483  33.342  29.442  1.00  0.00     0.074 A 
ATOM     42  C   UNL A   1      41.885  35.103  28.771  1.00  0.00     0.049 A 
ATOM     43  N   UNL A   1      43.597  32.810  28.268  1.00  0.00    -0.248 NA
ATOM     44  C   UNL A   1      44.587  32.738  30.357  1.00  0.00     0.031 C 
ATOM     45  C   UNL A   1      42.438  35.032  27.384  1.00  0.00     0.029 A 
ATOM     46  N   UNL A   1      41.656  36.488  28.784  1.00  0.00    -0.354 N 
ATOM     47  C   UNL A   1      44.457  31.755  28.356  1.00  0.00     0.074 A 
ATOM     48  C   UNL A   1      44.905  31.606  29.702  1.00  0.00     0.031 C 
ATOM     49  C   UNL A   1      42.711  36.250  26.878  1.00  0.00     0.029 A 
ATOM     50  C   UNL A   1      42.495  37.209  27.927  1.00  0.00     0.049 A 
ATOM     51  H   UNL A   1      40.969  36.914  29.347  1.00  0.00     0.167 HD
ATOM     52  C   UNL A   1      44.964  31.284  27.211  1.00  0.00     0.037 A 
ATOM     53  C   UNL A   1      43.288  38.289  28.225  1.00  0.00     0.037 A 
ATOM     54  C   UNL A   1      45.213  32.435  26.370  1.00  0.00     0.049 A 
ATOM     55  C   UNL A   1      44.716  38.000  27.812  1.00  0.00     0.074 A 
ATOM     56  C   UNL A   1      44.558  33.094  25.354  1.00  0.00     0.029 A 
ATOM     57  N   UNL A   1      46.079  33.361  26.927  1.00  0.00    -0.354 N 
ATOM     58  N   UNL A   1      45.136  36.777  27.614  1.00  0.00    -0.248 NA
ATOM     59  C   UNL A   1      45.753  38.988  27.535  1.00  0.00     0.031 C 
ATOM     60  C   UNL A   1      45.090  34.427  25.307  1.00  0.00     0.029 A 
ATOM     61  C   UNL A   1      46.073  34.565  26.282  1.00  0.00     0.049 A 
ATOM     62  H   UNL A   1      46.643  33.171  27.711  1.00  0.00     0.167 HD
ATOM     63  C   UNL A   1      46.406  36.785  27.110  1.00  0.00     0.074 A 
ATOM     64  C   UNL A   1      46.757  38.194  27.113  1.00  0.00     0.031 C 
ATOM     65  C   UNL A   1      47.007  35.615  26.725  1.00  0.00     0.037 A 
BRANCH  52  66
ATOM     66  C   UNL A   1      45.116  29.839  26.916  1.00  0.00     0.058 A 
ATOM     67  C   UNL A   1      46.402  29.367  26.634  1.00  0.00     0.135 A 
ATOM     68  C   UNL A   1      44.048  28.934  26.692  1.00  0.00     0.135 A 
ATOM     69  F   UNL A   1      47.471  30.161  26.777  1.00  0.00    -0.206 F 
ATOM     70  C   UNL A   1      46.630  28.091  26.143  1.00  0.00     0.059 A 
ATOM     71  C   UNL A   1      44.259  27.629  26.226  1.00  0.00     0.059 A 
ATOM     72  F   UNL A   1      42.767  29.308  26.858  1.00  0.00    -0.206 F 
ATOM     73  C   UNL A   1      45.559  27.227  25.941  1.00  0.00     0.060 A 
BRANCH  73  74
ATOM     74  S   UNL A   1      45.933  25.594  25.278  1.00  0.00     0.124 S 
ATOM     75  O   UNL A   1      44.634  25.177  24.759  1.00  0.00    -0.237 OA
ATOM     76  O   UNL A   1      46.949  25.898  24.277  1.00  0.00    -0.237 OA
ATOM     77  O   UNL A   1      46.406  24.849  26.441  1.00  0.00    -0.744 OA
ENDBRANCH  73  74
ENDBRANCH  52  66
BRANCH  53  78
ATOM     78  C   UNL A   1      42.860  39.213  29.326  1.00  0.00     0.058 A 
ATOM     79  C   UNL A   1      43.590  39.191  30.536  1.00  0.00     0.135 A 
ATOM     80  C   UNL A   1      42.097  40.365  29.065  1.00  0.00     0.135 A 
ATOM     81  F   UNL A   1      44.280  38.090  30.883  1.00  0.00    -0.206 F 
ATOM     82  C   UNL A   1      43.759  40.335  31.325  1.00  0.00     0.059 A 
ATOM     83  C   UNL A   1      42.222  41.523  29.865  1.00  0.00     0.059 A 
ATOM     84  F   UNL A   1      41.452  40.479  27.892  1.00  0.00    -0.206 F 
ATOM     85  C   UNL A   1      43.130  41.520  30.941  1.00  0.00     0.060 A 
BRANCH  85  86
ATOM     86  S   UNL A   1      43.901  43.093  31.492  1.00  0.00     0.124 S 
ATOM     87  O   UNL A   1      45.210  43.023  30.855  1.00  0.00    -0.237 OA
ATOM     88  O   UNL A   1      42.998  44.113  30.956  1.00  0.00    -0.237 OA
ATOM     89  O   UNL A   1      43.898  42.988  32.948  1.00  0.00    -0.744 OA
ENDBRANCH  85  86
ENDBRANCH  53  78
BRANCH  65  90
ATOM     90  C   UNL A   1      48.514  35.333  26.683  1.00  0.00     0.058 A 
ATOM     91  C   UNL A   1      49.336  35.490  25.559  1.00  0.00     0.135 A 
ATOM     92  C   UNL A   1      49.231  34.936  27.852  1.00  0.00     0.135 A 
ATOM     93  F   UNL A   1      48.894  35.980  24.401  1.00  0.00    -0.206 F 
ATOM     94  C   UNL A   1      50.696  35.180  25.560  1.00  0.00     0.059 A 
ATOM     95  C   UNL A   1      50.587  34.644  27.885  1.00  0.00     0.059 A 
ATOM     96  F   UNL A   1      48.683  34.862  29.068  1.00  0.00    -0.206 F 
ATOM     97  C   UNL A   1      51.308  34.740  26.721  1.00  0.00     0.060 A 
BRANCH  97  98
ATOM     98  S   UNL A   1      53.044  34.315  26.683  1.00  0.00     0.124 S 
ATOM     99  O   UNL A   1      53.072  33.315  25.620  1.00  0.00    -0.237 OA
ATOM    100  O   UNL A   1      53.658  35.600  26.363  1.00  0.00    -0.237 OA
ATOM    101  O   UNL A   1      53.306  33.812  28.027  1.00  0.00    -0.744 OA
ENDBRANCH  97  98
ENDBRANCH  65  90
ENDBRANCH  39  40
ENDBRANCH  32  34
ENDBRANCH  31  32
ENDBRANCH  30  31
ENDBRANCH   1  30
TORSDOF 20
ENDMDL
