MODEL 1
REMARK VINA RESULT:     -11.3      0.000      0.000
REMARK SMILES CCOc1cccc(-c2ccc([C@@H](C)C(=O)OCCOC(=O)c3ccc(-c4c5nc(c(-c6c(F)cc(S(=O)(=O)[O-])cc6F)c6ccc([nH]6)c(-c6c(F)cc(S(=O)(=O)[O-])cc6F)c6nc(c(-c7c(F)cc(S(=O)(=O)[O-])cc7F)c7ccc4[nH]7)C=C6)C=C5)cc3)cc2F)c1
REMARK SMILES IDX 18 1 17 2 15 3 16 4 13 5 14 6 12 7 9 8 10 9 90 10 11 11
REMARK SMILES IDX 89 12 91 13 8 14 4 15 5 16 92 17 6 18 7 19 3 20 2 21 1 22
REMARK SMILES IDX 19 23 20 24 21 25 22 26 23 27 24 28 88 29 25 30 87 31 26 32
REMARK SMILES IDX 27 33 28 34 81 35 29 36 86 37 80 38 82 39 30 40 85 41 79 42
REMARK SMILES IDX 78 43 31 45 65 46 44 47 64 48 45 49 48 50 63 51 83 52 46 53
REMARK SMILES IDX 47 54 62 56 84 57 49 58 32 59 33 60 42 61 34 62 35 63 41 64
REMARK SMILES IDX 43 65 36 66 37 67 38 68 39 69 40 70 66 71 67 72 76 73 68 74
REMARK SMILES IDX 69 75 75 76 77 77 70 78 71 79 72 80 73 81 74 82 50 83 51 84
REMARK SMILES IDX 60 85 52 86 53 87 59 88 61 89 54 90 55 91 56 92 57 93 58 94
REMARK H PARENT 82 44 48 55
REMARK Flexibility Score: inf
ROOT
ATOM      1  C   UNL A   1      43.924  22.604  24.810  1.00  0.00     0.274 C 
ENDROOT
BRANCH   1   2
ATOM      2  O   UNL A   1      43.726  21.852  26.023  1.00  0.00    -0.462 OA
BRANCH   2   3
ATOM      3  C   UNL A   1      43.002  20.706  25.919  1.00  0.00     0.313 C 
ATOM      4  O   UNL A   1      43.199  19.847  25.064  1.00  0.00    -0.252 OA
BRANCH   3   5
ATOM      5  C   UNL A   1      41.858  20.602  26.921  1.00  0.00     0.126 C 
ATOM      6  C   UNL A   1      41.913  19.248  27.628  1.00  0.00     0.025 C 
BRANCH   5   7
ATOM      7  C   UNL A   1      40.467  20.921  26.394  1.00  0.00    -0.031 A 
ATOM      8  C   UNL A   1      37.855  21.456  25.376  1.00  0.00     0.018 A 
ATOM      9  C   UNL A   1      38.600  22.448  26.037  1.00  0.00     0.012 A 
ATOM     10  C   UNL A   1      38.454  20.198  25.237  1.00  0.00     0.131 A 
ATOM     11  C   UNL A   1      39.884  22.187  26.534  1.00  0.00     0.005 A 
ATOM     12  C   UNL A   1      39.732  19.930  25.729  1.00  0.00     0.044 A 
ATOM     13  F   UNL A   1      37.813  19.206  24.600  1.00  0.00    -0.206 F 
BRANCH   8  14
ATOM     14  C   UNL A   1      36.500  21.734  24.863  1.00  0.00    -0.012 A 
ATOM     15  C   UNL A   1      34.108  21.271  24.842  1.00  0.00     0.119 A 
ATOM     16  C   UNL A   1      33.909  22.238  23.863  1.00  0.00     0.046 A 
ATOM     17  C   UNL A   1      35.391  21.005  25.321  1.00  0.00     0.055 A 
ATOM     18  C   UNL A   1      34.995  22.971  23.389  1.00  0.00     0.004 A 
ATOM     19  C   UNL A   1      36.277  22.724  23.889  1.00  0.00     0.009 A 
BRANCH  15  20
ATOM     20  O   UNL A   1      33.037  20.516  25.231  1.00  0.00    -0.494 OA
BRANCH  20  21
ATOM     21  C   UNL A   1      33.188  19.127  24.915  1.00  0.00     0.226 C 
ATOM     22  C   UNL A   1      32.562  18.787  23.573  1.00  0.00     0.049 C 
ENDBRANCH  20  21
ENDBRANCH  15  20
ENDBRANCH   8  14
ENDBRANCH   5   7
ENDBRANCH   3   5
ENDBRANCH   2   3
ENDBRANCH   1   2
BRANCH   1  23
ATOM     23  C   UNL A   1      43.523  24.073  24.976  1.00  0.00     0.275 C 
BRANCH  23  24
ATOM     24  O   UNL A   1      42.630  24.258  26.089  1.00  0.00    -0.458 OA
BRANCH  24  25
ATOM     25  C   UNL A   1      41.849  25.360  26.003  1.00  0.00     0.338 C 
ATOM     26  O   UNL A   1      41.159  25.697  25.057  1.00  0.00    -0.246 OA
BRANCH  25  27
ATOM     27  C   UNL A   1      41.835  26.077  27.286  1.00  0.00     0.060 A 
ATOM     28  C   UNL A   1      40.748  25.864  28.136  1.00  0.00     0.016 A 
ATOM     29  C   UNL A   1      42.800  27.038  27.597  1.00  0.00     0.016 A 
ATOM     30  C   UNL A   1      40.587  26.642  29.277  1.00  0.00     0.010 A 
ATOM     31  C   UNL A   1      42.643  27.815  28.750  1.00  0.00     0.010 A 
ATOM     32  C   UNL A   1      41.518  27.645  29.576  1.00  0.00    -0.014 A 
BRANCH  32  33
ATOM     33  C   UNL A   1      41.236  28.579  30.692  1.00  0.00     0.031 A 
ATOM     34  C   UNL A   1      42.101  28.539  31.923  1.00  0.00     0.074 A 
ATOM     35  C   UNL A   1      40.257  29.496  30.579  1.00  0.00     0.049 A 
ATOM     36  N   UNL A   1      42.014  29.247  33.019  1.00  0.00    -0.248 NA
ATOM     37  C   UNL A   1      43.211  27.573  31.917  1.00  0.00     0.031 C 
ATOM     38  C   UNL A   1      39.385  29.660  29.417  1.00  0.00     0.029 A 
ATOM     39  N   UNL A   1      39.839  30.467  31.453  1.00  0.00    -0.354 N 
ATOM     40  C   UNL A   1      43.043  28.802  33.840  1.00  0.00     0.074 A 
ATOM     41  C   UNL A   1      43.732  27.750  33.123  1.00  0.00     0.031 C 
ATOM     42  C   UNL A   1      38.538  30.677  29.647  1.00  0.00     0.029 A 
ATOM     43  C   UNL A   1      38.787  31.215  30.983  1.00  0.00     0.049 A 
ATOM     44  H   UNL A   1      40.255  30.614  32.334  1.00  0.00     0.167 HD
ATOM     45  C   UNL A   1      43.386  29.235  35.078  1.00  0.00     0.037 A 
ATOM     46  C   UNL A   1      38.098  32.212  31.569  1.00  0.00     0.037 A 
ATOM     47  C   UNL A   1      42.712  30.295  35.779  1.00  0.00     0.049 A 
ATOM     48  C   UNL A   1      38.488  32.665  32.949  1.00  0.00     0.074 A 
ATOM     49  C   UNL A   1      42.972  30.797  37.042  1.00  0.00     0.029 A 
ATOM     50  N   UNL A   1      41.649  31.027  35.269  1.00  0.00    -0.354 N 
ATOM     51  N   UNL A   1      39.447  32.217  33.724  1.00  0.00    -0.248 NA
ATOM     52  C   UNL A   1      37.705  33.763  33.536  1.00  0.00     0.031 C 
ATOM     53  C   UNL A   1      42.051  31.819  37.306  1.00  0.00     0.029 A 
ATOM     54  C   UNL A   1      41.241  31.975  36.192  1.00  0.00     0.049 A 
ATOM     55  H   UNL A   1      41.244  30.892  34.382  1.00  0.00     0.167 HD
ATOM     56  C   UNL A   1      39.400  32.992  34.876  1.00  0.00     0.074 A 
ATOM     57  C   UNL A   1      38.322  33.943  34.696  1.00  0.00     0.031 C 
ATOM     58  C   UNL A   1      40.177  32.924  35.985  1.00  0.00     0.037 A 
BRANCH  45  59
ATOM     59  C   UNL A   1      44.529  28.538  35.759  1.00  0.00     0.058 A 
ATOM     60  C   UNL A   1      45.852  28.986  35.625  1.00  0.00     0.135 A 
ATOM     61  C   UNL A   1      44.295  27.415  36.568  1.00  0.00     0.135 A 
ATOM     62  F   UNL A   1      46.132  30.045  34.848  1.00  0.00    -0.206 F 
ATOM     63  C   UNL A   1      46.909  28.329  36.249  1.00  0.00     0.059 A 
ATOM     64  C   UNL A   1      45.333  26.755  37.218  1.00  0.00     0.059 A 
ATOM     65  F   UNL A   1      43.048  26.944  36.726  1.00  0.00    -0.206 F 
ATOM     66  C   UNL A   1      46.639  27.210  37.040  1.00  0.00     0.060 A 
BRANCH  66  67
ATOM     67  S   UNL A   1      48.015  26.359  37.841  1.00  0.00     0.124 S 
ATOM     68  O   UNL A   1      48.919  27.470  38.123  1.00  0.00    -0.237 OA
ATOM     69  O   UNL A   1      47.379  25.751  39.005  1.00  0.00    -0.237 OA
ATOM     70  O   UNL A   1      48.472  25.421  36.821  1.00  0.00    -0.744 OA
ENDBRANCH  66  67
ENDBRANCH  45  59
BRANCH  46  71
ATOM     71  C   UNL A   1      36.965  32.851  30.850  1.00  0.00     0.058 A 
ATOM     72  C   UNL A   1      35.637  32.502  31.133  1.00  0.00     0.135 A 
ATOM     73  C   UNL A   1      37.190  33.827  29.867  1.00  0.00     0.135 A 
ATOM     74  F   UNL A   1      35.373  31.566  32.059  1.00  0.00    -0.206 F 
ATOM     75  C   UNL A   1      34.571  33.085  30.458  1.00  0.00     0.059 A 
ATOM     76  C   UNL A   1      36.139  34.442  29.194  1.00  0.00     0.059 A 
ATOM     77  F   UNL A   1      38.443  34.205  29.569  1.00  0.00    -0.206 F 
ATOM     78  C   UNL A   1      34.832  34.056  29.489  1.00  0.00     0.060 A 
BRANCH  78  79
ATOM     79  S   UNL A   1      33.443  34.846  28.648  1.00  0.00     0.124 S 
ATOM     80  O   UNL A   1      34.082  36.020  28.065  1.00  0.00    -0.237 OA
ATOM     81  O   UNL A   1      33.021  33.814  27.706  1.00  0.00    -0.237 OA
ATOM     82  O   UNL A   1      32.504  35.111  29.735  1.00  0.00    -0.744 OA
ENDBRANCH  78  79
ENDBRANCH  46  71
BRANCH  58  83
ATOM     83  C   UNL A   1      39.921  33.933  37.067  1.00  0.00     0.058 A 
ATOM     84  C   UNL A   1      40.486  35.218  37.026  1.00  0.00     0.135 A 
ATOM     85  C   UNL A   1      39.070  33.623  38.140  1.00  0.00     0.135 A 
ATOM     86  F   UNL A   1      41.311  35.560  36.024  1.00  0.00    -0.206 F 
ATOM     87  C   UNL A   1      40.235  36.152  38.024  1.00  0.00     0.059 A 
ATOM     88  C   UNL A   1      38.789  34.548  39.139  1.00  0.00     0.059 A 
ATOM     89  F   UNL A   1      38.497  32.411  38.219  1.00  0.00    -0.206 F 
ATOM     90  C   UNL A   1      39.387  35.808  39.079  1.00  0.00     0.060 A 
BRANCH  90  91
ATOM     91  S   UNL A   1      39.047  37.033  40.362  1.00  0.00     0.124 S 
ATOM     92  O   UNL A   1      38.168  36.285  41.255  1.00  0.00    -0.237 OA
ATOM     93  O   UNL A   1      40.379  37.324  40.883  1.00  0.00    -0.237 OA
ATOM     94  O   UNL A   1      38.417  38.125  39.627  1.00  0.00    -0.744 OA
ENDBRANCH  90  91
ENDBRANCH  58  83
ENDBRANCH  32  33
ENDBRANCH  25  27
ENDBRANCH  24  25
ENDBRANCH  23  24
ENDBRANCH   1  23
TORSDOF 18
ENDMDL
MODEL 2
REMARK VINA RESULT:     -11.2      0.891      1.768
REMARK SMILES CCOc1cccc(-c2ccc([C@@H](C)C(=O)OCCOC(=O)c3ccc(-c4c5nc(c(-c6c(F)cc(S(=O)(=O)[O-])cc6F)c6ccc([nH]6)c(-c6c(F)cc(S(=O)(=O)[O-])cc6F)c6nc(c(-c7c(F)cc(S(=O)(=O)[O-])cc7F)c7ccc4[nH]7)C=C6)C=C5)cc3)cc2F)c1
REMARK SMILES IDX 18 1 17 2 15 3 16 4 13 5 14 6 12 7 9 8 10 9 90 10 11 11
REMARK SMILES IDX 89 12 91 13 8 14 4 15 5 16 92 17 6 18 7 19 3 20 2 21 1 22
REMARK SMILES IDX 19 23 20 24 21 25 22 26 23 27 24 28 88 29 25 30 87 31 26 32
REMARK SMILES IDX 27 33 28 34 81 35 29 36 86 37 80 38 82 39 30 40 85 41 79 42
REMARK SMILES IDX 78 43 31 45 65 46 44 47 64 48 45 49 48 50 63 51 83 52 46 53
REMARK SMILES IDX 47 54 62 56 84 57 49 58 32 59 33 60 42 61 34 62 35 63 41 64
REMARK SMILES IDX 43 65 36 66 37 67 38 68 39 69 40 70 66 71 67 72 76 73 68 74
REMARK SMILES IDX 69 75 75 76 77 77 70 78 71 79 72 80 73 81 74 82 50 83 51 84
REMARK SMILES IDX 60 85 52 86 53 87 59 88 61 89 54 90 55 91 56 92 57 93 58 94
REMARK H PARENT 82 44 48 55
REMARK Flexibility Score: inf
ROOT
ATOM      1  C   UNL A   1      43.909  22.805  24.952  1.00  0.00     0.274 C 
ENDROOT
BRANCH   1   2
ATOM      2  O   UNL A   1      43.632  22.021  26.130  1.00  0.00    -0.462 OA
BRANCH   2   3
ATOM      3  C   UNL A   1      42.945  20.863  25.943  1.00  0.00     0.313 C 
ATOM      4  O   UNL A   1      43.181  20.064  25.040  1.00  0.00    -0.252 OA
BRANCH   3   5
ATOM      5  C   UNL A   1      41.790  20.663  26.917  1.00  0.00     0.126 C 
ATOM      6  C   UNL A   1      41.921  19.303  27.601  1.00  0.00     0.025 C 
BRANCH   5   7
ATOM      7  C   UNL A   1      40.392  20.899  26.366  1.00  0.00    -0.031 A 
ATOM      8  C   UNL A   1      37.769  21.408  25.362  1.00  0.00     0.018 A 
ATOM      9  C   UNL A   1      38.367  20.143  25.237  1.00  0.00     0.012 A 
ATOM     10  C   UNL A   1      38.516  22.404  26.005  1.00  0.00     0.131 A 
ATOM     11  C   UNL A   1      39.653  19.891  25.733  1.00  0.00     0.005 A 
ATOM     12  C   UNL A   1      39.797  22.161  26.501  1.00  0.00     0.044 A 
ATOM     13  F   UNL A   1      38.003  23.632  26.180  1.00  0.00    -0.206 F 
BRANCH   8  14
ATOM     14  C   UNL A   1      36.418  21.670  24.830  1.00  0.00    -0.012 A 
ATOM     15  C   UNL A   1      34.897  23.016  23.483  1.00  0.00     0.119 A 
ATOM     16  C   UNL A   1      33.830  22.196  23.833  1.00  0.00     0.046 A 
ATOM     17  C   UNL A   1      36.172  22.770  23.993  1.00  0.00     0.055 A 
ATOM     18  C   UNL A   1      34.048  21.100  24.666  1.00  0.00     0.004 A 
ATOM     19  C   UNL A   1      35.332  20.838  25.154  1.00  0.00     0.009 A 
BRANCH  15  20
ATOM     20  O   UNL A   1      34.639  24.126  22.729  1.00  0.00    -0.494 OA
BRANCH  20  21
ATOM     21  C   UNL A   1      33.248  24.282  22.421  1.00  0.00     0.226 C 
ATOM     22  C   UNL A   1      32.998  25.522  21.579  1.00  0.00     0.049 C 
ENDBRANCH  20  21
ENDBRANCH  15  20
ENDBRANCH   8  14
ENDBRANCH   5   7
ENDBRANCH   3   5
ENDBRANCH   2   3
ENDBRANCH   1   2
BRANCH   1  23
ATOM     23  C   UNL A   1      43.202  24.163  24.992  1.00  0.00     0.275 C 
BRANCH  23  24
ATOM     24  O   UNL A   1      42.500  24.362  26.232  1.00  0.00    -0.458 OA
BRANCH  24  25
ATOM     25  C   UNL A   1      41.583  25.357  26.203  1.00  0.00     0.338 C 
ATOM     26  O   UNL A   1      40.781  25.589  25.316  1.00  0.00    -0.246 OA
BRANCH  25  27
ATOM     27  C   UNL A   1      41.586  26.092  27.477  1.00  0.00     0.060 A 
ATOM     28  C   UNL A   1      40.475  25.947  28.310  1.00  0.00     0.016 A 
ATOM     29  C   UNL A   1      42.594  27.004  27.792  1.00  0.00     0.016 A 
ATOM     30  C   UNL A   1      40.337  26.747  29.439  1.00  0.00     0.010 A 
ATOM     31  C   UNL A   1      42.460  27.804  28.932  1.00  0.00     0.010 A 
ATOM     32  C   UNL A   1      41.314  27.704  29.741  1.00  0.00    -0.014 A 
BRANCH  32  33
ATOM     33  C   UNL A   1      41.064  28.666  30.841  1.00  0.00     0.031 A 
ATOM     34  C   UNL A   1      41.951  28.645  32.056  1.00  0.00     0.074 A 
ATOM     35  C   UNL A   1      40.092  29.591  30.725  1.00  0.00     0.049 A 
ATOM     36  N   UNL A   1      41.892  29.379  33.136  1.00  0.00    -0.248 NA
ATOM     37  C   UNL A   1      43.051  27.667  32.051  1.00  0.00     0.031 C 
ATOM     38  C   UNL A   1      39.200  29.738  29.576  1.00  0.00     0.029 A 
ATOM     39  N   UNL A   1      39.701  30.586  31.584  1.00  0.00    -0.354 N 
ATOM     40  C   UNL A   1      42.932  28.941  33.948  1.00  0.00     0.074 A 
ATOM     41  C   UNL A   1      43.596  27.866  33.242  1.00  0.00     0.031 C 
ATOM     42  C   UNL A   1      38.368  30.770  29.799  1.00  0.00     0.029 A 
ATOM     43  C   UNL A   1      38.649  31.335  31.117  1.00  0.00     0.049 A 
ATOM     44  H   UNL A   1      40.135  30.749  32.453  1.00  0.00     0.167 HD
ATOM     45  C   UNL A   1      43.303  29.398  35.169  1.00  0.00     0.037 A 
ATOM     46  C   UNL A   1      37.981  32.353  31.692  1.00  0.00     0.037 A 
ATOM     47  C   UNL A   1      42.654  30.481  35.858  1.00  0.00     0.049 A 
ATOM     48  C   UNL A   1      38.402  32.833  33.055  1.00  0.00     0.074 A 
ATOM     49  C   UNL A   1      42.943  31.009  37.105  1.00  0.00     0.029 A 
ATOM     50  N   UNL A   1      41.589  31.213  35.352  1.00  0.00    -0.354 N 
ATOM     51  N   UNL A   1      39.371  32.392  33.822  1.00  0.00    -0.248 NA
ATOM     52  C   UNL A   1      37.642  33.952  33.630  1.00  0.00     0.031 C 
ATOM     53  C   UNL A   1      42.039  32.047  37.362  1.00  0.00     0.029 A 
ATOM     54  C   UNL A   1      41.209  32.187  36.260  1.00  0.00     0.049 A 
ATOM     55  H   UNL A   1      41.166  31.062  34.476  1.00  0.00     0.167 HD
ATOM     56  C   UNL A   1      39.354  33.194  34.956  1.00  0.00     0.074 A 
ATOM     57  C   UNL A   1      38.283  34.152  34.774  1.00  0.00     0.031 C 
ATOM     58  C   UNL A   1      40.151  33.142  36.052  1.00  0.00     0.037 A 
BRANCH  45  59
ATOM     59  C   UNL A   1      44.452  28.705  35.844  1.00  0.00     0.058 A 
ATOM     60  C   UNL A   1      44.256  27.604  36.692  1.00  0.00     0.135 A 
ATOM     61  C   UNL A   1      45.769  29.141  35.629  1.00  0.00     0.135 A 
ATOM     62  F   UNL A   1      43.014  27.160  36.945  1.00  0.00    -0.206 F 
ATOM     63  C   UNL A   1      45.323  26.974  37.324  1.00  0.00     0.059 A 
ATOM     64  C   UNL A   1      46.854  28.513  36.234  1.00  0.00     0.059 A 
ATOM     65  F   UNL A   1      46.012  30.192  34.830  1.00  0.00    -0.206 F 
ATOM     66  C   UNL A   1      46.619  27.440  37.092  1.00  0.00     0.060 A 
BRANCH  66  67
ATOM     67  S   UNL A   1      47.999  26.622  37.921  1.00  0.00     0.124 S 
ATOM     68  O   UNL A   1      47.808  27.058  39.301  1.00  0.00    -0.237 OA
ATOM     69  O   UNL A   1      47.735  25.211  37.662  1.00  0.00    -0.237 OA
ATOM     70  O   UNL A   1      49.172  27.169  37.246  1.00  0.00    -0.744 OA
ENDBRANCH  66  67
ENDBRANCH  45  59
BRANCH  46  71
ATOM     71  C   UNL A   1      36.842  32.988  30.981  1.00  0.00     0.058 A 
ATOM     72  C   UNL A   1      35.515  32.682  31.318  1.00  0.00     0.135 A 
ATOM     73  C   UNL A   1      37.058  33.915  29.950  1.00  0.00     0.135 A 
ATOM     74  F   UNL A   1      35.259  31.794  32.291  1.00  0.00    -0.206 F 
ATOM     75  C   UNL A   1      34.442  33.263  30.650  1.00  0.00     0.059 A 
ATOM     76  C   UNL A   1      36.002  34.526  29.282  1.00  0.00     0.059 A 
ATOM     77  F   UNL A   1      38.310  34.250  29.599  1.00  0.00    -0.206 F 
ATOM     78  C   UNL A   1      34.696  34.184  29.632  1.00  0.00     0.060 A 
BRANCH  78  79
ATOM     79  S   UNL A   1      33.299  34.971  28.799  1.00  0.00     0.124 S 
ATOM     80  O   UNL A   1      32.490  35.406  29.932  1.00  0.00    -0.237 OA
ATOM     81  O   UNL A   1      33.949  36.030  28.035  1.00  0.00    -0.237 OA
ATOM     82  O   UNL A   1      32.737  33.887  27.999  1.00  0.00    -0.744 OA
ENDBRANCH  78  79
ENDBRANCH  46  71
BRANCH  58  83
ATOM     83  C   UNL A   1      39.927  34.178  37.115  1.00  0.00     0.058 A 
ATOM     84  C   UNL A   1      40.510  35.453  37.037  1.00  0.00     0.135 A 
ATOM     85  C   UNL A   1      39.087  33.905  38.206  1.00  0.00     0.135 A 
ATOM     86  F   UNL A   1      41.325  35.761  36.016  1.00  0.00    -0.206 F 
ATOM     87  C   UNL A   1      40.288  36.413  38.018  1.00  0.00     0.059 A 
ATOM     88  C   UNL A   1      38.835  34.856  39.189  1.00  0.00     0.059 A 
ATOM     89  F   UNL A   1      38.497  32.704  38.320  1.00  0.00    -0.206 F 
ATOM     90  C   UNL A   1      39.451  36.104  39.093  1.00  0.00     0.060 A 
BRANCH  90  91
ATOM     91  S   UNL A   1      39.148  37.362  40.353  1.00  0.00     0.124 S 
ATOM     92  O   UNL A   1      38.312  38.310  39.625  1.00  0.00    -0.237 OA
ATOM     93  O   UNL A   1      38.476  36.603  41.403  1.00  0.00    -0.237 OA
ATOM     94  O   UNL A   1      40.489  37.832  40.689  1.00  0.00    -0.744 OA
ENDBRANCH  90  91
ENDBRANCH  58  83
ENDBRANCH  32  33
ENDBRANCH  25  27
ENDBRANCH  24  25
ENDBRANCH  23  24
ENDBRANCH   1  23
TORSDOF 18
ENDMDL
MODEL 3
REMARK VINA RESULT:     -11.2      1.080      1.782
REMARK SMILES CCOc1cccc(-c2ccc([C@@H](C)C(=O)OCCOC(=O)c3ccc(-c4c5nc(c(-c6c(F)cc(S(=O)(=O)[O-])cc6F)c6ccc([nH]6)c(-c6c(F)cc(S(=O)(=O)[O-])cc6F)c6nc(c(-c7c(F)cc(S(=O)(=O)[O-])cc7F)c7ccc4[nH]7)C=C6)C=C5)cc3)cc2F)c1
REMARK SMILES IDX 18 1 17 2 15 3 16 4 13 5 14 6 12 7 9 8 10 9 90 10 11 11
REMARK SMILES IDX 89 12 91 13 8 14 4 15 5 16 92 17 6 18 7 19 3 20 2 21 1 22
REMARK SMILES IDX 19 23 20 24 21 25 22 26 23 27 24 28 88 29 25 30 87 31 26 32
REMARK SMILES IDX 27 33 28 34 81 35 29 36 86 37 80 38 82 39 30 40 85 41 79 42
REMARK SMILES IDX 78 43 31 45 65 46 44 47 64 48 45 49 48 50 63 51 83 52 46 53
REMARK SMILES IDX 47 54 62 56 84 57 49 58 32 59 33 60 42 61 34 62 35 63 41 64
REMARK SMILES IDX 43 65 36 66 37 67 38 68 39 69 40 70 66 71 67 72 76 73 68 74
REMARK SMILES IDX 69 75 75 76 77 77 70 78 71 79 72 80 73 81 74 82 50 83 51 84
REMARK SMILES IDX 60 85 52 86 53 87 59 88 61 89 54 90 55 91 56 92 57 93 58 94
REMARK H PARENT 82 44 48 55
REMARK Flexibility Score: inf
ROOT
ATOM      1  C   UNL A   1      43.899  22.846  24.676  1.00  0.00     0.274 C 
ENDROOT
BRANCH   1   2
ATOM      2  O   UNL A   1      42.622  22.224  24.920  1.00  0.00    -0.462 OA
BRANCH   2   3
ATOM      3  C   UNL A   1      42.602  21.209  25.825  1.00  0.00     0.313 C 
ATOM      4  O   UNL A   1      43.306  20.206  25.745  1.00  0.00    -0.252 OA
BRANCH   3   5
ATOM      5  C   UNL A   1      41.567  21.384  26.930  1.00  0.00     0.126 C 
ATOM      6  C   UNL A   1      41.484  20.108  27.766  1.00  0.00     0.025 C 
BRANCH   5   7
ATOM      7  C   UNL A   1      40.196  21.883  26.500  1.00  0.00    -0.031 A 
ATOM      8  C   UNL A   1      37.613  22.756  25.656  1.00  0.00     0.018 A 
ATOM      9  C   UNL A   1      38.482  23.612  26.353  1.00  0.00     0.012 A 
ATOM     10  C   UNL A   1      38.073  21.459  25.392  1.00  0.00     0.131 A 
ATOM     11  C   UNL A   1      39.752  23.185  26.764  1.00  0.00     0.005 A 
ATOM     12  C   UNL A   1      39.336  21.027  25.798  1.00  0.00     0.044 A 
ATOM     13  F   UNL A   1      37.306  20.591  24.713  1.00  0.00    -0.206 F 
BRANCH   8  14
ATOM     14  C   UNL A   1      36.274  23.208  25.233  1.00  0.00    -0.012 A 
ATOM     15  C   UNL A   1      33.960  23.758  25.764  1.00  0.00     0.119 A 
ATOM     16  C   UNL A   1      33.700  24.042  24.428  1.00  0.00     0.046 A 
ATOM     17  C   UNL A   1      35.225  23.323  26.160  1.00  0.00     0.055 A 
ATOM     18  C   UNL A   1      34.724  23.931  23.489  1.00  0.00     0.004 A 
ATOM     19  C   UNL A   1      35.999  23.522  23.891  1.00  0.00     0.009 A 
BRANCH  15  20
ATOM     20  O   UNL A   1      32.918  23.801  26.648  1.00  0.00    -0.494 OA
BRANCH  20  21
ATOM     21  C   UNL A   1      31.650  23.998  26.010  1.00  0.00     0.226 C 
ATOM     22  C   UNL A   1      30.729  22.808  26.218  1.00  0.00     0.049 C 
ENDBRANCH  20  21
ENDBRANCH  15  20
ENDBRANCH   8  14
ENDBRANCH   5   7
ENDBRANCH   3   5
ENDBRANCH   2   3
ENDBRANCH   1   2
BRANCH   1  23
ATOM     23  C   UNL A   1      43.892  24.331  25.053  1.00  0.00     0.275 C 
BRANCH  23  24
ATOM     24  O   UNL A   1      42.977  24.602  26.129  1.00  0.00    -0.458 OA
BRANCH  24  25
ATOM     25  C   UNL A   1      42.293  25.764  26.004  1.00  0.00     0.338 C 
ATOM     26  O   UNL A   1      41.686  26.154  25.022  1.00  0.00    -0.246 OA
BRANCH  25  27
ATOM     27  C   UNL A   1      42.266  26.481  27.287  1.00  0.00     0.060 A 
ATOM     28  C   UNL A   1      41.316  26.084  28.231  1.00  0.00     0.016 A 
ATOM     29  C   UNL A   1      43.063  27.604  27.514  1.00  0.00     0.016 A 
ATOM     30  C   UNL A   1      41.121  26.833  29.387  1.00  0.00     0.010 A 
ATOM     31  C   UNL A   1      42.873  28.353  28.680  1.00  0.00     0.010 A 
ATOM     32  C   UNL A   1      41.877  27.991  29.604  1.00  0.00    -0.014 A 
BRANCH  32  33
ATOM     33  C   UNL A   1      41.533  28.871  30.747  1.00  0.00     0.031 A 
ATOM     34  C   UNL A   1      42.384  28.836  31.988  1.00  0.00     0.074 A 
ATOM     35  C   UNL A   1      40.508  29.738  30.651  1.00  0.00     0.049 A 
ATOM     36  N   UNL A   1      42.247  29.502  33.104  1.00  0.00    -0.248 NA
ATOM     37  C   UNL A   1      43.545  27.931  31.965  1.00  0.00     0.031 C 
ATOM     38  C   UNL A   1      39.642  29.894  29.483  1.00  0.00     0.029 A 
ATOM     39  N   UNL A   1      40.028  30.656  31.550  1.00  0.00    -0.354 N 
ATOM     40  C   UNL A   1      43.289  29.085  33.924  1.00  0.00     0.074 A 
ATOM     41  C   UNL A   1      44.041  28.095  33.182  1.00  0.00     0.031 C 
ATOM     42  C   UNL A   1      38.739  30.857  29.735  1.00  0.00     0.029 A 
ATOM     43  C   UNL A   1      38.944  31.362  31.091  1.00  0.00     0.049 A 
ATOM     44  H   UNL A   1      40.425  30.795  32.441  1.00  0.00     0.167 HD
ATOM     45  C   UNL A   1      43.593  29.494  35.180  1.00  0.00     0.037 A 
ATOM     46  C   UNL A   1      38.195  32.301  31.700  1.00  0.00     0.037 A 
ATOM     47  C   UNL A   1      42.855  30.492  35.906  1.00  0.00     0.049 A 
ATOM     48  C   UNL A   1      38.545  32.728  33.099  1.00  0.00     0.074 A 
ATOM     49  C   UNL A   1      43.073  30.965  37.189  1.00  0.00     0.029 A 
ATOM     50  N   UNL A   1      41.761  31.183  35.407  1.00  0.00    -0.354 N 
ATOM     51  N   UNL A   1      39.517  32.305  33.872  1.00  0.00    -0.248 NA
ATOM     52  C   UNL A   1      37.697  33.762  33.711  1.00  0.00     0.031 C 
ATOM     53  C   UNL A   1      42.097  31.927  37.473  1.00  0.00     0.029 A 
ATOM     54  C   UNL A   1      41.292  32.078  36.354  1.00  0.00     0.049 A 
ATOM     55  H   UNL A   1      41.374  31.056  34.511  1.00  0.00     0.167 HD
ATOM     56  C   UNL A   1      39.414  33.039  35.048  1.00  0.00     0.074 A 
ATOM     57  C   UNL A   1      38.290  33.937  34.884  1.00  0.00     0.031 C 
ATOM     58  C   UNL A   1      40.181  32.975  36.165  1.00  0.00     0.037 A 
BRANCH  45  59
ATOM     59  C   UNL A   1      44.765  28.836  35.854  1.00  0.00     0.058 A 
ATOM     60  C   UNL A   1      46.068  29.340  35.727  1.00  0.00     0.135 A 
ATOM     61  C   UNL A   1      44.576  27.694  36.648  1.00  0.00     0.135 A 
ATOM     62  F   UNL A   1      46.304  30.420  34.964  1.00  0.00    -0.206 F 
ATOM     63  C   UNL A   1      47.150  28.720  36.344  1.00  0.00     0.059 A 
ATOM     64  C   UNL A   1      45.641  27.069  37.291  1.00  0.00     0.059 A 
ATOM     65  F   UNL A   1      43.350  27.169  36.798  1.00  0.00    -0.206 F 
ATOM     66  C   UNL A   1      46.926  27.581  37.120  1.00  0.00     0.060 A 
BRANCH  66  67
ATOM     67  S   UNL A   1      48.336  26.777  37.911  1.00  0.00     0.124 S 
ATOM     68  O   UNL A   1      47.832  25.420  38.095  1.00  0.00    -0.237 OA
ATOM     69  O   UNL A   1      49.391  26.931  36.915  1.00  0.00    -0.237 OA
ATOM     70  O   UNL A   1      48.521  27.549  39.137  1.00  0.00    -0.744 OA
ENDBRANCH  66  67
ENDBRANCH  45  59
BRANCH  46  71
ATOM     71  C   UNL A   1      37.038  32.903  30.987  1.00  0.00     0.058 A 
ATOM     72  C   UNL A   1      37.225  33.863  29.982  1.00  0.00     0.135 A 
ATOM     73  C   UNL A   1      35.722  32.527  31.297  1.00  0.00     0.135 A 
ATOM     74  F   UNL A   1      38.465  34.261  29.658  1.00  0.00    -0.206 F 
ATOM     75  C   UNL A   1      36.149  34.440  29.317  1.00  0.00     0.059 A 
ATOM     76  C   UNL A   1      34.630  33.073  30.631  1.00  0.00     0.059 A 
ATOM     77  F   UNL A   1      35.492  31.603  32.243  1.00  0.00    -0.206 F 
ATOM     78  C   UNL A   1      34.853  34.038  29.649  1.00  0.00     0.060 A 
BRANCH  78  79
ATOM     79  S   UNL A   1      33.460  34.756  28.751  1.00  0.00     0.124 S 
ATOM     80  O   UNL A   1      33.151  33.698  27.796  1.00  0.00    -0.237 OA
ATOM     81  O   UNL A   1      32.480  34.965  29.811  1.00  0.00    -0.237 OA
ATOM     82  O   UNL A   1      34.025  35.976  28.183  1.00  0.00    -0.744 OA
ENDBRANCH  78  79
ENDBRANCH  46  71
BRANCH  58  83
ATOM     83  C   UNL A   1      39.859  33.932  37.275  1.00  0.00     0.058 A 
ATOM     84  C   UNL A   1      39.070  33.551  38.372  1.00  0.00     0.135 A 
ATOM     85  C   UNL A   1      40.379  35.237  37.261  1.00  0.00     0.135 A 
ATOM     86  F   UNL A   1      38.546  32.317  38.429  1.00  0.00    -0.206 F 
ATOM     87  C   UNL A   1      38.786  34.439  39.404  1.00  0.00     0.059 A 
ATOM     88  C   UNL A   1      40.125  36.135  38.291  1.00  0.00     0.059 A 
ATOM     89  F   UNL A   1      41.148  35.646  36.239  1.00  0.00    -0.206 F 
ATOM     90  C   UNL A   1      39.315  35.730  39.354  1.00  0.00     0.060 A 
BRANCH  90  91
ATOM     91  S   UNL A   1      38.962  36.872  40.707  1.00  0.00     0.124 S 
ATOM     92  O   UNL A   1      38.089  36.063  41.552  1.00  0.00    -0.237 OA
ATOM     93  O   UNL A   1      40.290  37.144  41.248  1.00  0.00    -0.237 OA
ATOM     94  O   UNL A   1      38.322  38.001  40.039  1.00  0.00    -0.744 OA
ENDBRANCH  90  91
ENDBRANCH  58  83
ENDBRANCH  32  33
ENDBRANCH  25  27
ENDBRANCH  24  25
ENDBRANCH  23  24
ENDBRANCH   1  23
TORSDOF 18
ENDMDL
