MODEL 1
REMARK VINA RESULT:     -11.2      0.000      0.000
REMARK SMILES CCOc1cc2nccc(Nc3ccc(C(=O)OCCOC(=O)c4ccc(-c5c6nc(c(-c7c(F)cc(S(=O)(=O)[O-])cc7F)c7ccc([nH]7)c(-c7c(F)cc(S(=O)(=O)[O-])cc7F)c7nc(c(-c8c(F)cc(S(=O)(=O)[O-])cc8F)c8ccc5[nH]8)C=C7)C=C6)cc4)cc3)c2cc1OCC
REMARK SMILES IDX 19 1 18 2 16 3 17 4 15 5 12 6 13 7 91 8 14 9 90 10 11 11
REMARK SMILES IDX 10 13 4 14 5 15 94 16 6 17 93 18 7 19 92 20 8 21 9 22 3 23
REMARK SMILES IDX 2 24 1 25 95 26 96 27 97 28 20 29 21 30 22 31 23 32 24 33
REMARK SMILES IDX 25 34 89 35 26 36 88 37 27 38 28 39 29 40 82 41 30 42 87 43
REMARK SMILES IDX 81 44 83 45 31 46 86 47 80 48 79 49 32 51 66 52 45 53 65 54
REMARK SMILES IDX 46 55 49 56 64 57 84 58 47 59 48 60 63 62 85 63 50 64 33 65
REMARK SMILES IDX 34 66 43 67 35 68 36 69 42 70 44 71 37 72 38 73 39 74 40 75
REMARK SMILES IDX 41 76 67 77 68 78 77 79 69 80 70 81 76 82 78 83 71 84 72 85
REMARK SMILES IDX 73 86 74 87 75 88 51 89 52 90 61 91 53 92 54 93 60 94 62 95
REMARK SMILES IDX 55 96 56 97 57 98 58 99 59 100
REMARK H PARENT 11 12 83 50 49 61
REMARK Flexibility Score: inf
ROOT
ATOM      1  C   UNL A   1      42.655  22.466  26.135  1.00  0.00     0.275 C 
ENDROOT
BRANCH   1   2
ATOM      2  O   UNL A   1      41.692  22.623  27.197  1.00  0.00    -0.458 OA
BRANCH   2   3
ATOM      3  C   UNL A   1      40.676  21.732  27.173  1.00  0.00     0.338 C 
ATOM      4  O   UNL A   1      40.684  20.606  27.651  1.00  0.00    -0.246 OA
BRANCH   3   5
ATOM      5  C   UNL A   1      39.473  22.291  26.527  1.00  0.00     0.060 A 
ATOM      6  C   UNL A   1      37.004  23.312  25.702  1.00  0.00     0.038 A 
ATOM      7  C   UNL A   1      37.868  24.099  26.458  1.00  0.00     0.027 A 
ATOM      8  C   UNL A   1      37.412  22.034  25.302  1.00  0.00     0.027 A 
ATOM      9  C   UNL A   1      39.072  23.577  26.894  1.00  0.00     0.018 A 
ATOM     10  C   UNL A   1      38.657  21.526  25.692  1.00  0.00     0.018 A 
BRANCH   6  11
ATOM     11  N   UNL A   1      35.713  23.811  25.498  1.00  0.00    -0.355 N 
ATOM     12  H   UNL A   1      35.639  24.463  24.764  1.00  0.00     0.167 HD
BRANCH  11  13
ATOM     13  C   UNL A   1      34.495  23.540  26.166  1.00  0.00     0.050 A 
ATOM     14  C   UNL A   1      31.034  25.783  25.217  1.00  0.00     0.163 A 
ATOM     15  C   UNL A   1      30.988  24.745  26.161  1.00  0.00     0.079 A 
ATOM     16  C   UNL A   1      32.232  26.052  24.563  1.00  0.00     0.161 A 
ATOM     17  C   UNL A   1      32.118  23.986  26.483  1.00  0.00     0.076 A 
ATOM     18  C   UNL A   1      33.355  25.294  24.858  1.00  0.00     0.063 A 
ATOM     19  N   UNL A   1      32.039  23.029  27.428  1.00  0.00    -0.256 NA
ATOM     20  C   UNL A   1      33.331  24.270  25.819  1.00  0.00     0.028 A 
ATOM     21  C   UNL A   1      33.168  22.361  27.753  1.00  0.00     0.114 A 
ATOM     22  C   UNL A   1      34.396  22.567  27.156  1.00  0.00     0.047 A 
BRANCH  14  23
ATOM     23  O   UNL A   1      29.979  26.633  25.040  1.00  0.00    -0.490 OA
BRANCH  23  24
ATOM     24  C   UNL A   1      29.247  26.437  23.827  1.00  0.00     0.226 C 
ATOM     25  C   UNL A   1      29.036  27.808  23.192  1.00  0.00     0.049 C 
ENDBRANCH  23  24
ENDBRANCH  14  23
BRANCH  16  26
ATOM     26  O   UNL A   1      32.486  27.033  23.649  1.00  0.00    -0.490 OA
BRANCH  26  27
ATOM     27  C   UNL A   1      33.624  27.854  23.882  1.00  0.00     0.226 C 
ATOM     28  C   UNL A   1      34.330  28.325  22.615  1.00  0.00     0.049 C 
ENDBRANCH  26  27
ENDBRANCH  16  26
ENDBRANCH  11  13
ENDBRANCH   6  11
ENDBRANCH   3   5
ENDBRANCH   2   3
ENDBRANCH   1   2
BRANCH   1  29
ATOM     29  C   UNL A   1      42.881  23.779  25.383  1.00  0.00     0.275 C 
BRANCH  29  30
ATOM     30  O   UNL A   1      41.882  24.757  25.732  1.00  0.00    -0.458 OA
BRANCH  30  31
ATOM     31  C   UNL A   1      42.281  26.047  25.635  1.00  0.00     0.338 C 
ATOM     32  O   UNL A   1      42.637  26.637  24.631  1.00  0.00    -0.246 OA
BRANCH  31  33
ATOM     33  C   UNL A   1      42.155  26.721  26.937  1.00  0.00     0.060 A 
ATOM     34  C   UNL A   1      41.359  26.124  27.902  1.00  0.00     0.016 A 
ATOM     35  C   UNL A   1      42.637  28.010  27.143  1.00  0.00     0.016 A 
ATOM     36  C   UNL A   1      40.896  26.860  28.986  1.00  0.00     0.010 A 
ATOM     37  C   UNL A   1      42.321  28.684  28.332  1.00  0.00     0.010 A 
ATOM     38  C   UNL A   1      41.415  28.132  29.258  1.00  0.00    -0.014 A 
BRANCH  38  39
ATOM     39  C   UNL A   1      41.046  28.834  30.527  1.00  0.00     0.031 A 
ATOM     40  C   UNL A   1      39.876  29.787  30.581  1.00  0.00     0.074 A 
ATOM     41  C   UNL A   1      41.776  28.614  31.644  1.00  0.00     0.049 A 
ATOM     42  N   UNL A   1      39.528  30.611  31.537  1.00  0.00    -0.248 NA
ATOM     43  C   UNL A   1      38.987  29.831  29.408  1.00  0.00     0.031 C 
ATOM     44  C   UNL A   1      42.917  27.696  31.750  1.00  0.00     0.029 A 
ATOM     45  N   UNL A   1      41.674  29.140  32.911  1.00  0.00    -0.354 N 
ATOM     46  C   UNL A   1      38.421  31.309  31.063  1.00  0.00     0.074 A 
ATOM     47  C   UNL A   1      38.153  30.812  29.731  1.00  0.00     0.031 C 
ATOM     48  C   UNL A   1      43.367  27.682  33.011  1.00  0.00     0.029 A 
ATOM     49  C   UNL A   1      42.644  28.684  33.777  1.00  0.00     0.049 A 
ATOM     50  H   UNL A   1      40.974  29.781  33.174  1.00  0.00     0.167 HD
ATOM     51  C   UNL A   1      37.702  32.276  31.683  1.00  0.00     0.037 A 
ATOM     52  C   UNL A   1      42.973  29.068  35.024  1.00  0.00     0.037 A 
ATOM     53  C   UNL A   1      37.952  32.728  33.031  1.00  0.00     0.049 A 
ATOM     54  C   UNL A   1      42.198  30.184  35.663  1.00  0.00     0.074 A 
ATOM     55  C   UNL A   1      37.258  33.679  33.761  1.00  0.00     0.029 A 
ATOM     56  N   UNL A   1      38.970  32.264  33.852  1.00  0.00    -0.354 N 
ATOM     57  N   UNL A   1      41.170  30.846  35.190  1.00  0.00    -0.248 NA
ATOM     58  C   UNL A   1      42.639  30.620  36.992  1.00  0.00     0.031 C 
ATOM     59  C   UNL A   1      37.891  33.832  34.998  1.00  0.00     0.029 A 
ATOM     60  C   UNL A   1      38.942  32.933  35.066  1.00  0.00     0.049 A 
ATOM     61  H   UNL A   1      39.616  31.562  33.609  1.00  0.00     0.167 HD
ATOM     62  C   UNL A   1      40.832  31.768  36.172  1.00  0.00     0.074 A 
ATOM     63  C   UNL A   1      41.747  31.559  37.274  1.00  0.00     0.031 C 
ATOM     64  C   UNL A   1      39.858  32.710  36.157  1.00  0.00     0.037 A 
BRANCH  51  65
ATOM     65  C   UNL A   1      36.592  32.950  30.917  1.00  0.00     0.058 A 
ATOM     66  C   UNL A   1      35.240  32.778  31.248  1.00  0.00     0.135 A 
ATOM     67  C   UNL A   1      36.900  33.855  29.886  1.00  0.00     0.135 A 
ATOM     68  F   UNL A   1      34.884  31.916  32.214  1.00  0.00    -0.206 F 
ATOM     69  C   UNL A   1      34.232  33.472  30.581  1.00  0.00     0.059 A 
ATOM     70  C   UNL A   1      35.912  34.579  29.223  1.00  0.00     0.059 A 
ATOM     71  F   UNL A   1      38.177  34.060  29.526  1.00  0.00    -0.206 F 
ATOM     72  C   UNL A   1      34.579  34.375  29.574  1.00  0.00     0.060 A 
BRANCH  72  73
ATOM     73  S   UNL A   1      33.263  35.294  28.744  1.00  0.00     0.124 S 
ATOM     74  O   UNL A   1      32.483  35.776  29.881  1.00  0.00    -0.237 OA
ATOM     75  O   UNL A   1      34.010  36.311  28.011  1.00  0.00    -0.237 OA
ATOM     76  O   UNL A   1      32.608  34.285  27.918  1.00  0.00    -0.744 OA
ENDBRANCH  72  73
ENDBRANCH  51  65
BRANCH  52  77
ATOM     77  C   UNL A   1      44.134  28.444  35.721  1.00  0.00     0.058 A 
ATOM     78  C   UNL A   1      45.433  28.944  35.555  1.00  0.00     0.135 A 
ATOM     79  C   UNL A   1      43.967  27.333  36.564  1.00  0.00     0.135 A 
ATOM     80  F   UNL A   1      45.649  29.998  34.753  1.00  0.00    -0.206 F 
ATOM     81  C   UNL A   1      46.527  28.350  36.177  1.00  0.00     0.059 A 
ATOM     82  C   UNL A   1      45.038  26.746  37.228  1.00  0.00     0.059 A 
ATOM     83  F   UNL A   1      42.742  26.820  36.770  1.00  0.00    -0.206 F 
ATOM     84  C   UNL A   1      46.319  27.252  37.012  1.00  0.00     0.060 A 
BRANCH  84  85
ATOM     85  S   UNL A   1      47.742  26.501  37.830  1.00  0.00     0.124 S 
ATOM     86  O   UNL A   1      47.762  25.175  37.223  1.00  0.00    -0.237 OA
ATOM     87  O   UNL A   1      48.827  27.398  37.445  1.00  0.00    -0.237 OA
ATOM     88  O   UNL A   1      47.377  26.542  39.244  1.00  0.00    -0.744 OA
ENDBRANCH  84  85
ENDBRANCH  52  77
BRANCH  64  89
ATOM     89  C   UNL A   1      39.712  33.562  37.386  1.00  0.00     0.058 A 
ATOM     90  C   UNL A   1      38.863  33.194  38.441  1.00  0.00     0.135 A 
ATOM     91  C   UNL A   1      40.456  34.746  37.524  1.00  0.00     0.135 A 
ATOM     92  F   UNL A   1      38.121  32.078  38.354  1.00  0.00    -0.206 F 
ATOM     93  C   UNL A   1      38.735  33.983  39.580  1.00  0.00     0.059 A 
ATOM     94  C   UNL A   1      40.368  35.533  38.668  1.00  0.00     0.059 A 
ATOM     95  F   UNL A   1      41.286  35.141  36.547  1.00  0.00    -0.206 F 
ATOM     96  C   UNL A   1      39.496  35.149  39.685  1.00  0.00     0.060 A 
BRANCH  96  97
ATOM     97  S   UNL A   1      39.344  36.144  41.182  1.00  0.00     0.124 S 
ATOM     98  O   UNL A   1      39.369  37.498  40.641  1.00  0.00    -0.237 OA
ATOM     99  O   UNL A   1      38.063  35.699  41.723  1.00  0.00    -0.237 OA
ATOM    100  O   UNL A   1      40.515  35.760  41.966  1.00  0.00    -0.744 OA
ENDBRANCH  96  97
ENDBRANCH  64  89
ENDBRANCH  38  39
ENDBRANCH  31  33
ENDBRANCH  30  31
ENDBRANCH  29  30
ENDBRANCH   1  29
TORSDOF 20
ENDMDL
MODEL 2
REMARK VINA RESULT:     -11.1      6.514     12.153
REMARK SMILES CCOc1cc2nccc(Nc3ccc(C(=O)OCCOC(=O)c4ccc(-c5c6nc(c(-c7c(F)cc(S(=O)(=O)[O-])cc7F)c7ccc([nH]7)c(-c7c(F)cc(S(=O)(=O)[O-])cc7F)c7nc(c(-c8c(F)cc(S(=O)(=O)[O-])cc8F)c8ccc5[nH]8)C=C7)C=C6)cc4)cc3)c2cc1OCC
REMARK SMILES IDX 19 1 18 2 16 3 17 4 15 5 12 6 13 7 91 8 14 9 90 10 11 11
REMARK SMILES IDX 10 13 4 14 5 15 94 16 6 17 93 18 7 19 92 20 8 21 9 22 3 23
REMARK SMILES IDX 2 24 1 25 95 26 96 27 97 28 20 29 21 30 22 31 23 32 24 33
REMARK SMILES IDX 25 34 89 35 26 36 88 37 27 38 28 39 29 40 82 41 30 42 87 43
REMARK SMILES IDX 81 44 83 45 31 46 86 47 80 48 79 49 32 51 66 52 45 53 65 54
REMARK SMILES IDX 46 55 49 56 64 57 84 58 47 59 48 60 63 62 85 63 50 64 33 65
REMARK SMILES IDX 34 66 43 67 35 68 36 69 42 70 44 71 37 72 38 73 39 74 40 75
REMARK SMILES IDX 41 76 67 77 68 78 77 79 69 80 70 81 76 82 78 83 71 84 72 85
REMARK SMILES IDX 73 86 74 87 75 88 51 89 52 90 61 91 53 92 54 93 60 94 62 95
REMARK SMILES IDX 55 96 56 97 57 98 58 99 59 100
REMARK H PARENT 11 12 83 50 49 61
REMARK Flexibility Score: inf
ROOT
ATOM      1  C   UNL A   1      34.419  31.325  27.545  1.00  0.00     0.275 C 
ENDROOT
BRANCH   1   2
ATOM      2  O   UNL A   1      33.379  30.334  27.418  1.00  0.00    -0.458 OA
BRANCH   2   3
ATOM      3  C   UNL A   1      32.250  30.776  26.820  1.00  0.00     0.338 C 
ATOM      4  O   UNL A   1      31.802  31.913  26.860  1.00  0.00    -0.246 OA
BRANCH   3   5
ATOM      5  C   UNL A   1      31.599  29.714  26.029  1.00  0.00     0.060 A 
ATOM      6  C   UNL A   1      30.776  27.554  24.455  1.00  0.00     0.038 A 
ATOM      7  C   UNL A   1      31.198  27.344  25.764  1.00  0.00     0.027 A 
ATOM      8  C   UNL A   1      30.701  28.862  23.959  1.00  0.00     0.027 A 
ATOM      9  C   UNL A   1      31.638  28.410  26.526  1.00  0.00     0.018 A 
ATOM     10  C   UNL A   1      31.090  29.950  24.751  1.00  0.00     0.018 A 
BRANCH   6  11
ATOM     11  N   UNL A   1      30.572  26.416  23.668  1.00  0.00    -0.355 N 
ATOM     12  H   UNL A   1      29.654  26.061  23.693  1.00  0.00     0.167 HD
BRANCH  11  13
ATOM     13  C   UNL A   1      31.459  25.687  22.841  1.00  0.00     0.050 A 
ATOM     14  C   UNL A   1      32.820  21.872  24.069  1.00  0.00     0.163 A 
ATOM     15  C   UNL A   1      33.206  22.415  22.834  1.00  0.00     0.079 A 
ATOM     16  C   UNL A   1      31.950  22.591  24.884  1.00  0.00     0.161 A 
ATOM     17  C   UNL A   1      32.761  23.670  22.404  1.00  0.00     0.076 A 
ATOM     18  C   UNL A   1      31.486  23.827  24.461  1.00  0.00     0.063 A 
ATOM     19  N   UNL A   1      33.193  24.172  21.232  1.00  0.00    -0.256 NA
ATOM     20  C   UNL A   1      31.883  24.395  23.240  1.00  0.00     0.028 A 
ATOM     21  C   UNL A   1      32.787  25.414  20.883  1.00  0.00     0.114 A 
ATOM     22  C   UNL A   1      31.929  26.194  21.633  1.00  0.00     0.047 A 
BRANCH  14  23
ATOM     23  O   UNL A   1      33.396  20.735  24.559  1.00  0.00    -0.490 OA
BRANCH  23  24
ATOM     24  C   UNL A   1      32.505  19.626  24.711  1.00  0.00     0.226 C 
ATOM     25  C   UNL A   1      32.820  18.630  23.600  1.00  0.00     0.049 C 
ENDBRANCH  23  24
ENDBRANCH  14  23
BRANCH  16  26
ATOM     26  O   UNL A   1      31.492  22.253  26.124  1.00  0.00    -0.490 OA
BRANCH  26  27
ATOM     27  C   UNL A   1      32.072  22.928  27.233  1.00  0.00     0.226 C 
ATOM     28  C   UNL A   1      33.302  22.241  27.815  1.00  0.00     0.049 C 
ENDBRANCH  26  27
ENDBRANCH  16  26
ENDBRANCH  11  13
ENDBRANCH   6  11
ENDBRANCH   3   5
ENDBRANCH   2   3
ENDBRANCH   1   2
BRANCH   1  29
ATOM     29  C   UNL A   1      35.076  31.275  28.926  1.00  0.00     0.275 C 
BRANCH  29  30
ATOM     30  O   UNL A   1      35.769  30.029  29.128  1.00  0.00    -0.458 OA
BRANCH  30  31
ATOM     31  C   UNL A   1      36.546  29.974  30.235  1.00  0.00     0.338 C 
ATOM     32  O   UNL A   1      36.178  29.962  31.396  1.00  0.00    -0.246 OA
BRANCH  31  33
ATOM     33  C   UNL A   1      37.964  29.844  29.861  1.00  0.00     0.060 A 
ATOM     34  C   UNL A   1      38.293  29.960  28.519  1.00  0.00     0.016 A 
ATOM     35  C   UNL A   1      38.924  29.416  30.772  1.00  0.00     0.016 A 
ATOM     36  C   UNL A   1      39.513  29.487  28.052  1.00  0.00     0.010 A 
ATOM     37  C   UNL A   1      40.219  29.119  30.321  1.00  0.00     0.010 A 
ATOM     38  C   UNL A   1      40.525  29.116  28.947  1.00  0.00    -0.014 A 
BRANCH  38  39
ATOM     39  C   UNL A   1      41.892  28.788  28.435  1.00  0.00     0.031 A 
ATOM     40  C   UNL A   1      42.228  27.402  27.938  1.00  0.00     0.074 A 
ATOM     41  C   UNL A   1      42.845  29.748  28.422  1.00  0.00     0.049 A 
ATOM     42  N   UNL A   1      43.397  26.897  27.633  1.00  0.00    -0.248 NA
ATOM     43  C   UNL A   1      41.112  26.456  27.772  1.00  0.00     0.031 C 
ATOM     44  C   UNL A   1      42.657  31.141  28.843  1.00  0.00     0.029 A 
ATOM     45  N   UNL A   1      44.165  29.708  28.038  1.00  0.00    -0.354 N 
ATOM     46  C   UNL A   1      43.168  25.567  27.296  1.00  0.00     0.074 A 
ATOM     47  C   UNL A   1      41.746  25.340  27.433  1.00  0.00     0.031 C 
ATOM     48  C   UNL A   1      43.788  31.828  28.645  1.00  0.00     0.029 A 
ATOM     49  C   UNL A   1      44.825  30.905  28.211  1.00  0.00     0.049 A 
ATOM     50  H   UNL A   1      44.597  28.902  27.674  1.00  0.00     0.167 HD
ATOM     51  C   UNL A   1      44.065  24.625  26.912  1.00  0.00     0.037 A 
ATOM     52  C   UNL A   1      46.128  31.224  28.106  1.00  0.00     0.037 A 
ATOM     53  C   UNL A   1      45.474  24.879  26.734  1.00  0.00     0.049 A 
ATOM     54  C   UNL A   1      47.107  30.147  27.739  1.00  0.00     0.074 A 
ATOM     55  C   UNL A   1      46.459  23.999  26.315  1.00  0.00     0.029 A 
ATOM     56  N   UNL A   1      46.101  26.096  26.960  1.00  0.00    -0.354 N 
ATOM     57  N   UNL A   1      46.874  28.891  27.447  1.00  0.00    -0.248 NA
ATOM     58  C   UNL A   1      48.525  30.522  27.711  1.00  0.00     0.031 C 
ATOM     59  C   UNL A   1      47.687  24.667  26.345  1.00  0.00     0.029 A 
ATOM     60  C   UNL A   1      47.461  25.981  26.722  1.00  0.00     0.049 A 
ATOM     61  H   UNL A   1      45.645  26.921  27.246  1.00  0.00     0.167 HD
ATOM     62  C   UNL A   1      48.116  28.328  27.184  1.00  0.00     0.074 A 
ATOM     63  C   UNL A   1      49.093  29.388  27.325  1.00  0.00     0.031 C 
ATOM     64  C   UNL A   1      48.421  27.047  26.863  1.00  0.00     0.037 A 
BRANCH  51  65
ATOM     65  C   UNL A   1      43.577  23.217  26.687  1.00  0.00     0.058 A 
ATOM     66  C   UNL A   1      43.545  22.627  25.414  1.00  0.00     0.135 A 
ATOM     67  C   UNL A   1      43.217  22.414  27.785  1.00  0.00     0.135 A 
ATOM     68  F   UNL A   1      43.864  23.349  24.328  1.00  0.00    -0.206 F 
ATOM     69  C   UNL A   1      43.167  21.298  25.236  1.00  0.00     0.059 A 
ATOM     70  C   UNL A   1      42.861  21.077  27.633  1.00  0.00     0.059 A 
ATOM     71  F   UNL A   1      43.227  22.924  29.026  1.00  0.00    -0.206 F 
ATOM     72  C   UNL A   1      42.833  20.529  26.352  1.00  0.00     0.060 A 
BRANCH  72  73
ATOM     73  S   UNL A   1      42.382  18.797  26.106  1.00  0.00     0.124 S 
ATOM     74  O   UNL A   1      43.307  18.402  25.048  1.00  0.00    -0.237 OA
ATOM     75  O   UNL A   1      42.641  18.220  27.421  1.00  0.00    -0.237 OA
ATOM     76  O   UNL A   1      40.976  18.860  25.718  1.00  0.00    -0.744 OA
ENDBRANCH  72  73
ENDBRANCH  51  65
BRANCH  52  77
ATOM     77  C   UNL A   1      46.592  32.605  28.424  1.00  0.00     0.058 A 
ATOM     78  C   UNL A   1      46.699  33.582  27.425  1.00  0.00     0.135 A 
ATOM     79  C   UNL A   1      46.941  32.973  29.735  1.00  0.00     0.135 A 
ATOM     80  F   UNL A   1      46.388  33.280  26.156  1.00  0.00    -0.206 F 
ATOM     81  C   UNL A   1      47.159  34.865  27.707  1.00  0.00     0.059 A 
ATOM     82  C   UNL A   1      47.365  34.259  30.049  1.00  0.00     0.059 A 
ATOM     83  F   UNL A   1      46.844  32.081  30.735  1.00  0.00    -0.206 F 
ATOM     84  C   UNL A   1      47.490  35.193  29.023  1.00  0.00     0.060 A 
BRANCH  84  85
ATOM     85  S   UNL A   1      48.067  36.865  29.382  1.00  0.00     0.124 S 
ATOM     86  O   UNL A   1      46.945  37.670  28.911  1.00  0.00    -0.237 OA
ATOM     87  O   UNL A   1      48.259  36.820  30.829  1.00  0.00    -0.237 OA
ATOM     88  O   UNL A   1      49.294  36.973  28.598  1.00  0.00    -0.744 OA
ENDBRANCH  84  85
ENDBRANCH  52  77
BRANCH  64  89
ATOM     89  C   UNL A   1      49.869  26.732  26.611  1.00  0.00     0.058 A 
ATOM     90  C   UNL A   1      50.705  26.246  27.629  1.00  0.00     0.135 A 
ATOM     91  C   UNL A   1      50.419  26.888  25.328  1.00  0.00     0.135 A 
ATOM     92  F   UNL A   1      50.232  26.090  28.876  1.00  0.00    -0.206 F 
ATOM     93  C   UNL A   1      52.043  25.951  27.390  1.00  0.00     0.059 A 
ATOM     94  C   UNL A   1      51.745  26.568  25.060  1.00  0.00     0.059 A 
ATOM     95  F   UNL A   1      49.661  27.345  24.319  1.00  0.00    -0.206 F 
ATOM     96  C   UNL A   1      52.552  26.111  26.100  1.00  0.00     0.060 A 
BRANCH  96  97
ATOM     97  S   UNL A   1      54.281  25.692  25.799  1.00  0.00     0.124 S 
ATOM     98  O   UNL A   1      54.806  26.952  25.288  1.00  0.00    -0.237 OA
ATOM     99  O   UNL A   1      54.743  25.303  27.128  1.00  0.00    -0.237 OA
ATOM    100  O   UNL A   1      54.203  24.604  24.827  1.00  0.00    -0.744 OA
ENDBRANCH  96  97
ENDBRANCH  64  89
ENDBRANCH  38  39
ENDBRANCH  31  33
ENDBRANCH  30  31
ENDBRANCH  29  30
ENDBRANCH   1  29
TORSDOF 20
ENDMDL
MODEL 3
REMARK VINA RESULT:     -10.9      1.280      2.128
REMARK SMILES CCOc1cc2nccc(Nc3ccc(C(=O)OCCOC(=O)c4ccc(-c5c6nc(c(-c7c(F)cc(S(=O)(=O)[O-])cc7F)c7ccc([nH]7)c(-c7c(F)cc(S(=O)(=O)[O-])cc7F)c7nc(c(-c8c(F)cc(S(=O)(=O)[O-])cc8F)c8ccc5[nH]8)C=C7)C=C6)cc4)cc3)c2cc1OCC
REMARK SMILES IDX 19 1 18 2 16 3 17 4 15 5 12 6 13 7 91 8 14 9 90 10 11 11
REMARK SMILES IDX 10 13 4 14 5 15 94 16 6 17 93 18 7 19 92 20 8 21 9 22 3 23
REMARK SMILES IDX 2 24 1 25 95 26 96 27 97 28 20 29 21 30 22 31 23 32 24 33
REMARK SMILES IDX 25 34 89 35 26 36 88 37 27 38 28 39 29 40 82 41 30 42 87 43
REMARK SMILES IDX 81 44 83 45 31 46 86 47 80 48 79 49 32 51 66 52 45 53 65 54
REMARK SMILES IDX 46 55 49 56 64 57 84 58 47 59 48 60 63 62 85 63 50 64 33 65
REMARK SMILES IDX 34 66 43 67 35 68 36 69 42 70 44 71 37 72 38 73 39 74 40 75
REMARK SMILES IDX 41 76 67 77 68 78 77 79 69 80 70 81 76 82 78 83 71 84 72 85
REMARK SMILES IDX 73 86 74 87 75 88 51 89 52 90 61 91 53 92 54 93 60 94 62 95
REMARK SMILES IDX 55 96 56 97 57 98 58 99 59 100
REMARK H PARENT 11 12 83 50 49 61
REMARK Flexibility Score: inf
ROOT
ATOM      1  C   UNL A   1      42.143  21.898  26.876  1.00  0.00     0.275 C 
ENDROOT
BRANCH   1   2
ATOM      2  O   UNL A   1      40.732  21.966  27.167  1.00  0.00    -0.458 OA
BRANCH   2   3
ATOM      3  C   UNL A   1      39.963  21.135  26.429  1.00  0.00     0.338 C 
ATOM      4  O   UNL A   1      40.134  19.934  26.270  1.00  0.00    -0.246 OA
BRANCH   3   5
ATOM      5  C   UNL A   1      38.806  21.836  25.844  1.00  0.00     0.060 A 
ATOM      6  C   UNL A   1      36.436  23.144  25.141  1.00  0.00     0.038 A 
ATOM      7  C   UNL A   1      37.416  23.816  25.864  1.00  0.00     0.027 A 
ATOM      8  C   UNL A   1      36.677  21.834  24.710  1.00  0.00     0.027 A 
ATOM      9  C   UNL A   1      38.570  23.154  26.241  1.00  0.00     0.018 A 
ATOM     10  C   UNL A   1      37.872  21.182  25.039  1.00  0.00     0.018 A 
BRANCH   6  11
ATOM     11  N   UNL A   1      35.203  23.790  24.999  1.00  0.00    -0.355 N 
ATOM     12  H   UNL A   1      34.830  24.147  25.837  1.00  0.00     0.167 HD
BRANCH  11  13
ATOM     13  C   UNL A   1      34.399  24.018  23.856  1.00  0.00     0.050 A 
ATOM     14  C   UNL A   1      32.581  27.798  23.288  1.00  0.00     0.163 A 
ATOM     15  C   UNL A   1      32.431  26.772  22.341  1.00  0.00     0.079 A 
ATOM     16  C   UNL A   1      33.368  27.572  24.413  1.00  0.00     0.161 A 
ATOM     17  C   UNL A   1      33.031  25.519  22.505  1.00  0.00     0.076 A 
ATOM     18  C   UNL A   1      33.984  26.341  24.578  1.00  0.00     0.063 A 
ATOM     19  N   UNL A   1      32.822  24.550  21.594  1.00  0.00    -0.256 NA
ATOM     20  C   UNL A   1      33.822  25.297  23.653  1.00  0.00     0.028 A 
ATOM     21  C   UNL A   1      33.370  23.334  21.821  1.00  0.00     0.114 A 
ATOM     22  C   UNL A   1      34.160  23.026  22.911  1.00  0.00     0.047 A 
BRANCH  14  23
ATOM     23  O   UNL A   1      31.852  28.950  23.212  1.00  0.00    -0.490 OA
BRANCH  23  24
ATOM     24  C   UNL A   1      30.671  28.862  22.409  1.00  0.00     0.226 C 
ATOM     25  C   UNL A   1      29.652  29.841  22.982  1.00  0.00     0.049 C 
ENDBRANCH  23  24
ENDBRANCH  14  23
BRANCH  16  26
ATOM     26  O   UNL A   1      33.605  28.421  25.454  1.00  0.00    -0.490 OA
BRANCH  26  27
ATOM     27  C   UNL A   1      33.066  28.058  26.720  1.00  0.00     0.226 C 
ATOM     28  C   UNL A   1      32.164  29.115  27.347  1.00  0.00     0.049 C 
ENDBRANCH  26  27
ENDBRANCH  16  26
ENDBRANCH  11  13
ENDBRANCH   6  11
ENDBRANCH   3   5
ENDBRANCH   2   3
ENDBRANCH   1   2
BRANCH   1  29
ATOM     29  C   UNL A   1      42.659  23.210  26.282  1.00  0.00     0.275 C 
BRANCH  29  30
ATOM     30  O   UNL A   1      41.612  24.197  26.216  1.00  0.00    -0.458 OA
BRANCH  30  31
ATOM     31  C   UNL A   1      42.033  25.470  26.027  1.00  0.00     0.338 C 
ATOM     32  O   UNL A   1      42.363  25.990  24.976  1.00  0.00    -0.246 OA
BRANCH  31  33
ATOM     33  C   UNL A   1      41.968  26.225  27.289  1.00  0.00     0.060 A 
ATOM     34  C   UNL A   1      41.120  25.758  28.280  1.00  0.00     0.016 A 
ATOM     35  C   UNL A   1      42.567  27.473  27.425  1.00  0.00     0.016 A 
ATOM     36  C   UNL A   1      40.725  26.593  29.319  1.00  0.00     0.010 A 
ATOM     37  C   UNL A   1      42.313  28.239  28.574  1.00  0.00     0.010 A 
ATOM     38  C   UNL A   1      41.359  27.825  29.524  1.00  0.00    -0.014 A 
BRANCH  38  39
ATOM     39  C   UNL A   1      41.056  28.628  30.749  1.00  0.00     0.031 A 
ATOM     40  C   UNL A   1      39.910  29.612  30.775  1.00  0.00     0.074 A 
ATOM     41  C   UNL A   1      41.823  28.473  31.852  1.00  0.00     0.049 A 
ATOM     42  N   UNL A   1      39.618  30.513  31.679  1.00  0.00    -0.248 NA
ATOM     43  C   UNL A   1      38.979  29.592  29.635  1.00  0.00     0.031 C 
ATOM     44  C   UNL A   1      42.945  27.536  31.984  1.00  0.00     0.029 A 
ATOM     45  N   UNL A   1      41.781  29.093  33.079  1.00  0.00    -0.354 N 
ATOM     46  C   UNL A   1      38.510  31.202  31.195  1.00  0.00     0.074 A 
ATOM     47  C   UNL A   1      38.180  30.615  29.914  1.00  0.00     0.031 C 
ATOM     48  C   UNL A   1      43.443  27.603  33.225  1.00  0.00     0.029 A 
ATOM     49  C   UNL A   1      42.773  28.677  33.940  1.00  0.00     0.049 A 
ATOM     50  H   UNL A   1      41.107  29.768  33.319  1.00  0.00     0.167 HD
ATOM     51  C   UNL A   1      37.838  32.230  31.767  1.00  0.00     0.037 A 
ATOM     52  C   UNL A   1      43.158  29.143  35.142  1.00  0.00     0.037 A 
ATOM     53  C   UNL A   1      38.150  32.774  33.068  1.00  0.00     0.049 A 
ATOM     54  C   UNL A   1      42.434  30.322  35.724  1.00  0.00     0.074 A 
ATOM     55  C   UNL A   1      37.506  33.793  33.749  1.00  0.00     0.029 A 
ATOM     56  N   UNL A   1      39.187  32.345  33.883  1.00  0.00    -0.354 N 
ATOM     57  N   UNL A   1      41.405  30.973  35.241  1.00  0.00    -0.248 NA
ATOM     58  C   UNL A   1      42.936  30.844  37.001  1.00  0.00     0.031 C 
ATOM     59  C   UNL A   1      38.189  34.020  34.947  1.00  0.00     0.029 A 
ATOM     60  C   UNL A   1      39.221  33.102  35.044  1.00  0.00     0.049 A 
ATOM     61  H   UNL A   1      39.807  31.611  33.669  1.00  0.00     0.167 HD
ATOM     62  C   UNL A   1      41.126  31.974  36.163  1.00  0.00     0.074 A 
ATOM     63  C   UNL A   1      42.077  31.823  37.244  1.00  0.00     0.031 C 
ATOM     64  C   UNL A   1      40.173  32.937  36.114  1.00  0.00     0.037 A 
BRANCH  51  65
ATOM     65  C   UNL A   1      36.715  32.874  30.994  1.00  0.00     0.058 A 
ATOM     66  C   UNL A   1      35.365  32.662  31.313  1.00  0.00     0.135 A 
ATOM     67  C   UNL A   1      37.005  33.792  29.969  1.00  0.00     0.135 A 
ATOM     68  F   UNL A   1      35.028  31.786  32.273  1.00  0.00    -0.206 F 
ATOM     69  C   UNL A   1      34.344  33.328  30.640  1.00  0.00     0.059 A 
ATOM     70  C   UNL A   1      36.002  34.488  29.300  1.00  0.00     0.059 A 
ATOM     71  F   UNL A   1      38.278  34.035  29.619  1.00  0.00    -0.206 F 
ATOM     72  C   UNL A   1      34.672  34.245  29.639  1.00  0.00     0.060 A 
BRANCH  72  73
ATOM     73  S   UNL A   1      33.337  35.127  28.801  1.00  0.00     0.124 S 
ATOM     74  O   UNL A   1      32.764  34.070  27.972  1.00  0.00    -0.237 OA
ATOM     75  O   UNL A   1      32.511  35.572  29.919  1.00  0.00    -0.237 OA
ATOM     76  O   UNL A   1      34.028  36.187  28.075  1.00  0.00    -0.744 OA
ENDBRANCH  72  73
ENDBRANCH  51  65
BRANCH  52  77
ATOM     77  C   UNL A   1      44.331  28.543  35.840  1.00  0.00     0.058 A 
ATOM     78  C   UNL A   1      44.166  27.535  36.801  1.00  0.00     0.135 A 
ATOM     79  C   UNL A   1      45.641  28.969  35.563  1.00  0.00     0.135 A 
ATOM     80  F   UNL A   1      42.935  27.099  37.110  1.00  0.00    -0.206 F 
ATOM     81  C   UNL A   1      45.252  26.990  37.480  1.00  0.00     0.059 A 
ATOM     82  C   UNL A   1      46.745  28.412  36.199  1.00  0.00     0.059 A 
ATOM     83  F   UNL A   1      45.860  29.922  34.642  1.00  0.00    -0.206 F 
ATOM     84  C   UNL A   1      46.537  27.435  37.170  1.00  0.00     0.060 A 
BRANCH  84  85
ATOM     85  S   UNL A   1      47.941  26.708  38.041  1.00  0.00     0.124 S 
ATOM     86  O   UNL A   1      48.390  27.829  38.859  1.00  0.00    -0.237 OA
ATOM     87  O   UNL A   1      47.317  25.601  38.760  1.00  0.00    -0.237 OA
ATOM     88  O   UNL A   1      48.841  26.315  36.960  1.00  0.00    -0.744 OA
ENDBRANCH  84  85
ENDBRANCH  52  77
BRANCH  64  89
ATOM     89  C   UNL A   1      40.094  33.881  37.281  1.00  0.00     0.058 A 
ATOM     90  C   UNL A   1      40.842  35.068  37.320  1.00  0.00     0.135 A 
ATOM     91  C   UNL A   1      39.236  33.610  38.359  1.00  0.00     0.135 A 
ATOM     92  F   UNL A   1      41.687  35.368  36.320  1.00  0.00    -0.206 F 
ATOM     93  C   UNL A   1      40.763  35.941  38.400  1.00  0.00     0.059 A 
ATOM     94  C   UNL A   1      39.116  34.485  39.434  1.00  0.00     0.059 A 
ATOM     95  F   UNL A   1      38.495  32.491  38.369  1.00  0.00    -0.206 F 
ATOM     96  C   UNL A   1      39.892  35.642  39.449  1.00  0.00     0.060 A 
BRANCH  96  97
ATOM     97  S   UNL A   1      39.775  36.802  40.827  1.00  0.00     0.124 S 
ATOM     98  O   UNL A   1      38.603  37.585  40.455  1.00  0.00    -0.237 OA
ATOM     99  O   UNL A   1      39.606  35.910  41.971  1.00  0.00    -0.237 OA
ATOM    100  O   UNL A   1      41.049  37.516  40.780  1.00  0.00    -0.744 OA
ENDBRANCH  96  97
ENDBRANCH  64  89
ENDBRANCH  38  39
ENDBRANCH  31  33
ENDBRANCH  30  31
ENDBRANCH  29  30
ENDBRANCH   1  29
TORSDOF 20
ENDMDL
