MODEL 1
REMARK VINA RESULT:     -10.8      0.000      0.000
REMARK SMILES COc1ccc(C(=O)Nc2cccc(C(=O)OCCOC(=O)c3ccc(-c4c5nc(c(-c6c(F)cc(S(=O)(=O)[O-])cc6F)c6ccc([nH]6)c(-c6c(F)cc(S(=O)(=O)[O-])cc6F)c6nc(c(-c7c(F)cc(S(=O)(=O)[O-])cc7F)c7ccc4[nH]7)C=C6)C=C5)cc3)c2)cc1
REMARK SMILES IDX 18 1 17 2 15 3 16 4 14 5 10 6 11 7 89 8 12 9 13 10 9 11 7 12
REMARK SMILES IDX 8 13 6 15 3 16 4 17 91 18 5 19 90 20 2 21 1 22 19 23 20 24
REMARK SMILES IDX 21 25 22 26 23 27 24 28 88 29 25 30 87 31 26 32 27 33 28 34
REMARK SMILES IDX 81 35 29 36 86 37 80 38 82 39 30 40 85 41 79 42 78 43 31 45
REMARK SMILES IDX 65 46 44 47 64 48 45 49 48 50 63 51 83 52 46 53 47 54 62 56
REMARK SMILES IDX 84 57 49 58 32 59 33 60 42 61 34 62 35 63 41 64 43 65 36 66
REMARK SMILES IDX 37 67 38 68 39 69 40 70 66 71 67 72 76 73 68 74 69 75 75 76
REMARK SMILES IDX 77 77 70 78 71 79 72 80 73 81 74 82 50 83 51 84 60 85 52 86
REMARK SMILES IDX 53 87 59 88 61 89 54 90 55 91 56 92 57 93 58 94
REMARK H PARENT 9 14 82 44 48 55
REMARK Flexibility Score: inf
ROOT
ATOM      1  C   UNL A   1      33.282  33.968  28.044  1.00  0.00     0.275 C 
ENDROOT
BRANCH   1   2
ATOM      2  O   UNL A   1      33.071  34.335  29.422  1.00  0.00    -0.458 OA
BRANCH   2   3
ATOM      3  C   UNL A   1      32.846  35.649  29.660  1.00  0.00     0.338 C 
ATOM      4  O   UNL A   1      32.375  36.468  28.878  1.00  0.00    -0.246 OA
BRANCH   3   5
ATOM      5  C   UNL A   1      33.219  35.992  31.046  1.00  0.00     0.062 A 
ATOM      6  C   UNL A   1      34.089  35.294  33.182  1.00  0.00     0.042 A 
ATOM      7  C   UNL A   1      34.160  36.626  33.599  1.00  0.00     0.026 A 
ATOM      8  C   UNL A   1      33.512  34.975  31.952  1.00  0.00     0.041 A 
ATOM      9  C   UNL A   1      33.841  37.645  32.704  1.00  0.00     0.003 A 
ATOM     10  C   UNL A   1      33.427  37.326  31.410  1.00  0.00     0.016 A 
BRANCH   6  11
ATOM     11  N   UNL A   1      34.722  34.325  33.976  1.00  0.00    -0.322 N 
ATOM     12  C   UNL A   1      35.791  33.507  33.654  1.00  0.00     0.255 C 
ATOM     13  O   UNL A   1      36.095  32.573  34.395  1.00  0.00    -0.269 OA
ATOM     14  H   UNL A   1      34.357  34.213  34.884  1.00  0.00     0.170 HD
BRANCH  12  15
ATOM     15  C   UNL A   1      36.645  33.784  32.459  1.00  0.00     0.040 A 
ATOM     16  C   UNL A   1      38.384  34.211  30.290  1.00  0.00     0.118 A 
ATOM     17  C   UNL A   1      38.665  34.754  31.547  1.00  0.00     0.047 A 
ATOM     18  C   UNL A   1      37.199  33.500  30.106  1.00  0.00     0.047 A 
ATOM     19  C   UNL A   1      37.806  34.541  32.630  1.00  0.00     0.017 A 
ATOM     20  C   UNL A   1      36.316  33.321  31.177  1.00  0.00     0.017 A 
BRANCH  16  21
ATOM     21  O   UNL A   1      39.328  34.456  29.332  1.00  0.00    -0.497 OA
ATOM     22  C   UNL A   1      40.684  34.500  29.763  1.00  0.00     0.278 C 
ENDBRANCH  16  21
ENDBRANCH  12  15
ENDBRANCH   6  11
ENDBRANCH   3   5
ENDBRANCH   2   3
ENDBRANCH   1   2
BRANCH   1  23
ATOM     23  C   UNL A   1      34.383  32.916  27.938  1.00  0.00     0.275 C 
BRANCH  23  24
ATOM     24  O   UNL A   1      33.822  31.619  28.199  1.00  0.00    -0.458 OA
BRANCH  24  25
ATOM     25  C   UNL A   1      34.268  30.607  27.427  1.00  0.00     0.338 C 
ATOM     26  O   UNL A   1      33.746  30.161  26.409  1.00  0.00    -0.246 OA
BRANCH  25  27
ATOM     27  C   UNL A   1      35.528  30.085  27.981  1.00  0.00     0.060 A 
ATOM     28  C   UNL A   1      35.562  29.624  29.295  1.00  0.00     0.016 A 
ATOM     29  C   UNL A   1      36.700  30.141  27.233  1.00  0.00     0.016 A 
ATOM     30  C   UNL A   1      36.774  29.299  29.900  1.00  0.00     0.010 A 
ATOM     31  C   UNL A   1      37.905  29.721  27.808  1.00  0.00     0.010 A 
ATOM     32  C   UNL A   1      37.963  29.330  29.160  1.00  0.00    -0.014 A 
BRANCH  32  33
ATOM     33  C   UNL A   1      39.268  29.015  29.805  1.00  0.00     0.031 A 
ATOM     34  C   UNL A   1      39.708  29.792  31.019  1.00  0.00     0.074 A 
ATOM     35  C   UNL A   1      40.061  28.033  29.326  1.00  0.00     0.049 A 
ATOM     36  N   UNL A   1      40.882  29.837  31.593  1.00  0.00    -0.248 NA
ATOM     37  C   UNL A   1      38.693  30.642  31.663  1.00  0.00     0.031 C 
ATOM     38  C   UNL A   1      39.745  27.157  28.194  1.00  0.00     0.029 A 
ATOM     39  N   UNL A   1      41.299  27.604  29.736  1.00  0.00    -0.354 N 
ATOM     40  C   UNL A   1      40.768  30.767  32.620  1.00  0.00     0.074 A 
ATOM     41  C   UNL A   1      39.405  31.254  32.598  1.00  0.00     0.031 C 
ATOM     42  C   UNL A   1      40.744  26.277  28.025  1.00  0.00     0.029 A 
ATOM     43  C   UNL A   1      41.809  26.577  28.976  1.00  0.00     0.049 A 
ATOM     44  H   UNL A   1      41.777  27.994  30.503  1.00  0.00     0.167 HD
ATOM     45  C   UNL A   1      41.714  31.181  33.495  1.00  0.00     0.037 A 
ATOM     46  C   UNL A   1      43.011  25.973  29.008  1.00  0.00     0.037 A 
ATOM     47  C   UNL A   1      43.050  30.646  33.555  1.00  0.00     0.049 A 
ATOM     48  C   UNL A   1      44.048  26.448  29.988  1.00  0.00     0.074 A 
ATOM     49  C   UNL A   1      44.088  31.011  34.394  1.00  0.00     0.029 A 
ATOM     50  N   UNL A   1      43.522  29.609  32.763  1.00  0.00    -0.354 N 
ATOM     51  N   UNL A   1      43.956  27.399  30.886  1.00  0.00    -0.248 NA
ATOM     52  C   UNL A   1      45.361  25.786  29.942  1.00  0.00     0.031 C 
ATOM     53  C   UNL A   1      45.193  30.202  34.103  1.00  0.00     0.029 A 
ATOM     54  C   UNL A   1      44.832  29.317  33.100  1.00  0.00     0.049 A 
ATOM     55  H   UNL A   1      43.002  29.151  32.066  1.00  0.00     0.167 HD
ATOM     56  C   UNL A   1      45.197  27.448  31.513  1.00  0.00     0.074 A 
ATOM     57  C   UNL A   1      46.014  26.416  30.907  1.00  0.00     0.031 C 
ATOM     58  C   UNL A   1      45.624  28.280  32.493  1.00  0.00     0.037 A 
BRANCH  45  59
ATOM     59  C   UNL A   1      41.350  32.286  34.442  1.00  0.00     0.058 A 
ATOM     60  C   UNL A   1      41.382  33.633  34.056  1.00  0.00     0.135 A 
ATOM     61  C   UNL A   1      40.928  31.986  35.750  1.00  0.00     0.135 A 
ATOM     62  F   UNL A   1      41.797  33.975  32.827  1.00  0.00    -0.206 F 
ATOM     63  C   UNL A   1      41.026  34.651  34.939  1.00  0.00     0.059 A 
ATOM     64  C   UNL A   1      40.549  32.981  36.641  1.00  0.00     0.059 A 
ATOM     65  F   UNL A   1      40.884  30.711  36.167  1.00  0.00    -0.206 F 
ATOM     66  C   UNL A   1      40.613  34.315  36.230  1.00  0.00     0.060 A 
BRANCH  66  67
ATOM     67  S   UNL A   1      40.145  35.638  37.365  1.00  0.00     0.124 S 
ATOM     68  O   UNL A   1      39.787  36.705  36.435  1.00  0.00    -0.237 OA
ATOM     69  O   UNL A   1      39.035  35.042  38.103  1.00  0.00    -0.237 OA
ATOM     70  O   UNL A   1      41.359  35.863  38.143  1.00  0.00    -0.744 OA
ENDBRANCH  66  67
ENDBRANCH  45  59
BRANCH  46  71
ATOM     71  C   UNL A   1      43.324  24.881  28.049  1.00  0.00     0.058 A 
ATOM     72  C   UNL A   1      43.867  25.163  26.788  1.00  0.00     0.135 A 
ATOM     73  C   UNL A   1      43.088  23.536  28.376  1.00  0.00     0.135 A 
ATOM     74  F   UNL A   1      44.100  26.434  26.426  1.00  0.00    -0.206 F 
ATOM     75  C   UNL A   1      44.157  24.151  25.877  1.00  0.00     0.059 A 
ATOM     76  C   UNL A   1      43.392  22.506  27.492  1.00  0.00     0.059 A 
ATOM     77  F   UNL A   1      42.579  23.214  29.575  1.00  0.00    -0.206 F 
ATOM     78  C   UNL A   1      43.916  22.824  26.240  1.00  0.00     0.060 A 
BRANCH  78  79
ATOM     79  S   UNL A   1      44.343  21.507  25.081  1.00  0.00     0.124 S 
ATOM     80  O   UNL A   1      45.676  21.135  25.540  1.00  0.00    -0.237 OA
ATOM     81  O   UNL A   1      43.288  20.526  25.319  1.00  0.00    -0.237 OA
ATOM     82  O   UNL A   1      44.281  22.177  23.784  1.00  0.00    -0.744 OA
ENDBRANCH  78  79
ENDBRANCH  46  71
BRANCH  58  83
ATOM     83  C   UNL A   1      47.027  28.090  32.988  1.00  0.00     0.058 A 
ATOM     84  C   UNL A   1      48.104  28.783  32.415  1.00  0.00     0.135 A 
ATOM     85  C   UNL A   1      47.291  27.238  34.072  1.00  0.00     0.135 A 
ATOM     86  F   UNL A   1      47.901  29.603  31.372  1.00  0.00    -0.206 F 
ATOM     87  C   UNL A   1      49.401  28.624  32.890  1.00  0.00     0.059 A 
ATOM     88  C   UNL A   1      48.578  27.077  34.573  1.00  0.00     0.059 A 
ATOM     89  F   UNL A   1      46.290  26.560  34.656  1.00  0.00    -0.206 F 
ATOM     90  C   UNL A   1      49.629  27.766  33.968  1.00  0.00     0.060 A 
BRANCH  90  91
ATOM     91  S   UNL A   1      51.311  27.586  34.597  1.00  0.00     0.124 S 
ATOM     92  O   UNL A   1      52.103  27.929  33.421  1.00  0.00    -0.237 OA
ATOM     93  O   UNL A   1      51.346  28.554  35.690  1.00  0.00    -0.237 OA
ATOM     94  O   UNL A   1      51.368  26.186  35.009  1.00  0.00    -0.744 OA
ENDBRANCH  90  91
ENDBRANCH  58  83
ENDBRANCH  32  33
ENDBRANCH  25  27
ENDBRANCH  24  25
ENDBRANCH  23  24
ENDBRANCH   1  23
TORSDOF 17
ENDMDL
MODEL 2
REMARK VINA RESULT:     -10.6      2.542      3.100
REMARK SMILES COc1ccc(C(=O)Nc2cccc(C(=O)OCCOC(=O)c3ccc(-c4c5nc(c(-c6c(F)cc(S(=O)(=O)[O-])cc6F)c6ccc([nH]6)c(-c6c(F)cc(S(=O)(=O)[O-])cc6F)c6nc(c(-c7c(F)cc(S(=O)(=O)[O-])cc7F)c7ccc4[nH]7)C=C6)C=C5)cc3)c2)cc1
REMARK SMILES IDX 18 1 17 2 15 3 16 4 14 5 10 6 11 7 89 8 12 9 13 10 9 11 7 12
REMARK SMILES IDX 8 13 6 15 3 16 4 17 91 18 5 19 90 20 2 21 1 22 19 23 20 24
REMARK SMILES IDX 21 25 22 26 23 27 24 28 88 29 25 30 87 31 26 32 27 33 28 34
REMARK SMILES IDX 81 35 29 36 86 37 80 38 82 39 30 40 85 41 79 42 78 43 31 45
REMARK SMILES IDX 65 46 44 47 64 48 45 49 48 50 63 51 83 52 46 53 47 54 62 56
REMARK SMILES IDX 84 57 49 58 32 59 33 60 42 61 34 62 35 63 41 64 43 65 36 66
REMARK SMILES IDX 37 67 38 68 39 69 40 70 66 71 67 72 76 73 68 74 69 75 75 76
REMARK SMILES IDX 77 77 70 78 71 79 72 80 73 81 74 82 50 83 51 84 60 85 52 86
REMARK SMILES IDX 53 87 59 88 61 89 54 90 55 91 56 92 57 93 58 94
REMARK H PARENT 9 14 82 44 48 55
REMARK Flexibility Score: inf
ROOT
ATOM      1  C   UNL A   1      33.281  33.582  28.002  1.00  0.00     0.275 C 
ENDROOT
BRANCH   1   2
ATOM      2  O   UNL A   1      33.366  34.063  29.358  1.00  0.00    -0.458 OA
BRANCH   2   3
ATOM      3  C   UNL A   1      32.947  35.335  29.564  1.00  0.00     0.338 C 
ATOM      4  O   UNL A   1      32.367  36.058  28.761  1.00  0.00    -0.246 OA
BRANCH   3   5
ATOM      5  C   UNL A   1      33.254  35.759  30.944  1.00  0.00     0.062 A 
ATOM      6  C   UNL A   1      34.158  35.230  33.114  1.00  0.00     0.042 A 
ATOM      7  C   UNL A   1      34.071  36.573  33.488  1.00  0.00     0.026 A 
ATOM      8  C   UNL A   1      33.643  34.811  31.886  1.00  0.00     0.041 A 
ATOM      9  C   UNL A   1      33.654  37.522  32.557  1.00  0.00     0.003 A 
ATOM     10  C   UNL A   1      33.303  37.119  31.268  1.00  0.00     0.016 A 
BRANCH   6  11
ATOM     11  N   UNL A   1      34.881  34.363  33.948  1.00  0.00    -0.322 N 
ATOM     12  C   UNL A   1      35.957  33.554  33.628  1.00  0.00     0.255 C 
ATOM     13  O   UNL A   1      36.348  32.707  34.430  1.00  0.00    -0.269 OA
ATOM     14  H   UNL A   1      34.584  34.328  34.886  1.00  0.00     0.170 HD
BRANCH  12  15
ATOM     15  C   UNL A   1      36.716  33.743  32.354  1.00  0.00     0.040 A 
ATOM     16  C   UNL A   1      38.288  34.025  30.039  1.00  0.00     0.118 A 
ATOM     17  C   UNL A   1      38.584  34.753  31.195  1.00  0.00     0.047 A 
ATOM     18  C   UNL A   1      37.167  33.196  30.025  1.00  0.00     0.047 A 
ATOM     19  C   UNL A   1      37.808  34.612  32.350  1.00  0.00     0.017 A 
ATOM     20  C   UNL A   1      36.363  33.086  31.166  1.00  0.00     0.017 A 
BRANCH  16  21
ATOM     21  O   UNL A   1      39.151  34.222  28.997  1.00  0.00    -0.497 OA
ATOM     22  C   UNL A   1      40.268  35.071  29.240  1.00  0.00     0.278 C 
ENDBRANCH  16  21
ENDBRANCH  12  15
ENDBRANCH   6  11
ENDBRANCH   3   5
ENDBRANCH   2   3
ENDBRANCH   1   2
BRANCH   1  23
ATOM     23  C   UNL A   1      34.325  32.495  27.759  1.00  0.00     0.275 C 
BRANCH  23  24
ATOM     24  O   UNL A   1      33.972  31.325  28.513  1.00  0.00    -0.458 OA
BRANCH  24  25
ATOM     25  C   UNL A   1      34.412  30.144  28.030  1.00  0.00     0.338 C 
ATOM     26  O   UNL A   1      33.762  29.303  27.415  1.00  0.00    -0.246 OA
BRANCH  25  27
ATOM     27  C   UNL A   1      35.842  29.989  28.341  1.00  0.00     0.060 A 
ATOM     28  C   UNL A   1      36.789  30.170  27.334  1.00  0.00     0.016 A 
ATOM     29  C   UNL A   1      36.244  29.571  29.606  1.00  0.00     0.016 A 
ATOM     30  C   UNL A   1      38.126  29.851  27.555  1.00  0.00     0.010 A 
ATOM     31  C   UNL A   1      37.602  29.344  29.857  1.00  0.00     0.010 A 
ATOM     32  C   UNL A   1      38.555  29.447  28.825  1.00  0.00    -0.014 A 
BRANCH  32  33
ATOM     33  C   UNL A   1      39.977  29.073  29.064  1.00  0.00     0.031 A 
ATOM     34  C   UNL A   1      40.917  30.073  29.688  1.00  0.00     0.074 A 
ATOM     35  C   UNL A   1      40.437  27.845  28.743  1.00  0.00     0.049 A 
ATOM     36  N   UNL A   1      42.221  30.040  29.778  1.00  0.00    -0.248 NA
ATOM     37  C   UNL A   1      40.306  31.278  30.276  1.00  0.00     0.031 C 
ATOM     38  C   UNL A   1      39.635  26.753  28.186  1.00  0.00     0.029 A 
ATOM     39  N   UNL A   1      41.697  27.309  28.842  1.00  0.00    -0.354 N 
ATOM     40  C   UNL A   1      42.593  31.242  30.367  1.00  0.00     0.074 A 
ATOM     41  C   UNL A   1      41.374  31.980  30.626  1.00  0.00     0.031 C 
ATOM     42  C   UNL A   1      40.413  25.671  28.027  1.00  0.00     0.029 A 
ATOM     43  C   UNL A   1      41.784  26.014  28.387  1.00  0.00     0.049 A 
ATOM     44  H   UNL A   1      42.466  27.805  29.205  1.00  0.00     0.167 HD
ATOM     45  C   UNL A   1      43.835  31.693  30.660  1.00  0.00     0.037 A 
ATOM     46  C   UNL A   1      42.850  25.206  28.235  1.00  0.00     0.037 A 
ATOM     47  C   UNL A   1      45.040  30.930  30.462  1.00  0.00     0.049 A 
ATOM     48  C   UNL A   1      44.222  25.726  28.566  1.00  0.00     0.074 A 
ATOM     49  C   UNL A   1      46.349  31.305  30.710  1.00  0.00     0.029 A 
ATOM     50  N   UNL A   1      45.079  29.624  29.995  1.00  0.00    -0.354 N 
ATOM     51  N   UNL A   1      44.565  26.904  29.028  1.00  0.00    -0.248 NA
ATOM     52  C   UNL A   1      45.353  24.817  28.329  1.00  0.00     0.031 C 
ATOM     53  C   UNL A   1      47.182  30.228  30.383  1.00  0.00     0.029 A 
ATOM     54  C   UNL A   1      46.388  29.176  29.957  1.00  0.00     0.049 A 
ATOM     55  H   UNL A   1      44.293  29.095  29.731  1.00  0.00     0.167 HD
ATOM     56  C   UNL A   1      45.951  26.876  29.140  1.00  0.00     0.074 A 
ATOM     57  C   UNL A   1      46.381  25.558  28.718  1.00  0.00     0.031 C 
ATOM     58  C   UNL A   1      46.793  27.857  29.544  1.00  0.00     0.037 A 
BRANCH  45  59
ATOM     59  C   UNL A   1      43.960  33.087  31.199  1.00  0.00     0.058 A 
ATOM     60  C   UNL A   1      43.939  34.211  30.362  1.00  0.00     0.135 A 
ATOM     61  C   UNL A   1      44.069  33.302  32.586  1.00  0.00     0.135 A 
ATOM     62  F   UNL A   1      43.859  34.061  29.031  1.00  0.00    -0.206 F 
ATOM     63  C   UNL A   1      44.040  35.503  30.876  1.00  0.00     0.059 A 
ATOM     64  C   UNL A   1      44.150  34.580  33.123  1.00  0.00     0.059 A 
ATOM     65  F   UNL A   1      44.097  32.257  33.429  1.00  0.00    -0.206 F 
ATOM     66  C   UNL A   1      44.148  35.677  32.257  1.00  0.00     0.060 A 
BRANCH  66  67
ATOM     67  S   UNL A   1      44.268  37.353  32.916  1.00  0.00     0.124 S 
ATOM     68  O   UNL A   1      44.222  38.149  31.693  1.00  0.00    -0.237 OA
ATOM     69  O   UNL A   1      43.091  37.440  33.774  1.00  0.00    -0.237 OA
ATOM     70  O   UNL A   1      45.549  37.350  33.616  1.00  0.00    -0.744 OA
ENDBRANCH  66  67
ENDBRANCH  45  59
BRANCH  46  71
ATOM     71  C   UNL A   1      42.674  23.831  27.697  1.00  0.00     0.058 A 
ATOM     72  C   UNL A   1      42.631  23.598  26.315  1.00  0.00     0.135 A 
ATOM     73  C   UNL A   1      42.548  22.726  28.553  1.00  0.00     0.135 A 
ATOM     74  F   UNL A   1      42.737  24.625  25.458  1.00  0.00    -0.206 F 
ATOM     75  C   UNL A   1      42.459  22.318  25.798  1.00  0.00     0.059 A 
ATOM     76  C   UNL A   1      42.399  21.434  28.059  1.00  0.00     0.059 A 
ATOM     77  F   UNL A   1      42.593  22.896  29.883  1.00  0.00    -0.206 F 
ATOM     78  C   UNL A   1      42.344  21.241  26.680  1.00  0.00     0.060 A 
BRANCH  78  79
ATOM     79  S   UNL A   1      42.175  19.573  26.010  1.00  0.00     0.124 S 
ATOM     80  O   UNL A   1      40.760  19.542  25.659  1.00  0.00    -0.237 OA
ATOM     81  O   UNL A   1      43.111  19.588  24.890  1.00  0.00    -0.237 OA
ATOM     82  O   UNL A   1      42.570  18.725  27.132  1.00  0.00    -0.744 OA
ENDBRANCH  78  79
ENDBRANCH  46  71
BRANCH  58  83
ATOM     83  C   UNL A   1      48.257  27.534  29.575  1.00  0.00     0.058 A 
ATOM     84  C   UNL A   1      49.092  27.821  28.485  1.00  0.00     0.135 A 
ATOM     85  C   UNL A   1      48.838  26.968  30.721  1.00  0.00     0.135 A 
ATOM     86  F   UNL A   1      48.580  28.356  27.365  1.00  0.00    -0.206 F 
ATOM     87  C   UNL A   1      50.454  27.541  28.522  1.00  0.00     0.059 A 
ATOM     88  C   UNL A   1      50.200  26.695  30.787  1.00  0.00     0.059 A 
ATOM     89  F   UNL A   1      48.079  26.682  31.791  1.00  0.00    -0.206 F 
ATOM     90  C   UNL A   1      50.998  26.975  29.678  1.00  0.00     0.060 A 
BRANCH  90  91
ATOM     91  S   UNL A   1      52.771  26.641  29.731  1.00  0.00     0.124 S 
ATOM     92  O   UNL A   1      53.321  27.989  29.818  1.00  0.00    -0.237 OA
ATOM     93  O   UNL A   1      52.903  25.823  30.933  1.00  0.00    -0.237 OA
ATOM     94  O   UNL A   1      53.019  25.939  28.475  1.00  0.00    -0.744 OA
ENDBRANCH  90  91
ENDBRANCH  58  83
ENDBRANCH  32  33
ENDBRANCH  25  27
ENDBRANCH  24  25
ENDBRANCH  23  24
ENDBRANCH   1  23
TORSDOF 17
ENDMDL
MODEL 3
REMARK VINA RESULT:     -10.6      3.947     12.272
REMARK SMILES COc1ccc(C(=O)Nc2cccc(C(=O)OCCOC(=O)c3ccc(-c4c5nc(c(-c6c(F)cc(S(=O)(=O)[O-])cc6F)c6ccc([nH]6)c(-c6c(F)cc(S(=O)(=O)[O-])cc6F)c6nc(c(-c7c(F)cc(S(=O)(=O)[O-])cc7F)c7ccc4[nH]7)C=C6)C=C5)cc3)c2)cc1
REMARK SMILES IDX 18 1 17 2 15 3 16 4 14 5 10 6 11 7 89 8 12 9 13 10 9 11 7 12
REMARK SMILES IDX 8 13 6 15 3 16 4 17 91 18 5 19 90 20 2 21 1 22 19 23 20 24
REMARK SMILES IDX 21 25 22 26 23 27 24 28 88 29 25 30 87 31 26 32 27 33 28 34
REMARK SMILES IDX 81 35 29 36 86 37 80 38 82 39 30 40 85 41 79 42 78 43 31 45
REMARK SMILES IDX 65 46 44 47 64 48 45 49 48 50 63 51 83 52 46 53 47 54 62 56
REMARK SMILES IDX 84 57 49 58 32 59 33 60 42 61 34 62 35 63 41 64 43 65 36 66
REMARK SMILES IDX 37 67 38 68 39 69 40 70 66 71 67 72 76 73 68 74 69 75 75 76
REMARK SMILES IDX 77 77 70 78 71 79 72 80 73 81 74 82 50 83 51 84 60 85 52 86
REMARK SMILES IDX 53 87 59 88 61 89 54 90 55 91 56 92 57 93 58 94
REMARK H PARENT 9 14 82 44 48 55
REMARK Flexibility Score: inf
ROOT
ATOM      1  C   UNL A   1      41.146  19.836  26.574  1.00  0.00     0.275 C 
ENDROOT
BRANCH   1   2
ATOM      2  O   UNL A   1      41.859  19.181  25.507  1.00  0.00    -0.458 OA
BRANCH   2   3
ATOM      3  C   UNL A   1      42.981  18.512  25.865  1.00  0.00     0.338 C 
ATOM      4  O   UNL A   1      43.043  17.461  26.493  1.00  0.00    -0.246 OA
BRANCH   3   5
ATOM      5  C   UNL A   1      44.179  19.211  25.359  1.00  0.00     0.062 A 
ATOM      6  C   UNL A   1      45.179  21.217  24.475  1.00  0.00     0.042 A 
ATOM      7  C   UNL A   1      46.451  20.656  24.614  1.00  0.00     0.026 A 
ATOM      8  C   UNL A   1      44.042  20.451  24.740  1.00  0.00     0.041 A 
ATOM      9  C   UNL A   1      46.589  19.403  25.207  1.00  0.00     0.003 A 
ATOM     10  C   UNL A   1      45.455  18.709  25.632  1.00  0.00     0.016 A 
BRANCH   6  11
ATOM     11  N   UNL A   1      45.096  22.589  24.187  1.00  0.00    -0.322 N 
ATOM     12  C   UNL A   1      44.563  23.603  24.963  1.00  0.00     0.255 C 
ATOM     13  O   UNL A   1      44.390  24.721  24.478  1.00  0.00    -0.269 OA
ATOM     14  H   UNL A   1      45.468  22.866  23.319  1.00  0.00     0.170 HD
BRANCH  12  15
ATOM     15  C   UNL A   1      44.268  23.396  26.413  1.00  0.00     0.040 A 
ATOM     16  C   UNL A   1      43.758  23.177  29.171  1.00  0.00     0.118 A 
ATOM     17  C   UNL A   1      45.056  23.396  28.701  1.00  0.00     0.047 A 
ATOM     18  C   UNL A   1      42.721  23.010  28.254  1.00  0.00     0.047 A 
ATOM     19  C   UNL A   1      45.314  23.511  27.331  1.00  0.00     0.017 A 
ATOM     20  C   UNL A   1      42.983  23.081  26.880  1.00  0.00     0.017 A 
BRANCH  16  21
ATOM     21  O   UNL A   1      43.638  23.131  30.532  1.00  0.00    -0.497 OA
ATOM     22  C   UNL A   1      44.407  24.071  31.276  1.00  0.00     0.278 C 
ENDBRANCH  16  21
ENDBRANCH  12  15
ENDBRANCH   6  11
ENDBRANCH   3   5
ENDBRANCH   2   3
ENDBRANCH   1   2
BRANCH   1  23
ATOM     23  C   UNL A   1      39.879  20.498  26.037  1.00  0.00     0.275 C 
BRANCH  23  24
ATOM     24  O   UNL A   1      39.585  21.662  26.826  1.00  0.00    -0.458 OA
BRANCH  24  25
ATOM     25  C   UNL A   1      38.838  22.616  26.231  1.00  0.00     0.338 C 
ATOM     26  O   UNL A   1      37.924  22.452  25.428  1.00  0.00    -0.246 OA
BRANCH  25  27
ATOM     27  C   UNL A   1      39.273  23.942  26.699  1.00  0.00     0.060 A 
ATOM     28  C   UNL A   1      39.859  24.830  25.800  1.00  0.00     0.016 A 
ATOM     29  C   UNL A   1      39.190  24.272  28.048  1.00  0.00     0.016 A 
ATOM     30  C   UNL A   1      40.443  26.011  26.250  1.00  0.00     0.010 A 
ATOM     31  C   UNL A   1      39.689  25.504  28.488  1.00  0.00     0.010 A 
ATOM     32  C   UNL A   1      40.354  26.372  27.601  1.00  0.00    -0.014 A 
BRANCH  32  33
ATOM     33  C   UNL A   1      41.002  27.617  28.099  1.00  0.00     0.031 A 
ATOM     34  C   UNL A   1      42.499  27.767  28.011  1.00  0.00     0.074 A 
ATOM     35  C   UNL A   1      40.267  28.623  28.619  1.00  0.00     0.049 A 
ATOM     36  N   UNL A   1      43.278  28.651  28.577  1.00  0.00    -0.248 NA
ATOM     37  C   UNL A   1      43.215  26.779  27.185  1.00  0.00     0.031 C 
ATOM     38  C   UNL A   1      38.805  28.648  28.719  1.00  0.00     0.029 A 
ATOM     39  N   UNL A   1      40.653  29.824  29.161  1.00  0.00    -0.354 N 
ATOM     40  C   UNL A   1      44.576  28.290  28.235  1.00  0.00     0.074 A 
ATOM     41  C   UNL A   1      44.480  27.111  27.401  1.00  0.00     0.031 C 
ATOM     42  C   UNL A   1      38.419  29.817  29.253  1.00  0.00     0.029 A 
ATOM     43  C   UNL A   1      39.603  30.590  29.614  1.00  0.00     0.049 A 
ATOM     44  H   UNL A   1      41.592  30.111  29.220  1.00  0.00     0.167 HD
ATOM     45  C   UNL A   1      45.740  28.882  28.589  1.00  0.00     0.037 A 
ATOM     46  C   UNL A   1      39.592  31.758  30.282  1.00  0.00     0.037 A 
ATOM     47  C   UNL A   1      45.829  30.092  29.365  1.00  0.00     0.049 A 
ATOM     48  C   UNL A   1      40.897  32.400  30.666  1.00  0.00     0.074 A 
ATOM     49  C   UNL A   1      46.963  30.762  29.792  1.00  0.00     0.029 A 
ATOM     50  N   UNL A   1      44.740  30.830  29.805  1.00  0.00    -0.354 N 
ATOM     51  N   UNL A   1      42.118  31.990  30.421  1.00  0.00    -0.248 NA
ATOM     52  C   UNL A   1      40.822  33.648  31.440  1.00  0.00     0.031 C 
ATOM     53  C   UNL A   1      46.558  31.901  30.499  1.00  0.00     0.029 A 
ATOM     54  C   UNL A   1      45.174  31.951  30.489  1.00  0.00     0.049 A 
ATOM     55  H   UNL A   1      43.798  30.591  29.652  1.00  0.00     0.167 HD
ATOM     56  C   UNL A   1      42.957  32.931  31.008  1.00  0.00     0.074 A 
ATOM     57  C   UNL A   1      42.105  33.942  31.601  1.00  0.00     0.031 C 
ATOM     58  C   UNL A   1      44.310  32.951  31.062  1.00  0.00     0.037 A 
BRANCH  45  59
ATOM     59  C   UNL A   1      47.016  28.216  28.167  1.00  0.00     0.058 A 
ATOM     60  C   UNL A   1      47.724  28.624  27.029  1.00  0.00     0.135 A 
ATOM     61  C   UNL A   1      47.557  27.172  28.940  1.00  0.00     0.135 A 
ATOM     62  F   UNL A   1      47.241  29.600  26.246  1.00  0.00    -0.206 F 
ATOM     63  C   UNL A   1      48.918  28.008  26.655  1.00  0.00     0.059 A 
ATOM     64  C   UNL A   1      48.755  26.556  28.600  1.00  0.00     0.059 A 
ATOM     65  F   UNL A   1      46.914  26.743  30.038  1.00  0.00    -0.206 F 
ATOM     66  C   UNL A   1      49.424  26.974  27.446  1.00  0.00     0.060 A 
BRANCH  66  67
ATOM     67  S   UNL A   1      50.975  26.188  26.962  1.00  0.00     0.124 S 
ATOM     68  O   UNL A   1      51.000  26.457  25.527  1.00  0.00    -0.237 OA
ATOM     69  O   UNL A   1      51.958  26.913  27.760  1.00  0.00    -0.237 OA
ATOM     70  O   UNL A   1      50.778  24.791  27.337  1.00  0.00    -0.744 OA
ENDBRANCH  66  67
ENDBRANCH  45  59
BRANCH  46  71
ATOM     71  C   UNL A   1      38.301  32.379  30.677  1.00  0.00     0.058 A 
ATOM     72  C   UNL A   1      37.691  32.059  31.898  1.00  0.00     0.135 A 
ATOM     73  C   UNL A   1      37.654  33.306  29.844  1.00  0.00     0.135 A 
ATOM     74  F   UNL A   1      38.266  31.170  32.722  1.00  0.00    -0.206 F 
ATOM     75  C   UNL A   1      36.478  32.627  32.277  1.00  0.00     0.059 A 
ATOM     76  C   UNL A   1      36.454  33.905  30.212  1.00  0.00     0.059 A 
ATOM     77  F   UNL A   1      38.204  33.654  28.670  1.00  0.00    -0.206 F 
ATOM     78  C   UNL A   1      35.868  33.550  31.426  1.00  0.00     0.060 A 
BRANCH  78  79
ATOM     79  S   UNL A   1      34.322  34.329  31.941  1.00  0.00     0.124 S 
ATOM     80  O   UNL A   1      33.778  33.324  32.848  1.00  0.00    -0.237 OA
ATOM     81  O   UNL A   1      34.785  35.566  32.562  1.00  0.00    -0.237 OA
ATOM     82  O   UNL A   1      33.604  34.502  30.681  1.00  0.00    -0.744 OA
ENDBRANCH  78  79
ENDBRANCH  46  71
BRANCH  58  83
ATOM     83  C   UNL A   1      44.951  34.112  31.762  1.00  0.00     0.058 A 
ATOM     84  C   UNL A   1      45.265  34.059  33.129  1.00  0.00     0.135 A 
ATOM     85  C   UNL A   1      45.291  35.273  31.050  1.00  0.00     0.135 A 
ATOM     86  F   UNL A   1      44.952  32.972  33.851  1.00  0.00    -0.206 F 
ATOM     87  C   UNL A   1      45.880  35.127  33.772  1.00  0.00     0.059 A 
ATOM     88  C   UNL A   1      45.921  36.347  31.670  1.00  0.00     0.059 A 
ATOM     89  F   UNL A   1      45.016  35.366  29.740  1.00  0.00    -0.206 F 
ATOM     90  C   UNL A   1      46.201  36.269  33.034  1.00  0.00     0.060 A 
BRANCH  90  91
ATOM     91  S   UNL A   1      47.025  37.641  33.869  1.00  0.00     0.124 S 
ATOM     92  O   UNL A   1      48.208  36.985  34.414  1.00  0.00    -0.237 OA
ATOM     93  O   UNL A   1      47.266  38.578  32.776  1.00  0.00    -0.237 OA
ATOM     94  O   UNL A   1      46.038  38.078  34.852  1.00  0.00    -0.744 OA
ENDBRANCH  90  91
ENDBRANCH  58  83
ENDBRANCH  32  33
ENDBRANCH  25  27
ENDBRANCH  24  25
ENDBRANCH  23  24
ENDBRANCH   1  23
TORSDOF 17
ENDMDL
