MODEL 1
REMARK VINA RESULT:     -11.2      0.000      0.000
REMARK SMILES CCC(CC)COc1cc2c(cc1Cl)C=C(C(=O)OCCOC(=O)c1ccc(-c3c4nc(c(-c5c(F)cc(S(=O)(=O)[O-])cc5F)c5ccc([nH]5)c(-c5c(F)cc(S(=O)(=O)[O-])cc5F)c5nc(c(-c6c(F)cc(S(=O)(=O)[O-])cc6F)c6ccc3[nH]6)C=C5)C=C4)cc1)[C@@H](C(F)(F)F)O2
REMARK SMILES IDX 20 1 19 2 17 3 18 4 16 5 8 6 9 7 13 8 10 9 12 10 14 11 11 12
REMARK SMILES IDX 96 13 15 14 91 15 7 16 6 17 3 18 2 19 1 20 4 21 5 22 92 23
REMARK SMILES IDX 93 24 94 25 95 26 21 27 22 28 23 29 24 30 25 31 26 32 90 33
REMARK SMILES IDX 27 34 89 35 28 36 29 37 30 38 83 39 31 40 88 41 82 42 84 43
REMARK SMILES IDX 32 44 87 45 81 46 80 47 33 49 67 50 46 51 66 52 47 53 50 54
REMARK SMILES IDX 65 55 85 56 48 57 49 58 64 60 86 61 51 62 34 63 35 64 44 65
REMARK SMILES IDX 36 66 37 67 43 68 45 69 38 70 39 71 40 72 41 73 42 74 68 75
REMARK SMILES IDX 69 76 78 77 70 78 71 79 77 80 79 81 72 82 73 83 74 84 75 85
REMARK SMILES IDX 76 86 52 87 53 88 62 89 54 90 55 91 61 92 63 93 56 94 57 95
REMARK SMILES IDX 58 96 59 97 60 98
REMARK H PARENT 84 48 50 59
REMARK Flexibility Score: inf
ROOT
ATOM      1  C   UNL A   1      33.586  29.396  26.152  1.00  0.00     0.275 C 
ENDROOT
BRANCH   1   2
ATOM      2  O   UNL A   1      33.781  28.039  25.692  1.00  0.00    -0.459 OA
BRANCH   2   3
ATOM      3  C   UNL A   1      32.634  27.405  25.343  1.00  0.00     0.338 C 
ATOM      4  O   UNL A   1      31.547  27.935  25.221  1.00  0.00    -0.246 OA
BRANCH   3   5
ATOM      5  C   UNL A   1      32.841  25.966  25.076  1.00  0.00     0.087 C 
ATOM      6  C   UNL A   1      34.876  21.383  24.993  1.00  0.00     0.141 A 
ATOM      7  C   UNL A   1      33.631  21.874  24.566  1.00  0.00     0.095 A 
ATOM      8  C   UNL A   1      35.865  22.276  25.424  1.00  0.00     0.083 A 
ATOM      9  C   UNL A   1      33.346  23.239  24.695  1.00  0.00     0.131 A 
ATOM     10  C   UNL A   1      35.529  23.595  25.685  1.00  0.00     0.036 A 
ATOM     11  Cl  UNL A   1      37.518  21.830  25.620  1.00  0.00    -0.080 Cl
ATOM     12  C   UNL A   1      34.266  24.066  25.340  1.00  0.00     0.019 A 
ATOM     13  O   UNL A   1      32.157  23.729  24.209  1.00  0.00    -0.475 OA
ATOM     14  C   UNL A   1      33.924  25.433  25.651  1.00  0.00     0.027 C 
ATOM     15  C   UNL A   1      32.056  25.190  24.056  1.00  0.00     0.316 C 
BRANCH   6  16
ATOM     16  O   UNL A   1      35.145  20.040  24.925  1.00  0.00    -0.492 OA
BRANCH  16  17
ATOM     17  C   UNL A   1      33.974  19.234  24.629  1.00  0.00     0.233 C 
BRANCH  17  18
ATOM     18  C   UNL A   1      34.301  17.761  24.257  1.00  0.00     0.026 C 
BRANCH  18  19
ATOM     19  C   UNL A   1      34.062  16.817  25.461  1.00  0.00     0.003 C 
ATOM     20  C   UNL A   1      32.984  15.771  25.207  1.00  0.00     0.004 C 
ENDBRANCH  18  19
BRANCH  18  21
ATOM     21  C   UNL A   1      33.558  17.283  22.989  1.00  0.00     0.003 C 
ATOM     22  C   UNL A   1      32.477  18.214  22.465  1.00  0.00     0.004 C 
ENDBRANCH  18  21
ENDBRANCH  17  18
ENDBRANCH  16  17
ENDBRANCH   6  16
BRANCH  15  23
ATOM     23  C   UNL A   1      32.499  25.633  22.647  1.00  0.00     0.430 C 
ATOM     24  F   UNL A   1      31.709  26.614  22.152  1.00  0.00    -0.167 F 
ATOM     25  F   UNL A   1      33.763  26.127  22.666  1.00  0.00    -0.167 F 
ATOM     26  F   UNL A   1      32.486  24.616  21.755  1.00  0.00    -0.167 F 
ENDBRANCH  15  23
ENDBRANCH   3   5
ENDBRANCH   2   3
ENDBRANCH   1   2
BRANCH   1  27
ATOM     27  C   UNL A   1      34.105  29.627  27.576  1.00  0.00     0.275 C 
BRANCH  27  28
ATOM     28  O   UNL A   1      35.530  29.450  27.678  1.00  0.00    -0.458 OA
BRANCH  28  29
ATOM     29  C   UNL A   1      36.140  30.245  28.587  1.00  0.00     0.338 C 
ATOM     30  O   UNL A   1      35.599  30.957  29.421  1.00  0.00    -0.246 OA
BRANCH  29  31
ATOM     31  C   UNL A   1      37.594  30.036  28.555  1.00  0.00     0.060 A 
ATOM     32  C   UNL A   1      38.373  29.983  29.707  1.00  0.00     0.016 A 
ATOM     33  C   UNL A   1      38.158  29.722  27.323  1.00  0.00     0.016 A 
ATOM     34  C   UNL A   1      39.729  29.643  29.594  1.00  0.00     0.010 A 
ATOM     35  C   UNL A   1      39.480  29.302  27.221  1.00  0.00     0.010 A 
ATOM     36  C   UNL A   1      40.300  29.281  28.351  1.00  0.00    -0.014 A 
BRANCH  36  37
ATOM     37  C   UNL A   1      41.730  28.862  28.254  1.00  0.00     0.031 A 
ATOM     38  C   UNL A   1      42.115  27.434  27.935  1.00  0.00     0.074 A 
ATOM     39  C   UNL A   1      42.701  29.777  28.463  1.00  0.00     0.049 A 
ATOM     40  N   UNL A   1      43.302  26.944  27.672  1.00  0.00    -0.248 NA
ATOM     41  C   UNL A   1      41.050  26.418  27.948  1.00  0.00     0.031 C 
ATOM     42  C   UNL A   1      42.478  31.152  28.916  1.00  0.00     0.029 A 
ATOM     43  N   UNL A   1      44.062  29.706  28.291  1.00  0.00    -0.354 N 
ATOM     44  C   UNL A   1      43.120  25.576  27.488  1.00  0.00     0.074 A 
ATOM     45  C   UNL A   1      41.731  25.297  27.761  1.00  0.00     0.031 C 
ATOM     46  C   UNL A   1      43.640  31.822  28.884  1.00  0.00     0.029 A 
ATOM     47  C   UNL A   1      44.697  30.919  28.439  1.00  0.00     0.049 A 
ATOM     48  H   UNL A   1      44.537  28.870  28.081  1.00  0.00     0.167 HD
ATOM     49  C   UNL A   1      44.012  24.645  27.071  1.00  0.00     0.037 A 
ATOM     50  C   UNL A   1      45.977  31.276  28.205  1.00  0.00     0.037 A 
ATOM     51  C   UNL A   1      45.381  24.940  26.745  1.00  0.00     0.049 A 
ATOM     52  C   UNL A   1      46.942  30.243  27.692  1.00  0.00     0.074 A 
ATOM     53  C   UNL A   1      46.341  24.095  26.219  1.00  0.00     0.029 A 
ATOM     54  N   UNL A   1      45.982  26.179  26.911  1.00  0.00    -0.354 N 
ATOM     55  N   UNL A   1      46.719  28.985  27.397  1.00  0.00    -0.248 NA
ATOM     56  C   UNL A   1      48.332  30.674  27.480  1.00  0.00     0.031 C 
ATOM     57  C   UNL A   1      47.535  24.812  26.103  1.00  0.00     0.029 A 
ATOM     58  C   UNL A   1      47.308  26.114  26.521  1.00  0.00     0.049 A 
ATOM     59  H   UNL A   1      45.532  26.984  27.255  1.00  0.00     0.167 HD
ATOM     60  C   UNL A   1      47.936  28.474  26.963  1.00  0.00     0.074 A 
ATOM     61  C   UNL A   1      48.888  29.565  27.008  1.00  0.00     0.031 C 
ATOM     62  C   UNL A   1      48.240  27.212  26.574  1.00  0.00     0.037 A 
BRANCH  49  63
ATOM     63  C   UNL A   1      43.524  23.233  26.880  1.00  0.00     0.058 A 
ATOM     64  C   UNL A   1      43.245  22.728  25.598  1.00  0.00     0.135 A 
ATOM     65  C   UNL A   1      43.388  22.358  27.970  1.00  0.00     0.135 A 
ATOM     66  F   UNL A   1      43.348  23.523  24.521  1.00  0.00    -0.206 F 
ATOM     67  C   UNL A   1      42.822  21.418  25.407  1.00  0.00     0.059 A 
ATOM     68  C   UNL A   1      42.993  21.032  27.797  1.00  0.00     0.059 A 
ATOM     69  F   UNL A   1      43.648  22.783  29.216  1.00  0.00    -0.206 F 
ATOM     70  C   UNL A   1      42.701  20.575  26.513  1.00  0.00     0.060 A 
BRANCH  70  71
ATOM     71  S   UNL A   1      42.167  18.873  26.236  1.00  0.00     0.124 S 
ATOM     72  O   UNL A   1      40.803  19.070  25.753  1.00  0.00    -0.237 OA
ATOM     73  O   UNL A   1      43.127  18.404  25.243  1.00  0.00    -0.237 OA
ATOM     74  O   UNL A   1      42.282  18.260  27.554  1.00  0.00    -0.744 OA
ENDBRANCH  70  71
ENDBRANCH  49  63
BRANCH  50  75
ATOM     75  C   UNL A   1      46.392  32.694  28.383  1.00  0.00     0.058 A 
ATOM     76  C   UNL A   1      46.278  33.613  27.328  1.00  0.00     0.135 A 
ATOM     77  C   UNL A   1      46.866  33.172  29.614  1.00  0.00     0.135 A 
ATOM     78  F   UNL A   1      45.833  33.207  26.129  1.00  0.00    -0.206 F 
ATOM     79  C   UNL A   1      46.621  34.953  27.486  1.00  0.00     0.059 A 
ATOM     80  C   UNL A   1      47.194  34.512  29.803  1.00  0.00     0.059 A 
ATOM     81  F   UNL A   1      46.978  32.338  30.659  1.00  0.00    -0.206 F 
ATOM     82  C   UNL A   1      47.073  35.394  28.730  1.00  0.00     0.060 A 
BRANCH  82  83
ATOM     83  S   UNL A   1      47.453  37.147  28.940  1.00  0.00     0.124 S 
ATOM     84  O   UNL A   1      47.063  37.370  30.327  1.00  0.00    -0.237 OA
ATOM     85  O   UNL A   1      48.886  37.182  28.666  1.00  0.00    -0.237 OA
ATOM     86  O   UNL A   1      46.615  37.796  27.936  1.00  0.00    -0.744 OA
ENDBRANCH  82  83
ENDBRANCH  50  75
BRANCH  62  87
ATOM     87  C   UNL A   1      49.661  26.919  26.187  1.00  0.00     0.058 A 
ATOM     88  C   UNL A   1      50.587  26.466  27.139  1.00  0.00     0.135 A 
ATOM     89  C   UNL A   1      50.061  26.959  24.842  1.00  0.00     0.135 A 
ATOM     90  F   UNL A   1      50.253  26.418  28.438  1.00  0.00    -0.206 F 
ATOM     91  C   UNL A   1      51.861  26.051  26.768  1.00  0.00     0.059 A 
ATOM     92  C   UNL A   1      51.324  26.528  24.446  1.00  0.00     0.059 A 
ATOM     93  F   UNL A   1      49.207  27.376  23.894  1.00  0.00    -0.206 F 
ATOM     94  C   UNL A   1      52.214  26.071  25.417  1.00  0.00     0.060 A 
BRANCH  94  95
ATOM     95  S   UNL A   1      53.838  25.439  24.946  1.00  0.00     0.124 S 
ATOM     96  O   UNL A   1      53.533  24.047  24.631  1.00  0.00    -0.237 OA
ATOM     97  O   UNL A   1      54.181  26.286  23.808  1.00  0.00    -0.237 OA
ATOM     98  O   UNL A   1      54.647  25.648  26.143  1.00  0.00    -0.744 OA
ENDBRANCH  94  95
ENDBRANCH  62  87
ENDBRANCH  36  37
ENDBRANCH  29  31
ENDBRANCH  28  29
ENDBRANCH  27  28
ENDBRANCH   1  27
TORSDOF 20
ENDMDL
MODEL 2
REMARK VINA RESULT:     -11.1      6.553     10.816
REMARK SMILES CCC(CC)COc1cc2c(cc1Cl)C=C(C(=O)OCCOC(=O)c1ccc(-c3c4nc(c(-c5c(F)cc(S(=O)(=O)[O-])cc5F)c5ccc([nH]5)c(-c5c(F)cc(S(=O)(=O)[O-])cc5F)c5nc(c(-c6c(F)cc(S(=O)(=O)[O-])cc6F)c6ccc3[nH]6)C=C5)C=C4)cc1)[C@@H](C(F)(F)F)O2
REMARK SMILES IDX 20 1 19 2 17 3 18 4 16 5 8 6 9 7 13 8 10 9 12 10 14 11 11 12
REMARK SMILES IDX 96 13 15 14 91 15 7 16 6 17 3 18 2 19 1 20 4 21 5 22 92 23
REMARK SMILES IDX 93 24 94 25 95 26 21 27 22 28 23 29 24 30 25 31 26 32 90 33
REMARK SMILES IDX 27 34 89 35 28 36 29 37 30 38 83 39 31 40 88 41 82 42 84 43
REMARK SMILES IDX 32 44 87 45 81 46 80 47 33 49 67 50 46 51 66 52 47 53 50 54
REMARK SMILES IDX 65 55 85 56 48 57 49 58 64 60 86 61 51 62 34 63 35 64 44 65
REMARK SMILES IDX 36 66 37 67 43 68 45 69 38 70 39 71 40 72 41 73 42 74 68 75
REMARK SMILES IDX 69 76 78 77 70 78 71 79 77 80 79 81 72 82 73 83 74 84 75 85
REMARK SMILES IDX 76 86 52 87 53 88 62 89 54 90 55 91 61 92 63 93 56 94 57 95
REMARK SMILES IDX 58 96 59 97 60 98
REMARK H PARENT 84 48 50 59
REMARK Flexibility Score: inf
ROOT
ATOM      1  C   UNL A   1      33.874  31.695  27.627  1.00  0.00     0.275 C 
ENDROOT
BRANCH   1   2
ATOM      2  O   UNL A   1      33.251  30.392  27.565  1.00  0.00    -0.459 OA
BRANCH   2   3
ATOM      3  C   UNL A   1      34.052  29.421  27.060  1.00  0.00     0.338 C 
ATOM      4  O   UNL A   1      35.266  29.453  27.036  1.00  0.00    -0.246 OA
BRANCH   3   5
ATOM      5  C   UNL A   1      33.286  28.260  26.557  1.00  0.00     0.087 C 
ATOM      6  C   UNL A   1      32.165  23.833  24.484  1.00  0.00     0.141 A 
ATOM      7  C   UNL A   1      31.384  24.790  25.154  1.00  0.00     0.095 A 
ATOM      8  C   UNL A   1      33.498  24.122  24.167  1.00  0.00     0.083 A 
ATOM      9  C   UNL A   1      31.982  25.972  25.609  1.00  0.00     0.131 A 
ATOM     10  C   UNL A   1      34.116  25.220  24.744  1.00  0.00     0.036 A 
ATOM     11  Cl  UNL A   1      34.424  23.192  23.050  1.00  0.00    -0.080 Cl
ATOM     12  C   UNL A   1      33.362  26.128  25.479  1.00  0.00     0.019 A 
ATOM     13  O   UNL A   1      31.201  26.939  26.198  1.00  0.00    -0.475 OA
ATOM     14  C   UNL A   1      34.030  27.246  26.101  1.00  0.00     0.027 C 
ATOM     15  C   UNL A   1      31.799  28.277  26.340  1.00  0.00     0.316 C 
BRANCH   6  16
ATOM     16  O   UNL A   1      31.604  22.647  24.084  1.00  0.00    -0.492 OA
BRANCH  16  17
ATOM     17  C   UNL A   1      31.452  21.690  25.166  1.00  0.00     0.233 C 
BRANCH  17  18
ATOM     18  C   UNL A   1      32.352  20.430  25.023  1.00  0.00     0.026 C 
BRANCH  18  19
ATOM     19  C   UNL A   1      32.558  20.059  23.535  1.00  0.00     0.003 C 
ATOM     20  C   UNL A   1      32.401  18.570  23.253  1.00  0.00     0.004 C 
ENDBRANCH  18  19
BRANCH  18  21
ATOM     21  C   UNL A   1      33.693  20.563  25.780  1.00  0.00     0.003 C 
ATOM     22  C   UNL A   1      34.947  20.379  24.943  1.00  0.00     0.004 C 
ENDBRANCH  18  21
ENDBRANCH  17  18
ENDBRANCH  16  17
ENDBRANCH   6  16
BRANCH  15  23
ATOM     23  C   UNL A   1      31.487  29.159  25.115  1.00  0.00     0.430 C 
ATOM     24  F   UNL A   1      31.128  30.413  25.472  1.00  0.00    -0.167 F 
ATOM     25  F   UNL A   1      32.574  29.280  24.312  1.00  0.00    -0.167 F 
ATOM     26  F   UNL A   1      30.488  28.654  24.355  1.00  0.00    -0.167 F 
ENDBRANCH  15  23
ENDBRANCH   3   5
ENDBRANCH   2   3
ENDBRANCH   1   2
BRANCH   1  27
ATOM     27  C   UNL A   1      32.865  32.847  27.570  1.00  0.00     0.275 C 
BRANCH  27  28
ATOM     28  O   UNL A   1      33.492  34.135  27.718  1.00  0.00    -0.458 OA
BRANCH  28  29
ATOM     29  C   UNL A   1      33.412  34.670  28.958  1.00  0.00     0.338 C 
ATOM     30  O   UNL A   1      32.479  35.308  29.424  1.00  0.00    -0.246 OA
BRANCH  29  31
ATOM     31  C   UNL A   1      34.564  34.253  29.770  1.00  0.00     0.060 A 
ATOM     32  C   UNL A   1      34.443  33.418  30.876  1.00  0.00     0.016 A 
ATOM     33  C   UNL A   1      35.826  34.592  29.293  1.00  0.00     0.016 A 
ATOM     34  C   UNL A   1      35.607  32.961  31.511  1.00  0.00     0.010 A 
ATOM     35  C   UNL A   1      36.979  34.070  29.870  1.00  0.00     0.010 A 
ATOM     36  C   UNL A   1      36.893  33.266  31.007  1.00  0.00    -0.014 A 
BRANCH  36  37
ATOM     37  C   UNL A   1      38.124  32.723  31.656  1.00  0.00     0.031 A 
ATOM     38  C   UNL A   1      38.593  33.223  33.004  1.00  0.00     0.074 A 
ATOM     39  C   UNL A   1      38.838  31.769  31.021  1.00  0.00     0.049 A 
ATOM     40  N   UNL A   1      39.552  32.754  33.765  1.00  0.00    -0.248 NA
ATOM     41  C   UNL A   1      37.936  34.418  33.557  1.00  0.00     0.031 C 
ATOM     42  C   UNL A   1      38.584  31.295  29.658  1.00  0.00     0.029 A 
ATOM     43  N   UNL A   1      39.897  31.001  31.442  1.00  0.00    -0.354 N 
ATOM     44  C   UNL A   1      39.605  33.592  34.875  1.00  0.00     0.074 A 
ATOM     45  C   UNL A   1      38.651  34.651  34.649  1.00  0.00     0.031 C 
ATOM     46  C   UNL A   1      39.388  30.252  29.395  1.00  0.00     0.029 A 
ATOM     47  C   UNL A   1      40.236  30.002  30.557  1.00  0.00     0.049 A 
ATOM     48  H   UNL A   1      40.368  31.151  32.293  1.00  0.00     0.167 HD
ATOM     49  C   UNL A   1      40.337  33.462  36.008  1.00  0.00     0.037 A 
ATOM     50  C   UNL A   1      41.102  28.975  30.679  1.00  0.00     0.037 A 
ATOM     51  C   UNL A   1      41.244  32.374  36.252  1.00  0.00     0.049 A 
ATOM     52  C   UNL A   1      41.868  28.813  31.964  1.00  0.00     0.074 A 
ATOM     53  C   UNL A   1      41.958  32.090  37.403  1.00  0.00     0.029 A 
ATOM     54  N   UNL A   1      41.558  31.386  35.331  1.00  0.00    -0.354 N 
ATOM     55  N   UNL A   1      41.806  29.540  33.053  1.00  0.00    -0.248 NA
ATOM     56  C   UNL A   1      42.821  27.696  32.038  1.00  0.00     0.031 C 
ATOM     57  C   UNL A   1      42.734  30.953  37.164  1.00  0.00     0.029 A 
ATOM     58  C   UNL A   1      42.476  30.506  35.878  1.00  0.00     0.049 A 
ATOM     59  H   UNL A   1      41.184  31.321  34.423  1.00  0.00     0.167 HD
ATOM     60  C   UNL A   1      42.708  28.969  33.944  1.00  0.00     0.074 A 
ATOM     61  C   UNL A   1      43.284  27.820  33.275  1.00  0.00     0.031 C 
ATOM     62  C   UNL A   1      43.038  29.368  35.196  1.00  0.00     0.037 A 
BRANCH  49  63
ATOM     63  C   UNL A   1      40.142  34.483  37.098  1.00  0.00     0.058 A 
ATOM     64  C   UNL A   1      40.818  35.716  37.067  1.00  0.00     0.135 A 
ATOM     65  C   UNL A   1      39.235  34.263  38.147  1.00  0.00     0.135 A 
ATOM     66  F   UNL A   1      41.703  35.977  36.092  1.00  0.00    -0.206 F 
ATOM     67  C   UNL A   1      40.625  36.679  38.050  1.00  0.00     0.059 A 
ATOM     68  C   UNL A   1      39.005  35.226  39.128  1.00  0.00     0.059 A 
ATOM     69  F   UNL A   1      38.557  33.108  38.224  1.00  0.00    -0.206 F 
ATOM     70  C   UNL A   1      39.713  36.426  39.078  1.00  0.00     0.060 A 
BRANCH  70  71
ATOM     71  S   UNL A   1      39.467  37.700  40.333  1.00  0.00     0.124 S 
ATOM     72  O   UNL A   1      38.558  38.614  39.647  1.00  0.00    -0.237 OA
ATOM     73  O   UNL A   1      38.887  36.940  41.436  1.00  0.00    -0.237 OA
ATOM     74  O   UNL A   1      40.812  38.212  40.568  1.00  0.00    -0.744 OA
ENDBRANCH  70  71
ENDBRANCH  49  63
BRANCH  50  75
ATOM     75  C   UNL A   1      41.228  27.981  29.579  1.00  0.00     0.058 A 
ATOM     76  C   UNL A   1      42.335  28.001  28.716  1.00  0.00     0.135 A 
ATOM     77  C   UNL A   1      40.276  26.966  29.393  1.00  0.00     0.135 A 
ATOM     78  F   UNL A   1      43.272  28.953  28.849  1.00  0.00    -0.206 F 
ATOM     79  C   UNL A   1      42.493  27.055  27.708  1.00  0.00     0.059 A 
ATOM     80  C   UNL A   1      40.424  25.995  28.407  1.00  0.00     0.059 A 
ATOM     81  F   UNL A   1      39.208  26.892  30.202  1.00  0.00    -0.206 F 
ATOM     82  C   UNL A   1      41.534  26.051  27.565  1.00  0.00     0.060 A 
BRANCH  82  83
ATOM     83  S   UNL A   1      41.783  24.792  26.295  1.00  0.00     0.124 S 
ATOM     84  O   UNL A   1      40.616  23.940  26.490  1.00  0.00    -0.237 OA
ATOM     85  O   UNL A   1      41.794  25.590  25.073  1.00  0.00    -0.237 OA
ATOM     86  O   UNL A   1      43.067  24.197  26.657  1.00  0.00    -0.744 OA
ENDBRANCH  82  83
ENDBRANCH  50  75
BRANCH  62  87
ATOM     87  C   UNL A   1      44.085  28.583  35.931  1.00  0.00     0.058 A 
ATOM     88  C   UNL A   1      45.439  28.939  35.852  1.00  0.00     0.135 A 
ATOM     89  C   UNL A   1      43.722  27.559  36.821  1.00  0.00     0.135 A 
ATOM     90  F   UNL A   1      45.835  29.906  35.010  1.00  0.00    -0.206 F 
ATOM     91  C   UNL A   1      46.399  28.315  36.641  1.00  0.00     0.059 A 
ATOM     92  C   UNL A   1      44.662  26.936  37.635  1.00  0.00     0.059 A 
ATOM     93  F   UNL A   1      42.436  27.189  36.938  1.00  0.00    -0.206 F 
ATOM     94  C   UNL A   1      45.998  27.326  37.541  1.00  0.00     0.060 A 
BRANCH  94  95
ATOM     95  S   UNL A   1      47.244  26.595  38.623  1.00  0.00     0.124 S 
ATOM     96  O   UNL A   1      46.494  25.510  39.247  1.00  0.00    -0.237 OA
ATOM     97  O   UNL A   1      48.276  26.188  37.675  1.00  0.00    -0.237 OA
ATOM     98  O   UNL A   1      47.612  27.694  39.511  1.00  0.00    -0.744 OA
ENDBRANCH  94  95
ENDBRANCH  62  87
ENDBRANCH  36  37
ENDBRANCH  29  31
ENDBRANCH  28  29
ENDBRANCH  27  28
ENDBRANCH   1  27
TORSDOF 20
ENDMDL
MODEL 3
REMARK VINA RESULT:     -11.0      2.662      8.727
REMARK SMILES CCC(CC)COc1cc2c(cc1Cl)C=C(C(=O)OCCOC(=O)c1ccc(-c3c4nc(c(-c5c(F)cc(S(=O)(=O)[O-])cc5F)c5ccc([nH]5)c(-c5c(F)cc(S(=O)(=O)[O-])cc5F)c5nc(c(-c6c(F)cc(S(=O)(=O)[O-])cc6F)c6ccc3[nH]6)C=C5)C=C4)cc1)[C@@H](C(F)(F)F)O2
REMARK SMILES IDX 20 1 19 2 17 3 18 4 16 5 8 6 9 7 13 8 10 9 12 10 14 11 11 12
REMARK SMILES IDX 96 13 15 14 91 15 7 16 6 17 3 18 2 19 1 20 4 21 5 22 92 23
REMARK SMILES IDX 93 24 94 25 95 26 21 27 22 28 23 29 24 30 25 31 26 32 90 33
REMARK SMILES IDX 27 34 89 35 28 36 29 37 30 38 83 39 31 40 88 41 82 42 84 43
REMARK SMILES IDX 32 44 87 45 81 46 80 47 33 49 67 50 46 51 66 52 47 53 50 54
REMARK SMILES IDX 65 55 85 56 48 57 49 58 64 60 86 61 51 62 34 63 35 64 44 65
REMARK SMILES IDX 36 66 37 67 43 68 45 69 38 70 39 71 40 72 41 73 42 74 68 75
REMARK SMILES IDX 69 76 78 77 70 78 71 79 77 80 79 81 72 82 73 83 74 84 75 85
REMARK SMILES IDX 76 86 52 87 53 88 62 89 54 90 55 91 61 92 63 93 56 94 57 95
REMARK SMILES IDX 58 96 59 97 60 98
REMARK H PARENT 84 48 50 59
REMARK Flexibility Score: inf
ROOT
ATOM      1  C   UNL A   1      39.298  21.072  26.094  1.00  0.00     0.275 C 
ENDROOT
BRANCH   1   2
ATOM      2  O   UNL A   1      38.181  21.555  25.312  1.00  0.00    -0.459 OA
BRANCH   2   3
ATOM      3  C   UNL A   1      37.677  22.738  25.744  1.00  0.00     0.338 C 
ATOM      4  O   UNL A   1      38.216  23.485  26.537  1.00  0.00    -0.246 OA
BRANCH   3   5
ATOM      5  C   UNL A   1      36.383  23.068  25.109  1.00  0.00     0.087 C 
ATOM      6  C   UNL A   1      32.031  25.332  24.067  1.00  0.00     0.141 A 
ATOM      7  C   UNL A   1      32.739  24.301  23.427  1.00  0.00     0.095 A 
ATOM      8  C   UNL A   1      32.466  25.807  25.310  1.00  0.00     0.083 A 
ATOM      9  C   UNL A   1      33.944  23.846  23.978  1.00  0.00     0.131 A 
ATOM     10  C   UNL A   1      33.725  25.459  25.773  1.00  0.00     0.036 A 
ATOM     11  Cl  UNL A   1      31.493  26.791  26.337  1.00  0.00    -0.080 Cl
ATOM     12  C   UNL A   1      34.467  24.497  25.095  1.00  0.00     0.019 A 
ATOM     13  O   UNL A   1      34.596  22.787  23.391  1.00  0.00    -0.475 OA
ATOM     14  C   UNL A   1      35.791  24.173  25.573  1.00  0.00     0.027 C 
ATOM     15  C   UNL A   1      35.649  22.135  24.188  1.00  0.00     0.316 C 
BRANCH   6  16
ATOM     16  O   UNL A   1      30.880  25.825  23.508  1.00  0.00    -0.492 OA
BRANCH  16  17
ATOM     17  C   UNL A   1      31.113  26.587  22.294  1.00  0.00     0.233 C 
BRANCH  17  18
ATOM     18  C   UNL A   1      30.851  28.111  22.447  1.00  0.00     0.026 C 
BRANCH  18  19
ATOM     19  C   UNL A   1      29.398  28.383  22.906  1.00  0.00     0.003 C 
ATOM     20  C   UNL A   1      29.011  29.856  22.854  1.00  0.00     0.004 C 
ENDBRANCH  18  19
BRANCH  18  21
ATOM     21  C   UNL A   1      31.888  28.809  23.356  1.00  0.00     0.003 C 
ATOM     22  C   UNL A   1      33.323  28.793  22.858  1.00  0.00     0.004 C 
ENDBRANCH  18  21
ENDBRANCH  17  18
ENDBRANCH  16  17
ENDBRANCH   6  16
BRANCH  15  23
ATOM     23  C   UNL A   1      35.077  20.968  25.016  1.00  0.00     0.430 C 
ATOM     24  F   UNL A   1      33.850  20.594  24.586  1.00  0.00    -0.167 F 
ATOM     25  F   UNL A   1      35.870  19.870  24.925  1.00  0.00    -0.167 F 
ATOM     26  F   UNL A   1      34.969  21.269  26.331  1.00  0.00    -0.167 F 
ENDBRANCH  15  23
ENDBRANCH   3   5
ENDBRANCH   2   3
ENDBRANCH   1   2
BRANCH   1  27
ATOM     27  C   UNL A   1      39.747  19.663  25.693  1.00  0.00     0.275 C 
BRANCH  27  28
ATOM     28  O   UNL A   1      40.921  19.235  26.408  1.00  0.00    -0.458 OA
BRANCH  28  29
ATOM     29  C   UNL A   1      42.095  19.637  25.870  1.00  0.00     0.338 C 
ATOM     30  O   UNL A   1      42.741  19.063  25.005  1.00  0.00    -0.246 OA
BRANCH  29  31
ATOM     31  C   UNL A   1      42.449  20.977  26.359  1.00  0.00     0.060 A 
ATOM     32  C   UNL A   1      42.676  21.252  27.703  1.00  0.00     0.016 A 
ATOM     33  C   UNL A   1      42.719  21.946  25.398  1.00  0.00     0.016 A 
ATOM     34  C   UNL A   1      43.144  22.524  28.065  1.00  0.00     0.010 A 
ATOM     35  C   UNL A   1      43.263  23.177  25.749  1.00  0.00     0.010 A 
ATOM     36  C   UNL A   1      43.460  23.501  27.092  1.00  0.00    -0.014 A 
BRANCH  36  37
ATOM     37  C   UNL A   1      44.015  24.830  27.487  1.00  0.00     0.031 A 
ATOM     38  C   UNL A   1      45.469  25.179  27.258  1.00  0.00     0.074 A 
ATOM     39  C   UNL A   1      43.202  25.738  28.069  1.00  0.00     0.049 A 
ATOM     40  N   UNL A   1      46.069  26.335  27.409  1.00  0.00    -0.248 NA
ATOM     41  C   UNL A   1      46.376  24.096  26.846  1.00  0.00     0.031 C 
ATOM     42  C   UNL A   1      41.817  25.487  28.479  1.00  0.00     0.029 A 
ATOM     43  N   UNL A   1      43.403  27.059  28.386  1.00  0.00    -0.354 N 
ATOM     44  C   UNL A   1      47.410  26.113  27.108  1.00  0.00     0.074 A 
ATOM     45  C   UNL A   1      47.556  24.699  26.859  1.00  0.00     0.031 C 
ATOM     46  C   UNL A   1      41.263  26.638  28.891  1.00  0.00     0.029 A 
ATOM     47  C   UNL A   1      42.259  27.702  28.807  1.00  0.00     0.049 A 
ATOM     48  H   UNL A   1      44.278  27.504  28.319  1.00  0.00     0.167 HD
ATOM     49  C   UNL A   1      48.417  27.011  26.990  1.00  0.00     0.037 A 
ATOM     50  C   UNL A   1      42.025  29.006  29.057  1.00  0.00     0.037 A 
ATOM     51  C   UNL A   1      48.253  28.426  27.184  1.00  0.00     0.049 A 
ATOM     52  C   UNL A   1      43.140  29.998  28.870  1.00  0.00     0.074 A 
ATOM     53  C   UNL A   1      49.181  29.435  26.992  1.00  0.00     0.029 A 
ATOM     54  N   UNL A   1      47.081  29.034  27.609  1.00  0.00    -0.354 N 
ATOM     55  N   UNL A   1      44.366  29.787  28.457  1.00  0.00    -0.248 NA
ATOM     56  C   UNL A   1      42.844  31.404  29.184  1.00  0.00     0.031 C 
ATOM     57  C   UNL A   1      48.581  30.649  27.339  1.00  0.00     0.029 A 
ATOM     58  C   UNL A   1      47.269  30.401  27.712  1.00  0.00     0.049 A 
ATOM     59  H   UNL A   1      46.241  28.562  27.810  1.00  0.00     0.167 HD
ATOM     60  C   UNL A   1      44.988  31.031  28.458  1.00  0.00     0.074 A 
ATOM     61  C   UNL A   1      43.995  31.994  28.888  1.00  0.00     0.031 C 
ATOM     62  C   UNL A   1      46.267  31.343  28.142  1.00  0.00     0.037 A 
BRANCH  49  63
ATOM     63  C   UNL A   1      49.772  26.504  26.573  1.00  0.00     0.058 A 
ATOM     64  C   UNL A   1      50.125  26.405  25.215  1.00  0.00     0.135 A 
ATOM     65  C   UNL A   1      50.748  26.169  27.525  1.00  0.00     0.135 A 
ATOM     66  F   UNL A   1      49.229  26.704  24.261  1.00  0.00    -0.206 F 
ATOM     67  C   UNL A   1      51.382  25.966  24.818  1.00  0.00     0.059 A 
ATOM     68  C   UNL A   1      52.024  25.753  27.150  1.00  0.00     0.059 A 
ATOM     69  F   UNL A   1      50.470  26.250  28.836  1.00  0.00    -0.206 F 
ATOM     70  C   UNL A   1      52.328  25.644  25.793  1.00  0.00     0.060 A 
BRANCH  70  71
ATOM     71  S   UNL A   1      53.960  25.092  25.252  1.00  0.00     0.124 S 
ATOM     72  O   UNL A   1      54.756  25.311  26.456  1.00  0.00    -0.237 OA
ATOM     73  O   UNL A   1      53.715  23.698  24.900  1.00  0.00    -0.237 OA
ATOM     74  O   UNL A   1      54.264  25.975  24.131  1.00  0.00    -0.744 OA
ENDBRANCH  70  71
ENDBRANCH  49  63
BRANCH  50  75
ATOM     75  C   UNL A   1      40.656  29.451  29.437  1.00  0.00     0.058 A 
ATOM     76  C   UNL A   1      40.342  29.742  30.774  1.00  0.00     0.135 A 
ATOM     77  C   UNL A   1      39.651  29.637  28.476  1.00  0.00     0.135 A 
ATOM     78  F   UNL A   1      41.266  29.578  31.732  1.00  0.00    -0.206 F 
ATOM     79  C   UNL A   1      39.080  30.199  31.144  1.00  0.00     0.059 A 
ATOM     80  C   UNL A   1      38.389  30.115  28.818  1.00  0.00     0.059 A 
ATOM     81  F   UNL A   1      39.906  29.389  27.182  1.00  0.00    -0.206 F 
ATOM     82  C   UNL A   1      38.112  30.389  30.157  1.00  0.00     0.060 A 
BRANCH  82  83
ATOM     83  S   UNL A   1      36.500  31.043  30.642  1.00  0.00     0.124 S 
ATOM     84  O   UNL A   1      36.835  32.417  30.998  1.00  0.00    -0.237 OA
ATOM     85  O   UNL A   1      35.722  30.872  29.419  1.00  0.00    -0.237 OA
ATOM     86  O   UNL A   1      36.106  30.181  31.752  1.00  0.00    -0.744 OA
ENDBRANCH  82  83
ENDBRANCH  50  75
BRANCH  62  87
ATOM     87  C   UNL A   1      46.693  32.778  28.270  1.00  0.00     0.058 A 
ATOM     88  C   UNL A   1      46.426  33.701  27.249  1.00  0.00     0.135 A 
ATOM     89  C   UNL A   1      47.245  33.258  29.468  1.00  0.00     0.135 A 
ATOM     90  F   UNL A   1      45.906  33.288  26.083  1.00  0.00    -0.206 F 
ATOM     91  C   UNL A   1      46.681  35.057  27.415  1.00  0.00     0.059 A 
ATOM     92  C   UNL A   1      47.488  34.614  29.664  1.00  0.00     0.059 A 
ATOM     93  F   UNL A   1      47.510  32.414  30.478  1.00  0.00    -0.206 F 
ATOM     94  C   UNL A   1      47.198  35.506  28.632  1.00  0.00     0.060 A 
BRANCH  94  95
ATOM     95  S   UNL A   1      47.433  37.281  28.862  1.00  0.00     0.124 S 
ATOM     96  O   UNL A   1      47.269  37.780  27.501  1.00  0.00    -0.237 OA
ATOM     97  O   UNL A   1      46.360  37.616  29.794  1.00  0.00    -0.237 OA
ATOM     98  O   UNL A   1      48.783  37.379  29.407  1.00  0.00    -0.744 OA
ENDBRANCH  94  95
ENDBRANCH  62  87
ENDBRANCH  36  37
ENDBRANCH  29  31
ENDBRANCH  28  29
ENDBRANCH  27  28
ENDBRANCH   1  27
TORSDOF 20
ENDMDL
