MODEL 1
REMARK VINA RESULT:     -10.1      0.000      0.000
REMARK SMILES C#CCN(CC(=O)OCCOC(=O)c1ccc(-c2c3nc(c(-c4c(F)cc(S(=O)(=O)[O-])cc4F)c4ccc([nH]4)c(-c4c(F)cc(S(=O)(=O)[O-])cc4F)c4nc(c(-c5c(F)cc(S(=O)(=O)[O-])cc5F)c5ccc2[nH]5)C=C4)C=C3)cc1)c1ncccc1C(=O)OCC
REMARK SMILES IDX 9 1 8 2 6 3 7 4 5 5 4 6 3 7 2 8 1 9 80 10 81 11 85 12 82 13
REMARK SMILES IDX 84 14 83 15 86 16 87 17 88 18 89 19 90 20 10 21 11 22 12 23
REMARK SMILES IDX 13 24 14 25 15 26 79 27 16 28 78 29 17 30 18 31 19 32 72 33
REMARK SMILES IDX 20 34 77 35 71 36 73 37 21 38 76 39 70 40 69 41 22 43 56 44
REMARK SMILES IDX 35 45 55 46 36 47 39 48 54 49 74 50 37 51 38 52 53 54 75 55
REMARK SMILES IDX 40 56 23 57 24 58 33 59 25 60 26 61 32 62 34 63 27 64 28 65
REMARK SMILES IDX 29 66 30 67 31 68 57 69 58 70 67 71 59 72 60 73 66 74 68 75
REMARK SMILES IDX 61 76 62 77 63 78 64 79 65 80 41 81 42 82 51 83 43 84 44 85
REMARK SMILES IDX 50 86 52 87 45 88 46 89 47 90 48 91 49 92
REMARK H PARENT 73 42 39 53
REMARK Flexibility Score: inf
ROOT
ATOM      1  C   UNL A   1      33.047  29.634  27.173  1.00  0.00     0.274 C 
ENDROOT
BRANCH   1   2
ATOM      2  O   UNL A   1      33.237  29.055  25.869  1.00  0.00    -0.461 OA
BRANCH   2   3
ATOM      3  C   UNL A   1      32.367  29.457  24.906  1.00  0.00     0.325 C 
ATOM      4  O   UNL A   1      31.333  30.082  25.138  1.00  0.00    -0.250 OA
BRANCH   3   5
ATOM      5  C   UNL A   1      32.827  29.169  23.478  1.00  0.00     0.241 C 
BRANCH   5   6
ATOM      6  N   UNL A   1      32.202  28.024  22.833  1.00  0.00    -0.334 N 
BRANCH   6   7
ATOM      7  C   UNL A   1      33.118  27.047  22.241  1.00  0.00     0.208 C 
BRANCH   7   8
ATOM      8  C   UNL A   1      33.606  26.355  23.504  1.00  0.00    -0.085 C 
ATOM      9  C   UNL A   1      34.024  25.763  24.587  1.00  0.00     0.006 C 
ENDBRANCH   7   8
ENDBRANCH   6   7
BRANCH   6  10
ATOM     10  C   UNL A   1      30.814  27.999  22.839  1.00  0.00     0.144 A 
ATOM     11  N   UNL A   1      30.269  29.125  22.313  1.00  0.00    -0.238 NA
ATOM     12  C   UNL A   1      29.931  27.044  23.417  1.00  0.00     0.102 A 
ATOM     13  C   UNL A   1      28.929  29.334  22.377  1.00  0.00     0.113 A 
ATOM     14  C   UNL A   1      28.548  27.317  23.501  1.00  0.00     0.021 A 
ATOM     15  C   UNL A   1      28.034  28.478  22.973  1.00  0.00     0.021 A 
BRANCH  12  16
ATOM     16  C   UNL A   1      30.211  25.735  24.051  1.00  0.00     0.341 C 
ATOM     17  O   UNL A   1      30.279  24.669  23.471  1.00  0.00    -0.246 OA
BRANCH  16  18
ATOM     18  O   UNL A   1      30.511  25.985  25.371  1.00  0.00    -0.462 OA
BRANCH  18  19
ATOM     19  C   UNL A   1      30.219  24.972  26.361  1.00  0.00     0.230 C 
ATOM     20  C   UNL A   1      31.511  24.238  26.730  1.00  0.00     0.049 C 
ENDBRANCH  18  19
ENDBRANCH  16  18
ENDBRANCH  12  16
ENDBRANCH   6  10
ENDBRANCH   5   6
ENDBRANCH   3   5
ENDBRANCH   2   3
ENDBRANCH   1   2
BRANCH   1  21
ATOM     21  C   UNL A   1      34.283  30.445  27.558  1.00  0.00     0.275 C 
BRANCH  21  22
ATOM     22  O   UNL A   1      35.160  29.627  28.357  1.00  0.00    -0.458 OA
BRANCH  22  23
ATOM     23  C   UNL A   1      36.100  30.312  29.047  1.00  0.00     0.338 C 
ATOM     24  O   UNL A   1      35.920  31.314  29.724  1.00  0.00    -0.246 OA
BRANCH  23  25
ATOM     25  C   UNL A   1      37.440  29.708  28.904  1.00  0.00     0.060 A 
ATOM     26  C   UNL A   1      38.205  29.318  30.000  1.00  0.00     0.016 A 
ATOM     27  C   UNL A   1      38.006  29.693  27.628  1.00  0.00     0.016 A 
ATOM     28  C   UNL A   1      39.575  29.105  29.849  1.00  0.00     0.010 A 
ATOM     29  C   UNL A   1      39.341  29.327  27.459  1.00  0.00     0.010 A 
ATOM     30  C   UNL A   1      40.155  29.074  28.572  1.00  0.00    -0.014 A 
BRANCH  30  31
ATOM     31  C   UNL A   1      41.581  28.697  28.385  1.00  0.00     0.031 A 
ATOM     32  C   UNL A   1      42.678  29.731  28.453  1.00  0.00     0.074 A 
ATOM     33  C   UNL A   1      41.877  27.413  28.099  1.00  0.00     0.049 A 
ATOM     34  N   UNL A   1      43.942  29.614  28.131  1.00  0.00    -0.248 NA
ATOM     35  C   UNL A   1      42.307  31.074  28.927  1.00  0.00     0.031 C 
ATOM     36  C   UNL A   1      40.903  26.320  28.010  1.00  0.00     0.029 A 
ATOM     37  N   UNL A   1      43.074  26.804  27.827  1.00  0.00    -0.354 N 
ATOM     38  C   UNL A   1      44.512  30.867  28.338  1.00  0.00     0.074 A 
ATOM     39  C   UNL A   1      43.448  31.739  28.793  1.00  0.00     0.031 C 
ATOM     40  C   UNL A   1      41.543  25.173  27.749  1.00  0.00     0.029 A 
ATOM     41  C   UNL A   1      42.955  25.462  27.552  1.00  0.00     0.049 A 
ATOM     42  H   UNL A   1      43.936  27.281  27.829  1.00  0.00     0.167 HD
ATOM     43  C   UNL A   1      45.802  31.247  28.168  1.00  0.00     0.037 A 
ATOM     44  C   UNL A   1      43.868  24.566  27.136  1.00  0.00     0.037 A 
ATOM     45  C   UNL A   1      46.852  30.356  27.733  1.00  0.00     0.049 A 
ATOM     46  C   UNL A   1      45.276  25.027  26.908  1.00  0.00     0.074 A 
ATOM     47  C   UNL A   1      48.192  30.638  27.523  1.00  0.00     0.029 A 
ATOM     48  N   UNL A   1      46.685  29.007  27.455  1.00  0.00    -0.354 N 
ATOM     49  N   UNL A   1      45.789  26.223  27.075  1.00  0.00    -0.248 NA
ATOM     50  C   UNL A   1      46.229  24.021  26.425  1.00  0.00     0.031 C 
ATOM     51  C   UNL A   1      48.825  29.471  27.085  1.00  0.00     0.029 A 
ATOM     52  C   UNL A   1      47.892  28.447  27.069  1.00  0.00     0.049 A 
ATOM     53  H   UNL A   1      45.833  28.518  27.524  1.00  0.00     0.167 HD
ATOM     54  C   UNL A   1      47.132  26.106  26.741  1.00  0.00     0.074 A 
ATOM     55  C   UNL A   1      47.353  24.720  26.383  1.00  0.00     0.031 C 
ATOM     56  C   UNL A   1      48.093  27.061  26.725  1.00  0.00     0.037 A 
BRANCH  43  57
ATOM     57  C   UNL A   1      46.165  32.684  28.441  1.00  0.00     0.058 A 
ATOM     58  C   UNL A   1      46.088  33.668  27.443  1.00  0.00     0.135 A 
ATOM     59  C   UNL A   1      46.522  33.098  29.736  1.00  0.00     0.135 A 
ATOM     60  F   UNL A   1      45.765  33.331  26.184  1.00  0.00    -0.206 F 
ATOM     61  C   UNL A   1      46.363  35.007  27.714  1.00  0.00     0.059 A 
ATOM     62  C   UNL A   1      46.778  34.435  30.036  1.00  0.00     0.059 A 
ATOM     63  F   UNL A   1      46.610  32.203  30.732  1.00  0.00    -0.206 F 
ATOM     64  C   UNL A   1      46.705  35.382  29.015  1.00  0.00     0.060 A 
BRANCH  64  65
ATOM     65  S   UNL A   1      47.038  37.124  29.352  1.00  0.00     0.124 S 
ATOM     66  O   UNL A   1      45.695  37.632  29.617  1.00  0.00    -0.237 OA
ATOM     67  O   UNL A   1      47.927  37.056  30.507  1.00  0.00    -0.237 OA
ATOM     68  O   UNL A   1      47.655  37.600  28.118  1.00  0.00    -0.744 OA
ENDBRANCH  64  65
ENDBRANCH  43  57
BRANCH  44  69
ATOM     69  C   UNL A   1      43.467  23.158  26.877  1.00  0.00     0.058 A 
ATOM     70  C   UNL A   1      43.140  22.298  27.934  1.00  0.00     0.135 A 
ATOM     71  C   UNL A   1      43.404  22.645  25.571  1.00  0.00     0.135 A 
ATOM     72  F   UNL A   1      43.185  22.743  29.199  1.00  0.00    -0.206 F 
ATOM     73  C   UNL A   1      42.799  20.969  27.712  1.00  0.00     0.059 A 
ATOM     74  C   UNL A   1      43.030  21.329  25.321  1.00  0.00     0.059 A 
ATOM     75  F   UNL A   1      43.681  23.434  24.522  1.00  0.00    -0.206 F 
ATOM     76  C   UNL A   1      42.751  20.493  26.401  1.00  0.00     0.060 A 
BRANCH  76  77
ATOM     77  S   UNL A   1      42.306  18.767  26.119  1.00  0.00     0.124 S 
ATOM     78  O   UNL A   1      42.627  18.170  27.409  1.00  0.00    -0.237 OA
ATOM     79  O   UNL A   1      40.887  18.863  25.794  1.00  0.00    -0.237 OA
ATOM     80  O   UNL A   1      43.170  18.375  25.009  1.00  0.00    -0.744 OA
ENDBRANCH  76  77
ENDBRANCH  44  69
BRANCH  56  81
ATOM     81  C   UNL A   1      49.479  26.616  26.352  1.00  0.00     0.058 A 
ATOM     82  C   UNL A   1      49.970  26.744  25.044  1.00  0.00     0.135 A 
ATOM     83  C   UNL A   1      50.326  26.051  27.320  1.00  0.00     0.135 A 
ATOM     84  F   UNL A   1      49.194  27.266  24.080  1.00  0.00    -0.206 F 
ATOM     85  C   UNL A   1      51.237  26.290  24.696  1.00  0.00     0.059 A 
ATOM     86  C   UNL A   1      51.609  25.620  27.001  1.00  0.00     0.059 A 
ATOM     87  F   UNL A   1      49.909  25.913  28.588  1.00  0.00    -0.206 F 
ATOM     88  C   UNL A   1      52.049  25.727  25.682  1.00  0.00     0.060 A 
BRANCH  88  89
ATOM     89  S   UNL A   1      53.695  25.150  25.222  1.00  0.00     0.124 S 
ATOM     90  O   UNL A   1      53.535  23.702  25.313  1.00  0.00    -0.237 OA
ATOM     91  O   UNL A   1      53.850  25.687  23.874  1.00  0.00    -0.237 OA
ATOM     92  O   UNL A   1      54.561  25.750  26.233  1.00  0.00    -0.744 OA
ENDBRANCH  88  89
ENDBRANCH  56  81
ENDBRANCH  30  31
ENDBRANCH  23  25
ENDBRANCH  22  23
ENDBRANCH  21  22
ENDBRANCH   1  21
TORSDOF 21
ENDMDL
MODEL 2
REMARK VINA RESULT:      -9.7      3.131      4.271
REMARK SMILES C#CCN(CC(=O)OCCOC(=O)c1ccc(-c2c3nc(c(-c4c(F)cc(S(=O)(=O)[O-])cc4F)c4ccc([nH]4)c(-c4c(F)cc(S(=O)(=O)[O-])cc4F)c4nc(c(-c5c(F)cc(S(=O)(=O)[O-])cc5F)c5ccc2[nH]5)C=C4)C=C3)cc1)c1ncccc1C(=O)OCC
REMARK SMILES IDX 9 1 8 2 6 3 7 4 5 5 4 6 3 7 2 8 1 9 80 10 81 11 85 12 82 13
REMARK SMILES IDX 84 14 83 15 86 16 87 17 88 18 89 19 90 20 10 21 11 22 12 23
REMARK SMILES IDX 13 24 14 25 15 26 79 27 16 28 78 29 17 30 18 31 19 32 72 33
REMARK SMILES IDX 20 34 77 35 71 36 73 37 21 38 76 39 70 40 69 41 22 43 56 44
REMARK SMILES IDX 35 45 55 46 36 47 39 48 54 49 74 50 37 51 38 52 53 54 75 55
REMARK SMILES IDX 40 56 23 57 24 58 33 59 25 60 26 61 32 62 34 63 27 64 28 65
REMARK SMILES IDX 29 66 30 67 31 68 57 69 58 70 67 71 59 72 60 73 66 74 68 75
REMARK SMILES IDX 61 76 62 77 63 78 64 79 65 80 41 81 42 82 51 83 43 84 44 85
REMARK SMILES IDX 50 86 52 87 45 88 46 89 47 90 48 91 49 92
REMARK H PARENT 73 42 39 53
REMARK Flexibility Score: inf
ROOT
ATOM      1  C   UNL A   1      33.395  27.734  26.024  1.00  0.00     0.274 C 
ENDROOT
BRANCH   1   2
ATOM      2  O   UNL A   1      33.127  26.394  26.474  1.00  0.00    -0.461 OA
BRANCH   2   3
ATOM      3  C   UNL A   1      33.564  25.395  25.662  1.00  0.00     0.325 C 
ATOM      4  O   UNL A   1      34.236  25.583  24.650  1.00  0.00    -0.250 OA
BRANCH   3   5
ATOM      5  C   UNL A   1      33.245  23.988  26.165  1.00  0.00     0.241 C 
BRANCH   5   6
ATOM      6  N   UNL A   1      34.019  22.913  25.564  1.00  0.00    -0.334 N 
BRANCH   6   7
ATOM      7  C   UNL A   1      35.449  22.902  25.880  1.00  0.00     0.208 C 
BRANCH   7   8
ATOM      8  C   UNL A   1      36.022  22.847  24.474  1.00  0.00    -0.085 C 
ATOM      9  C   UNL A   1      36.514  22.800  23.268  1.00  0.00     0.006 C 
ENDBRANCH   7   8
ENDBRANCH   6   7
BRANCH   6  10
ATOM     10  C   UNL A   1      33.318  22.034  24.750  1.00  0.00     0.144 A 
ATOM     11  N   UNL A   1      33.199  20.797  25.297  1.00  0.00    -0.238 NA
ATOM     12  C   UNL A   1      32.844  22.217  23.420  1.00  0.00     0.102 A 
ATOM     13  C   UNL A   1      32.675  19.773  24.575  1.00  0.00     0.113 A 
ATOM     14  C   UNL A   1      32.344  21.118  22.687  1.00  0.00     0.021 A 
ATOM     15  C   UNL A   1      32.255  19.875  23.270  1.00  0.00     0.021 A 
BRANCH  12  16
ATOM     16  C   UNL A   1      32.823  23.426  22.564  1.00  0.00     0.341 C 
ATOM     17  O   UNL A   1      33.592  23.660  21.654  1.00  0.00    -0.246 OA
BRANCH  16  18
ATOM     18  O   UNL A   1      31.697  24.140  22.908  1.00  0.00    -0.462 OA
BRANCH  18  19
ATOM     19  C   UNL A   1      31.531  25.480  22.391  1.00  0.00     0.230 C 
ATOM     20  C   UNL A   1      30.846  26.350  23.448  1.00  0.00     0.049 C 
ENDBRANCH  18  19
ENDBRANCH  16  18
ENDBRANCH  12  16
ENDBRANCH   6  10
ENDBRANCH   5   6
ENDBRANCH   3   5
ENDBRANCH   2   3
ENDBRANCH   1   2
BRANCH   1  21
ATOM     21  C   UNL A   1      33.313  28.697  27.206  1.00  0.00     0.275 C 
BRANCH  21  22
ATOM     22  O   UNL A   1      33.887  29.965  26.829  1.00  0.00    -0.458 OA
BRANCH  22  23
ATOM     23  C   UNL A   1      34.459  30.651  27.844  1.00  0.00     0.338 C 
ATOM     24  O   UNL A   1      33.981  31.609  28.435  1.00  0.00    -0.246 OA
BRANCH  23  25
ATOM     25  C   UNL A   1      35.788  30.111  28.197  1.00  0.00     0.060 A 
ATOM     26  C   UNL A   1      36.116  29.723  29.494  1.00  0.00     0.016 A 
ATOM     27  C   UNL A   1      36.782  30.159  27.219  1.00  0.00     0.016 A 
ATOM     28  C   UNL A   1      37.455  29.575  29.855  1.00  0.00     0.010 A 
ATOM     29  C   UNL A   1      38.103  29.857  27.549  1.00  0.00     0.010 A 
ATOM     30  C   UNL A   1      38.464  29.607  28.881  1.00  0.00    -0.014 A 
BRANCH  30  31
ATOM     31  C   UNL A   1      39.877  29.299  29.227  1.00  0.00     0.031 A 
ATOM     32  C   UNL A   1      40.778  30.344  29.835  1.00  0.00     0.074 A 
ATOM     33  C   UNL A   1      40.359  28.072  28.939  1.00  0.00     0.049 A 
ATOM     34  N   UNL A   1      42.074  30.307  30.023  1.00  0.00    -0.248 NA
ATOM     35  C   UNL A   1      40.150  31.602  30.272  1.00  0.00     0.031 C 
ATOM     36  C   UNL A   1      39.583  26.974  28.354  1.00  0.00     0.029 A 
ATOM     37  N   UNL A   1      41.612  27.539  29.092  1.00  0.00    -0.354 N 
ATOM     38  C   UNL A   1      42.420  31.537  30.576  1.00  0.00     0.074 A 
ATOM     39  C   UNL A   1      41.199  32.310  30.671  1.00  0.00     0.031 C 
ATOM     40  C   UNL A   1      40.361  25.891  28.239  1.00  0.00     0.029 A 
ATOM     41  C   UNL A   1      41.713  26.243  28.644  1.00  0.00     0.049 A 
ATOM     42  H   UNL A   1      42.366  28.036  29.485  1.00  0.00     0.167 HD
ATOM     43  C   UNL A   1      43.643  31.972  30.969  1.00  0.00     0.037 A 
ATOM     44  C   UNL A   1      42.782  25.436  28.522  1.00  0.00     0.037 A 
ATOM     45  C   UNL A   1      44.845  31.177  30.885  1.00  0.00     0.049 A 
ATOM     46  C   UNL A   1      44.129  25.963  28.919  1.00  0.00     0.074 A 
ATOM     47  C   UNL A   1      46.135  31.522  31.250  1.00  0.00     0.029 A 
ATOM     48  N   UNL A   1      44.903  29.873  30.415  1.00  0.00    -0.354 N 
ATOM     49  N   UNL A   1      44.443  27.140  29.405  1.00  0.00    -0.248 NA
ATOM     50  C   UNL A   1      45.269  25.058  28.739  1.00  0.00     0.031 C 
ATOM     51  C   UNL A   1      46.977  30.442  30.968  1.00  0.00     0.029 A 
ATOM     52  C   UNL A   1      46.206  29.403  30.473  1.00  0.00     0.049 A 
ATOM     53  H   UNL A   1      44.131  29.355  30.089  1.00  0.00     0.167 HD
ATOM     54  C   UNL A   1      45.815  27.107  29.614  1.00  0.00     0.074 A 
ATOM     55  C   UNL A   1      46.265  25.787  29.220  1.00  0.00     0.031 C 
ATOM     56  C   UNL A   1      46.631  28.081  30.083  1.00  0.00     0.037 A 
BRANCH  43  57
ATOM     57  C   UNL A   1      43.759  33.370  31.521  1.00  0.00     0.058 A 
ATOM     58  C   UNL A   1      44.006  34.474  30.690  1.00  0.00     0.135 A 
ATOM     59  C   UNL A   1      43.546  33.619  32.888  1.00  0.00     0.135 A 
ATOM     60  F   UNL A   1      44.229  34.297  29.378  1.00  0.00    -0.206 F 
ATOM     61  C   UNL A   1      44.050  35.772  31.194  1.00  0.00     0.059 A 
ATOM     62  C   UNL A   1      43.561  34.911  33.410  1.00  0.00     0.059 A 
ATOM     63  F   UNL A   1      43.304  32.604  33.730  1.00  0.00    -0.206 F 
ATOM     64  C   UNL A   1      43.824  35.982  32.556  1.00  0.00     0.060 A 
BRANCH  64  65
ATOM     65  S   UNL A   1      43.865  37.673  33.188  1.00  0.00     0.124 S 
ATOM     66  O   UNL A   1      43.851  38.448  31.951  1.00  0.00    -0.237 OA
ATOM     67  O   UNL A   1      42.647  37.738  33.988  1.00  0.00    -0.237 OA
ATOM     68  O   UNL A   1      45.111  37.726  33.946  1.00  0.00    -0.744 OA
ENDBRANCH  64  65
ENDBRANCH  43  57
BRANCH  44  69
ATOM     69  C   UNL A   1      42.623  24.065  27.972  1.00  0.00     0.058 A 
ATOM     70  C   UNL A   1      42.544  23.850  26.589  1.00  0.00     0.135 A 
ATOM     71  C   UNL A   1      42.545  22.944  28.814  1.00  0.00     0.135 A 
ATOM     72  F   UNL A   1      42.614  24.890  25.744  1.00  0.00    -0.206 F 
ATOM     73  C   UNL A   1      42.358  22.579  26.059  1.00  0.00     0.059 A 
ATOM     74  C   UNL A   1      42.395  21.658  28.308  1.00  0.00     0.059 A 
ATOM     75  F   UNL A   1      42.641  23.091  30.145  1.00  0.00    -0.206 F 
ATOM     76  C   UNL A   1      42.280  21.489  26.928  1.00  0.00     0.060 A 
BRANCH  76  77
ATOM     77  S   UNL A   1      42.039  19.840  26.235  1.00  0.00     0.124 S 
ATOM     78  O   UNL A   1      42.943  19.872  25.091  1.00  0.00    -0.237 OA
ATOM     79  O   UNL A   1      42.439  18.978  27.341  1.00  0.00    -0.237 OA
ATOM     80  O   UNL A   1      40.615  19.816  25.914  1.00  0.00    -0.744 OA
ENDBRANCH  76  77
ENDBRANCH  44  69
BRANCH  56  81
ATOM     81  C   UNL A   1      48.084  27.729  30.237  1.00  0.00     0.058 A 
ATOM     82  C   UNL A   1      48.995  27.872  29.178  1.00  0.00     0.135 A 
ATOM     83  C   UNL A   1      48.569  27.241  31.461  1.00  0.00     0.135 A 
ATOM     84  F   UNL A   1      48.578  28.323  27.985  1.00  0.00    -0.206 F 
ATOM     85  C   UNL A   1      50.328  27.503  29.315  1.00  0.00     0.059 A 
ATOM     86  C   UNL A   1      49.905  26.896  31.628  1.00  0.00     0.059 A 
ATOM     87  F   UNL A   1      47.741  27.093  32.507  1.00  0.00    -0.206 F 
ATOM     88  C   UNL A   1      50.774  27.013  30.544  1.00  0.00     0.060 A 
BRANCH  88  89
ATOM     89  S   UNL A   1      52.508  26.546  30.712  1.00  0.00     0.124 S 
ATOM     90  O   UNL A   1      52.886  26.315  29.321  1.00  0.00    -0.237 OA
ATOM     91  O   UNL A   1      53.092  27.727  31.340  1.00  0.00    -0.237 OA
ATOM     92  O   UNL A   1      52.459  25.355  31.554  1.00  0.00    -0.744 OA
ENDBRANCH  88  89
ENDBRANCH  56  81
ENDBRANCH  30  31
ENDBRANCH  23  25
ENDBRANCH  22  23
ENDBRANCH  21  22
ENDBRANCH   1  21
TORSDOF 21
ENDMDL
MODEL 3
REMARK VINA RESULT:      -9.6      2.594      3.703
REMARK SMILES C#CCN(CC(=O)OCCOC(=O)c1ccc(-c2c3nc(c(-c4c(F)cc(S(=O)(=O)[O-])cc4F)c4ccc([nH]4)c(-c4c(F)cc(S(=O)(=O)[O-])cc4F)c4nc(c(-c5c(F)cc(S(=O)(=O)[O-])cc5F)c5ccc2[nH]5)C=C4)C=C3)cc1)c1ncccc1C(=O)OCC
REMARK SMILES IDX 9 1 8 2 6 3 7 4 5 5 4 6 3 7 2 8 1 9 80 10 81 11 85 12 82 13
REMARK SMILES IDX 84 14 83 15 86 16 87 17 88 18 89 19 90 20 10 21 11 22 12 23
REMARK SMILES IDX 13 24 14 25 15 26 79 27 16 28 78 29 17 30 18 31 19 32 72 33
REMARK SMILES IDX 20 34 77 35 71 36 73 37 21 38 76 39 70 40 69 41 22 43 56 44
REMARK SMILES IDX 35 45 55 46 36 47 39 48 54 49 74 50 37 51 38 52 53 54 75 55
REMARK SMILES IDX 40 56 23 57 24 58 33 59 25 60 26 61 32 62 34 63 27 64 28 65
REMARK SMILES IDX 29 66 30 67 31 68 57 69 58 70 67 71 59 72 60 73 66 74 68 75
REMARK SMILES IDX 61 76 62 77 63 78 64 79 65 80 41 81 42 82 51 83 43 84 44 85
REMARK SMILES IDX 50 86 52 87 45 88 46 89 47 90 48 91 49 92
REMARK H PARENT 73 42 39 53
REMARK Flexibility Score: inf
ROOT
ATOM      1  C   UNL A   1      32.267  27.345  26.329  1.00  0.00     0.274 C 
ENDROOT
BRANCH   1   2
ATOM      2  O   UNL A   1      31.413  26.336  26.900  1.00  0.00    -0.461 OA
BRANCH   2   3
ATOM      3  C   UNL A   1      31.589  25.073  26.431  1.00  0.00     0.325 C 
ATOM      4  O   UNL A   1      32.395  24.275  26.905  1.00  0.00    -0.250 OA
BRANCH   3   5
ATOM      5  C   UNL A   1      30.619  24.672  25.320  1.00  0.00     0.241 C 
BRANCH   5   6
ATOM      6  N   UNL A   1      31.213  24.463  24.009  1.00  0.00    -0.334 N 
BRANCH   6   7
ATOM      7  C   UNL A   1      30.895  23.190  23.360  1.00  0.00     0.208 C 
BRANCH   7   8
ATOM      8  C   UNL A   1      31.816  22.267  24.140  1.00  0.00    -0.085 C 
ATOM      9  C   UNL A   1      32.606  21.475  24.809  1.00  0.00     0.006 C 
ENDBRANCH   7   8
ENDBRANCH   6   7
BRANCH   6  10
ATOM     10  C   UNL A   1      32.023  25.485  23.533  1.00  0.00     0.144 A 
ATOM     11  N   UNL A   1      31.316  26.585  23.168  1.00  0.00    -0.238 NA
ATOM     12  C   UNL A   1      33.422  25.480  23.269  1.00  0.00     0.102 A 
ATOM     13  C   UNL A   1      31.932  27.621  22.541  1.00  0.00     0.113 A 
ATOM     14  C   UNL A   1      34.017  26.559  22.578  1.00  0.00     0.021 A 
ATOM     15  C   UNL A   1      33.265  27.649  22.208  1.00  0.00     0.021 A 
BRANCH  12  16
ATOM     16  C   UNL A   1      34.451  24.453  23.552  1.00  0.00     0.341 C 
ATOM     17  O   UNL A   1      34.877  23.642  22.754  1.00  0.00    -0.246 OA
BRANCH  16  18
ATOM     18  O   UNL A   1      34.915  24.692  24.826  1.00  0.00    -0.462 OA
BRANCH  18  19
ATOM     19  C   UNL A   1      35.584  23.627  25.540  1.00  0.00     0.230 C 
ATOM     20  C   UNL A   1      37.098  23.783  25.381  1.00  0.00     0.049 C 
ENDBRANCH  18  19
ENDBRANCH  16  18
ENDBRANCH  12  16
ENDBRANCH   6  10
ENDBRANCH   5   6
ENDBRANCH   3   5
ENDBRANCH   2   3
ENDBRANCH   1   2
BRANCH   1  21
ATOM     21  C   UNL A   1      32.766  28.277  27.431  1.00  0.00     0.275 C 
BRANCH  21  22
ATOM     22  O   UNL A   1      34.013  28.874  27.022  1.00  0.00    -0.458 OA
BRANCH  22  23
ATOM     23  C   UNL A   1      34.401  29.936  27.763  1.00  0.00     0.338 C 
ATOM     24  O   UNL A   1      33.691  30.854  28.148  1.00  0.00    -0.246 OA
BRANCH  23  25
ATOM     25  C   UNL A   1      35.842  29.888  28.085  1.00  0.00     0.060 A 
ATOM     26  C   UNL A   1      36.829  30.131  27.133  1.00  0.00     0.016 A 
ATOM     27  C   UNL A   1      36.204  29.415  29.348  1.00  0.00     0.016 A 
ATOM     28  C   UNL A   1      38.141  29.720  27.374  1.00  0.00     0.010 A 
ATOM     29  C   UNL A   1      37.541  29.152  29.640  1.00  0.00     0.010 A 
ATOM     30  C   UNL A   1      38.521  29.257  28.642  1.00  0.00    -0.014 A 
BRANCH  30  31
ATOM     31  C   UNL A   1      39.944  28.962  28.958  1.00  0.00     0.031 A 
ATOM     32  C   UNL A   1      40.848  30.015  29.549  1.00  0.00     0.074 A 
ATOM     33  C   UNL A   1      40.432  27.741  28.656  1.00  0.00     0.049 A 
ATOM     34  N   UNL A   1      42.147  29.990  29.710  1.00  0.00    -0.248 NA
ATOM     35  C   UNL A   1      40.216  31.265  30.004  1.00  0.00     0.031 C 
ATOM     36  C   UNL A   1      39.654  26.637  28.084  1.00  0.00     0.029 A 
ATOM     37  N   UNL A   1      41.693  27.220  28.781  1.00  0.00    -0.354 N 
ATOM     38  C   UNL A   1      42.493  31.221  30.259  1.00  0.00     0.074 A 
ATOM     39  C   UNL A   1      41.267  31.983  30.382  1.00  0.00     0.031 C 
ATOM     40  C   UNL A   1      40.440  25.562  27.949  1.00  0.00     0.029 A 
ATOM     41  C   UNL A   1      41.797  25.926  28.327  1.00  0.00     0.049 A 
ATOM     42  H   UNL A   1      42.451  27.723  29.159  1.00  0.00     0.167 HD
ATOM     43  C   UNL A   1      43.719  31.668  30.627  1.00  0.00     0.037 A 
ATOM     44  C   UNL A   1      42.872  25.130  28.180  1.00  0.00     0.037 A 
ATOM     45  C   UNL A   1      44.927  30.885  30.515  1.00  0.00     0.049 A 
ATOM     46  C   UNL A   1      44.221  25.669  28.550  1.00  0.00     0.074 A 
ATOM     47  C   UNL A   1      46.222  31.242  30.854  1.00  0.00     0.029 A 
ATOM     48  N   UNL A   1      44.988  29.582  30.040  1.00  0.00    -0.354 N 
ATOM     49  N   UNL A   1      44.534  26.848  29.033  1.00  0.00    -0.248 NA
ATOM     50  C   UNL A   1      45.366  24.776  28.343  1.00  0.00     0.031 C 
ATOM     51  C   UNL A   1      47.068  30.170  30.551  1.00  0.00     0.029 A 
ATOM     52  C   UNL A   1      46.297  29.126  30.069  1.00  0.00     0.049 A 
ATOM     53  H   UNL A   1      44.215  29.058  29.729  1.00  0.00     0.167 HD
ATOM     54  C   UNL A   1      45.910  26.828  29.213  1.00  0.00     0.074 A 
ATOM     55  C   UNL A   1      46.365  25.514  28.805  1.00  0.00     0.031 C 
ATOM     56  C   UNL A   1      46.727  27.809  29.667  1.00  0.00     0.037 A 
BRANCH  43  57
ATOM     57  C   UNL A   1      43.834  33.066  31.181  1.00  0.00     0.058 A 
ATOM     58  C   UNL A   1      44.029  34.177  30.347  1.00  0.00     0.135 A 
ATOM     59  C   UNL A   1      43.670  33.306  32.556  1.00  0.00     0.135 A 
ATOM     60  F   UNL A   1      44.204  34.009  29.026  1.00  0.00    -0.206 F 
ATOM     61  C   UNL A   1      44.071  35.473  30.855  1.00  0.00     0.059 A 
ATOM     62  C   UNL A   1      43.684  34.595  33.084  1.00  0.00     0.059 A 
ATOM     63  F   UNL A   1      43.478  32.283  33.403  1.00  0.00    -0.206 F 
ATOM     64  C   UNL A   1      43.895  35.673  32.225  1.00  0.00     0.060 A 
BRANCH  64  65
ATOM     65  S   UNL A   1      43.932  37.363  32.863  1.00  0.00     0.124 S 
ATOM     66  O   UNL A   1      45.291  37.446  33.391  1.00  0.00    -0.237 OA
ATOM     67  O   UNL A   1      43.669  38.155  31.667  1.00  0.00    -0.237 OA
ATOM     68  O   UNL A   1      42.870  37.374  33.864  1.00  0.00    -0.744 OA
ENDBRANCH  64  65
ENDBRANCH  43  57
BRANCH  44  69
ATOM     69  C   UNL A   1      42.714  23.759  27.629  1.00  0.00     0.058 A 
ATOM     70  C   UNL A   1      42.427  22.675  28.470  1.00  0.00     0.135 A 
ATOM     71  C   UNL A   1      42.848  23.504  26.255  1.00  0.00     0.135 A 
ATOM     72  F   UNL A   1      42.290  22.869  29.790  1.00  0.00    -0.206 F 
ATOM     73  C   UNL A   1      42.313  21.381  27.976  1.00  0.00     0.059 A 
ATOM     74  C   UNL A   1      42.703  22.225  25.731  1.00  0.00     0.059 A 
ATOM     75  F   UNL A   1      43.096  24.511  25.403  1.00  0.00    -0.206 F 
ATOM     76  C   UNL A   1      42.458  21.165  26.604  1.00  0.00     0.060 A 
BRANCH  76  77
ATOM     77  S   UNL A   1      42.308  19.483  25.968  1.00  0.00     0.124 S 
ATOM     78  O   UNL A   1      43.170  19.538  24.795  1.00  0.00    -0.237 OA
ATOM     79  O   UNL A   1      42.799  18.685  27.087  1.00  0.00    -0.237 OA
ATOM     80  O   UNL A   1      40.879  19.355  25.697  1.00  0.00    -0.744 OA
ENDBRANCH  76  77
ENDBRANCH  44  69
BRANCH  56  81
ATOM     81  C   UNL A   1      48.186  27.471  29.789  1.00  0.00     0.058 A 
ATOM     82  C   UNL A   1      48.704  26.838  30.929  1.00  0.00     0.135 A 
ATOM     83  C   UNL A   1      49.075  27.787  28.749  1.00  0.00     0.135 A 
ATOM     84  F   UNL A   1      47.897  26.526  31.955  1.00  0.00    -0.206 F 
ATOM     85  C   UNL A   1      50.063  26.567  31.053  1.00  0.00     0.059 A 
ATOM     86  C   UNL A   1      50.432  27.496  28.839  1.00  0.00     0.059 A 
ATOM     87  F   UNL A   1      48.629  28.385  27.634  1.00  0.00    -0.206 F 
ATOM     88  C   UNL A   1      50.919  26.902  30.003  1.00  0.00     0.060 A 
BRANCH  88  89
ATOM     89  S   UNL A   1      52.678  26.538  30.171  1.00  0.00     0.124 S 
ATOM     90  O   UNL A   1      53.002  26.032  28.842  1.00  0.00    -0.237 OA
ATOM     91  O   UNL A   1      53.238  27.844  30.507  1.00  0.00    -0.237 OA
ATOM     92  O   UNL A   1      52.719  25.550  31.246  1.00  0.00    -0.744 OA
ENDBRANCH  88  89
ENDBRANCH  56  81
ENDBRANCH  30  31
ENDBRANCH  23  25
ENDBRANCH  22  23
ENDBRANCH  21  22
ENDBRANCH   1  21
TORSDOF 21
ENDMDL
