MODEL 1
REMARK VINA RESULT:     -10.7      0.000      0.000
REMARK SMILES C[C@H](CC[NH2+]Cc1cc(C(=O)OCCOC(=O)c2ccc(-c3c4nc(c(-c5c(F)cc(S(=O)(=O)[O-])cc5F)c5ccc([nH]5)c(-c5c(F)cc(S(=O)(=O)[O-])cc5F)c5nc(c(-c6c(F)cc(S(=O)(=O)[O-])cc6F)c6ccc3[nH]6)C=C5)C=C4)cc2)cs1)c1ccccc1
REMARK SMILES IDX 12 1 10 2 11 3 9 4 7 5 8 6 85 7 84 8 6 9 5 10 4 13 3 14 2 15
REMARK SMILES IDX 1 16 86 17 87 18 91 19 88 20 90 21 89 22 13 23 14 24 15 25
REMARK SMILES IDX 16 26 17 27 18 28 19 29 83 30 20 31 82 32 21 33 22 34 23 35
REMARK SMILES IDX 76 36 24 37 81 38 75 39 77 40 25 41 80 42 74 43 73 44 26 46
REMARK SMILES IDX 60 47 39 48 59 49 40 50 43 51 58 52 78 53 41 54 42 55 57 57
REMARK SMILES IDX 79 58 44 59 27 60 28 61 37 62 29 63 30 64 36 65 38 66 31 67
REMARK SMILES IDX 32 68 33 69 34 70 35 71 61 72 62 73 71 74 63 75 64 76 70 77
REMARK SMILES IDX 72 78 65 79 66 80 67 81 68 82 69 83 45 84 46 85 55 86 47 87
REMARK SMILES IDX 48 88 54 89 56 90 49 91 50 92 51 93 52 94 53 95
REMARK H PARENT 5 11 5 12 77 45 43 56
REMARK Flexibility Score: inf
ROOT
ATOM      1  O   UNL A   1      38.572  22.043  25.795  1.00  0.00    -0.458 OA
ENDROOT
BRANCH   1   2
ATOM      2  C   UNL A   1      37.561  21.354  25.187  1.00  0.00     0.339 C 
ATOM      3  O   UNL A   1      37.649  20.188  24.827  1.00  0.00    -0.246 OA
BRANCH   2   4
ATOM      4  C   UNL A   1      36.316  22.118  25.080  1.00  0.00     0.071 A 
ATOM      5  C   UNL A   1      34.076  22.671  24.655  1.00  0.00     0.059 A 
ATOM      6  C   UNL A   1      35.092  21.757  24.412  1.00  0.00     0.037 A 
ATOM      7  S   UNL A   1      34.727  24.137  25.275  1.00  0.00    -0.142 S 
ATOM      8  C   UNL A   1      36.153  23.331  25.729  1.00  0.00     0.081 A 
BRANCH   5   9
ATOM      9  C   UNL A   1      32.585  22.563  24.485  1.00  0.00     0.308 C 
BRANCH   9  10
ATOM     10  N   UNL A   1      31.865  23.837  24.687  1.00  0.00    -0.342 N 
ATOM     11  H   UNL A   1      31.233  23.720  25.480  1.00  0.00     0.346 HD
ATOM     12  H   UNL A   1      32.581  24.547  24.838  1.00  0.00     0.346 HD
BRANCH  10  13
ATOM     13  C   UNL A   1      31.072  24.294  23.540  1.00  0.00     0.261 C 
BRANCH  13  14
ATOM     14  C   UNL A   1      31.334  25.755  23.113  1.00  0.00     0.069 C 
BRANCH  14  15
ATOM     15  C   UNL A   1      30.456  26.895  23.747  1.00  0.00     0.021 C 
ATOM     16  C   UNL A   1      29.039  26.444  24.147  1.00  0.00     0.013 C 
BRANCH  15  17
ATOM     17  C   UNL A   1      31.038  27.684  24.937  1.00  0.00    -0.045 A 
ATOM     18  C   UNL A   1      31.232  27.168  26.224  1.00  0.00     0.004 A 
ATOM     19  C   UNL A   1      31.356  29.047  24.741  1.00  0.00     0.004 A 
ATOM     20  C   UNL A   1      31.650  27.995  27.278  1.00  0.00     0.000 A 
ATOM     21  C   UNL A   1      31.739  29.879  25.795  1.00  0.00     0.000 A 
ATOM     22  C   UNL A   1      31.877  29.352  27.069  1.00  0.00     0.000 A 
ENDBRANCH  15  17
ENDBRANCH  14  15
ENDBRANCH  13  14
ENDBRANCH  10  13
ENDBRANCH   9  10
ENDBRANCH   5   9
ENDBRANCH   2   4
ENDBRANCH   1   2
BRANCH   1  23
ATOM     23  C   UNL A   1      39.716  21.251  26.181  1.00  0.00     0.275 C 
BRANCH  23  24
ATOM     24  C   UNL A   1      41.006  22.078  26.166  1.00  0.00     0.275 C 
BRANCH  24  25
ATOM     25  O   UNL A   1      40.929  23.189  27.081  1.00  0.00    -0.458 OA
BRANCH  25  26
ATOM     26  C   UNL A   1      41.581  24.306  26.684  1.00  0.00     0.338 C 
ATOM     27  O   UNL A   1      42.287  24.433  25.698  1.00  0.00    -0.246 OA
BRANCH  26  28
ATOM     28  C   UNL A   1      41.232  25.435  27.558  1.00  0.00     0.060 A 
ATOM     29  C   UNL A   1      42.155  26.467  27.668  1.00  0.00     0.016 A 
ATOM     30  C   UNL A   1      40.118  25.411  28.389  1.00  0.00     0.016 A 
ATOM     31  C   UNL A   1      42.048  27.416  28.674  1.00  0.00     0.010 A 
ATOM     32  C   UNL A   1      39.947  26.435  29.334  1.00  0.00     0.010 A 
ATOM     33  C   UNL A   1      40.930  27.428  29.514  1.00  0.00    -0.014 A 
BRANCH  33  34
ATOM     34  C   UNL A   1      40.819  28.460  30.584  1.00  0.00     0.031 A 
ATOM     35  C   UNL A   1      41.747  28.428  31.771  1.00  0.00     0.074 A 
ATOM     36  C   UNL A   1      39.898  29.442  30.485  1.00  0.00     0.049 A 
ATOM     37  N   UNL A   1      41.715  29.142  32.867  1.00  0.00    -0.248 NA
ATOM     38  C   UNL A   1      42.850  27.455  31.724  1.00  0.00     0.031 C 
ATOM     39  C   UNL A   1      38.968  29.622  29.365  1.00  0.00     0.029 A 
ATOM     40  N   UNL A   1      39.590  30.477  31.335  1.00  0.00    -0.354 N 
ATOM     41  C   UNL A   1      42.757  28.672  33.660  1.00  0.00     0.074 A 
ATOM     42  C   UNL A   1      43.392  27.599  32.924  1.00  0.00     0.031 C 
ATOM     43  C   UNL A   1      38.219  30.712  29.583  1.00  0.00     0.029 A 
ATOM     44  C   UNL A   1      38.544  31.255  30.896  1.00  0.00     0.049 A 
ATOM     45  H   UNL A   1      40.072  30.644  32.176  1.00  0.00     0.167 HD
ATOM     46  C   UNL A   1      43.146  29.096  34.888  1.00  0.00     0.037 A 
ATOM     47  C   UNL A   1      37.883  32.264  31.498  1.00  0.00     0.037 A 
ATOM     48  C   UNL A   1      42.528  30.192  35.593  1.00  0.00     0.049 A 
ATOM     49  C   UNL A   1      38.298  32.686  32.879  1.00  0.00     0.074 A 
ATOM     50  C   UNL A   1      42.861  30.716  36.829  1.00  0.00     0.029 A 
ATOM     51  N   UNL A   1      41.452  30.934  35.125  1.00  0.00    -0.354 N 
ATOM     52  N   UNL A   1      39.266  32.213  33.628  1.00  0.00    -0.248 NA
ATOM     53  C   UNL A   1      37.527  33.769  33.501  1.00  0.00     0.031 C 
ATOM     54  C   UNL A   1      41.953  31.735  37.134  1.00  0.00     0.029 A 
ATOM     55  C   UNL A   1      41.092  31.892  36.059  1.00  0.00     0.049 A 
ATOM     56  H   UNL A   1      41.009  30.799  34.256  1.00  0.00     0.167 HD
ATOM     57  C   UNL A   1      39.233  32.955  34.803  1.00  0.00     0.074 A 
ATOM     58  C   UNL A   1      38.160  33.917  34.657  1.00  0.00     0.031 C 
ATOM     59  C   UNL A   1      40.021  32.847  35.901  1.00  0.00     0.037 A 
BRANCH  46  60
ATOM     60  C   UNL A   1      44.262  28.345  35.568  1.00  0.00     0.058 A 
ATOM     61  C   UNL A   1      45.609  28.714  35.431  1.00  0.00     0.135 A 
ATOM     62  C   UNL A   1      43.970  27.242  36.389  1.00  0.00     0.135 A 
ATOM     63  F   UNL A   1      45.951  29.752  34.650  1.00  0.00    -0.206 F 
ATOM     64  C   UNL A   1      46.628  27.994  36.049  1.00  0.00     0.059 A 
ATOM     65  C   UNL A   1      44.970  26.527  37.041  1.00  0.00     0.059 A 
ATOM     66  F   UNL A   1      42.700  26.844  36.560  1.00  0.00    -0.206 F 
ATOM     67  C   UNL A   1      46.299  26.898  36.850  1.00  0.00     0.060 A 
BRANCH  67  68
ATOM     68  S   UNL A   1      47.633  25.964  37.629  1.00  0.00     0.124 S 
ATOM     69  O   UNL A   1      48.535  25.750  36.502  1.00  0.00    -0.237 OA
ATOM     70  O   UNL A   1      48.107  26.889  38.653  1.00  0.00    -0.237 OA
ATOM     71  O   UNL A   1      46.963  24.768  38.131  1.00  0.00    -0.744 OA
ENDBRANCH  67  68
ENDBRANCH  46  60
BRANCH  47  72
ATOM     72  C   UNL A   1      36.736  32.910  30.803  1.00  0.00     0.058 A 
ATOM     73  C   UNL A   1      35.413  32.633  31.174  1.00  0.00     0.135 A 
ATOM     74  C   UNL A   1      36.942  33.848  29.778  1.00  0.00     0.135 A 
ATOM     75  F   UNL A   1      35.160  31.735  32.138  1.00  0.00    -0.206 F 
ATOM     76  C   UNL A   1      34.335  33.259  30.554  1.00  0.00     0.059 A 
ATOM     77  C   UNL A   1      35.884  34.512  29.165  1.00  0.00     0.059 A 
ATOM     78  F   UNL A   1      38.190  34.159  29.391  1.00  0.00    -0.206 F 
ATOM     79  C   UNL A   1      34.582  34.205  29.558  1.00  0.00     0.060 A 
BRANCH  79  80
ATOM     80  S   UNL A   1      33.180  35.063  28.810  1.00  0.00     0.124 S 
ATOM     81  O   UNL A   1      33.830  36.225  28.214  1.00  0.00    -0.237 OA
ATOM     82  O   UNL A   1      32.674  34.064  27.874  1.00  0.00    -0.237 OA
ATOM     83  O   UNL A   1      32.310  35.341  29.948  1.00  0.00    -0.744 OA
ENDBRANCH  79  80
ENDBRANCH  47  72
BRANCH  59  84
ATOM     84  C   UNL A   1      39.779  33.821  37.022  1.00  0.00     0.058 A 
ATOM     85  C   UNL A   1      39.009  33.484  38.145  1.00  0.00     0.135 A 
ATOM     86  C   UNL A   1      40.367  35.096  36.991  1.00  0.00     0.135 A 
ATOM     87  F   UNL A   1      38.417  32.281  38.222  1.00  0.00    -0.206 F 
ATOM     88  C   UNL A   1      38.809  34.384  39.187  1.00  0.00     0.059 A 
ATOM     89  C   UNL A   1      40.207  36.001  38.035  1.00  0.00     0.059 A 
ATOM     90  F   UNL A   1      41.122  35.469  35.944  1.00  0.00    -0.206 F 
ATOM     91  C   UNL A   1      39.415  35.641  39.123  1.00  0.00     0.060 A 
BRANCH  91  92
ATOM     92  S   UNL A   1      39.175  36.788  40.497  1.00  0.00     0.124 S 
ATOM     93  O   UNL A   1      40.497  36.792  41.112  1.00  0.00    -0.237 OA
ATOM     94  O   UNL A   1      38.790  38.018  39.811  1.00  0.00    -0.237 OA
ATOM     95  O   UNL A   1      38.118  36.159  41.283  1.00  0.00    -0.744 OA
ENDBRANCH  91  92
ENDBRANCH  59  84
ENDBRANCH  33  34
ENDBRANCH  26  28
ENDBRANCH  25  26
ENDBRANCH  24  25
ENDBRANCH  23  24
ENDBRANCH   1  23
TORSDOF 20
ENDMDL
MODEL 2
REMARK VINA RESULT:     -10.7      6.500     12.159
REMARK SMILES C[C@H](CC[NH2+]Cc1cc(C(=O)OCCOC(=O)c2ccc(-c3c4nc(c(-c5c(F)cc(S(=O)(=O)[O-])cc5F)c5ccc([nH]5)c(-c5c(F)cc(S(=O)(=O)[O-])cc5F)c5nc(c(-c6c(F)cc(S(=O)(=O)[O-])cc6F)c6ccc3[nH]6)C=C5)C=C4)cc2)cs1)c1ccccc1
REMARK SMILES IDX 12 1 10 2 11 3 9 4 7 5 8 6 85 7 84 8 6 9 5 10 4 13 3 14 2 15
REMARK SMILES IDX 1 16 86 17 87 18 91 19 88 20 90 21 89 22 13 23 14 24 15 25
REMARK SMILES IDX 16 26 17 27 18 28 19 29 83 30 20 31 82 32 21 33 22 34 23 35
REMARK SMILES IDX 76 36 24 37 81 38 75 39 77 40 25 41 80 42 74 43 73 44 26 46
REMARK SMILES IDX 60 47 39 48 59 49 40 50 43 51 58 52 78 53 41 54 42 55 57 57
REMARK SMILES IDX 79 58 44 59 27 60 28 61 37 62 29 63 30 64 36 65 38 66 31 67
REMARK SMILES IDX 32 68 33 69 34 70 35 71 61 72 62 73 71 74 63 75 64 76 70 77
REMARK SMILES IDX 72 78 65 79 66 80 67 81 68 82 69 83 45 84 46 85 55 86 47 87
REMARK SMILES IDX 48 88 54 89 56 90 49 91 50 92 51 93 52 94 53 95
REMARK H PARENT 5 11 5 12 77 45 43 56
REMARK Flexibility Score: inf
ROOT
ATOM      1  O   UNL A   1      33.768  30.186  26.487  1.00  0.00    -0.458 OA
ENDROOT
BRANCH   1   2
ATOM      2  C   UNL A   1      33.252  28.922  26.437  1.00  0.00     0.339 C 
ATOM      3  O   UNL A   1      33.054  28.225  27.424  1.00  0.00    -0.246 OA
BRANCH   2   4
ATOM      4  C   UNL A   1      32.872  28.499  25.088  1.00  0.00     0.071 A 
ATOM      5  C   UNL A   1      32.901  27.421  23.003  1.00  0.00     0.059 A 
ATOM      6  C   UNL A   1      33.651  27.774  24.117  1.00  0.00     0.037 A 
ATOM      7  S   UNL A   1      31.451  28.344  22.944  1.00  0.00    -0.142 S 
ATOM      8  C   UNL A   1      31.592  28.705  24.599  1.00  0.00     0.081 A 
BRANCH   5   9
ATOM      9  C   UNL A   1      33.146  26.401  21.927  1.00  0.00     0.308 C 
BRANCH   9  10
ATOM     10  N   UNL A   1      32.084  25.380  21.814  1.00  0.00    -0.342 N 
ATOM     11  H   UNL A   1      31.186  25.841  21.971  1.00  0.00     0.346 HD
ATOM     12  H   UNL A   1      32.176  24.975  20.883  1.00  0.00     0.346 HD
BRANCH  10  13
ATOM     13  C   UNL A   1      32.189  24.262  22.758  1.00  0.00     0.261 C 
BRANCH  13  14
ATOM     14  C   UNL A   1      33.633  23.805  23.061  1.00  0.00     0.069 C 
BRANCH  14  15
ATOM     15  C   UNL A   1      33.880  22.844  24.281  1.00  0.00     0.021 C 
ATOM     16  C   UNL A   1      33.360  21.411  24.063  1.00  0.00     0.013 C 
BRANCH  15  17
ATOM     17  C   UNL A   1      35.312  22.732  24.839  1.00  0.00    -0.045 A 
ATOM     18  C   UNL A   1      36.062  23.799  25.347  1.00  0.00     0.004 A 
ATOM     19  C   UNL A   1      35.948  21.469  24.793  1.00  0.00     0.004 A 
ATOM     20  C   UNL A   1      37.405  23.627  25.718  1.00  0.00     0.000 A 
ATOM     21  C   UNL A   1      37.293  21.304  25.129  1.00  0.00     0.000 A 
ATOM     22  C   UNL A   1      38.025  22.388  25.584  1.00  0.00     0.000 A 
ENDBRANCH  15  17
ENDBRANCH  14  15
ENDBRANCH  13  14
ENDBRANCH  10  13
ENDBRANCH   9  10
ENDBRANCH   5   9
ENDBRANCH   2   4
ENDBRANCH   1   2
BRANCH   1  23
ATOM     23  C   UNL A   1      33.207  31.043  27.505  1.00  0.00     0.275 C 
BRANCH  23  24
ATOM     24  C   UNL A   1      34.293  31.851  28.224  1.00  0.00     0.275 C 
BRANCH  24  25
ATOM     25  O   UNL A   1      35.587  31.233  28.084  1.00  0.00    -0.458 OA
BRANCH  25  26
ATOM     26  C   UNL A   1      36.207  30.930  29.248  1.00  0.00     0.338 C 
ATOM     27  O   UNL A   1      35.779  31.107  30.376  1.00  0.00    -0.246 OA
BRANCH  26  28
ATOM     28  C   UNL A   1      37.467  30.222  28.981  1.00  0.00     0.060 A 
ATOM     29  C   UNL A   1      38.330  30.028  30.053  1.00  0.00     0.016 A 
ATOM     30  C   UNL A   1      37.884  29.912  27.692  1.00  0.00     0.016 A 
ATOM     31  C   UNL A   1      39.645  29.638  29.849  1.00  0.00     0.010 A 
ATOM     32  C   UNL A   1      39.180  29.408  27.494  1.00  0.00     0.010 A 
ATOM     33  C   UNL A   1      40.089  29.303  28.566  1.00  0.00    -0.014 A 
BRANCH  33  34
ATOM     34  C   UNL A   1      41.502  28.874  28.359  1.00  0.00     0.031 A 
ATOM     35  C   UNL A   1      42.624  29.873  28.473  1.00  0.00     0.074 A 
ATOM     36  C   UNL A   1      41.784  27.582  28.089  1.00  0.00     0.049 A 
ATOM     37  N   UNL A   1      43.894  29.729  28.187  1.00  0.00    -0.248 NA
ATOM     38  C   UNL A   1      42.269  31.215  28.959  1.00  0.00     0.031 C 
ATOM     39  C   UNL A   1      40.800  26.499  28.000  1.00  0.00     0.029 A 
ATOM     40  N   UNL A   1      42.982  26.955  27.841  1.00  0.00    -0.354 N 
ATOM     41  C   UNL A   1      44.478  30.971  28.409  1.00  0.00     0.074 A 
ATOM     42  C   UNL A   1      43.420  31.862  28.838  1.00  0.00     0.031 C 
ATOM     43  C   UNL A   1      41.432  25.345  27.748  1.00  0.00     0.029 A 
ATOM     44  C   UNL A   1      42.853  25.614  27.562  1.00  0.00     0.049 A 
ATOM     45  H   UNL A   1      43.848  27.422  27.861  1.00  0.00     0.167 HD
ATOM     46  C   UNL A   1      45.777  31.335  28.268  1.00  0.00     0.037 A 
ATOM     47  C   UNL A   1      43.762  24.707  27.156  1.00  0.00     0.037 A 
ATOM     48  C   UNL A   1      46.828  30.427  27.877  1.00  0.00     0.049 A 
ATOM     49  C   UNL A   1      45.187  25.141  26.957  1.00  0.00     0.074 A 
ATOM     50  C   UNL A   1      48.178  30.688  27.728  1.00  0.00     0.029 A 
ATOM     51  N   UNL A   1      46.647  29.084  27.576  1.00  0.00    -0.354 N 
ATOM     52  N   UNL A   1      45.720  26.326  27.143  1.00  0.00    -0.248 NA
ATOM     53  C   UNL A   1      46.132  24.122  26.484  1.00  0.00     0.031 C 
ATOM     54  C   UNL A   1      48.805  29.520  27.282  1.00  0.00     0.029 A 
ATOM     55  C   UNL A   1      47.857  28.511  27.216  1.00  0.00     0.049 A 
ATOM     56  H   UNL A   1      45.786  28.608  27.612  1.00  0.00     0.167 HD
ATOM     57  C   UNL A   1      47.067  26.190  26.829  1.00  0.00     0.074 A 
ATOM     58  C   UNL A   1      47.269  24.804  26.457  1.00  0.00     0.031 C 
ATOM     59  C   UNL A   1      48.045  27.128  26.848  1.00  0.00     0.037 A 
BRANCH  46  60
ATOM     60  C   UNL A   1      46.128  32.784  28.491  1.00  0.00     0.058 A 
ATOM     61  C   UNL A   1      46.705  33.241  29.686  1.00  0.00     0.135 A 
ATOM     62  C   UNL A   1      45.896  33.728  27.477  1.00  0.00     0.135 A 
ATOM     63  F   UNL A   1      46.939  32.387  30.696  1.00  0.00    -0.206 F 
ATOM     64  C   UNL A   1      47.001  34.588  29.883  1.00  0.00     0.059 A 
ATOM     65  C   UNL A   1      46.214  35.074  27.640  1.00  0.00     0.059 A 
ATOM     66  F   UNL A   1      45.349  33.349  26.312  1.00  0.00    -0.206 F 
ATOM     67  C   UNL A   1      46.748  35.498  28.855  1.00  0.00     0.060 A 
BRANCH  67  68
ATOM     68  S   UNL A   1      47.121  37.242  29.132  1.00  0.00     0.124 S 
ATOM     69  O   UNL A   1      46.453  37.484  30.407  1.00  0.00    -0.237 OA
ATOM     70  O   UNL A   1      48.580  37.249  29.170  1.00  0.00    -0.237 OA
ATOM     71  O   UNL A   1      46.524  37.907  27.978  1.00  0.00    -0.744 OA
ENDBRANCH  67  68
ENDBRANCH  46  60
BRANCH  47  72
ATOM     72  C   UNL A   1      43.333  23.310  26.874  1.00  0.00     0.058 A 
ATOM     73  C   UNL A   1      43.300  22.810  25.564  1.00  0.00     0.135 A 
ATOM     74  C   UNL A   1      42.982  22.433  27.914  1.00  0.00     0.135 A 
ATOM     75  F   UNL A   1      43.613  23.610  24.532  1.00  0.00    -0.206 F 
ATOM     76  C   UNL A   1      42.935  21.495  25.294  1.00  0.00     0.059 A 
ATOM     77  C   UNL A   1      42.645  21.105  27.673  1.00  0.00     0.059 A 
ATOM     78  F   UNL A   1      43.007  22.857  29.188  1.00  0.00    -0.206 F 
ATOM     79  C   UNL A   1      42.619  20.647  26.357  1.00  0.00     0.060 A 
BRANCH  79  80
ATOM     80  S   UNL A   1      42.215  18.923  26.001  1.00  0.00     0.124 S 
ATOM     81  O   UNL A   1      40.779  19.001  25.759  1.00  0.00    -0.237 OA
ATOM     82  O   UNL A   1      43.045  18.650  24.832  1.00  0.00    -0.237 OA
ATOM     83  O   UNL A   1      42.613  18.226  27.219  1.00  0.00    -0.744 OA
ENDBRANCH  79  80
ENDBRANCH  47  72
BRANCH  59  84
ATOM     84  C   UNL A   1      49.437  26.680  26.492  1.00  0.00     0.058 A 
ATOM     85  C   UNL A   1      50.261  26.017  27.414  1.00  0.00     0.135 A 
ATOM     86  C   UNL A   1      49.935  26.880  25.194  1.00  0.00     0.135 A 
ATOM     87  F   UNL A   1      49.838  25.808  28.671  1.00  0.00    -0.206 F 
ATOM     88  C   UNL A   1      51.539  25.587  27.069  1.00  0.00     0.059 A 
ATOM     89  C   UNL A   1      51.197  26.432  24.818  1.00  0.00     0.059 A 
ATOM     90  F   UNL A   1      49.185  27.502  24.270  1.00  0.00    -0.206 F 
ATOM     91  C   UNL A   1      51.997  25.797  25.766  1.00  0.00     0.060 A 
BRANCH  91  92
ATOM     92  S   UNL A   1      53.644  25.206  25.322  1.00  0.00     0.124 S 
ATOM     93  O   UNL A   1      53.765  25.677  23.948  1.00  0.00    -0.237 OA
ATOM     94  O   UNL A   1      54.491  25.881  26.302  1.00  0.00    -0.237 OA
ATOM     95  O   UNL A   1      53.540  23.759  25.484  1.00  0.00    -0.744 OA
ENDBRANCH  91  92
ENDBRANCH  59  84
ENDBRANCH  33  34
ENDBRANCH  26  28
ENDBRANCH  25  26
ENDBRANCH  24  25
ENDBRANCH  23  24
ENDBRANCH   1  23
TORSDOF 20
ENDMDL
MODEL 3
REMARK VINA RESULT:     -10.5      3.240      9.707
REMARK SMILES C[C@H](CC[NH2+]Cc1cc(C(=O)OCCOC(=O)c2ccc(-c3c4nc(c(-c5c(F)cc(S(=O)(=O)[O-])cc5F)c5ccc([nH]5)c(-c5c(F)cc(S(=O)(=O)[O-])cc5F)c5nc(c(-c6c(F)cc(S(=O)(=O)[O-])cc6F)c6ccc3[nH]6)C=C5)C=C4)cc2)cs1)c1ccccc1
REMARK SMILES IDX 12 1 10 2 11 3 9 4 7 5 8 6 85 7 84 8 6 9 5 10 4 13 3 14 2 15
REMARK SMILES IDX 1 16 86 17 87 18 91 19 88 20 90 21 89 22 13 23 14 24 15 25
REMARK SMILES IDX 16 26 17 27 18 28 19 29 83 30 20 31 82 32 21 33 22 34 23 35
REMARK SMILES IDX 76 36 24 37 81 38 75 39 77 40 25 41 80 42 74 43 73 44 26 46
REMARK SMILES IDX 60 47 39 48 59 49 40 50 43 51 58 52 78 53 41 54 42 55 57 57
REMARK SMILES IDX 79 58 44 59 27 60 28 61 37 62 29 63 30 64 36 65 38 66 31 67
REMARK SMILES IDX 32 68 33 69 34 70 35 71 61 72 62 73 71 74 63 75 64 76 70 77
REMARK SMILES IDX 72 78 65 79 66 80 67 81 68 82 69 83 45 84 46 85 55 86 47 87
REMARK SMILES IDX 48 88 54 89 56 90 49 91 50 92 51 93 52 94 53 95
REMARK H PARENT 5 11 5 12 77 45 43 56
REMARK Flexibility Score: inf
ROOT
ATOM      1  O   UNL A   1      33.261  26.961  26.046  1.00  0.00    -0.458 OA
ENDROOT
BRANCH   1   2
ATOM      2  C   UNL A   1      32.128  26.364  26.524  1.00  0.00     0.339 C 
ATOM      3  O   UNL A   1      31.154  26.980  26.937  1.00  0.00    -0.246 OA
BRANCH   2   4
ATOM      4  C   UNL A   1      32.148  24.904  26.417  1.00  0.00     0.071 A 
ATOM      5  C   UNL A   1      32.889  22.678  26.485  1.00  0.00     0.059 A 
ATOM      6  C   UNL A   1      33.278  24.011  26.470  1.00  0.00     0.037 A 
ATOM      7  S   UNL A   1      31.253  22.528  25.980  1.00  0.00    -0.142 S 
ATOM      8  C   UNL A   1      30.977  24.169  26.324  1.00  0.00     0.081 A 
BRANCH   5   9
ATOM      9  C   UNL A   1      33.637  21.434  26.876  1.00  0.00     0.308 C 
BRANCH   9  10
ATOM     10  N   UNL A   1      33.369  20.274  26.000  1.00  0.00    -0.342 N 
ATOM     11  H   UNL A   1      33.476  19.426  26.559  1.00  0.00     0.346 HD
ATOM     12  H   UNL A   1      32.426  20.405  25.636  1.00  0.00     0.346 HD
BRANCH  10  13
ATOM     13  C   UNL A   1      34.246  20.159  24.830  1.00  0.00     0.261 C 
BRANCH  13  14
ATOM     14  C   UNL A   1      35.753  20.311  25.132  1.00  0.00     0.069 C 
BRANCH  14  15
ATOM     15  C   UNL A   1      36.524  21.539  24.525  1.00  0.00     0.021 C 
ATOM     16  C   UNL A   1      35.606  22.614  23.915  1.00  0.00     0.013 C 
BRANCH  15  17
ATOM     17  C   UNL A   1      37.550  22.266  25.417  1.00  0.00    -0.045 A 
ATOM     18  C   UNL A   1      37.437  23.591  25.856  1.00  0.00     0.004 A 
ATOM     19  C   UNL A   1      38.725  21.570  25.784  1.00  0.00     0.004 A 
ATOM     20  C   UNL A   1      38.481  24.210  26.561  1.00  0.00     0.000 A 
ATOM     21  C   UNL A   1      39.778  22.194  26.455  1.00  0.00     0.000 A 
ATOM     22  C   UNL A   1      39.658  23.521  26.836  1.00  0.00     0.000 A 
ENDBRANCH  15  17
ENDBRANCH  14  15
ENDBRANCH  13  14
ENDBRANCH  10  13
ENDBRANCH   9  10
ENDBRANCH   5   9
ENDBRANCH   2   4
ENDBRANCH   1   2
BRANCH   1  23
ATOM     23  C   UNL A   1      33.044  28.089  25.171  1.00  0.00     0.275 C 
BRANCH  23  24
ATOM     24  C   UNL A   1      33.238  29.419  25.907  1.00  0.00     0.275 C 
BRANCH  24  25
ATOM     25  O   UNL A   1      34.466  29.428  26.661  1.00  0.00    -0.458 OA
BRANCH  25  26
ATOM     26  C   UNL A   1      34.643  30.508  27.457  1.00  0.00     0.338 C 
ATOM     27  O   UNL A   1      33.903  31.471  27.563  1.00  0.00    -0.246 OA
BRANCH  26  28
ATOM     28  C   UNL A   1      35.830  30.324  28.305  1.00  0.00     0.060 A 
ATOM     29  C   UNL A   1      37.026  30.869  27.857  1.00  0.00     0.016 A 
ATOM     30  C   UNL A   1      35.822  29.491  29.418  1.00  0.00     0.016 A 
ATOM     31  C   UNL A   1      38.236  30.504  28.431  1.00  0.00     0.010 A 
ATOM     32  C   UNL A   1      37.032  29.210  30.071  1.00  0.00     0.010 A 
ATOM     33  C   UNL A   1      38.258  29.683  29.562  1.00  0.00    -0.014 A 
BRANCH  33  34
ATOM     34  C   UNL A   1      39.563  29.306  30.178  1.00  0.00     0.031 A 
ATOM     35  C   UNL A   1      40.073  30.046  31.388  1.00  0.00     0.074 A 
ATOM     36  C   UNL A   1      40.283  28.285  29.669  1.00  0.00     0.049 A 
ATOM     37  N   UNL A   1      41.240  29.966  31.977  1.00  0.00    -0.248 NA
ATOM     38  C   UNL A   1      39.155  31.012  32.010  1.00  0.00     0.031 C 
ATOM     39  C   UNL A   1      39.884  27.451  28.531  1.00  0.00     0.029 A 
ATOM     40  N   UNL A   1      41.502  27.770  30.039  1.00  0.00    -0.354 N 
ATOM     41  C   UNL A   1      41.215  30.905  33.002  1.00  0.00     0.074 A 
ATOM     42  C   UNL A   1      39.922  31.553  32.946  1.00  0.00     0.031 C 
ATOM     43  C   UNL A   1      40.820  26.517  28.316  1.00  0.00     0.029 A 
ATOM     44  C   UNL A   1      41.931  26.740  29.234  1.00  0.00     0.049 A 
ATOM     45  H   UNL A   1      42.018  28.107  30.805  1.00  0.00     0.167 HD
ATOM     46  C   UNL A   1      42.182  31.197  33.907  1.00  0.00     0.037 A 
ATOM     47  C   UNL A   1      43.103  26.076  29.201  1.00  0.00     0.037 A 
ATOM     48  C   UNL A   1      43.451  30.516  33.976  1.00  0.00     0.049 A 
ATOM     49  C   UNL A   1      44.180  26.450  30.180  1.00  0.00     0.074 A 
ATOM     50  C   UNL A   1      44.488  30.720  34.869  1.00  0.00     0.029 A 
ATOM     51  N   UNL A   1      43.855  29.498  33.123  1.00  0.00    -0.354 N 
ATOM     52  N   UNL A   1      44.153  27.359  31.125  1.00  0.00    -0.248 NA
ATOM     53  C   UNL A   1      45.448  25.718  30.083  1.00  0.00     0.031 C 
ATOM     54  C   UNL A   1      45.541  29.867  34.521  1.00  0.00     0.029 A 
ATOM     55  C   UNL A   1      45.136  29.084  33.451  1.00  0.00     0.049 A 
ATOM     56  H   UNL A   1      43.312  29.126  32.392  1.00  0.00     0.167 HD
ATOM     57  C   UNL A   1      45.394  27.295  31.750  1.00  0.00     0.074 A 
ATOM     58  C   UNL A   1      46.140  26.246  31.083  1.00  0.00     0.031 C 
ATOM     59  C   UNL A   1      45.869  28.037  32.780  1.00  0.00     0.037 A 
BRANCH  46  60
ATOM     60  C   UNL A   1      41.925  32.333  34.865  1.00  0.00     0.058 A 
ATOM     61  C   UNL A   1      41.418  32.126  36.158  1.00  0.00     0.135 A 
ATOM     62  C   UNL A   1      42.211  33.655  34.482  1.00  0.00     0.135 A 
ATOM     63  F   UNL A   1      41.115  30.886  36.575  1.00  0.00    -0.206 F 
ATOM     64  C   UNL A   1      41.166  33.189  37.020  1.00  0.00     0.059 A 
ATOM     65  C   UNL A   1      41.996  34.730  35.340  1.00  0.00     0.059 A 
ATOM     66  F   UNL A   1      42.700  33.914  33.260  1.00  0.00    -0.206 F 
ATOM     67  C   UNL A   1      41.454  34.490  36.601  1.00  0.00     0.060 A 
BRANCH  67  68
ATOM     68  S   UNL A   1      41.105  35.859  37.724  1.00  0.00     0.124 S 
ATOM     69  O   UNL A   1      40.210  36.679  36.914  1.00  0.00    -0.237 OA
ATOM     70  O   UNL A   1      40.489  35.182  38.860  1.00  0.00    -0.237 OA
ATOM     71  O   UNL A   1      42.422  36.435  37.980  1.00  0.00    -0.744 OA
ENDBRANCH  67  68
ENDBRANCH  46  60
BRANCH  47  72
ATOM     72  C   UNL A   1      43.322  25.020  28.176  1.00  0.00     0.058 A 
ATOM     73  C   UNL A   1      43.860  25.329  26.918  1.00  0.00     0.135 A 
ATOM     74  C   UNL A   1      43.033  23.672  28.447  1.00  0.00     0.135 A 
ATOM     75  F   UNL A   1      44.141  26.603  26.602  1.00  0.00    -0.206 F 
ATOM     76  C   UNL A   1      44.101  24.343  25.965  1.00  0.00     0.059 A 
ATOM     77  C   UNL A   1      43.296  22.664  27.525  1.00  0.00     0.059 A 
ATOM     78  F   UNL A   1      42.528  23.319  29.640  1.00  0.00    -0.206 F 
ATOM     79  C   UNL A   1      43.825  23.012  26.283  1.00  0.00     0.060 A 
BRANCH  79  80
ATOM     80  S   UNL A   1      44.209  21.733  25.067  1.00  0.00     0.124 S 
ATOM     81  O   UNL A   1      43.206  20.721  25.378  1.00  0.00    -0.237 OA
ATOM     82  O   UNL A   1      44.028  22.446  23.807  1.00  0.00    -0.237 OA
ATOM     83  O   UNL A   1      45.588  21.372  25.381  1.00  0.00    -0.744 OA
ENDBRANCH  79  80
ENDBRANCH  47  72
BRANCH  59  84
ATOM     84  C   UNL A   1      47.251  27.716  33.281  1.00  0.00     0.058 A 
ATOM     85  C   UNL A   1      47.476  26.745  34.268  1.00  0.00     0.135 A 
ATOM     86  C   UNL A   1      48.371  28.361  32.729  1.00  0.00     0.135 A 
ATOM     87  F   UNL A   1      46.441  26.105  34.835  1.00  0.00    -0.206 F 
ATOM     88  C   UNL A   1      48.760  26.440  34.708  1.00  0.00     0.059 A 
ATOM     89  C   UNL A   1      49.665  28.050  33.132  1.00  0.00     0.059 A 
ATOM     90  F   UNL A   1      48.214  29.293  31.775  1.00  0.00    -0.206 F 
ATOM     91  C   UNL A   1      49.850  27.097  34.132  1.00  0.00     0.060 A 
BRANCH  91  92
ATOM     92  S   UNL A   1      51.512  26.669  34.690  1.00  0.00     0.124 S 
ATOM     93  O   UNL A   1      52.332  27.200  33.607  1.00  0.00    -0.237 OA
ATOM     94  O   UNL A   1      51.605  27.378  35.963  1.00  0.00    -0.237 OA
ATOM     95  O   UNL A   1      51.473  25.214  34.791  1.00  0.00    -0.744 OA
ENDBRANCH  91  92
ENDBRANCH  59  84
ENDBRANCH  33  34
ENDBRANCH  26  28
ENDBRANCH  25  26
ENDBRANCH  24  25
ENDBRANCH  23  24
ENDBRANCH   1  23
TORSDOF 20
ENDMDL
