MODEL 1
REMARK VINA RESULT:     -11.8      0.000      0.000
REMARK SMILES O=C(OCCOC(=O)c1cc(=O)[nH]c2ccc(C(F)(F)F)cc12)c1ccc(-c2c3nc(c(-c4c(F)cc(S(=O)(=O)[O-])cc4F)c4ccc([nH]4)c(-c4c(F)cc(S(=O)(=O)[O-])cc4F)c4nc(c(-c5c(F)cc(S(=O)(=O)[O-])cc5F)c5ccc2[nH]5)C=C4)C=C3)cc1
REMARK SMILES IDX 4 1 3 2 2 3 1 4 24 5 25 6 89 7 26 8 88 9 27 10 28 11 29 12
REMARK SMILES IDX 82 13 30 14 87 15 81 16 83 17 31 18 86 19 80 20 79 21 32 23
REMARK SMILES IDX 66 24 45 25 65 26 46 27 49 28 64 29 84 30 47 31 48 32 63 34
REMARK SMILES IDX 85 35 50 36 33 37 34 38 43 39 35 40 36 41 42 42 44 43 37 44
REMARK SMILES IDX 38 45 39 46 40 47 41 48 67 49 68 50 77 51 69 52 70 53 76 54
REMARK SMILES IDX 78 55 71 56 72 57 73 58 74 59 75 60 51 61 52 62 61 63 53 64
REMARK SMILES IDX 54 65 60 66 62 67 55 68 56 69 57 70 58 71 59 72 5 73 6 74
REMARK SMILES IDX 7 75 8 76 9 77 10 78 23 79 11 80 14 81 22 82 12 83 13 84
REMARK SMILES IDX 15 85 17 86 16 88 18 89 19 90 20 91 21 92
REMARK H PARENT 83 22 49 33 13 87
REMARK Flexibility Score: inf
ROOT
ATOM      1  C   UNL A   1      45.175  24.874  26.496  1.00  0.00     0.275 C 
ENDROOT
BRANCH   1   2
ATOM      2  O   UNL A   1      43.856  24.910  25.927  1.00  0.00    -0.458 OA
BRANCH   2   3
ATOM      3  C   UNL A   1      42.940  25.908  25.947  1.00  0.00     0.338 C 
ATOM      4  O   UNL A   1      42.542  26.364  24.876  1.00  0.00    -0.246 OA
BRANCH   3   5
ATOM      5  C   UNL A   1      42.529  26.612  27.199  1.00  0.00     0.060 A 
ATOM      6  C   UNL A   1      41.571  26.175  28.116  1.00  0.00     0.016 A 
ATOM      7  C   UNL A   1      43.163  27.842  27.450  1.00  0.00     0.016 A 
ATOM      8  C   UNL A   1      41.322  26.891  29.291  1.00  0.00     0.010 A 
ATOM      9  C   UNL A   1      42.940  28.547  28.633  1.00  0.00     0.010 A 
ATOM     10  C   UNL A   1      42.005  28.077  29.558  1.00  0.00    -0.014 A 
BRANCH  10  11
ATOM     11  C   UNL A   1      41.601  28.918  30.706  1.00  0.00     0.031 A 
ATOM     12  C   UNL A   1      42.320  28.730  32.008  1.00  0.00     0.074 A 
ATOM     13  C   UNL A   1      40.631  29.842  30.581  1.00  0.00     0.049 A 
ATOM     14  N   UNL A   1      42.159  29.363  33.138  1.00  0.00    -0.248 NA
ATOM     15  C   UNL A   1      43.369  27.696  32.039  1.00  0.00     0.031 C 
ATOM     16  C   UNL A   1      39.893  30.126  29.353  1.00  0.00     0.029 A 
ATOM     17  N   UNL A   1      40.081  30.696  31.503  1.00  0.00    -0.354 N 
ATOM     18  C   UNL A   1      43.107  28.829  34.000  1.00  0.00     0.074 A 
ATOM     19  C   UNL A   1      43.778  27.763  33.293  1.00  0.00     0.031 C 
ATOM     20  C   UNL A   1      38.939  31.036  29.611  1.00  0.00     0.029 A 
ATOM     21  C   UNL A   1      39.012  31.412  31.019  1.00  0.00     0.049 A 
ATOM     22  H   UNL A   1      40.420  30.787  32.423  1.00  0.00     0.167 HD
ATOM     23  C   UNL A   1      43.420  29.225  35.255  1.00  0.00     0.037 A 
ATOM     24  C   UNL A   1      38.179  32.265  31.648  1.00  0.00     0.037 A 
ATOM     25  C   UNL A   1      42.730  30.275  35.949  1.00  0.00     0.049 A 
ATOM     26  C   UNL A   1      38.469  32.619  33.081  1.00  0.00     0.074 A 
ATOM     27  C   UNL A   1      42.969  30.778  37.212  1.00  0.00     0.029 A 
ATOM     28  N   UNL A   1      41.643  30.972  35.435  1.00  0.00    -0.354 N 
ATOM     29  N   UNL A   1      39.421  32.163  33.862  1.00  0.00    -0.248 NA
ATOM     30  C   UNL A   1      37.602  33.622  33.711  1.00  0.00     0.031 C 
ATOM     31  C   UNL A   1      41.995  31.747  37.483  1.00  0.00     0.029 A 
ATOM     32  C   UNL A   1      41.180  31.881  36.369  1.00  0.00     0.049 A 
ATOM     33  H   UNL A   1      41.259  30.838  34.539  1.00  0.00     0.167 HD
ATOM     34  C   UNL A   1      39.297  32.856  35.060  1.00  0.00     0.074 A 
ATOM     35  C   UNL A   1      38.169  33.754  34.904  1.00  0.00     0.031 C 
ATOM     36  C   UNL A   1      40.058  32.770  36.180  1.00  0.00     0.037 A 
BRANCH  23  37
ATOM     37  C   UNL A   1      44.546  28.495  35.929  1.00  0.00     0.058 A 
ATOM     38  C   UNL A   1      45.882  28.893  35.758  1.00  0.00     0.135 A 
ATOM     39  C   UNL A   1      44.295  27.350  36.698  1.00  0.00     0.135 A 
ATOM     40  F   UNL A   1      46.179  29.969  35.011  1.00  0.00    -0.206 F 
ATOM     41  C   UNL A   1      46.935  28.150  36.281  1.00  0.00     0.059 A 
ATOM     42  C   UNL A   1      45.332  26.605  37.253  1.00  0.00     0.059 A 
ATOM     43  F   UNL A   1      43.036  26.922  36.885  1.00  0.00    -0.206 F 
ATOM     44  C   UNL A   1      46.648  26.999  37.017  1.00  0.00     0.060 A 
BRANCH  44  45
ATOM     45  S   UNL A   1      48.024  26.010  37.640  1.00  0.00     0.124 S 
ATOM     46  O   UNL A   1      48.705  25.649  36.401  1.00  0.00    -0.237 OA
ATOM     47  O   UNL A   1      48.729  26.958  38.496  1.00  0.00    -0.237 OA
ATOM     48  O   UNL A   1      47.363  24.912  38.337  1.00  0.00    -0.744 OA
ENDBRANCH  44  45
ENDBRANCH  23  37
BRANCH  24  49
ATOM     49  C   UNL A   1      37.015  32.839  30.920  1.00  0.00     0.058 A 
ATOM     50  C   UNL A   1      35.710  32.378  31.137  1.00  0.00     0.135 A 
ATOM     51  C   UNL A   1      37.193  33.889  30.002  1.00  0.00     0.135 A 
ATOM     52  F   UNL A   1      35.488  31.373  31.997  1.00  0.00    -0.206 F 
ATOM     53  C   UNL A   1      34.620  32.929  30.465  1.00  0.00     0.059 A 
ATOM     54  C   UNL A   1      36.117  34.470  29.336  1.00  0.00     0.059 A 
ATOM     55  F   UNL A   1      38.423  34.366  29.758  1.00  0.00    -0.206 F 
ATOM     56  C   UNL A   1      34.834  33.979  29.569  1.00  0.00     0.060 A 
BRANCH  56  57
ATOM     57  S   UNL A   1      33.405  34.710  28.737  1.00  0.00     0.124 S 
ATOM     58  O   UNL A   1      32.491  34.925  29.854  1.00  0.00    -0.237 OA
ATOM     59  O   UNL A   1      33.980  35.914  28.144  1.00  0.00    -0.237 OA
ATOM     60  O   UNL A   1      33.002  33.680  27.784  1.00  0.00    -0.744 OA
ENDBRANCH  56  57
ENDBRANCH  24  49
BRANCH  36  61
ATOM     61  C   UNL A   1      39.726  33.697  37.314  1.00  0.00     0.058 A 
ATOM     62  C   UNL A   1      38.850  33.319  38.341  1.00  0.00     0.135 A 
ATOM     63  C   UNL A   1      40.371  34.941  37.418  1.00  0.00     0.135 A 
ATOM     64  F   UNL A   1      38.204  32.145  38.282  1.00  0.00    -0.206 F 
ATOM     65  C   UNL A   1      38.617  34.148  39.432  1.00  0.00     0.059 A 
ATOM     66  C   UNL A   1      40.175  35.773  38.513  1.00  0.00     0.059 A 
ATOM     67  F   UNL A   1      41.227  35.341  36.464  1.00  0.00    -0.206 F 
ATOM     68  C   UNL A   1      39.291  35.370  39.514  1.00  0.00     0.060 A 
BRANCH  68  69
ATOM     69  S   UNL A   1      39.036  36.403  40.971  1.00  0.00     0.124 S 
ATOM     70  O   UNL A   1      40.360  36.377  41.585  1.00  0.00    -0.237 OA
ATOM     71  O   UNL A   1      38.635  37.678  40.385  1.00  0.00    -0.237 OA
ATOM     72  O   UNL A   1      37.988  35.701  41.707  1.00  0.00    -0.744 OA
ENDBRANCH  68  69
ENDBRANCH  36  61
ENDBRANCH  10  11
ENDBRANCH   3   5
ENDBRANCH   2   3
ENDBRANCH   1   2
BRANCH   1  73
ATOM     73  C   UNL A   1      45.769  23.472  26.636  1.00  0.00     0.275 C 
BRANCH  73  74
ATOM     74  O   UNL A   1      46.299  22.945  25.413  1.00  0.00    -0.458 OA
BRANCH  74  75
ATOM     75  C   UNL A   1      45.387  22.392  24.566  1.00  0.00     0.339 C 
ATOM     76  O   UNL A   1      44.971  22.893  23.533  1.00  0.00    -0.246 OA
BRANCH  75  77
ATOM     77  C   UNL A   1      45.012  21.039  25.036  1.00  0.00     0.074 A 
ATOM     78  C   UNL A   1      45.940  20.079  24.903  1.00  0.00     0.088 A 
ATOM     79  C   UNL A   1      43.693  20.718  25.616  1.00  0.00     0.013 A 
ATOM     80  C   UNL A   1      45.660  18.685  25.303  1.00  0.00     0.249 A 
ATOM     81  C   UNL A   1      43.391  19.369  25.858  1.00  0.00     0.049 A 
ATOM     82  C   UNL A   1      42.698  21.680  25.846  1.00  0.00     0.024 A 
ATOM     83  O   UNL A   1      46.549  17.845  25.260  1.00  0.00    -0.270 OA
ATOM     84  N   UNL A   1      44.382  18.397  25.685  1.00  0.00    -0.322 N 
ATOM     85  C   UNL A   1      42.116  18.977  26.267  1.00  0.00     0.027 A 
ATOM     86  C   UNL A   1      41.408  21.303  26.265  1.00  0.00     0.056 A 
ATOM     87  H   UNL A   1      44.146  17.456  25.847  1.00  0.00     0.170 HD
ATOM     88  C   UNL A   1      41.125  19.942  26.456  1.00  0.00     0.015 A 
BRANCH  86  89
ATOM     89  C   UNL A   1      40.323  22.343  26.426  1.00  0.00     0.416 C 
ATOM     90  F   UNL A   1      40.726  23.598  26.088  1.00  0.00    -0.166 F 
ATOM     91  F   UNL A   1      39.227  22.073  25.667  1.00  0.00    -0.166 F 
ATOM     92  F   UNL A   1      39.870  22.437  27.709  1.00  0.00    -0.166 F 
ENDBRANCH  86  89
ENDBRANCH  75  77
ENDBRANCH  74  75
ENDBRANCH  73  74
ENDBRANCH   1  73
TORSDOF 15
ENDMDL
MODEL 2
REMARK VINA RESULT:     -11.7      5.906     14.396
REMARK SMILES O=C(OCCOC(=O)c1cc(=O)[nH]c2ccc(C(F)(F)F)cc12)c1ccc(-c2c3nc(c(-c4c(F)cc(S(=O)(=O)[O-])cc4F)c4ccc([nH]4)c(-c4c(F)cc(S(=O)(=O)[O-])cc4F)c4nc(c(-c5c(F)cc(S(=O)(=O)[O-])cc5F)c5ccc2[nH]5)C=C4)C=C3)cc1
REMARK SMILES IDX 4 1 3 2 2 3 1 4 24 5 25 6 89 7 26 8 88 9 27 10 28 11 29 12
REMARK SMILES IDX 82 13 30 14 87 15 81 16 83 17 31 18 86 19 80 20 79 21 32 23
REMARK SMILES IDX 66 24 45 25 65 26 46 27 49 28 64 29 84 30 47 31 48 32 63 34
REMARK SMILES IDX 85 35 50 36 33 37 34 38 43 39 35 40 36 41 42 42 44 43 37 44
REMARK SMILES IDX 38 45 39 46 40 47 41 48 67 49 68 50 77 51 69 52 70 53 76 54
REMARK SMILES IDX 78 55 71 56 72 57 73 58 74 59 75 60 51 61 52 62 61 63 53 64
REMARK SMILES IDX 54 65 60 66 62 67 55 68 56 69 57 70 58 71 59 72 5 73 6 74
REMARK SMILES IDX 7 75 8 76 9 77 10 78 23 79 11 80 14 81 22 82 12 83 13 84
REMARK SMILES IDX 15 85 17 86 16 88 18 89 19 90 20 91 21 92
REMARK H PARENT 83 22 49 33 13 87
REMARK Flexibility Score: inf
ROOT
ATOM      1  C   UNL A   1      37.725  32.872  32.595  1.00  0.00     0.275 C 
ENDROOT
BRANCH   1   2
ATOM      2  O   UNL A   1      37.093  31.588  32.718  1.00  0.00    -0.458 OA
BRANCH   2   3
ATOM      3  C   UNL A   1      37.233  30.484  31.945  1.00  0.00     0.338 C 
ATOM      4  O   UNL A   1      36.367  29.612  31.999  1.00  0.00    -0.246 OA
BRANCH   3   5
ATOM      5  C   UNL A   1      38.476  30.182  31.172  1.00  0.00     0.060 A 
ATOM      6  C   UNL A   1      38.617  30.228  29.784  1.00  0.00     0.016 A 
ATOM      7  C   UNL A   1      39.595  29.799  31.932  1.00  0.00     0.016 A 
ATOM      8  C   UNL A   1      39.855  29.990  29.179  1.00  0.00     0.010 A 
ATOM      9  C   UNL A   1      40.840  29.588  31.338  1.00  0.00     0.010 A 
ATOM     10  C   UNL A   1      40.973  29.672  29.950  1.00  0.00    -0.014 A 
BRANCH  10  11
ATOM     11  C   UNL A   1      42.225  29.242  29.291  1.00  0.00     0.031 A 
ATOM     12  C   UNL A   1      43.279  30.276  29.031  1.00  0.00     0.074 A 
ATOM     13  C   UNL A   1      42.425  27.955  28.954  1.00  0.00     0.049 A 
ATOM     14  N   UNL A   1      44.459  30.134  28.492  1.00  0.00    -0.248 NA
ATOM     15  C   UNL A   1      42.964  31.656  29.442  1.00  0.00     0.031 C 
ATOM     16  C   UNL A   1      41.479  26.867  29.192  1.00  0.00     0.029 A 
ATOM     17  N   UNL A   1      43.476  27.347  28.318  1.00  0.00    -0.354 N 
ATOM     18  C   UNL A   1      45.038  31.395  28.532  1.00  0.00     0.074 A 
ATOM     19  C   UNL A   1      44.051  32.305  29.064  1.00  0.00     0.031 C 
ATOM     20  C   UNL A   1      41.960  25.737  28.647  1.00  0.00     0.029 A 
ATOM     21  C   UNL A   1      43.255  26.019  28.037  1.00  0.00     0.049 A 
ATOM     22  H   UNL A   1      44.309  27.816  28.084  1.00  0.00     0.167 HD
ATOM     23  C   UNL A   1      46.299  31.752  28.195  1.00  0.00     0.037 A 
ATOM     24  C   UNL A   1      44.010  25.136  27.354  1.00  0.00     0.037 A 
ATOM     25  C   UNL A   1      47.262  30.837  27.650  1.00  0.00     0.049 A 
ATOM     26  C   UNL A   1      45.371  25.573  26.885  1.00  0.00     0.074 A 
ATOM     27  C   UNL A   1      48.573  31.076  27.291  1.00  0.00     0.029 A 
ATOM     28  N   UNL A   1      47.001  29.502  27.367  1.00  0.00    -0.354 N 
ATOM     29  N   UNL A   1      45.939  26.751  27.001  1.00  0.00    -0.248 NA
ATOM     30  C   UNL A   1      46.209  24.562  26.227  1.00  0.00     0.031 C 
ATOM     31  C   UNL A   1      49.093  29.897  26.744  1.00  0.00     0.029 A 
ATOM     32  C   UNL A   1      48.120  28.911  26.807  1.00  0.00     0.049 A 
ATOM     33  H   UNL A   1      46.148  29.044  27.538  1.00  0.00     0.167 HD
ATOM     34  C   UNL A   1      47.217  26.613  26.472  1.00  0.00     0.074 A 
ATOM     35  C   UNL A   1      47.333  25.238  26.025  1.00  0.00     0.031 C 
ATOM     36  C   UNL A   1      48.208  27.534  26.381  1.00  0.00     0.037 A 
BRANCH  23  37
ATOM     37  C   UNL A   1      46.669  33.191  28.406  1.00  0.00     0.058 A 
ATOM     38  C   UNL A   1      46.522  34.143  27.383  1.00  0.00     0.135 A 
ATOM     39  C   UNL A   1      47.237  33.612  29.617  1.00  0.00     0.135 A 
ATOM     40  F   UNL A   1      46.007  33.787  26.195  1.00  0.00    -0.206 F 
ATOM     41  C   UNL A   1      46.975  35.449  27.534  1.00  0.00     0.059 A 
ATOM     42  C   UNL A   1      47.673  34.922  29.800  1.00  0.00     0.059 A 
ATOM     43  F   UNL A   1      47.407  32.741  30.625  1.00  0.00    -0.206 F 
ATOM     44  C   UNL A   1      47.561  35.824  28.744  1.00  0.00     0.060 A 
BRANCH  44  45
ATOM     45  S   UNL A   1      48.199  37.505  28.907  1.00  0.00     0.124 S 
ATOM     46  O   UNL A   1      49.411  37.280  29.689  1.00  0.00    -0.237 OA
ATOM     47  O   UNL A   1      48.407  37.898  27.517  1.00  0.00    -0.237 OA
ATOM     48  O   UNL A   1      47.125  38.209  29.601  1.00  0.00    -0.744 OA
ENDBRANCH  44  45
ENDBRANCH  23  37
BRANCH  24  49
ATOM     49  C   UNL A   1      43.494  23.765  27.091  1.00  0.00     0.058 A 
ATOM     50  C   UNL A   1      43.446  22.790  28.096  1.00  0.00     0.135 A 
ATOM     51  C   UNL A   1      43.011  23.415  25.818  1.00  0.00     0.135 A 
ATOM     52  F   UNL A   1      43.902  23.072  29.326  1.00  0.00    -0.206 F 
ATOM     53  C   UNL A   1      42.947  21.513  27.851  1.00  0.00     0.059 A 
ATOM     54  C   UNL A   1      42.487  22.152  25.555  1.00  0.00     0.059 A 
ATOM     55  F   UNL A   1      43.036  24.312  24.821  1.00  0.00    -0.206 F 
ATOM     56  C   UNL A   1      42.464  21.204  26.577  1.00  0.00     0.060 A 
BRANCH  56  57
ATOM     57  S   UNL A   1      41.783  19.556  26.286  1.00  0.00     0.124 S 
ATOM     58  O   UNL A   1      40.353  19.838  26.203  1.00  0.00    -0.237 OA
ATOM     59  O   UNL A   1      42.428  19.174  25.033  1.00  0.00    -0.237 OA
ATOM     60  O   UNL A   1      42.207  18.799  27.459  1.00  0.00    -0.744 OA
ENDBRANCH  56  57
ENDBRANCH  24  49
BRANCH  36  61
ATOM     61  C   UNL A   1      49.523  27.081  25.814  1.00  0.00     0.058 A 
ATOM     62  C   UNL A   1      49.838  27.253  24.458  1.00  0.00     0.135 A 
ATOM     63  C   UNL A   1      50.512  26.555  26.662  1.00  0.00     0.135 A 
ATOM     64  F   UNL A   1      48.924  27.744  23.608  1.00  0.00    -0.206 F 
ATOM     65  C   UNL A   1      51.090  26.912  23.960  1.00  0.00     0.059 A 
ATOM     66  C   UNL A   1      51.779  26.234  26.191  1.00  0.00     0.059 A 
ATOM     67  F   UNL A   1      50.259  26.382  27.969  1.00  0.00    -0.206 F 
ATOM     68  C   UNL A   1      52.057  26.411  24.836  1.00  0.00     0.060 A 
BRANCH  68  69
ATOM     69  S   UNL A   1      53.701  26.042  24.191  1.00  0.00     0.124 S 
ATOM     70  O   UNL A   1      53.442  25.955  22.757  1.00  0.00    -0.237 OA
ATOM     71  O   UNL A   1      54.476  27.199  24.626  1.00  0.00    -0.237 OA
ATOM     72  O   UNL A   1      54.047  24.782  24.844  1.00  0.00    -0.744 OA
ENDBRANCH  68  69
ENDBRANCH  36  61
ENDBRANCH  10  11
ENDBRANCH   3   5
ENDBRANCH   2   3
ENDBRANCH   1   2
BRANCH   1  73
ATOM     73  C   UNL A   1      37.462  33.825  33.761  1.00  0.00     0.275 C 
BRANCH  73  74
ATOM     74  O   UNL A   1      36.509  34.853  33.462  1.00  0.00    -0.458 OA
BRANCH  74  75
ATOM     75  C   UNL A   1      35.223  34.436  33.305  1.00  0.00     0.339 C 
ATOM     76  O   UNL A   1      34.687  33.517  33.906  1.00  0.00    -0.246 OA
BRANCH  75  77
ATOM     77  C   UNL A   1      34.519  35.309  32.339  1.00  0.00     0.074 A 
ATOM     78  C   UNL A   1      34.118  36.506  32.794  1.00  0.00     0.088 A 
ATOM     79  C   UNL A   1      34.242  34.918  30.943  1.00  0.00     0.013 A 
ATOM     80  C   UNL A   1      33.373  37.443  31.929  1.00  0.00     0.249 A 
ATOM     81  C   UNL A   1      33.413  35.754  30.177  1.00  0.00     0.049 A 
ATOM     82  C   UNL A   1      34.686  33.713  30.378  1.00  0.00     0.024 A 
ATOM     83  O   UNL A   1      33.099  38.565  32.333  1.00  0.00    -0.270 OA
ATOM     84  N   UNL A   1      33.000  36.984  30.699  1.00  0.00    -0.322 N 
ATOM     85  C   UNL A   1      32.990  35.377  28.902  1.00  0.00     0.027 A 
ATOM     86  C   UNL A   1      34.273  33.321  29.091  1.00  0.00     0.056 A 
ATOM     87  H   UNL A   1      32.408  37.548  30.152  1.00  0.00     0.170 HD
ATOM     88  C   UNL A   1      33.409  34.158  28.368  1.00  0.00     0.015 A 
BRANCH  86  89
ATOM     89  C   UNL A   1      34.691  31.980  28.530  1.00  0.00     0.416 C 
ATOM     90  F   UNL A   1      33.638  31.178  28.215  1.00  0.00    -0.166 F 
ATOM     91  F   UNL A   1      35.437  32.100  27.400  1.00  0.00    -0.166 F 
ATOM     92  F   UNL A   1      35.452  31.258  29.402  1.00  0.00    -0.166 F 
ENDBRANCH  86  89
ENDBRANCH  75  77
ENDBRANCH  74  75
ENDBRANCH  73  74
ENDBRANCH   1  73
TORSDOF 15
ENDMDL
MODEL 3
REMARK VINA RESULT:     -11.5      5.901     14.258
REMARK SMILES O=C(OCCOC(=O)c1cc(=O)[nH]c2ccc(C(F)(F)F)cc12)c1ccc(-c2c3nc(c(-c4c(F)cc(S(=O)(=O)[O-])cc4F)c4ccc([nH]4)c(-c4c(F)cc(S(=O)(=O)[O-])cc4F)c4nc(c(-c5c(F)cc(S(=O)(=O)[O-])cc5F)c5ccc2[nH]5)C=C4)C=C3)cc1
REMARK SMILES IDX 4 1 3 2 2 3 1 4 24 5 25 6 89 7 26 8 88 9 27 10 28 11 29 12
REMARK SMILES IDX 82 13 30 14 87 15 81 16 83 17 31 18 86 19 80 20 79 21 32 23
REMARK SMILES IDX 66 24 45 25 65 26 46 27 49 28 64 29 84 30 47 31 48 32 63 34
REMARK SMILES IDX 85 35 50 36 33 37 34 38 43 39 35 40 36 41 42 42 44 43 37 44
REMARK SMILES IDX 38 45 39 46 40 47 41 48 67 49 68 50 77 51 69 52 70 53 76 54
REMARK SMILES IDX 78 55 71 56 72 57 73 58 74 59 75 60 51 61 52 62 61 63 53 64
REMARK SMILES IDX 54 65 60 66 62 67 55 68 56 69 57 70 58 71 59 72 5 73 6 74
REMARK SMILES IDX 7 75 8 76 9 77 10 78 23 79 11 80 14 81 22 82 12 83 13 84
REMARK SMILES IDX 15 85 17 86 16 88 18 89 19 90 20 91 21 92
REMARK H PARENT 83 22 49 33 13 87
REMARK Flexibility Score: inf
ROOT
ATOM      1  C   UNL A   1      37.492  32.648  32.220  1.00  0.00     0.275 C 
ENDROOT
BRANCH   1   2
ATOM      2  O   UNL A   1      36.751  31.421  32.120  1.00  0.00    -0.458 OA
BRANCH   2   3
ATOM      3  C   UNL A   1      37.055  30.289  31.442  1.00  0.00     0.338 C 
ATOM      4  O   UNL A   1      36.278  29.337  31.506  1.00  0.00    -0.246 OA
BRANCH   3   5
ATOM      5  C   UNL A   1      38.374  30.066  30.775  1.00  0.00     0.060 A 
ATOM      6  C   UNL A   1      38.635  30.166  29.407  1.00  0.00     0.016 A 
ATOM      7  C   UNL A   1      39.438  29.703  31.621  1.00  0.00     0.016 A 
ATOM      8  C   UNL A   1      39.931  30.001  28.909  1.00  0.00     0.010 A 
ATOM      9  C   UNL A   1      40.738  29.565  31.135  1.00  0.00     0.010 A 
ATOM     10  C   UNL A   1      40.990  29.703  29.768  1.00  0.00    -0.014 A 
BRANCH  10  11
ATOM     11  C   UNL A   1      42.313  29.349  29.211  1.00  0.00     0.031 A 
ATOM     12  C   UNL A   1      42.535  27.935  28.761  1.00  0.00     0.074 A 
ATOM     13  C   UNL A   1      43.284  30.271  29.089  1.00  0.00     0.049 A 
ATOM     14  N   UNL A   1      43.595  27.399  28.222  1.00  0.00    -0.248 NA
ATOM     15  C   UNL A   1      41.407  27.004  28.933  1.00  0.00     0.031 C 
ATOM     16  C   UNL A   1      43.161  31.677  29.466  1.00  0.00     0.029 A 
ATOM     17  N   UNL A   1      44.575  30.161  28.638  1.00  0.00    -0.354 N 
ATOM     18  C   UNL A   1      43.249  26.080  27.959  1.00  0.00     0.074 A 
ATOM     19  C   UNL A   1      41.917  25.874  28.477  1.00  0.00     0.031 C 
ATOM     20  C   UNL A   1      44.347  32.285  29.297  1.00  0.00     0.029 A 
ATOM     21  C   UNL A   1      45.308  31.315  28.784  1.00  0.00     0.049 A 
ATOM     22  H   UNL A   1      44.941  29.335  28.248  1.00  0.00     0.167 HD
ATOM     23  C   UNL A   1      43.965  25.138  27.304  1.00  0.00     0.037 A 
ATOM     24  C   UNL A   1      46.612  31.555  28.541  1.00  0.00     0.037 A 
ATOM     25  C   UNL A   1      45.296  25.355  26.811  1.00  0.00     0.049 A 
ATOM     26  C   UNL A   1      47.433  30.464  27.910  1.00  0.00     0.074 A 
ATOM     27  C   UNL A   1      46.112  24.485  26.115  1.00  0.00     0.029 A 
ATOM     28  N   UNL A   1      46.015  26.531  26.987  1.00  0.00    -0.354 N 
ATOM     29  N   UNL A   1      47.069  29.242  27.594  1.00  0.00    -0.248 NA
ATOM     30  C   UNL A   1      48.825  30.784  27.570  1.00  0.00     0.031 C 
ATOM     31  C   UNL A   1      47.343  25.119  25.912  1.00  0.00     0.029 A 
ATOM     32  C   UNL A   1      47.278  26.400  26.438  1.00  0.00     0.049 A 
ATOM     33  H   UNL A   1      45.675  27.338  27.436  1.00  0.00     0.167 HD
ATOM     34  C   UNL A   1      48.170  28.662  26.977  1.00  0.00     0.074 A 
ATOM     35  C   UNL A   1      49.219  29.665  26.975  1.00  0.00     0.031 C 
ATOM     36  C   UNL A   1      48.298  27.421  26.444  1.00  0.00     0.037 A 
BRANCH  23  37
ATOM     37  C   UNL A   1      43.303  23.804  27.111  1.00  0.00     0.058 A 
ATOM     38  C   UNL A   1      43.311  22.829  28.122  1.00  0.00     0.135 A 
ATOM     39  C   UNL A   1      42.712  23.471  25.883  1.00  0.00     0.135 A 
ATOM     40  F   UNL A   1      43.886  23.087  29.308  1.00  0.00    -0.206 F 
ATOM     41  C   UNL A   1      42.806  21.552  27.905  1.00  0.00     0.059 A 
ATOM     42  C   UNL A   1      42.176  22.208  25.653  1.00  0.00     0.059 A 
ATOM     43  F   UNL A   1      42.684  24.364  24.881  1.00  0.00    -0.206 F 
ATOM     44  C   UNL A   1      42.251  21.248  26.660  1.00  0.00     0.060 A 
BRANCH  44  45
ATOM     45  S   UNL A   1      41.652  19.570  26.371  1.00  0.00     0.124 S 
ATOM     46  O   UNL A   1      42.450  19.173  25.214  1.00  0.00    -0.237 OA
ATOM     47  O   UNL A   1      41.981  18.899  27.625  1.00  0.00    -0.237 OA
ATOM     48  O   UNL A   1      40.228  19.758  26.118  1.00  0.00    -0.744 OA
ENDBRANCH  44  45
ENDBRANCH  23  37
BRANCH  24  49
ATOM     49  C   UNL A   1      47.201  32.877  28.887  1.00  0.00     0.058 A 
ATOM     50  C   UNL A   1      47.222  33.937  27.970  1.00  0.00     0.135 A 
ATOM     51  C   UNL A   1      47.735  33.110  30.166  1.00  0.00     0.135 A 
ATOM     52  F   UNL A   1      46.732  33.764  26.733  1.00  0.00    -0.206 F 
ATOM     53  C   UNL A   1      47.759  35.179  28.302  1.00  0.00     0.059 A 
ATOM     54  C   UNL A   1      48.256  34.349  30.528  1.00  0.00     0.059 A 
ATOM     55  F   UNL A   1      47.739  32.128  31.080  1.00  0.00    -0.206 F 
ATOM     56  C   UNL A   1      48.270  35.377  29.587  1.00  0.00     0.060 A 
BRANCH  56  57
ATOM     57  S   UNL A   1      48.926  37.006  30.015  1.00  0.00     0.124 S 
ATOM     58  O   UNL A   1      50.112  36.653  30.790  1.00  0.00    -0.237 OA
ATOM     59  O   UNL A   1      49.176  37.590  28.701  1.00  0.00    -0.237 OA
ATOM     60  O   UNL A   1      47.841  37.622  30.772  1.00  0.00    -0.744 OA
ENDBRANCH  56  57
ENDBRANCH  24  49
BRANCH  36  61
ATOM     61  C   UNL A   1      49.601  27.085  25.777  1.00  0.00     0.058 A 
ATOM     62  C   UNL A   1      49.795  27.280  24.402  1.00  0.00     0.135 A 
ATOM     63  C   UNL A   1      50.693  26.652  26.545  1.00  0.00     0.135 A 
ATOM     64  F   UNL A   1      48.779  27.685  23.625  1.00  0.00    -0.206 F 
ATOM     65  C   UNL A   1      51.032  27.051  23.809  1.00  0.00     0.059 A 
ATOM     66  C   UNL A   1      51.944  26.442  25.979  1.00  0.00     0.059 A 
ATOM     67  F   UNL A   1      50.557  26.461  27.867  1.00  0.00    -0.206 F 
ATOM     68  C   UNL A   1      52.102  26.640  24.607  1.00  0.00     0.060 A 
BRANCH  68  69
ATOM     69  S   UNL A   1      53.719  26.415  23.838  1.00  0.00     0.124 S 
ATOM     70  O   UNL A   1      54.233  25.260  24.566  1.00  0.00    -0.237 OA
ATOM     71  O   UNL A   1      53.371  26.181  22.440  1.00  0.00    -0.237 OA
ATOM     72  O   UNL A   1      54.400  27.679  24.104  1.00  0.00    -0.744 OA
ENDBRANCH  68  69
ENDBRANCH  36  61
ENDBRANCH  10  11
ENDBRANCH   3   5
ENDBRANCH   2   3
ENDBRANCH   1   2
BRANCH   1  73
ATOM     73  C   UNL A   1      37.285  33.410  33.530  1.00  0.00     0.275 C 
BRANCH  73  74
ATOM     74  O   UNL A   1      36.434  34.556  33.403  1.00  0.00    -0.458 OA
BRANCH  74  75
ATOM     75  C   UNL A   1      35.105  34.290  33.272  1.00  0.00     0.339 C 
ATOM     76  O   UNL A   1      34.482  33.428  33.874  1.00  0.00    -0.246 OA
BRANCH  75  77
ATOM     77  C   UNL A   1      34.484  35.254  32.336  1.00  0.00     0.074 A 
ATOM     78  C   UNL A   1      34.164  36.457  32.837  1.00  0.00     0.088 A 
ATOM     79  C   UNL A   1      34.202  34.944  30.921  1.00  0.00     0.013 A 
ATOM     80  C   UNL A   1      33.505  37.482  32.004  1.00  0.00     0.249 A 
ATOM     81  C   UNL A   1      33.449  35.870  30.181  1.00  0.00     0.049 A 
ATOM     82  C   UNL A   1      34.565  33.735  30.310  1.00  0.00     0.024 A 
ATOM     83  O   UNL A   1      33.307  38.603  32.453  1.00  0.00    -0.270 OA
ATOM     84  N   UNL A   1      33.119  37.105  30.751  1.00  0.00    -0.322 N 
ATOM     85  C   UNL A   1      33.021  35.581  28.885  1.00  0.00     0.027 A 
ATOM     86  C   UNL A   1      34.146  33.429  29.001  1.00  0.00     0.056 A 
ATOM     87  H   UNL A   1      32.580  37.734  30.221  1.00  0.00     0.170 HD
ATOM     88  C   UNL A   1      33.358  34.357  28.304  1.00  0.00     0.015 A 
BRANCH  86  89
ATOM     89  C   UNL A   1      34.473  32.086  28.388  1.00  0.00     0.416 C 
ATOM     90  F   UNL A   1      33.380  31.435  27.907  1.00  0.00    -0.166 F 
ATOM     91  F   UNL A   1      35.349  32.187  27.353  1.00  0.00    -0.166 F 
ATOM     92  F   UNL A   1      35.049  31.227  29.278  1.00  0.00    -0.166 F 
ENDBRANCH  86  89
ENDBRANCH  75  77
ENDBRANCH  74  75
ENDBRANCH  73  74
ENDBRANCH   1  73
TORSDOF 15
ENDMDL
