MODEL 1
REMARK VINA RESULT:     -11.5      0.000      0.000
REMARK SMILES O=C1C[N@@H+](Cc2ccc(C(=O)OCCOC(=O)c3ccc(-c4c5nc(c(-c6c(F)cc(S(=O)(=O)[O-])cc6F)c6ccc([nH]6)c(-c6c(F)cc(S(=O)(=O)[O-])cc6F)c6nc(c(-c7c(F)cc(S(=O)(=O)[O-])cc7F)c7ccc4[nH]7)C=C6)C=C5)cc3)cc2)CCN1
REMARK SMILES IDX 14 1 13 2 12 3 10 4 11 5 9 6 6 7 7 8 85 9 8 10 84 11 5 12
REMARK SMILES IDX 4 13 1 14 2 15 3 16 88 17 87 18 86 20 15 22 16 23 17 24
REMARK SMILES IDX 18 25 19 26 83 27 20 28 82 29 21 30 22 31 23 32 76 33 24 34
REMARK SMILES IDX 81 35 75 36 77 37 25 38 80 39 74 40 73 41 26 43 60 44 39 45
REMARK SMILES IDX 59 46 40 47 43 48 58 49 78 50 41 51 42 52 57 54 79 55 44 56
REMARK SMILES IDX 27 57 28 58 37 59 29 60 30 61 36 62 38 63 31 64 32 65 33 66
REMARK SMILES IDX 34 67 35 68 61 69 62 70 71 71 63 72 64 73 70 74 72 75 65 76
REMARK SMILES IDX 66 77 67 78 68 79 69 80 45 81 46 82 55 83 47 84 48 85 54 86
REMARK SMILES IDX 56 87 49 88 50 89 51 90 52 91 53 92
REMARK H PARENT 88 19 4 21 77 42 43 53
REMARK Flexibility Score: inf
ROOT
ATOM      1  C   UNL A   1      40.695  22.253  26.765  1.00  0.00     0.275 C 
ENDROOT
BRANCH   1   2
ATOM      2  C   UNL A   1      39.770  21.153  26.245  1.00  0.00     0.275 C 
BRANCH   2   3
ATOM      3  O   UNL A   1      38.592  21.718  25.642  1.00  0.00    -0.458 OA
BRANCH   3   4
ATOM      4  C   UNL A   1      37.809  20.823  24.988  1.00  0.00     0.338 C 
ATOM      5  O   UNL A   1      38.112  19.679  24.710  1.00  0.00    -0.246 OA
BRANCH   4   6
ATOM      6  C   UNL A   1      36.471  21.392  24.678  1.00  0.00     0.060 A 
ATOM      7  C   UNL A   1      34.029  22.706  24.300  1.00  0.00     0.006 A 
ATOM      8  C   UNL A   1      35.222  23.326  23.923  1.00  0.00     0.010 A 
ATOM      9  C   UNL A   1      34.056  21.366  24.717  1.00  0.00     0.010 A 
ATOM     10  C   UNL A   1      36.435  22.692  24.157  1.00  0.00     0.016 A 
ATOM     11  C   UNL A   1      35.275  20.706  24.904  1.00  0.00     0.016 A 
BRANCH   7  12
ATOM     12  C   UNL A   1      32.764  23.524  24.387  1.00  0.00     0.299 C 
BRANCH  12  13
ATOM     13  N   UNL A   1      32.620  24.345  25.599  1.00  0.00    -0.322 N 
ATOM     14  O   UNL A   1      29.780  22.981  27.466  1.00  0.00    -0.269 OA
ATOM     15  C   UNL A   1      30.469  23.787  26.843  1.00  0.00     0.275 C 
ATOM     16  C   UNL A   1      31.995  23.663  26.753  1.00  0.00     0.363 C 
ATOM     17  N   UNL A   1      29.874  24.893  26.301  1.00  0.00    -0.346 N 
ATOM     18  C   UNL A   1      30.543  25.809  25.412  1.00  0.00     0.177 C 
ATOM     19  H   UNL A   1      28.934  25.073  26.532  1.00  0.00     0.163 HD
ATOM     20  C   UNL A   1      32.076  25.692  25.414  1.00  0.00     0.284 C 
ATOM     21  H   UNL A   1      33.601  24.485  25.840  1.00  0.00     0.348 HD
ENDBRANCH  12  13
ENDBRANCH   7  12
ENDBRANCH   4   6
ENDBRANCH   3   4
ENDBRANCH   2   3
ENDBRANCH   1   2
BRANCH   1  22
ATOM     22  O   UNL A   1      40.054  23.543  26.703  1.00  0.00    -0.458 OA
BRANCH  22  23
ATOM     23  C   UNL A   1      40.896  24.595  26.570  1.00  0.00     0.338 C 
ATOM     24  O   UNL A   1      41.827  24.700  25.789  1.00  0.00    -0.246 OA
BRANCH  23  25
ATOM     25  C   UNL A   1      40.498  25.695  27.465  1.00  0.00     0.060 A 
ATOM     26  C   UNL A   1      41.232  26.874  27.414  1.00  0.00     0.016 A 
ATOM     27  C   UNL A   1      39.567  25.502  28.482  1.00  0.00     0.016 A 
ATOM     28  C   UNL A   1      41.129  27.816  28.431  1.00  0.00     0.010 A 
ATOM     29  C   UNL A   1      39.388  26.501  29.452  1.00  0.00     0.010 A 
ATOM     30  C   UNL A   1      40.202  27.651  29.470  1.00  0.00    -0.014 A 
BRANCH  30  31
ATOM     31  C   UNL A   1      40.151  28.650  30.582  1.00  0.00     0.031 A 
ATOM     32  C   UNL A   1      41.136  28.577  31.726  1.00  0.00     0.074 A 
ATOM     33  C   UNL A   1      39.261  29.665  30.547  1.00  0.00     0.049 A 
ATOM     34  N   UNL A   1      41.188  29.294  32.823  1.00  0.00    -0.248 NA
ATOM     35  C   UNL A   1      42.194  27.558  31.635  1.00  0.00     0.031 C 
ATOM     36  C   UNL A   1      38.269  29.885  29.491  1.00  0.00     0.029 A 
ATOM     37  N   UNL A   1      39.058  30.717  31.408  1.00  0.00    -0.354 N 
ATOM     38  C   UNL A   1      42.240  28.776  33.573  1.00  0.00     0.074 A 
ATOM     39  C   UNL A   1      42.793  27.676  32.812  1.00  0.00     0.031 C 
ATOM     40  C   UNL A   1      37.608  31.026  29.735  1.00  0.00     0.029 A 
ATOM     41  C   UNL A   1      38.058  31.574  31.010  1.00  0.00     0.049 A 
ATOM     42  H   UNL A   1      39.579  30.844  32.234  1.00  0.00     0.167 HD
ATOM     43  C   UNL A   1      42.707  29.181  34.780  1.00  0.00     0.037 A 
ATOM     44  C   UNL A   1      37.532  32.661  31.610  1.00  0.00     0.037 A 
ATOM     45  C   UNL A   1      42.196  30.317  35.508  1.00  0.00     0.049 A 
ATOM     46  C   UNL A   1      38.063  33.088  32.950  1.00  0.00     0.074 A 
ATOM     47  C   UNL A   1      42.616  30.816  36.729  1.00  0.00     0.029 A 
ATOM     48  N   UNL A   1      41.166  31.141  35.077  1.00  0.00    -0.354 N 
ATOM     49  N   UNL A   1      39.024  32.553  33.664  1.00  0.00    -0.248 NA
ATOM     50  C   UNL A   1      37.427  34.256  33.573  1.00  0.00     0.031 C 
ATOM     51  C   UNL A   1      41.815  31.917  37.055  1.00  0.00     0.029 A 
ATOM     52  C   UNL A   1      40.931  32.138  36.012  1.00  0.00     0.049 A 
ATOM     53  H   UNL A   1      40.674  31.034  34.231  1.00  0.00     0.167 HD
ATOM     54  C   UNL A   1      39.120  33.331  34.813  1.00  0.00     0.074 A 
ATOM     55  C   UNL A   1      38.134  34.384  34.687  1.00  0.00     0.031 C 
ATOM     56  C   UNL A   1      39.948  33.183  35.876  1.00  0.00     0.037 A 
BRANCH  43  57
ATOM     57  C   UNL A   1      43.812  28.376  35.413  1.00  0.00     0.058 A 
ATOM     58  C   UNL A   1      43.555  27.290  36.265  1.00  0.00     0.135 A 
ATOM     59  C   UNL A   1      45.156  28.674  35.128  1.00  0.00     0.135 A 
ATOM     60  F   UNL A   1      42.292  26.966  36.586  1.00  0.00    -0.206 F 
ATOM     61  C   UNL A   1      44.588  26.551  36.836  1.00  0.00     0.059 A 
ATOM     62  C   UNL A   1      46.204  27.930  35.663  1.00  0.00     0.059 A 
ATOM     63  F   UNL A   1      45.463  29.698  34.316  1.00  0.00    -0.206 F 
ATOM     64  C   UNL A   1      45.909  26.879  36.529  1.00  0.00     0.060 A 
BRANCH  64  65
ATOM     65  S   UNL A   1      47.238  25.910  37.276  1.00  0.00     0.124 S 
ATOM     66  O   UNL A   1      46.550  24.659  37.582  1.00  0.00    -0.237 OA
ATOM     67  O   UNL A   1      48.221  25.844  36.199  1.00  0.00    -0.237 OA
ATOM     68  O   UNL A   1      47.633  26.707  38.433  1.00  0.00    -0.744 OA
ENDBRANCH  64  65
ENDBRANCH  43  57
BRANCH  44  69
ATOM     69  C   UNL A   1      36.417  33.401  30.958  1.00  0.00     0.058 A 
ATOM     70  C   UNL A   1      36.637  34.207  29.831  1.00  0.00     0.135 A 
ATOM     71  C   UNL A   1      35.102  33.306  31.444  1.00  0.00     0.135 A 
ATOM     72  F   UNL A   1      37.877  34.342  29.336  1.00  0.00    -0.206 F 
ATOM     73  C   UNL A   1      35.599  34.898  29.214  1.00  0.00     0.059 A 
ATOM     74  C   UNL A   1      34.043  33.961  30.825  1.00  0.00     0.059 A 
ATOM     75  F   UNL A   1      34.834  32.542  32.514  1.00  0.00    -0.206 F 
ATOM     76  C   UNL A   1      34.303  34.764  29.717  1.00  0.00     0.060 A 
BRANCH  76  77
ATOM     77  S   UNL A   1      32.952  35.624  28.881  1.00  0.00     0.124 S 
ATOM     78  O   UNL A   1      32.358  34.546  28.100  1.00  0.00    -0.237 OA
ATOM     79  O   UNL A   1      32.156  36.114  30.001  1.00  0.00    -0.237 OA
ATOM     80  O   UNL A   1      33.639  36.657  28.111  1.00  0.00    -0.744 OA
ENDBRANCH  76  77
ENDBRANCH  44  69
BRANCH  56  81
ATOM     81  C   UNL A   1      39.849  34.212  36.970  1.00  0.00     0.058 A 
ATOM     82  C   UNL A   1      39.072  33.999  38.120  1.00  0.00     0.135 A 
ATOM     83  C   UNL A   1      40.551  35.424  36.870  1.00  0.00     0.135 A 
ATOM     84  F   UNL A   1      38.376  32.860  38.265  1.00  0.00    -0.206 F 
ATOM     85  C   UNL A   1      38.961  34.969  39.111  1.00  0.00     0.059 A 
ATOM     86  C   UNL A   1      40.478  36.395  37.862  1.00  0.00     0.059 A 
ATOM     87  F   UNL A   1      41.320  35.673  35.797  1.00  0.00    -0.206 F 
ATOM     88  C   UNL A   1      39.664  36.167  38.970  1.00  0.00     0.060 A 
BRANCH  88  89
ATOM     89  S   UNL A   1      39.512  37.420  40.261  1.00  0.00     0.124 S 
ATOM     90  O   UNL A   1      38.619  38.386  39.628  1.00  0.00    -0.237 OA
ATOM     91  O   UNL A   1      38.942  36.662  41.370  1.00  0.00    -0.237 OA
ATOM     92  O   UNL A   1      40.886  37.872  40.460  1.00  0.00    -0.744 OA
ENDBRANCH  88  89
ENDBRANCH  56  81
ENDBRANCH  30  31
ENDBRANCH  23  25
ENDBRANCH  22  23
ENDBRANCH   1  22
TORSDOF 16
ENDMDL
MODEL 2
REMARK VINA RESULT:     -11.4      3.732      5.967
REMARK SMILES O=C1C[N@@H+](Cc2ccc(C(=O)OCCOC(=O)c3ccc(-c4c5nc(c(-c6c(F)cc(S(=O)(=O)[O-])cc6F)c6ccc([nH]6)c(-c6c(F)cc(S(=O)(=O)[O-])cc6F)c6nc(c(-c7c(F)cc(S(=O)(=O)[O-])cc7F)c7ccc4[nH]7)C=C6)C=C5)cc3)cc2)CCN1
REMARK SMILES IDX 14 1 13 2 12 3 10 4 11 5 9 6 6 7 7 8 85 9 8 10 84 11 5 12
REMARK SMILES IDX 4 13 1 14 2 15 3 16 88 17 87 18 86 20 15 22 16 23 17 24
REMARK SMILES IDX 18 25 19 26 83 27 20 28 82 29 21 30 22 31 23 32 76 33 24 34
REMARK SMILES IDX 81 35 75 36 77 37 25 38 80 39 74 40 73 41 26 43 60 44 39 45
REMARK SMILES IDX 59 46 40 47 43 48 58 49 78 50 41 51 42 52 57 54 79 55 44 56
REMARK SMILES IDX 27 57 28 58 37 59 29 60 30 61 36 62 38 63 31 64 32 65 33 66
REMARK SMILES IDX 34 67 35 68 61 69 62 70 71 71 63 72 64 73 70 74 72 75 65 76
REMARK SMILES IDX 66 77 67 78 68 79 69 80 45 81 46 82 55 83 47 84 48 85 54 86
REMARK SMILES IDX 56 87 49 88 50 89 51 90 52 91 53 92
REMARK H PARENT 88 19 4 21 77 42 43 53
REMARK Flexibility Score: inf
ROOT
ATOM      1  C   UNL A   1      43.042  23.647  25.116  1.00  0.00     0.275 C 
ENDROOT
BRANCH   1   2
ATOM      2  C   UNL A   1      44.450  24.208  24.917  1.00  0.00     0.275 C 
BRANCH   2   3
ATOM      3  O   UNL A   1      44.950  24.781  26.139  1.00  0.00    -0.458 OA
BRANCH   3   4
ATOM      4  C   UNL A   1      45.589  23.902  26.953  1.00  0.00     0.338 C 
ATOM      5  O   UNL A   1      46.415  23.081  26.607  1.00  0.00    -0.246 OA
BRANCH   4   6
ATOM      6  C   UNL A   1      45.195  24.089  28.374  1.00  0.00     0.060 A 
ATOM      7  C   UNL A   1      44.772  24.433  31.119  1.00  0.00     0.006 A 
ATOM      8  C   UNL A   1      45.472  25.399  30.393  1.00  0.00     0.010 A 
ATOM      9  C   UNL A   1      44.151  23.377  30.433  1.00  0.00     0.010 A 
ATOM     10  C   UNL A   1      45.722  25.202  29.042  1.00  0.00     0.016 A 
ATOM     11  C   UNL A   1      44.359  23.205  29.060  1.00  0.00     0.016 A 
BRANCH   7  12
ATOM     12  C   UNL A   1      44.817  24.462  32.627  1.00  0.00     0.299 C 
BRANCH  12  13
ATOM     13  N   UNL A   1      44.446  23.208  33.300  1.00  0.00    -0.322 N 
ATOM     14  O   UNL A   1      42.092  24.091  35.961  1.00  0.00    -0.269 OA
ATOM     15  C   UNL A   1      43.105  23.654  35.417  1.00  0.00     0.275 C 
ATOM     16  C   UNL A   1      43.118  23.208  33.950  1.00  0.00     0.363 C 
ATOM     17  N   UNL A   1      44.231  23.456  36.167  1.00  0.00    -0.346 N 
ATOM     18  C   UNL A   1      45.516  23.114  35.610  1.00  0.00     0.177 C 
ATOM     19  H   UNL A   1      44.159  23.552  37.145  1.00  0.00     0.163 HD
ATOM     20  C   UNL A   1      45.464  22.603  34.161  1.00  0.00     0.284 C 
ATOM     21  H   UNL A   1      44.376  22.585  32.494  1.00  0.00     0.348 HD
ENDBRANCH  12  13
ENDBRANCH   7  12
ENDBRANCH   4   6
ENDBRANCH   3   4
ENDBRANCH   2   3
ENDBRANCH   1   2
BRANCH   1  22
ATOM     22  O   UNL A   1      42.169  24.631  25.705  1.00  0.00    -0.458 OA
BRANCH  22  23
ATOM     23  C   UNL A   1      41.591  24.260  26.871  1.00  0.00     0.338 C 
ATOM     24  O   UNL A   1      41.435  23.124  27.288  1.00  0.00    -0.246 OA
BRANCH  23  25
ATOM     25  C   UNL A   1      41.219  25.442  27.667  1.00  0.00     0.060 A 
ATOM     26  C   UNL A   1      42.189  26.411  27.886  1.00  0.00     0.016 A 
ATOM     27  C   UNL A   1      40.014  25.498  28.363  1.00  0.00     0.016 A 
ATOM     28  C   UNL A   1      42.018  27.374  28.875  1.00  0.00     0.010 A 
ATOM     29  C   UNL A   1      39.799  26.532  29.289  1.00  0.00     0.010 A 
ATOM     30  C   UNL A   1      40.818  27.456  29.595  1.00  0.00    -0.014 A 
BRANCH  30  31
ATOM     31  C   UNL A   1      40.681  28.463  30.693  1.00  0.00     0.031 A 
ATOM     32  C   UNL A   1      41.628  28.448  31.871  1.00  0.00     0.074 A 
ATOM     33  C   UNL A   1      39.746  29.434  30.615  1.00  0.00     0.049 A 
ATOM     34  N   UNL A   1      41.607  29.177  32.960  1.00  0.00    -0.248 NA
ATOM     35  C   UNL A   1      42.735  27.479  31.829  1.00  0.00     0.031 C 
ATOM     36  C   UNL A   1      38.783  29.596  29.523  1.00  0.00     0.029 A 
ATOM     37  N   UNL A   1      39.463  30.483  31.456  1.00  0.00    -0.354 N 
ATOM     38  C   UNL A   1      42.656  28.718  33.753  1.00  0.00     0.074 A 
ATOM     39  C   UNL A   1      43.286  27.638  33.024  1.00  0.00     0.031 C 
ATOM     40  C   UNL A   1      38.060  30.706  29.731  1.00  0.00     0.029 A 
ATOM     41  C   UNL A   1      38.439  31.288  31.014  1.00  0.00     0.049 A 
ATOM     42  H   UNL A   1      39.949  30.643  32.298  1.00  0.00     0.167 HD
ATOM     43  C   UNL A   1      43.061  29.157  34.969  1.00  0.00     0.037 A 
ATOM     44  C   UNL A   1      37.842  32.355  31.582  1.00  0.00     0.037 A 
ATOM     45  C   UNL A   1      42.471  30.274  35.667  1.00  0.00     0.049 A 
ATOM     46  C   UNL A   1      38.304  32.820  32.935  1.00  0.00     0.074 A 
ATOM     47  C   UNL A   1      42.824  30.805  36.895  1.00  0.00     0.029 A 
ATOM     48  N   UNL A   1      41.420  31.045  35.190  1.00  0.00    -0.354 N 
ATOM     49  N   UNL A   1      39.264  32.339  33.688  1.00  0.00    -0.248 NA
ATOM     50  C   UNL A   1      37.593  33.963  33.521  1.00  0.00     0.031 C 
ATOM     51  C   UNL A   1      41.961  31.870  37.180  1.00  0.00     0.029 A 
ATOM     52  C   UNL A   1      41.105  32.038  36.105  1.00  0.00     0.049 A 
ATOM     53  H   UNL A   1      40.963  30.905  34.329  1.00  0.00     0.167 HD
ATOM     54  C   UNL A   1      39.283  33.132  34.830  1.00  0.00     0.074 A 
ATOM     55  C   UNL A   1      38.253  34.136  34.657  1.00  0.00     0.031 C 
ATOM     56  C   UNL A   1      40.079  33.035  35.923  1.00  0.00     0.037 A 
BRANCH  43  57
ATOM     57  C   UNL A   1      44.179  28.412  35.650  1.00  0.00     0.058 A 
ATOM     58  C   UNL A   1      43.941  27.400  36.594  1.00  0.00     0.135 A 
ATOM     59  C   UNL A   1      45.517  28.690  35.320  1.00  0.00     0.135 A 
ATOM     60  F   UNL A   1      42.685  27.099  36.960  1.00  0.00    -0.206 F 
ATOM     61  C   UNL A   1      44.987  26.714  37.208  1.00  0.00     0.059 A 
ATOM     62  C   UNL A   1      46.577  27.997  35.899  1.00  0.00     0.059 A 
ATOM     63  F   UNL A   1      45.806  29.644  34.421  1.00  0.00    -0.206 F 
ATOM     64  C   UNL A   1      46.301  27.021  36.854  1.00  0.00     0.060 A 
BRANCH  64  65
ATOM     65  S   UNL A   1      47.646  26.122  37.657  1.00  0.00     0.124 S 
ATOM     66  O   UNL A   1      48.112  27.105  38.632  1.00  0.00    -0.237 OA
ATOM     67  O   UNL A   1      46.961  24.958  38.209  1.00  0.00    -0.237 OA
ATOM     68  O   UNL A   1      48.570  25.840  36.562  1.00  0.00    -0.744 OA
ENDBRANCH  64  65
ENDBRANCH  43  57
BRANCH  44  69
ATOM     69  C   UNL A   1      36.716  33.035  30.884  1.00  0.00     0.058 A 
ATOM     70  C   UNL A   1      35.389  32.858  31.299  1.00  0.00     0.135 A 
ATOM     71  C   UNL A   1      36.950  33.889  29.793  1.00  0.00     0.135 A 
ATOM     72  F   UNL A   1      35.110  32.042  32.327  1.00  0.00    -0.206 F 
ATOM     73  C   UNL A   1      34.332  33.494  30.654  1.00  0.00     0.059 A 
ATOM     74  C   UNL A   1      35.914  34.561  29.153  1.00  0.00     0.059 A 
ATOM     75  F   UNL A   1      38.203  34.101  29.361  1.00  0.00    -0.206 F 
ATOM     76  C   UNL A   1      34.606  34.348  29.584  1.00  0.00     0.060 A 
BRANCH  76  77
ATOM     77  S   UNL A   1      33.235  35.210  28.784  1.00  0.00     0.124 S 
ATOM     78  O   UNL A   1      32.465  35.666  29.935  1.00  0.00    -0.237 OA
ATOM     79  O   UNL A   1      33.923  36.248  28.024  1.00  0.00    -0.237 OA
ATOM     80  O   UNL A   1      32.609  34.166  27.978  1.00  0.00    -0.744 OA
ENDBRANCH  76  77
ENDBRANCH  44  69
BRANCH  56  81
ATOM     81  C   UNL A   1      39.894  34.068  37.001  1.00  0.00     0.058 A 
ATOM     82  C   UNL A   1      39.133  33.811  38.153  1.00  0.00     0.135 A 
ATOM     83  C   UNL A   1      40.494  35.332  36.882  1.00  0.00     0.135 A 
ATOM     84  F   UNL A   1      38.532  32.621  38.314  1.00  0.00    -0.206 F 
ATOM     85  C   UNL A   1      38.941  34.783  39.129  1.00  0.00     0.059 A 
ATOM     86  C   UNL A   1      40.340  36.309  37.859  1.00  0.00     0.059 A 
ATOM     87  F   UNL A   1      41.244  35.626  35.807  1.00  0.00    -0.206 F 
ATOM     88  C   UNL A   1      39.545  36.033  38.970  1.00  0.00     0.060 A 
BRANCH  88  89
ATOM     89  S   UNL A   1      39.287  37.289  40.241  1.00  0.00     0.124 S 
ATOM     90  O   UNL A   1      40.660  37.648  40.580  1.00  0.00    -0.237 OA
ATOM     91  O   UNL A   1      38.523  38.307  39.527  1.00  0.00    -0.237 OA
ATOM     92  O   UNL A   1      38.551  36.575  41.280  1.00  0.00    -0.744 OA
ENDBRANCH  88  89
ENDBRANCH  56  81
ENDBRANCH  30  31
ENDBRANCH  23  25
ENDBRANCH  22  23
ENDBRANCH   1  22
TORSDOF 16
ENDMDL
MODEL 3
REMARK VINA RESULT:     -11.3      0.530      1.640
REMARK SMILES O=C1C[N@@H+](Cc2ccc(C(=O)OCCOC(=O)c3ccc(-c4c5nc(c(-c6c(F)cc(S(=O)(=O)[O-])cc6F)c6ccc([nH]6)c(-c6c(F)cc(S(=O)(=O)[O-])cc6F)c6nc(c(-c7c(F)cc(S(=O)(=O)[O-])cc7F)c7ccc4[nH]7)C=C6)C=C5)cc3)cc2)CCN1
REMARK SMILES IDX 14 1 13 2 12 3 10 4 11 5 9 6 6 7 7 8 85 9 8 10 84 11 5 12
REMARK SMILES IDX 4 13 1 14 2 15 3 16 88 17 87 18 86 20 15 22 16 23 17 24
REMARK SMILES IDX 18 25 19 26 83 27 20 28 82 29 21 30 22 31 23 32 76 33 24 34
REMARK SMILES IDX 81 35 75 36 77 37 25 38 80 39 74 40 73 41 26 43 60 44 39 45
REMARK SMILES IDX 59 46 40 47 43 48 58 49 78 50 41 51 42 52 57 54 79 55 44 56
REMARK SMILES IDX 27 57 28 58 37 59 29 60 30 61 36 62 38 63 31 64 32 65 33 66
REMARK SMILES IDX 34 67 35 68 61 69 62 70 71 71 63 72 64 73 70 74 72 75 65 76
REMARK SMILES IDX 66 77 67 78 68 79 69 80 45 81 46 82 55 83 47 84 48 85 54 86
REMARK SMILES IDX 56 87 49 88 50 89 51 90 52 91 53 92
REMARK H PARENT 88 19 4 21 77 42 43 53
REMARK Flexibility Score: inf
ROOT
ATOM      1  C   UNL A   1      40.975  22.236  26.177  1.00  0.00     0.275 C 
ENDROOT
BRANCH   1   2
ATOM      2  C   UNL A   1      39.860  21.192  26.128  1.00  0.00     0.275 C 
BRANCH   2   3
ATOM      3  O   UNL A   1      38.566  21.823  26.165  1.00  0.00    -0.458 OA
BRANCH   3   4
ATOM      4  C   UNL A   1      37.668  21.318  25.281  1.00  0.00     0.338 C 
ATOM      5  O   UNL A   1      37.783  20.279  24.661  1.00  0.00    -0.246 OA
BRANCH   4   6
ATOM      6  C   UNL A   1      36.459  22.179  25.181  1.00  0.00     0.060 A 
ATOM      7  C   UNL A   1      34.161  23.695  24.684  1.00  0.00     0.006 A 
ATOM      8  C   UNL A   1      34.107  22.301  24.613  1.00  0.00     0.010 A 
ATOM      9  C   UNL A   1      35.329  24.313  25.159  1.00  0.00     0.010 A 
ATOM     10  C   UNL A   1      35.261  21.554  24.813  1.00  0.00     0.016 A 
ATOM     11  C   UNL A   1      36.478  23.556  25.410  1.00  0.00     0.016 A 
BRANCH   7  12
ATOM     12  C   UNL A   1      33.024  24.509  24.117  1.00  0.00     0.299 C 
BRANCH  12  13
ATOM     13  N   UNL A   1      32.461  25.529  25.016  1.00  0.00    -0.322 N 
ATOM     14  O   UNL A   1      30.012  23.829  27.141  1.00  0.00    -0.269 OA
ATOM     15  C   UNL A   1      30.472  24.619  26.318  1.00  0.00     0.275 C 
ATOM     16  C   UNL A   1      31.952  25.021  26.308  1.00  0.00     0.363 C 
ATOM     17  N   UNL A   1      29.622  25.245  25.450  1.00  0.00    -0.346 N 
ATOM     18  C   UNL A   1      30.062  26.053  24.339  1.00  0.00     0.177 C 
ATOM     19  H   UNL A   1      28.653  25.139  25.591  1.00  0.00     0.163 HD
ATOM     20  C   UNL A   1      31.534  26.489  24.415  1.00  0.00     0.284 C 
ATOM     21  H   UNL A   1      33.302  26.067  25.227  1.00  0.00     0.348 HD
ENDBRANCH  12  13
ENDBRANCH   7  12
ENDBRANCH   4   6
ENDBRANCH   3   4
ENDBRANCH   2   3
ENDBRANCH   1   2
BRANCH   1  22
ATOM     22  O   UNL A   1      40.496  23.482  26.722  1.00  0.00    -0.458 OA
BRANCH  22  23
ATOM     23  C   UNL A   1      41.348  24.527  26.598  1.00  0.00     0.338 C 
ATOM     24  O   UNL A   1      42.304  24.613  25.845  1.00  0.00    -0.246 OA
BRANCH  23  25
ATOM     25  C   UNL A   1      40.929  25.645  27.460  1.00  0.00     0.060 A 
ATOM     26  C   UNL A   1      41.743  26.769  27.510  1.00  0.00     0.016 A 
ATOM     27  C   UNL A   1      39.878  25.509  28.363  1.00  0.00     0.016 A 
ATOM     28  C   UNL A   1      41.591  27.708  28.524  1.00  0.00     0.010 A 
ATOM     29  C   UNL A   1      39.659  26.511  29.323  1.00  0.00     0.010 A 
ATOM     30  C   UNL A   1      40.544  27.600  29.450  1.00  0.00    -0.014 A 
BRANCH  30  31
ATOM     31  C   UNL A   1      40.437  28.591  30.566  1.00  0.00     0.031 A 
ATOM     32  C   UNL A   1      41.397  28.542  31.732  1.00  0.00     0.074 A 
ATOM     33  C   UNL A   1      39.518  29.580  30.514  1.00  0.00     0.049 A 
ATOM     34  N   UNL A   1      41.401  29.253  32.833  1.00  0.00    -0.248 NA
ATOM     35  C   UNL A   1      42.487  27.555  31.661  1.00  0.00     0.031 C 
ATOM     36  C   UNL A   1      38.545  29.775  29.436  1.00  0.00     0.029 A 
ATOM     37  N   UNL A   1      39.263  30.620  31.375  1.00  0.00    -0.354 N 
ATOM     38  C   UNL A   1      42.451  28.764  33.606  1.00  0.00     0.074 A 
ATOM     39  C   UNL A   1      43.054  27.685  32.853  1.00  0.00     0.031 C 
ATOM     40  C   UNL A   1      37.844  30.895  29.670  1.00  0.00     0.029 A 
ATOM     41  C   UNL A   1      38.248  31.449  30.958  1.00  0.00     0.049 A 
ATOM     42  H   UNL A   1      39.761  30.758  32.214  1.00  0.00     0.167 HD
ATOM     43  C   UNL A   1      42.877  29.176  34.824  1.00  0.00     0.037 A 
ATOM     44  C   UNL A   1      37.676  32.517  31.550  1.00  0.00     0.037 A 
ATOM     45  C   UNL A   1      42.315  30.292  35.546  1.00  0.00     0.049 A 
ATOM     46  C   UNL A   1      38.162  32.952  32.905  1.00  0.00     0.074 A 
ATOM     47  C   UNL A   1      42.692  30.797  36.779  1.00  0.00     0.029 A 
ATOM     48  N   UNL A   1      41.272  31.088  35.094  1.00  0.00    -0.354 N 
ATOM     49  N   UNL A   1      39.122  32.442  33.638  1.00  0.00    -0.248 NA
ATOM     50  C   UNL A   1      37.477  34.097  33.517  1.00  0.00     0.031 C 
ATOM     51  C   UNL A   1      41.850  31.872  37.091  1.00  0.00     0.029 A 
ATOM     52  C   UNL A   1      40.985  32.071  36.029  1.00  0.00     0.049 A 
ATOM     53  H   UNL A   1      40.803  30.970  34.237  1.00  0.00     0.167 HD
ATOM     54  C   UNL A   1      39.167  33.217  34.793  1.00  0.00     0.074 A 
ATOM     55  C   UNL A   1      38.153  34.241  34.648  1.00  0.00     0.031 C 
ATOM     56  C   UNL A   1      39.974  33.088  35.875  1.00  0.00     0.037 A 
BRANCH  43  57
ATOM     57  C   UNL A   1      43.991  28.400  35.480  1.00  0.00     0.058 A 
ATOM     58  C   UNL A   1      45.344  28.712  35.274  1.00  0.00     0.135 A 
ATOM     59  C   UNL A   1      43.693  27.349  36.363  1.00  0.00     0.135 A 
ATOM     60  F   UNL A   1      45.690  29.697  34.430  1.00  0.00    -0.206 F 
ATOM     61  C   UNL A   1      46.361  27.990  35.894  1.00  0.00     0.059 A 
ATOM     62  C   UNL A   1      44.692  26.632  37.018  1.00  0.00     0.059 A 
ATOM     63  F   UNL A   1      42.417  27.008  36.603  1.00  0.00    -0.206 F 
ATOM     64  C   UNL A   1      46.025  26.952  36.764  1.00  0.00     0.060 A 
BRANCH  64  65
ATOM     65  S   UNL A   1      47.354  26.026  37.562  1.00  0.00     0.124 S 
ATOM     66  O   UNL A   1      48.217  25.717  36.426  1.00  0.00    -0.237 OA
ATOM     67  O   UNL A   1      47.884  26.997  38.515  1.00  0.00    -0.237 OA
ATOM     68  O   UNL A   1      46.666  24.883  38.155  1.00  0.00    -0.744 OA
ENDBRANCH  64  65
ENDBRANCH  43  57
BRANCH  44  69
ATOM     69  C   UNL A   1      36.555  33.227  30.876  1.00  0.00     0.058 A 
ATOM     70  C   UNL A   1      35.232  33.088  31.321  1.00  0.00     0.135 A 
ATOM     71  C   UNL A   1      36.787  34.073  29.779  1.00  0.00     0.135 A 
ATOM     72  F   UNL A   1      34.954  32.281  32.356  1.00  0.00    -0.206 F 
ATOM     73  C   UNL A   1      34.179  33.752  30.698  1.00  0.00     0.059 A 
ATOM     74  C   UNL A   1      35.756  34.773  29.161  1.00  0.00     0.059 A 
ATOM     75  F   UNL A   1      38.036  34.249  29.318  1.00  0.00    -0.206 F 
ATOM     76  C   UNL A   1      34.453  34.598  29.621  1.00  0.00     0.060 A 
BRANCH  76  77
ATOM     77  S   UNL A   1      33.089  35.497  28.851  1.00  0.00     0.124 S 
ATOM     78  O   UNL A   1      33.800  36.533  28.114  1.00  0.00    -0.237 OA
ATOM     79  O   UNL A   1      32.453  34.461  28.044  1.00  0.00    -0.237 OA
ATOM     80  O   UNL A   1      32.306  35.958  29.994  1.00  0.00    -0.744 OA
ENDBRANCH  76  77
ENDBRANCH  44  69
BRANCH  56  81
ATOM     81  C   UNL A   1      39.819  34.107  36.971  1.00  0.00     0.058 A 
ATOM     82  C   UNL A   1      39.078  33.839  38.133  1.00  0.00     0.135 A 
ATOM     83  C   UNL A   1      40.430  35.367  36.860  1.00  0.00     0.135 A 
ATOM     84  F   UNL A   1      38.469  32.653  38.288  1.00  0.00    -0.206 F 
ATOM     85  C   UNL A   1      38.914  34.799  39.127  1.00  0.00     0.059 A 
ATOM     86  C   UNL A   1      40.303  36.331  37.853  1.00  0.00     0.059 A 
ATOM     87  F   UNL A   1      41.161  35.670  35.775  1.00  0.00    -0.206 F 
ATOM     88  C   UNL A   1      39.526  36.045  38.975  1.00  0.00     0.060 A 
BRANCH  88  89
ATOM     89  S   UNL A   1      39.305  37.284  40.269  1.00  0.00     0.124 S 
ATOM     90  O   UNL A   1      40.688  37.605  40.607  1.00  0.00    -0.237 OA
ATOM     91  O   UNL A   1      38.562  38.333  39.577  1.00  0.00    -0.237 OA
ATOM     92  O   UNL A   1      38.556  36.570  41.299  1.00  0.00    -0.744 OA
ENDBRANCH  88  89
ENDBRANCH  56  81
ENDBRANCH  30  31
ENDBRANCH  23  25
ENDBRANCH  22  23
ENDBRANCH   1  22
TORSDOF 16
ENDMDL
