MODEL 1
REMARK VINA RESULT:     -11.3      0.000      0.000
REMARK SMILES C[C@@H](C(=O)OCCOC(=O)c1ccc(-c2c3nc(c(-c4c(F)cc(S(=O)(=O)[O-])cc4F)c4ccc([nH]4)c(-c4c(F)cc(S(=O)(=O)[O-])cc4F)c4nc(c(-c5c(F)cc(S(=O)(=O)[O-])cc5F)c5ccc2[nH]5)C=C4)C=C3)cc1)c1ccc(C[C@@H]2CCC[C@@H]2O)cc1
REMARK SMILES IDX 6 1 5 2 3 3 4 4 2 5 1 6 77 7 78 8 89 9 79 10 88 11 80 12
REMARK SMILES IDX 81 13 82 14 83 15 86 16 84 17 85 18 87 19 7 21 8 22 9 23
REMARK SMILES IDX 10 24 11 25 12 26 76 27 13 28 75 29 14 30 15 31 16 32 69 33
REMARK SMILES IDX 17 34 74 35 68 36 70 37 18 38 73 39 67 40 66 41 19 43 53 44
REMARK SMILES IDX 32 45 52 46 33 47 36 48 51 49 71 50 34 51 35 52 50 54 72 55
REMARK SMILES IDX 37 56 20 57 21 58 30 59 22 60 23 61 29 62 31 63 24 64 25 65
REMARK SMILES IDX 26 66 27 67 28 68 54 69 55 70 64 71 56 72 57 73 63 74 65 75
REMARK SMILES IDX 58 76 59 77 60 78 61 79 62 80 38 81 39 82 48 83 40 84 41 85
REMARK SMILES IDX 47 86 49 87 42 88 43 89 44 90 45 91 46 92
REMARK H PARENT 87 20 70 42 36 53
REMARK Flexibility Score: inf
ROOT
ATOM      1  C   UNL A   1      38.530  21.876  25.789  1.00  0.00     0.274 C 
ENDROOT
BRANCH   1   2
ATOM      2  O   UNL A   1      37.411  22.769  25.606  1.00  0.00    -0.462 OA
BRANCH   2   3
ATOM      3  C   UNL A   1      36.207  22.175  25.361  1.00  0.00     0.313 C 
ATOM      4  O   UNL A   1      35.780  21.225  26.006  1.00  0.00    -0.252 OA
BRANCH   3   5
ATOM      5  C   UNL A   1      35.517  22.767  24.118  1.00  0.00     0.126 C 
ATOM      6  C   UNL A   1      36.489  23.056  22.973  1.00  0.00     0.025 C 
BRANCH   5   7
ATOM      7  C   UNL A   1      34.671  23.974  24.510  1.00  0.00    -0.034 A 
ATOM      8  C   UNL A   1      34.261  24.221  25.826  1.00  0.00     0.005 A 
ATOM      9  C   UNL A   1      34.154  24.790  23.495  1.00  0.00     0.005 A 
ATOM     10  C   UNL A   1      33.249  25.156  26.095  1.00  0.00     0.004 A 
ATOM     11  C   UNL A   1      33.174  25.744  23.774  1.00  0.00     0.004 A 
ATOM     12  C   UNL A   1      32.642  25.874  25.057  1.00  0.00    -0.048 A 
BRANCH  12  13
ATOM     13  C   UNL A   1      31.450  26.769  25.307  1.00  0.00     0.041 C 
BRANCH  13  14
ATOM     14  C   UNL A   1      31.663  28.257  25.693  1.00  0.00     0.022 C 
ATOM     15  C   UNL A   1      32.872  28.920  25.053  1.00  0.00     0.007 C 
ATOM     16  C   UNL A   1      31.877  28.656  27.156  1.00  0.00     0.117 C 
ATOM     17  C   UNL A   1      34.030  28.723  26.026  1.00  0.00     0.003 C 
ATOM     18  C   UNL A   1      33.386  28.590  27.402  1.00  0.00     0.032 C 
BRANCH  16  19
ATOM     19  O   UNL A   1      31.127  27.889  28.072  1.00  0.00    -0.393 OA
ATOM     20  H   UNL A   1      30.528  28.470  28.565  1.00  0.00     0.210 HD
ENDBRANCH  16  19
ENDBRANCH  13  14
ENDBRANCH  12  13
ENDBRANCH   5   7
ENDBRANCH   3   5
ENDBRANCH   2   3
ENDBRANCH   1   2
BRANCH   1  21
ATOM     21  C   UNL A   1      39.664  22.565  26.546  1.00  0.00     0.275 C 
BRANCH  21  22
ATOM     22  O   UNL A   1      39.443  23.986  26.580  1.00  0.00    -0.458 OA
BRANCH  22  23
ATOM     23  C   UNL A   1      40.549  24.764  26.596  1.00  0.00     0.338 C 
ATOM     24  O   UNL A   1      41.527  24.679  25.875  1.00  0.00    -0.246 OA
BRANCH  23  25
ATOM     25  C   UNL A   1      40.382  25.820  27.610  1.00  0.00     0.060 A 
ATOM     26  C   UNL A   1      41.254  26.899  27.570  1.00  0.00     0.016 A 
ATOM     27  C   UNL A   1      39.465  25.699  28.659  1.00  0.00     0.016 A 
ATOM     28  C   UNL A   1      41.236  27.837  28.599  1.00  0.00     0.010 A 
ATOM     29  C   UNL A   1      39.416  26.681  29.666  1.00  0.00     0.010 A 
ATOM     30  C   UNL A   1      40.313  27.758  29.649  1.00  0.00    -0.014 A 
BRANCH  30  31
ATOM     31  C   UNL A   1      40.385  28.788  30.723  1.00  0.00     0.031 A 
ATOM     32  C   UNL A   1      39.266  29.781  30.874  1.00  0.00     0.074 A 
ATOM     33  C   UNL A   1      41.346  28.733  31.669  1.00  0.00     0.049 A 
ATOM     34  N   UNL A   1      39.085  30.686  31.801  1.00  0.00    -0.248 NA
ATOM     35  C   UNL A   1      38.217  29.755  29.843  1.00  0.00     0.031 C 
ATOM     36  C   UNL A   1      42.443  27.771  31.693  1.00  0.00     0.029 A 
ATOM     37  N   UNL A   1      41.483  29.425  32.854  1.00  0.00    -0.354 N 
ATOM     38  C   UNL A   1      37.965  31.407  31.411  1.00  0.00     0.074 A 
ATOM     39  C   UNL A   1      37.448  30.768  30.218  1.00  0.00     0.031 C 
ATOM     40  C   UNL A   1      43.041  27.824  32.898  1.00  0.00     0.029 A 
ATOM     41  C   UNL A   1      42.395  28.851  33.715  1.00  0.00     0.049 A 
ATOM     42  H   UNL A   1      40.980  30.246  33.064  1.00  0.00     0.167 HD
ATOM     43  C   UNL A   1      37.466  32.543  31.954  1.00  0.00     0.037 A 
ATOM     44  C   UNL A   1      42.627  29.086  35.025  1.00  0.00     0.037 A 
ATOM     45  C   UNL A   1      37.978  33.172  33.143  1.00  0.00     0.049 A 
ATOM     46  C   UNL A   1      41.962  30.268  35.689  1.00  0.00     0.074 A 
ATOM     47  C   UNL A   1      37.647  34.403  33.686  1.00  0.00     0.029 A 
ATOM     48  N   UNL A   1      38.920  32.607  33.988  1.00  0.00    -0.354 N 
ATOM     49  N   UNL A   1      41.003  31.039  35.239  1.00  0.00    -0.248 NA
ATOM     50  C   UNL A   1      42.469  30.654  37.019  1.00  0.00     0.031 C 
ATOM     51  C   UNL A   1      38.409  34.592  34.846  1.00  0.00     0.029 A 
ATOM     52  C   UNL A   1      39.183  33.461  35.046  1.00  0.00     0.049 A 
ATOM     53  H   UNL A   1      39.340  31.727  33.856  1.00  0.00     0.167 HD
ATOM     54  C   UNL A   1      40.849  32.043  36.192  1.00  0.00     0.074 A 
ATOM     55  C   UNL A   1      41.734  31.724  37.291  1.00  0.00     0.031 C 
ATOM     56  C   UNL A   1      40.087  33.163  36.127  1.00  0.00     0.037 A 
BRANCH  43  57
ATOM     57  C   UNL A   1      36.415  33.263  31.165  1.00  0.00     0.058 A 
ATOM     58  C   UNL A   1      36.677  33.893  29.941  1.00  0.00     0.135 A 
ATOM     59  C   UNL A   1      35.105  33.324  31.672  1.00  0.00     0.135 A 
ATOM     60  F   UNL A   1      37.918  33.886  29.430  1.00  0.00    -0.206 F 
ATOM     61  C   UNL A   1      35.679  34.582  29.257  1.00  0.00     0.059 A 
ATOM     62  C   UNL A   1      34.090  33.989  30.996  1.00  0.00     0.059 A 
ATOM     63  F   UNL A   1      34.807  32.743  32.845  1.00  0.00    -0.206 F 
ATOM     64  C   UNL A   1      34.391  34.629  29.797  1.00  0.00     0.060 A 
BRANCH  64  65
ATOM     65  S   UNL A   1      33.108  35.545  28.918  1.00  0.00     0.124 S 
ATOM     66  O   UNL A   1      32.296  36.041  30.025  1.00  0.00    -0.237 OA
ATOM     67  O   UNL A   1      33.879  36.553  28.197  1.00  0.00    -0.237 OA
ATOM     68  O   UNL A   1      32.477  34.529  28.083  1.00  0.00    -0.744 OA
ENDBRANCH  64  65
ENDBRANCH  43  57
BRANCH  44  69
ATOM     69  C   UNL A   1      43.501  28.191  35.839  1.00  0.00     0.058 A 
ATOM     70  C   UNL A   1      42.927  27.171  36.620  1.00  0.00     0.135 A 
ATOM     71  C   UNL A   1      44.892  28.349  35.908  1.00  0.00     0.135 A 
ATOM     72  F   UNL A   1      41.597  26.981  36.601  1.00  0.00    -0.206 F 
ATOM     73  C   UNL A   1      43.692  26.360  37.453  1.00  0.00     0.059 A 
ATOM     74  C   UNL A   1      45.684  27.527  36.706  1.00  0.00     0.059 A 
ATOM     75  F   UNL A   1      45.498  29.308  35.190  1.00  0.00    -0.206 F 
ATOM     76  C   UNL A   1      45.072  26.547  37.491  1.00  0.00     0.060 A 
BRANCH  76  77
ATOM     77  S   UNL A   1      46.087  25.476  38.534  1.00  0.00     0.124 S 
ATOM     78  O   UNL A   1      47.404  25.647  37.932  1.00  0.00    -0.237 OA
ATOM     79  O   UNL A   1      45.912  26.060  39.860  1.00  0.00    -0.237 OA
ATOM     80  O   UNL A   1      45.469  24.167  38.349  1.00  0.00    -0.744 OA
ENDBRANCH  76  77
ENDBRANCH  44  69
BRANCH  56  81
ATOM     81  C   UNL A   1      40.247  34.181  37.222  1.00  0.00     0.058 A 
ATOM     82  C   UNL A   1      41.242  35.171  37.138  1.00  0.00     0.135 A 
ATOM     83  C   UNL A   1      39.375  34.222  38.320  1.00  0.00     0.135 A 
ATOM     84  F   UNL A   1      42.102  35.179  36.107  1.00  0.00    -0.206 F 
ATOM     85  C   UNL A   1      41.377  36.154  38.113  1.00  0.00     0.059 A 
ATOM     86  C   UNL A   1      39.481  35.211  39.297  1.00  0.00     0.059 A 
ATOM     87  F   UNL A   1      38.401  33.309  38.444  1.00  0.00    -0.206 F 
ATOM     88  C   UNL A   1      40.491  36.167  39.189  1.00  0.00     0.060 A 
BRANCH  88  89
ATOM     89  S   UNL A   1      40.654  37.475  40.424  1.00  0.00     0.124 S 
ATOM     90  O   UNL A   1      41.111  38.595  39.609  1.00  0.00    -0.237 OA
ATOM     91  O   UNL A   1      39.296  37.585  40.947  1.00  0.00    -0.237 OA
ATOM     92  O   UNL A   1      41.636  36.937  41.361  1.00  0.00    -0.744 OA
ENDBRANCH  88  89
ENDBRANCH  56  81
ENDBRANCH  30  31
ENDBRANCH  23  25
ENDBRANCH  22  23
ENDBRANCH  21  22
ENDBRANCH   1  21
TORSDOF 18
ENDMDL
MODEL 2
REMARK VINA RESULT:     -11.0      1.288      8.392
REMARK SMILES C[C@@H](C(=O)OCCOC(=O)c1ccc(-c2c3nc(c(-c4c(F)cc(S(=O)(=O)[O-])cc4F)c4ccc([nH]4)c(-c4c(F)cc(S(=O)(=O)[O-])cc4F)c4nc(c(-c5c(F)cc(S(=O)(=O)[O-])cc5F)c5ccc2[nH]5)C=C4)C=C3)cc1)c1ccc(C[C@@H]2CCC[C@@H]2O)cc1
REMARK SMILES IDX 6 1 5 2 3 3 4 4 2 5 1 6 77 7 78 8 89 9 79 10 88 11 80 12
REMARK SMILES IDX 81 13 82 14 83 15 86 16 84 17 85 18 87 19 7 21 8 22 9 23
REMARK SMILES IDX 10 24 11 25 12 26 76 27 13 28 75 29 14 30 15 31 16 32 69 33
REMARK SMILES IDX 17 34 74 35 68 36 70 37 18 38 73 39 67 40 66 41 19 43 53 44
REMARK SMILES IDX 32 45 52 46 33 47 36 48 51 49 71 50 34 51 35 52 50 54 72 55
REMARK SMILES IDX 37 56 20 57 21 58 30 59 22 60 23 61 29 62 31 63 24 64 25 65
REMARK SMILES IDX 26 66 27 67 28 68 54 69 55 70 64 71 56 72 57 73 63 74 65 75
REMARK SMILES IDX 58 76 59 77 60 78 61 79 62 80 38 81 39 82 48 83 40 84 41 85
REMARK SMILES IDX 47 86 49 87 42 88 43 89 44 90 45 91 46 92
REMARK H PARENT 87 20 70 42 36 53
REMARK Flexibility Score: inf
ROOT
ATOM      1  C   UNL A   1      37.778  22.146  25.184  1.00  0.00     0.274 C 
ENDROOT
BRANCH   1   2
ATOM      2  O   UNL A   1      36.478  22.185  25.810  1.00  0.00    -0.462 OA
BRANCH   2   3
ATOM      3  C   UNL A   1      35.569  21.275  25.354  1.00  0.00     0.313 C 
ATOM      4  O   UNL A   1      35.868  20.138  25.010  1.00  0.00    -0.252 OA
BRANCH   3   5
ATOM      5  C   UNL A   1      34.160  21.884  25.224  1.00  0.00     0.126 C 
ATOM      6  C   UNL A   1      33.256  21.104  24.269  1.00  0.00     0.025 C 
BRANCH   5   7
ATOM      7  C   UNL A   1      34.258  23.369  24.886  1.00  0.00    -0.034 A 
ATOM      8  C   UNL A   1      34.407  24.363  25.861  1.00  0.00     0.005 A 
ATOM      9  C   UNL A   1      34.038  23.772  23.563  1.00  0.00     0.005 A 
ATOM     10  C   UNL A   1      34.191  25.712  25.543  1.00  0.00     0.004 A 
ATOM     11  C   UNL A   1      33.861  25.119  23.246  1.00  0.00     0.004 A 
ATOM     12  C   UNL A   1      33.840  26.096  24.243  1.00  0.00    -0.048 A 
BRANCH  12  13
ATOM     13  C   UNL A   1      33.454  27.519  23.914  1.00  0.00     0.041 C 
BRANCH  13  14
ATOM     14  C   UNL A   1      32.059  28.061  24.329  1.00  0.00     0.022 C 
ATOM     15  C   UNL A   1      31.140  27.039  24.978  1.00  0.00     0.007 C 
ATOM     16  C   UNL A   1      31.113  28.651  23.280  1.00  0.00     0.117 C 
ATOM     17  C   UNL A   1      30.327  26.420  23.846  1.00  0.00     0.003 C 
ATOM     18  C   UNL A   1      30.274  27.484  22.754  1.00  0.00     0.032 C 
BRANCH  16  19
ATOM     19  O   UNL A   1      31.770  29.372  22.261  1.00  0.00    -0.393 OA
ATOM     20  H   UNL A   1      31.111  29.796  21.689  1.00  0.00     0.210 HD
ENDBRANCH  16  19
ENDBRANCH  13  14
ENDBRANCH  12  13
ENDBRANCH   5   7
ENDBRANCH   3   5
ENDBRANCH   2   3
ENDBRANCH   1   2
BRANCH   1  21
ATOM     21  C   UNL A   1      38.859  22.661  26.132  1.00  0.00     0.275 C 
BRANCH  21  22
ATOM     22  O   UNL A   1      38.886  24.099  26.115  1.00  0.00    -0.458 OA
BRANCH  22  23
ATOM     23  C   UNL A   1      40.045  24.681  26.501  1.00  0.00     0.338 C 
ATOM     24  O   UNL A   1      41.149  24.534  26.009  1.00  0.00    -0.246 OA
BRANCH  23  25
ATOM     25  C   UNL A   1      39.772  25.609  27.613  1.00  0.00     0.060 A 
ATOM     26  C   UNL A   1      40.366  26.862  27.569  1.00  0.00     0.016 A 
ATOM     27  C   UNL A   1      39.045  25.218  28.741  1.00  0.00     0.016 A 
ATOM     28  C   UNL A   1      40.267  27.711  28.669  1.00  0.00     0.010 A 
ATOM     29  C   UNL A   1      38.902  26.102  29.827  1.00  0.00     0.010 A 
ATOM     30  C   UNL A   1      39.523  27.359  29.803  1.00  0.00    -0.014 A 
BRANCH  30  31
ATOM     31  C   UNL A   1      39.495  28.315  30.945  1.00  0.00     0.031 A 
ATOM     32  C   UNL A   1      40.706  28.452  31.826  1.00  0.00     0.074 A 
ATOM     33  C   UNL A   1      38.473  29.183  31.094  1.00  0.00     0.049 A 
ATOM     34  N   UNL A   1      40.924  29.295  32.803  1.00  0.00    -0.248 NA
ATOM     35  C   UNL A   1      41.812  27.515  31.579  1.00  0.00     0.031 C 
ATOM     36  C   UNL A   1      37.275  29.217  30.260  1.00  0.00     0.029 A 
ATOM     37  N   UNL A   1      38.335  30.278  31.921  1.00  0.00    -0.354 N 
ATOM     38  C   UNL A   1      42.142  28.924  33.356  1.00  0.00     0.074 A 
ATOM     39  C   UNL A   1      42.662  27.845  32.541  1.00  0.00     0.031 C 
ATOM     40  C   UNL A   1      36.607  30.360  30.506  1.00  0.00     0.029 A 
ATOM     41  C   UNL A   1      37.308  31.117  31.542  1.00  0.00     0.049 A 
ATOM     42  H   UNL A   1      38.911  30.443  32.702  1.00  0.00     0.167 HD
ATOM     43  C   UNL A   1      42.727  29.388  34.486  1.00  0.00     0.037 A 
ATOM     44  C   UNL A   1      37.016  32.375  31.941  1.00  0.00     0.037 A 
ATOM     45  C   UNL A   1      42.210  30.463  35.290  1.00  0.00     0.049 A 
ATOM     46  C   UNL A   1      37.764  32.967  33.111  1.00  0.00     0.074 A 
ATOM     47  C   UNL A   1      42.640  30.904  36.531  1.00  0.00     0.029 A 
ATOM     48  N   UNL A   1      41.156  31.284  34.921  1.00  0.00    -0.354 N 
ATOM     49  N   UNL A   1      38.831  32.519  33.725  1.00  0.00    -0.248 NA
ATOM     50  C   UNL A   1      37.215  34.207  33.690  1.00  0.00     0.031 C 
ATOM     51  C   UNL A   1      41.827  31.976  36.924  1.00  0.00     0.029 A 
ATOM     52  C   UNL A   1      40.920  32.227  35.909  1.00  0.00     0.049 A 
ATOM     53  H   UNL A   1      40.650  31.209  34.081  1.00  0.00     0.167 HD
ATOM     54  C   UNL A   1      39.033  33.375  34.804  1.00  0.00     0.074 A 
ATOM     55  C   UNL A   1      38.046  34.427  34.701  1.00  0.00     0.031 C 
ATOM     56  C   UNL A   1      39.918  33.258  35.825  1.00  0.00     0.037 A 
BRANCH  43  57
ATOM     57  C   UNL A   1      43.904  28.615  35.002  1.00  0.00     0.058 A 
ATOM     58  C   UNL A   1      45.226  28.912  34.649  1.00  0.00     0.135 A 
ATOM     59  C   UNL A   1      43.679  27.533  35.872  1.00  0.00     0.135 A 
ATOM     60  F   UNL A   1      45.489  29.918  33.800  1.00  0.00    -0.206 F 
ATOM     61  C   UNL A   1      46.288  28.147  35.123  1.00  0.00     0.059 A 
ATOM     62  C   UNL A   1      44.724  26.768  36.371  1.00  0.00     0.059 A 
ATOM     63  F   UNL A   1      42.428  27.204  36.232  1.00  0.00    -0.206 F 
ATOM     64  C   UNL A   1      46.025  27.073  35.978  1.00  0.00     0.060 A 
BRANCH  64  65
ATOM     65  S   UNL A   1      47.403  26.068  36.568  1.00  0.00     0.124 S 
ATOM     66  O   UNL A   1      47.126  24.788  35.924  1.00  0.00    -0.237 OA
ATOM     67  O   UNL A   1      48.563  26.795  36.061  1.00  0.00    -0.237 OA
ATOM     68  O   UNL A   1      47.242  26.088  38.018  1.00  0.00    -0.744 OA
ENDBRANCH  64  65
ENDBRANCH  43  57
BRANCH  44  69
ATOM     69  C   UNL A   1      35.995  33.204  31.236  1.00  0.00     0.058 A 
ATOM     70  C   UNL A   1      36.310  33.807  30.004  1.00  0.00     0.135 A 
ATOM     71  C   UNL A   1      34.726  33.461  31.773  1.00  0.00     0.135 A 
ATOM     72  F   UNL A   1      37.516  33.605  29.448  1.00  0.00    -0.206 F 
ATOM     73  C   UNL A   1      35.419  34.649  29.345  1.00  0.00     0.059 A 
ATOM     74  C   UNL A   1      33.803  34.270  31.115  1.00  0.00     0.059 A 
ATOM     75  F   UNL A   1      34.368  32.918  32.946  1.00  0.00    -0.206 F 
ATOM     76  C   UNL A   1      34.166  34.877  29.910  1.00  0.00     0.060 A 
BRANCH  76  77
ATOM     77  S   UNL A   1      32.980  35.933  29.049  1.00  0.00     0.124 S 
ATOM     78  O   UNL A   1      32.190  36.449  30.160  1.00  0.00    -0.237 OA
ATOM     79  O   UNL A   1      33.840  36.900  28.376  1.00  0.00    -0.237 OA
ATOM     80  O   UNL A   1      32.295  34.994  28.165  1.00  0.00    -0.744 OA
ENDBRANCH  76  77
ENDBRANCH  44  69
BRANCH  56  81
ATOM     81  C   UNL A   1      39.799  34.229  36.967  1.00  0.00     0.058 A 
ATOM     82  C   UNL A   1      40.361  35.515  36.874  1.00  0.00     0.135 A 
ATOM     83  C   UNL A   1      39.072  33.916  38.124  1.00  0.00     0.135 A 
ATOM     84  F   UNL A   1      41.066  35.867  35.787  1.00  0.00    -0.206 F 
ATOM     85  C   UNL A   1      40.220  36.448  37.895  1.00  0.00     0.059 A 
ATOM     86  C   UNL A   1      38.902  34.844  39.151  1.00  0.00     0.059 A 
ATOM     87  F   UNL A   1      38.505  32.708  38.261  1.00  0.00    -0.206 F 
ATOM     88  C   UNL A   1      39.489  36.104  39.031  1.00  0.00     0.060 A 
BRANCH  88  89
ATOM     89  S   UNL A   1      39.280  37.342  40.330  1.00  0.00     0.124 S 
ATOM     90  O   UNL A   1      40.665  37.673  40.646  1.00  0.00    -0.237 OA
ATOM     91  O   UNL A   1      38.517  38.385  39.653  1.00  0.00    -0.237 OA
ATOM     92  O   UNL A   1      38.554  36.621  41.372  1.00  0.00    -0.744 OA
ENDBRANCH  88  89
ENDBRANCH  56  81
ENDBRANCH  30  31
ENDBRANCH  23  25
ENDBRANCH  22  23
ENDBRANCH  21  22
ENDBRANCH   1  21
TORSDOF 18
ENDMDL
MODEL 3
REMARK VINA RESULT:     -10.9      2.790      5.837
REMARK SMILES C[C@@H](C(=O)OCCOC(=O)c1ccc(-c2c3nc(c(-c4c(F)cc(S(=O)(=O)[O-])cc4F)c4ccc([nH]4)c(-c4c(F)cc(S(=O)(=O)[O-])cc4F)c4nc(c(-c5c(F)cc(S(=O)(=O)[O-])cc5F)c5ccc2[nH]5)C=C4)C=C3)cc1)c1ccc(C[C@@H]2CCC[C@@H]2O)cc1
REMARK SMILES IDX 6 1 5 2 3 3 4 4 2 5 1 6 77 7 78 8 89 9 79 10 88 11 80 12
REMARK SMILES IDX 81 13 82 14 83 15 86 16 84 17 85 18 87 19 7 21 8 22 9 23
REMARK SMILES IDX 10 24 11 25 12 26 76 27 13 28 75 29 14 30 15 31 16 32 69 33
REMARK SMILES IDX 17 34 74 35 68 36 70 37 18 38 73 39 67 40 66 41 19 43 53 44
REMARK SMILES IDX 32 45 52 46 33 47 36 48 51 49 71 50 34 51 35 52 50 54 72 55
REMARK SMILES IDX 37 56 20 57 21 58 30 59 22 60 23 61 29 62 31 63 24 64 25 65
REMARK SMILES IDX 26 66 27 67 28 68 54 69 55 70 64 71 56 72 57 73 63 74 65 75
REMARK SMILES IDX 58 76 59 77 60 78 61 79 62 80 38 81 39 82 48 83 40 84 41 85
REMARK SMILES IDX 47 86 49 87 42 88 43 89 44 90 45 91 46 92
REMARK H PARENT 87 20 70 42 36 53
REMARK Flexibility Score: inf
ROOT
ATOM      1  C   UNL A   1      42.246  22.105  26.228  1.00  0.00     0.274 C 
ENDROOT
BRANCH   1   2
ATOM      2  O   UNL A   1      43.089  23.161  25.721  1.00  0.00    -0.462 OA
BRANCH   2   3
ATOM      3  C   UNL A   1      44.141  23.518  26.514  1.00  0.00     0.313 C 
ATOM      4  O   UNL A   1      45.038  22.746  26.830  1.00  0.00    -0.252 OA
BRANCH   3   5
ATOM      5  C   UNL A   1      44.000  24.957  27.044  1.00  0.00     0.126 C 
ATOM      6  C   UNL A   1      44.963  25.939  26.374  1.00  0.00     0.025 C 
BRANCH   5   7
ATOM      7  C   UNL A   1      44.088  24.970  28.567  1.00  0.00    -0.034 A 
ATOM      8  C   UNL A   1      45.007  25.760  29.269  1.00  0.00     0.005 A 
ATOM      9  C   UNL A   1      43.326  24.044  29.291  1.00  0.00     0.005 A 
ATOM     10  C   UNL A   1      45.259  25.522  30.629  1.00  0.00     0.004 A 
ATOM     11  C   UNL A   1      43.557  23.837  30.652  1.00  0.00     0.004 A 
ATOM     12  C   UNL A   1      44.588  24.504  31.316  1.00  0.00    -0.048 A 
BRANCH  12  13
ATOM     13  C   UNL A   1      44.954  24.130  32.734  1.00  0.00     0.041 C 
BRANCH  13  14
ATOM     14  C   UNL A   1      44.178  23.003  33.466  1.00  0.00     0.022 C 
ATOM     15  C   UNL A   1      43.008  23.475  34.314  1.00  0.00     0.007 C 
ATOM     16  C   UNL A   1      44.892  22.094  34.469  1.00  0.00     0.117 C 
ATOM     17  C   UNL A   1      43.567  23.708  35.715  1.00  0.00     0.003 C 
ATOM     18  C   UNL A   1      44.772  22.779  35.832  1.00  0.00     0.032 C 
BRANCH  16  19
ATOM     19  O   UNL A   1      46.223  21.787  34.113  1.00  0.00    -0.393 OA
ATOM     20  H   UNL A   1      46.281  21.663  33.153  1.00  0.00     0.210 HD
ENDBRANCH  16  19
ENDBRANCH  13  14
ENDBRANCH  12  13
ENDBRANCH   5   7
ENDBRANCH   3   5
ENDBRANCH   2   3
ENDBRANCH   1   2
BRANCH   1  21
ATOM     21  C   UNL A   1      40.914  22.658  26.731  1.00  0.00     0.275 C 
BRANCH  21  22
ATOM     22  O   UNL A   1      40.734  24.008  26.267  1.00  0.00    -0.458 OA
BRANCH  22  23
ATOM     23  C   UNL A   1      39.604  24.634  26.669  1.00  0.00     0.338 C 
ATOM     24  O   UNL A   1      38.464  24.415  26.302  1.00  0.00    -0.246 OA
BRANCH  23  25
ATOM     25  C   UNL A   1      39.944  25.625  27.706  1.00  0.00     0.060 A 
ATOM     26  C   UNL A   1      39.204  25.611  28.879  1.00  0.00     0.016 A 
ATOM     27  C   UNL A   1      40.890  26.630  27.486  1.00  0.00     0.016 A 
ATOM     28  C   UNL A   1      39.382  26.625  29.818  1.00  0.00     0.010 A 
ATOM     29  C   UNL A   1      41.104  27.621  28.463  1.00  0.00     0.010 A 
ATOM     30  C   UNL A   1      40.340  27.631  29.639  1.00  0.00    -0.014 A 
BRANCH  30  31
ATOM     31  C   UNL A   1      40.442  28.693  30.679  1.00  0.00     0.031 A 
ATOM     32  C   UNL A   1      39.336  29.702  30.819  1.00  0.00     0.074 A 
ATOM     33  C   UNL A   1      41.419  28.657  31.609  1.00  0.00     0.049 A 
ATOM     34  N   UNL A   1      39.181  30.637  31.721  1.00  0.00    -0.248 NA
ATOM     35  C   UNL A   1      38.268  29.655  29.809  1.00  0.00     0.031 C 
ATOM     36  C   UNL A   1      42.507  27.685  31.643  1.00  0.00     0.029 A 
ATOM     37  N   UNL A   1      41.584  29.384  32.769  1.00  0.00    -0.354 N 
ATOM     38  C   UNL A   1      38.061  31.357  31.328  1.00  0.00     0.074 A 
ATOM     39  C   UNL A   1      37.516  30.687  30.165  1.00  0.00     0.031 C 
ATOM     40  C   UNL A   1      43.127  27.769  32.835  1.00  0.00     0.029 A 
ATOM     41  C   UNL A   1      42.507  28.827  33.631  1.00  0.00     0.049 A 
ATOM     42  H   UNL A   1      41.094  30.216  32.962  1.00  0.00     0.167 HD
ATOM     43  C   UNL A   1      37.584  32.515  31.845  1.00  0.00     0.037 A 
ATOM     44  C   UNL A   1      42.765  29.100  34.929  1.00  0.00     0.037 A 
ATOM     45  C   UNL A   1      38.123  33.174  33.005  1.00  0.00     0.049 A 
ATOM     46  C   UNL A   1      42.124  30.308  35.568  1.00  0.00     0.074 A 
ATOM     47  C   UNL A   1      37.814  34.425  33.515  1.00  0.00     0.029 A 
ATOM     48  N   UNL A   1      39.075  32.626  33.850  1.00  0.00    -0.354 N 
ATOM     49  N   UNL A   1      41.165  31.076  35.112  1.00  0.00    -0.248 NA
ATOM     50  C   UNL A   1      42.658  30.730  36.875  1.00  0.00     0.031 C 
ATOM     51  C   UNL A   1      38.599  34.642  34.655  1.00  0.00     0.029 A 
ATOM     52  C   UNL A   1      39.366  33.510  34.876  1.00  0.00     0.049 A 
ATOM     53  H   UNL A   1      39.483  31.737  33.738  1.00  0.00     0.167 HD
ATOM     54  C   UNL A   1      41.037  32.109  36.036  1.00  0.00     0.074 A 
ATOM     55  C   UNL A   1      41.939  31.815  37.128  1.00  0.00     0.031 C 
ATOM     56  C   UNL A   1      40.286  33.235  35.950  1.00  0.00     0.037 A 
BRANCH  43  57
ATOM     57  C   UNL A   1      36.525  33.221  31.053  1.00  0.00     0.058 A 
ATOM     58  C   UNL A   1      36.796  33.915  29.866  1.00  0.00     0.135 A 
ATOM     59  C   UNL A   1      35.199  33.202  31.519  1.00  0.00     0.135 A 
ATOM     60  F   UNL A   1      38.051  33.984  29.396  1.00  0.00    -0.206 F 
ATOM     61  C   UNL A   1      35.789  34.587  29.179  1.00  0.00     0.059 A 
ATOM     62  C   UNL A   1      34.176  33.850  30.839  1.00  0.00     0.059 A 
ATOM     63  F   UNL A   1      34.892  32.558  32.656  1.00  0.00    -0.206 F 
ATOM     64  C   UNL A   1      34.484  34.554  29.678  1.00  0.00     0.060 A 
BRANCH  64  65
ATOM     65  S   UNL A   1      33.188  35.450  28.797  1.00  0.00     0.124 S 
ATOM     66  O   UNL A   1      32.522  34.366  28.082  1.00  0.00    -0.237 OA
ATOM     67  O   UNL A   1      32.426  36.052  29.886  1.00  0.00    -0.237 OA
ATOM     68  O   UNL A   1      33.931  36.389  27.963  1.00  0.00    -0.744 OA
ENDBRANCH  64  65
ENDBRANCH  43  57
BRANCH  44  69
ATOM     69  C   UNL A   1      43.644  28.221  35.754  1.00  0.00     0.058 A 
ATOM     70  C   UNL A   1      43.073  27.316  36.668  1.00  0.00     0.135 A 
ATOM     71  C   UNL A   1      45.043  28.288  35.704  1.00  0.00     0.135 A 
ATOM     72  F   UNL A   1      41.737  27.218  36.767  1.00  0.00    -0.206 F 
ATOM     73  C   UNL A   1      43.851  26.530  37.512  1.00  0.00     0.059 A 
ATOM     74  C   UNL A   1      45.845  27.486  36.513  1.00  0.00     0.059 A 
ATOM     75  F   UNL A   1      45.648  29.135  34.857  1.00  0.00    -0.206 F 
ATOM     76  C   UNL A   1      45.239  26.623  37.429  1.00  0.00     0.060 A 
BRANCH  76  77
ATOM     77  S   UNL A   1      46.266  25.580  38.488  1.00  0.00     0.124 S 
ATOM     78  O   UNL A   1      47.279  25.117  37.546  1.00  0.00    -0.237 OA
ATOM     79  O   UNL A   1      46.727  26.515  39.509  1.00  0.00    -0.237 OA
ATOM     80  O   UNL A   1      45.324  24.569  38.956  1.00  0.00    -0.744 OA
ENDBRANCH  76  77
ENDBRANCH  44  69
BRANCH  56  81
ATOM     81  C   UNL A   1      40.476  34.285  37.010  1.00  0.00     0.058 A 
ATOM     82  C   UNL A   1      41.541  35.200  36.926  1.00  0.00     0.135 A 
ATOM     83  C   UNL A   1      39.569  34.432  38.068  1.00  0.00     0.135 A 
ATOM     84  F   UNL A   1      42.437  35.106  35.931  1.00  0.00    -0.206 F 
ATOM     85  C   UNL A   1      41.708  36.211  37.866  1.00  0.00     0.059 A 
ATOM     86  C   UNL A   1      39.707  35.451  39.010  1.00  0.00     0.059 A 
ATOM     87  F   UNL A   1      38.529  33.593  38.189  1.00  0.00    -0.206 F 
ATOM     88  C   UNL A   1      40.786  36.330  38.905  1.00  0.00     0.060 A 
BRANCH  88  89
ATOM     89  S   UNL A   1      40.993  37.674  40.094  1.00  0.00     0.124 S 
ATOM     90  O   UNL A   1      39.696  38.338  40.017  1.00  0.00    -0.237 OA
ATOM     91  O   UNL A   1      41.266  36.957  41.335  1.00  0.00    -0.237 OA
ATOM     92  O   UNL A   1      42.119  38.432  39.556  1.00  0.00    -0.744 OA
ENDBRANCH  88  89
ENDBRANCH  56  81
ENDBRANCH  30  31
ENDBRANCH  23  25
ENDBRANCH  22  23
ENDBRANCH  21  22
ENDBRANCH   1  21
TORSDOF 18
ENDMDL
