MODEL 1
REMARK VINA RESULT:     -13.9      0.000      0.000
REMARK SMILES Cc1ccc(CNc2ccc(C(=O)OCCOC(=O)c3ccc(-c4c5nc(c(-c6c(F)cc(S(=O)(=O)[O-])cc6F)c6ccc([nH]6)c(-c6c(F)cc(S(=O)(=O)[O-])cc6F)c6nc(c(-c7c(F)cc(S(=O)(=O)[O-])cc7F)c7ccc4[nH]7)C=C6)C=C5)cc3)cc2Br)cc1
REMARK SMILES IDX 15 1 14 2 12 3 13 4 11 5 8 6 9 7 87 8 10 9 86 10 88 11 7 12
REMARK SMILES IDX 6 14 5 15 1 16 2 17 3 18 90 19 4 20 89 21 16 22 17 23 18 24
REMARK SMILES IDX 19 25 20 26 21 27 85 28 22 29 84 30 23 31 24 32 25 33 78 34
REMARK SMILES IDX 26 35 83 36 77 37 79 38 27 39 82 40 76 41 75 42 28 44 62 45
REMARK SMILES IDX 41 46 61 47 42 48 45 49 60 50 80 51 43 52 44 53 59 55 81 56
REMARK SMILES IDX 46 57 29 58 30 59 39 60 31 61 32 62 38 63 40 64 33 65 34 66
REMARK SMILES IDX 35 67 36 68 37 69 63 70 64 71 73 72 65 73 66 74 72 75 74 76
REMARK SMILES IDX 67 77 68 78 69 79 70 80 71 81 47 82 48 83 57 84 49 85 50 86
REMARK SMILES IDX 56 87 58 88 51 89 52 90 53 91 54 92 55 93
REMARK H PARENT 7 13 79 43 45 54
REMARK Flexibility Score: inf
ROOT
ATOM      1  C   UNL A   1      33.000  31.148  27.051  1.00  0.00     0.275 C 
ENDROOT
BRANCH   1   2
ATOM      2  O   UNL A   1      32.173  29.972  27.166  1.00  0.00    -0.458 OA
BRANCH   2   3
ATOM      3  C   UNL A   1      31.767  29.305  25.880  1.00  0.00     0.338 C 
ATOM      4  O   UNL A   1      31.183  30.281  25.330  1.00  0.00    -0.246 OA
BRANCH   3   5
ATOM      5  C   UNL A   1      32.127  27.257  25.293  1.00  0.00     0.061 A 
ATOM      6  C   UNL A   1      32.636  24.198  24.549  1.00  0.00     0.049 A 
ATOM      7  C   UNL A   1      33.317  25.238  23.947  1.00  0.00     0.028 A 
ATOM      8  C   UNL A   1      31.721  24.579  25.508  1.00  0.00     0.042 A 
ATOM      9  C   UNL A   1      33.070  26.622  24.272  1.00  0.00     0.018 A 
ATOM     10  C   UNL A   1      31.515  25.949  25.846  1.00  0.00     0.033 A 
ATOM     11  Br  UNL A   1      30.695  23.264  26.445  1.00  0.00    -0.049 Br
BRANCH   6  12
ATOM     12  N   UNL A   1      32.890  22.862  24.265  1.00  0.00    -0.380 N 
ATOM     13  H   UNL A   1      32.377  22.402  23.562  1.00  0.00     0.160 HD
BRANCH  12  14
ATOM     14  C   UNL A   1      33.913  22.143  25.007  1.00  0.00     0.148 C 
BRANCH  14  15
ATOM     15  C   UNL A   1      33.823  20.653  24.742  1.00  0.00    -0.029 A 
ATOM     16  C   UNL A   1      33.659  16.452  23.712  1.00  0.00     0.044 C 
ATOM     17  C   UNL A   1      33.697  17.901  24.101  1.00  0.00    -0.051 A 
ATOM     18  C   UNL A   1      34.899  18.477  24.526  1.00  0.00     0.004 A 
ATOM     19  C   UNL A   1      32.552  18.701  24.033  1.00  0.00     0.004 A 
ATOM     20  C   UNL A   1      34.962  19.839  24.836  1.00  0.00     0.006 A 
ATOM     21  C   UNL A   1      32.613  20.061  24.357  1.00  0.00     0.006 A 
ENDBRANCH  14  15
ENDBRANCH  12  14
ENDBRANCH   6  12
ENDBRANCH   3   5
ENDBRANCH   2   3
ENDBRANCH   1   2
BRANCH   1  22
ATOM     22  C   UNL A   1      34.327  30.895  27.781  1.00  0.00     0.275 C 
BRANCH  22  23
ATOM     23  O   UNL A   1      35.142  32.078  27.973  1.00  0.00    -0.458 OA
BRANCH  23  24
ATOM     24  C   UNL A   1      36.392  31.899  28.482  1.00  0.00     0.338 C 
ATOM     25  O   UNL A   1      37.084  32.742  29.020  1.00  0.00    -0.246 OA
BRANCH  24  26
ATOM     26  C   UNL A   1      36.742  30.470  28.399  1.00  0.00     0.060 A 
ATOM     27  C   UNL A   1      36.776  29.571  29.963  1.00  0.00     0.016 A 
ATOM     28  C   UNL A   1      37.946  30.106  27.111  1.00  0.00     0.016 A 
ATOM     29  C   UNL A   1      38.067  28.283  30.266  1.00  0.00     0.010 A 
ATOM     30  C   UNL A   1      39.277  28.881  27.437  1.00  0.00     0.010 A 
ATOM     31  C   UNL A   1      39.319  27.979  29.011  1.00  0.00    -0.014 A 
BRANCH  31  32
ATOM     32  C   UNL A   1      40.655  27.517  29.333  1.00  0.00     0.031 A 
ATOM     33  C   UNL A   1      40.980  26.155  28.890  1.00  0.00     0.074 A 
ATOM     34  C   UNL A   1      41.577  28.441  29.695  1.00  0.00     0.049 A 
ATOM     35  N   UNL A   1      42.161  25.677  28.913  1.00  0.00    -0.248 NA
ATOM     36  C   UNL A   1      40.005  25.204  28.352  1.00  0.00     0.031 C 
ATOM     37  C   UNL A   1      43.033  28.384  29.599  1.00  0.00     0.029 A 
ATOM     38  N   UNL A   1      41.351  29.618  30.410  1.00  0.00    -0.354 N 
ATOM     39  C   UNL A   1      42.167  24.471  28.255  1.00  0.00     0.074 A 
ATOM     40  C   UNL A   1      40.796  24.225  27.899  1.00  0.00     0.031 C 
ATOM     41  C   UNL A   1      43.572  29.281  30.444  1.00  0.00     0.029 A 
ATOM     42  C   UNL A   1      42.483  29.881  31.196  1.00  0.00     0.049 A 
ATOM     43  H   UNL A   1      40.538  30.170  30.369  1.00  0.00     0.167 HD
ATOM     44  C   UNL A   1      43.387  23.906  28.069  1.00  0.00     0.037 A 
ATOM     45  C   UNL A   1      42.362  29.803  32.556  1.00  0.00     0.037 A 
ATOM     46  C   UNL A   1      44.317  24.526  29.018  1.00  0.00     0.049 A 
ATOM     47  C   UNL A   1      43.015  28.539  33.096  1.00  0.00     0.074 A 
ATOM     48  C   UNL A   1      45.243  25.549  28.923  1.00  0.00     0.029 A 
ATOM     49  N   UNL A   1      44.025  24.384  30.372  1.00  0.00    -0.354 N 
ATOM     50  N   UNL A   1      43.269  27.476  32.371  1.00  0.00    -0.248 NA
ATOM     51  C   UNL A   1      43.548  28.414  34.451  1.00  0.00     0.031 C 
ATOM     52  C   UNL A   1      45.430  26.079  30.238  1.00  0.00     0.029 A 
ATOM     53  C   UNL A   1      44.645  25.358  31.127  1.00  0.00     0.049 A 
ATOM     54  H   UNL A   1      43.450  23.676  30.744  1.00  0.00     0.167 HD
ATOM     55  C   UNL A   1      44.005  26.573  33.097  1.00  0.00     0.074 A 
ATOM     56  C   UNL A   1      44.152  27.214  34.392  1.00  0.00     0.031 C 
ATOM     57  C   UNL A   1      44.466  25.388  32.579  1.00  0.00     0.037 A 
BRANCH  44  58
ATOM     58  C   UNL A   1      43.791  22.916  27.008  1.00  0.00     0.058 A 
ATOM     59  C   UNL A   1      43.163  21.650  26.984  1.00  0.00     0.135 A 
ATOM     60  C   UNL A   1      44.847  23.066  26.083  1.00  0.00     0.135 A 
ATOM     61  F   UNL A   1      42.159  21.351  27.820  1.00  0.00    -0.206 F 
ATOM     62  C   UNL A   1      43.556  20.619  26.133  1.00  0.00     0.059 A 
ATOM     63  C   UNL A   1      45.246  22.051  25.205  1.00  0.00     0.059 A 
ATOM     64  F   UNL A   1      45.568  24.189  25.999  1.00  0.00    -0.206 F 
ATOM     65  C   UNL A   1      44.600  20.826  25.244  1.00  0.00     0.060 A 
BRANCH  65  66
ATOM     66  S   UNL A   1      45.089  19.473  24.163  1.00  0.00     0.124 S 
ATOM     67  O   UNL A   1      44.522  18.316  24.848  1.00  0.00    -0.237 OA
ATOM     68  O   UNL A   1      44.449  19.843  22.904  1.00  0.00    -0.237 OA
ATOM     69  O   UNL A   1      46.548  19.544  24.164  1.00  0.00    -0.744 OA
ENDBRANCH  65  66
ENDBRANCH  44  58
BRANCH  45  70
ATOM     70  C   UNL A   1      41.158  30.555  33.044  1.00  0.00     0.058 A 
ATOM     71  C   UNL A   1      40.036  29.761  33.385  1.00  0.00     0.135 A 
ATOM     72  C   UNL A   1      41.215  31.831  33.620  1.00  0.00     0.135 A 
ATOM     73  F   UNL A   1      39.884  28.551  32.821  1.00  0.00    -0.206 F 
ATOM     74  C   UNL A   1      39.150  30.113  34.401  1.00  0.00     0.059 A 
ATOM     75  C   UNL A   1      40.294  32.232  34.609  1.00  0.00     0.059 A 
ATOM     76  F   UNL A   1      42.256  32.641  33.368  1.00  0.00    -0.206 F 
ATOM     77  C   UNL A   1      39.317  31.331  35.047  1.00  0.00     0.060 A 
BRANCH  77  78
ATOM     78  S   UNL A   1      38.351  31.629  36.555  1.00  0.00     0.124 S 
ATOM     79  O   UNL A   1      37.310  32.534  36.080  1.00  0.00    -0.237 OA
ATOM     80  O   UNL A   1      37.896  30.290  36.910  1.00  0.00    -0.237 OA
ATOM     81  O   UNL A   1      39.327  32.214  37.470  1.00  0.00    -0.744 OA
ENDBRANCH  77  78
ENDBRANCH  45  70
BRANCH  57  82
ATOM     82  C   UNL A   1      44.885  24.164  33.389  1.00  0.00     0.058 A 
ATOM     83  C   UNL A   1      44.057  23.056  33.636  1.00  0.00     0.135 A 
ATOM     84  C   UNL A   1      46.226  24.002  33.839  1.00  0.00     0.135 A 
ATOM     85  F   UNL A   1      42.819  22.968  33.134  1.00  0.00    -0.206 F 
ATOM     86  C   UNL A   1      44.476  21.948  34.372  1.00  0.00     0.059 A 
ATOM     87  C   UNL A   1      46.693  22.862  34.485  1.00  0.00     0.059 A 
ATOM     88  F   UNL A   1      47.164  24.942  33.659  1.00  0.00    -0.206 F 
ATOM     89  C   UNL A   1      45.796  21.862  34.797  1.00  0.00     0.060 A 
BRANCH  89  90
ATOM     90  S   UNL A   1      46.326  20.429  35.742  1.00  0.00     0.124 S 
ATOM     91  O   UNL A   1      45.883  20.793  37.084  1.00  0.00    -0.237 OA
ATOM     92  O   UNL A   1      45.589  19.343  35.103  1.00  0.00    -0.237 OA
ATOM     93  O   UNL A   1      47.771  20.402  35.540  1.00  0.00    -0.744 OA
ENDBRANCH  89  90
ENDBRANCH  57  82
ENDBRANCH  31  32
ENDBRANCH  24  26
ENDBRANCH  23  24
ENDBRANCH  22  23
ENDBRANCH   1  22
TORSDOF 17
ENDMDL
MODEL 2
REMARK VINA RESULT:     -12.7      4.577     11.642
REMARK SMILES Cc1ccc(CNc2ccc(C(=O)OCCOC(=O)c3ccc(-c4c5nc(c(-c6c(F)cc(S(=O)(=O)[O-])cc6F)c6ccc([nH]6)c(-c6c(F)cc(S(=O)(=O)[O-])cc6F)c6nc(c(-c7c(F)cc(S(=O)(=O)[O-])cc7F)c7ccc4[nH]7)C=C6)C=C5)cc3)cc2Br)cc1
REMARK SMILES IDX 15 1 14 2 12 3 13 4 11 5 8 6 9 7 87 8 10 9 86 10 88 11 7 12
REMARK SMILES IDX 6 14 5 15 1 16 2 17 3 18 90 19 4 20 89 21 16 22 17 23 18 24
REMARK SMILES IDX 19 25 20 26 21 27 85 28 22 29 84 30 23 31 24 32 25 33 78 34
REMARK SMILES IDX 26 35 83 36 77 37 79 38 27 39 82 40 76 41 75 42 28 44 62 45
REMARK SMILES IDX 41 46 61 47 42 48 45 49 60 50 80 51 43 52 44 53 59 55 81 56
REMARK SMILES IDX 46 57 29 58 30 59 39 60 31 61 32 62 38 63 40 64 33 65 34 66
REMARK SMILES IDX 35 67 36 68 37 69 63 70 64 71 73 72 65 73 66 74 72 75 74 76
REMARK SMILES IDX 67 77 68 78 69 79 70 80 71 81 47 82 48 83 57 84 49 85 50 86
REMARK SMILES IDX 56 87 58 88 51 89 52 90 53 91 54 92 55 93
REMARK H PARENT 7 13 79 43 45 54
REMARK Flexibility Score: inf
ROOT
ATOM      1  C   UNL A   1      40.977  20.151  26.454  1.00  0.00     0.275 C 
ENDROOT
BRANCH   1   2
ATOM      2  O   UNL A   1      40.158  20.899  25.533  1.00  0.00    -0.458 OA
BRANCH   2   3
ATOM      3  C   UNL A   1      39.091  21.773  26.134  1.00  0.00     0.338 C 
ATOM      4  O   UNL A   1      39.649  22.030  27.238  1.00  0.00    -0.246 OA
BRANCH   3   5
ATOM      5  C   UNL A   1      37.196  22.324  25.256  1.00  0.00     0.061 A 
ATOM      6  C   UNL A   1      34.342  23.043  24.026  1.00  0.00     0.049 A 
ATOM      7  C   UNL A   1      35.519  23.179  23.316  1.00  0.00     0.028 A 
ATOM      8  C   UNL A   1      34.490  22.561  25.310  1.00  0.00     0.042 A 
ATOM      9  C   UNL A   1      36.810  22.872  23.882  1.00  0.00     0.018 A 
ATOM     10  C   UNL A   1      35.769  22.225  25.843  1.00  0.00     0.033 A 
ATOM     11  Br  UNL A   1      32.961  22.304  26.431  1.00  0.00    -0.049 Br
BRANCH   6  12
ATOM     12  N   UNL A   1      33.093  23.305  23.478  1.00  0.00    -0.380 N 
ATOM     13  H   UNL A   1      32.446  22.573  23.353  1.00  0.00     0.160 HD
BRANCH  12  14
ATOM     14  C   UNL A   1      32.739  24.660  23.090  1.00  0.00     0.148 C 
BRANCH  14  15
ATOM     15  C   UNL A   1      32.509  25.529  24.310  1.00  0.00    -0.029 A 
ATOM     16  C   UNL A   1      31.710  28.200  27.620  1.00  0.00     0.044 C 
ATOM     17  C   UNL A   1      32.012  27.255  26.495  1.00  0.00    -0.051 A 
ATOM     18  C   UNL A   1      31.057  26.310  26.104  1.00  0.00     0.004 A 
ATOM     19  C   UNL A   1      33.230  27.307  25.810  1.00  0.00     0.004 A 
ATOM     20  C   UNL A   1      31.301  25.462  25.019  1.00  0.00     0.006 A 
ATOM     21  C   UNL A   1      33.478  26.448  24.733  1.00  0.00     0.006 A 
ENDBRANCH  14  15
ENDBRANCH  12  14
ENDBRANCH   6  12
ENDBRANCH   3   5
ENDBRANCH   2   3
ENDBRANCH   1   2
BRANCH   1  22
ATOM     22  C   UNL A   1      42.444  20.559  26.259  1.00  0.00     0.275 C 
BRANCH  22  23
ATOM     23  O   UNL A   1      42.633  21.759  25.468  1.00  0.00    -0.458 OA
BRANCH  23  24
ATOM     24  C   UNL A   1      43.255  22.811  26.067  1.00  0.00     0.338 C 
ATOM     25  O   UNL A   1      44.454  22.962  26.206  1.00  0.00    -0.246 OA
BRANCH  24  26
ATOM     26  C   UNL A   1      42.246  23.826  26.418  1.00  0.00     0.060 A 
ATOM     27  C   UNL A   1      42.175  25.276  25.347  1.00  0.00     0.016 A 
ATOM     28  C   UNL A   1      41.989  23.989  28.193  1.00  0.00     0.016 A 
ATOM     29  C   UNL A   1      41.862  26.949  26.067  1.00  0.00     0.010 A 
ATOM     30  C   UNL A   1      41.755  25.660  28.923  1.00  0.00     0.010 A 
ATOM     31  C   UNL A   1      41.688  27.122  27.849  1.00  0.00    -0.014 A 
BRANCH  31  32
ATOM     32  C   UNL A   1      42.060  28.330  28.559  1.00  0.00     0.031 A 
ATOM     33  C   UNL A   1      40.962  29.262  28.843  1.00  0.00     0.074 A 
ATOM     34  C   UNL A   1      43.263  28.358  29.180  1.00  0.00     0.049 A 
ATOM     35  N   UNL A   1      41.079  30.261  29.627  1.00  0.00    -0.248 NA
ATOM     36  C   UNL A   1      39.611  29.144  28.291  1.00  0.00     0.031 C 
ATOM     37  C   UNL A   1      43.700  29.161  30.319  1.00  0.00     0.029 A 
ATOM     38  N   UNL A   1      44.440  27.733  28.762  1.00  0.00    -0.354 N 
ATOM     39  C   UNL A   1      39.838  30.810  29.839  1.00  0.00     0.074 A 
ATOM     40  C   UNL A   1      38.943  30.063  28.999  1.00  0.00     0.031 C 
ATOM     41  C   UNL A   1      45.044  29.213  30.339  1.00  0.00     0.029 A 
ATOM     42  C   UNL A   1      45.526  28.530  29.150  1.00  0.00     0.049 A 
ATOM     43  H   UNL A   1      44.497  26.878  28.278  1.00  0.00     0.167 HD
ATOM     44  C   UNL A   1      39.781  31.798  30.769  1.00  0.00     0.037 A 
ATOM     45  C   UNL A   1      46.272  29.133  28.175  1.00  0.00     0.037 A 
ATOM     46  C   UNL A   1      41.141  32.308  30.966  1.00  0.00     0.049 A 
ATOM     47  C   UNL A   1      45.972  30.623  28.092  1.00  0.00     0.074 A 
ATOM     48  C   UNL A   1      42.131  32.062  31.900  1.00  0.00     0.029 A 
ATOM     49  N   UNL A   1      41.776  32.857  29.855  1.00  0.00    -0.354 N 
ATOM     50  N   UNL A   1      44.879  31.180  28.558  1.00  0.00    -0.248 NA
ATOM     51  C   UNL A   1      46.922  31.617  27.600  1.00  0.00     0.031 C 
ATOM     52  C   UNL A   1      43.383  32.389  31.291  1.00  0.00     0.029 A 
ATOM     53  C   UNL A   1      43.147  32.860  30.007  1.00  0.00     0.049 A 
ATOM     54  H   UNL A   1      41.305  33.201  29.062  1.00  0.00     0.167 HD
ATOM     55  C   UNL A   1      44.975  32.546  28.482  1.00  0.00     0.074 A 
ATOM     56  C   UNL A   1      46.277  32.764  27.877  1.00  0.00     0.031 C 
ATOM     57  C   UNL A   1      44.003  33.396  28.949  1.00  0.00     0.037 A 
BRANCH  44  58
ATOM     58  C   UNL A   1      38.585  32.234  31.575  1.00  0.00     0.058 A 
ATOM     59  C   UNL A   1      37.934  33.439  31.228  1.00  0.00     0.135 A 
ATOM     60  C   UNL A   1      38.102  31.622  32.751  1.00  0.00     0.135 A 
ATOM     61  F   UNL A   1      38.298  34.146  30.149  1.00  0.00    -0.206 F 
ATOM     62  C   UNL A   1      36.908  33.998  31.988  1.00  0.00     0.059 A 
ATOM     63  C   UNL A   1      37.060  32.154  33.519  1.00  0.00     0.059 A 
ATOM     64  F   UNL A   1      38.631  30.494  33.238  1.00  0.00    -0.206 F 
ATOM     65  C   UNL A   1      36.474  33.350  33.134  1.00  0.00     0.060 A 
BRANCH  65  66
ATOM     66  S   UNL A   1      35.152  34.100  34.098  1.00  0.00     0.124 S 
ATOM     67  O   UNL A   1      35.234  35.499  33.690  1.00  0.00    -0.237 OA
ATOM     68  O   UNL A   1      33.980  33.368  33.627  1.00  0.00    -0.237 OA
ATOM     69  O   UNL A   1      35.540  33.830  35.480  1.00  0.00    -0.744 OA
ENDBRANCH  65  66
ENDBRANCH  44  58
BRANCH  45  70
ATOM     70  C   UNL A   1      46.652  28.160  27.096  1.00  0.00     0.058 A 
ATOM     71  C   UNL A   1      45.871  28.217  25.917  1.00  0.00     0.135 A 
ATOM     72  C   UNL A   1      47.927  27.594  26.971  1.00  0.00     0.135 A 
ATOM     73  F   UNL A   1      44.614  28.690  25.976  1.00  0.00    -0.206 F 
ATOM     74  C   UNL A   1      46.395  27.942  24.656  1.00  0.00     0.059 A 
ATOM     75  C   UNL A   1      48.458  27.253  25.710  1.00  0.00     0.059 A 
ATOM     76  F   UNL A   1      48.743  27.522  28.034  1.00  0.00    -0.206 F 
ATOM     77  C   UNL A   1      47.711  27.509  24.555  1.00  0.00     0.060 A 
BRANCH  77  78
ATOM     78  S   UNL A   1      48.459  27.452  22.902  1.00  0.00     0.124 S 
ATOM     79  O   UNL A   1      47.547  28.280  22.122  1.00  0.00    -0.237 OA
ATOM     80  O   UNL A   1      49.780  28.027  23.131  1.00  0.00    -0.237 OA
ATOM     81  O   UNL A   1      48.452  26.027  22.579  1.00  0.00    -0.744 OA
ENDBRANCH  77  78
ENDBRANCH  45  70
BRANCH  57  82
ATOM     82  C   UNL A   1      43.813  34.850  28.526  1.00  0.00     0.058 A 
ATOM     83  C   UNL A   1      43.996  35.953  29.377  1.00  0.00     0.135 A 
ATOM     84  C   UNL A   1      43.569  35.196  27.167  1.00  0.00     0.135 A 
ATOM     85  F   UNL A   1      44.400  35.813  30.646  1.00  0.00    -0.206 F 
ATOM     86  C   UNL A   1      43.825  37.272  28.953  1.00  0.00     0.059 A 
ATOM     87  C   UNL A   1      43.497  36.506  26.702  1.00  0.00     0.059 A 
ATOM     88  F   UNL A   1      43.405  34.275  26.208  1.00  0.00    -0.206 F 
ATOM     89  C   UNL A   1      43.570  37.538  27.614  1.00  0.00     0.060 A 
BRANCH  89  90
ATOM     90  S   UNL A   1      43.355  39.239  27.079  1.00  0.00     0.124 S 
ATOM     91  O   UNL A   1      42.019  39.186  26.494  1.00  0.00    -0.237 OA
ATOM     92  O   UNL A   1      43.470  39.978  28.332  1.00  0.00    -0.237 OA
ATOM     93  O   UNL A   1      44.449  39.442  26.136  1.00  0.00    -0.744 OA
ENDBRANCH  89  90
ENDBRANCH  57  82
ENDBRANCH  31  32
ENDBRANCH  24  26
ENDBRANCH  23  24
ENDBRANCH  22  23
ENDBRANCH   1  22
TORSDOF 17
ENDMDL
MODEL 3
REMARK VINA RESULT:     -12.6      1.611      2.089
REMARK SMILES Cc1ccc(CNc2ccc(C(=O)OCCOC(=O)c3ccc(-c4c5nc(c(-c6c(F)cc(S(=O)(=O)[O-])cc6F)c6ccc([nH]6)c(-c6c(F)cc(S(=O)(=O)[O-])cc6F)c6nc(c(-c7c(F)cc(S(=O)(=O)[O-])cc7F)c7ccc4[nH]7)C=C6)C=C5)cc3)cc2Br)cc1
REMARK SMILES IDX 15 1 14 2 12 3 13 4 11 5 8 6 9 7 87 8 10 9 86 10 88 11 7 12
REMARK SMILES IDX 6 14 5 15 1 16 2 17 3 18 90 19 4 20 89 21 16 22 17 23 18 24
REMARK SMILES IDX 19 25 20 26 21 27 85 28 22 29 84 30 23 31 24 32 25 33 78 34
REMARK SMILES IDX 26 35 83 36 77 37 79 38 27 39 82 40 76 41 75 42 28 44 62 45
REMARK SMILES IDX 41 46 61 47 42 48 45 49 60 50 80 51 43 52 44 53 59 55 81 56
REMARK SMILES IDX 46 57 29 58 30 59 39 60 31 61 32 62 38 63 40 64 33 65 34 66
REMARK SMILES IDX 35 67 36 68 37 69 63 70 64 71 73 72 65 73 66 74 72 75 74 76
REMARK SMILES IDX 67 77 68 78 69 79 70 80 71 81 47 82 48 83 57 84 49 85 50 86
REMARK SMILES IDX 56 87 58 88 51 89 52 90 53 91 54 92 55 93
REMARK H PARENT 7 13 79 43 45 54
REMARK Flexibility Score: inf
ROOT
ATOM      1  C   UNL A   1      33.595  32.287  27.426  1.00  0.00     0.275 C 
ENDROOT
BRANCH   1   2
ATOM      2  O   UNL A   1      33.597  30.876  27.124  1.00  0.00    -0.458 OA
BRANCH   2   3
ATOM      3  C   UNL A   1      32.353  30.320  26.487  1.00  0.00     0.338 C 
ATOM      4  O   UNL A   1      31.649  31.370  26.485  1.00  0.00    -0.246 OA
BRANCH   3   5
ATOM      5  C   UNL A   1      32.007  28.290  25.836  1.00  0.00     0.061 A 
ATOM      6  C   UNL A   1      31.505  25.332  24.752  1.00  0.00     0.049 A 
ATOM      7  C   UNL A   1      30.910  25.820  25.898  1.00  0.00     0.028 A 
ATOM      8  C   UNL A   1      32.329  26.225  24.099  1.00  0.00     0.042 A 
ATOM      9  C   UNL A   1      31.155  27.151  26.397  1.00  0.00     0.018 A 
ATOM     10  C   UNL A   1      32.532  27.551  24.582  1.00  0.00     0.033 A 
ATOM     11  Br  UNL A   1      33.228  25.716  22.489  1.00  0.00    -0.049 Br
BRANCH   6  12
ATOM     12  N   UNL A   1      31.250  24.063  24.247  1.00  0.00    -0.380 N 
ATOM     13  H   UNL A   1      31.068  23.942  23.287  1.00  0.00     0.160 HD
BRANCH  12  14
ATOM     14  C   UNL A   1      31.252  22.913  25.136  1.00  0.00     0.148 C 
BRANCH  14  15
ATOM     15  C   UNL A   1      32.615  22.252  25.160  1.00  0.00    -0.029 A 
ATOM     16  C   UNL A   1      36.550  20.459  24.951  1.00  0.00     0.044 C 
ATOM     17  C   UNL A   1      35.179  21.061  25.056  1.00  0.00    -0.051 A 
ATOM     18  C   UNL A   1      35.033  22.403  25.420  1.00  0.00     0.004 A 
ATOM     19  C   UNL A   1      34.033  20.308  24.778  1.00  0.00     0.004 A 
ATOM     20  C   UNL A   1      33.766  22.993  25.464  1.00  0.00     0.006 A 
ATOM     21  C   UNL A   1      32.764  20.896  24.837  1.00  0.00     0.006 A 
ENDBRANCH  14  15
ENDBRANCH  12  14
ENDBRANCH   6  12
ENDBRANCH   3   5
ENDBRANCH   2   3
ENDBRANCH   1   2
BRANCH   1  22
ATOM     22  C   UNL A   1      33.770  32.470  28.940  1.00  0.00     0.275 C 
BRANCH  22  23
ATOM     23  O   UNL A   1      34.671  33.542  29.315  1.00  0.00    -0.458 OA
BRANCH  23  24
ATOM     24  C   UNL A   1      35.732  33.220  30.103  1.00  0.00     0.338 C 
ATOM     25  O   UNL A   1      36.227  33.911  30.974  1.00  0.00    -0.246 OA
BRANCH  24  26
ATOM     26  C   UNL A   1      36.125  31.826  29.829  1.00  0.00     0.060 A 
ATOM     27  C   UNL A   1      36.187  30.725  31.257  1.00  0.00     0.016 A 
ATOM     28  C   UNL A   1      37.338  31.676  28.507  1.00  0.00     0.016 A 
ATOM     29  C   UNL A   1      37.516  29.447  31.388  1.00  0.00     0.010 A 
ATOM     30  C   UNL A   1      38.706  30.458  28.669  1.00  0.00     0.010 A 
ATOM     31  C   UNL A   1      38.776  29.353  30.108  1.00  0.00    -0.014 A 
BRANCH  31  32
ATOM     32  C   UNL A   1      40.125  28.891  30.369  1.00  0.00     0.031 A 
ATOM     33  C   UNL A   1      40.485  27.605  29.760  1.00  0.00     0.074 A 
ATOM     34  C   UNL A   1      41.023  29.789  30.842  1.00  0.00     0.049 A 
ATOM     35  N   UNL A   1      41.679  27.160  29.722  1.00  0.00    -0.248 NA
ATOM     36  C   UNL A   1      39.535  26.702  29.108  1.00  0.00     0.031 C 
ATOM     37  C   UNL A   1      42.480  29.784  30.739  1.00  0.00     0.029 A 
ATOM     38  N   UNL A   1      40.768  30.861  31.699  1.00  0.00    -0.354 N 
ATOM     39  C   UNL A   1      41.716  26.047  28.919  1.00  0.00     0.074 A 
ATOM     40  C   UNL A   1      40.351  25.809  28.536  1.00  0.00     0.031 C 
ATOM     41  C   UNL A   1      42.997  30.584  31.690  1.00  0.00     0.029 A 
ATOM     42  C   UNL A   1      41.895  31.055  32.511  1.00  0.00     0.049 A 
ATOM     43  H   UNL A   1      39.939  31.391  31.728  1.00  0.00     0.167 HD
ATOM     44  C   UNL A   1      42.950  25.543  28.664  1.00  0.00     0.037 A 
ATOM     45  C   UNL A   1      41.782  30.805  33.851  1.00  0.00     0.037 A 
ATOM     46  C   UNL A   1      43.867  26.065  29.682  1.00  0.00     0.049 A 
ATOM     47  C   UNL A   1      42.471  29.503  34.229  1.00  0.00     0.074 A 
ATOM     48  C   UNL A   1      44.764  27.117  29.715  1.00  0.00     0.029 A 
ATOM     49  N   UNL A   1      43.584  25.748  31.008  1.00  0.00    -0.354 N 
ATOM     50  N   UNL A   1      42.752  28.545  33.377  1.00  0.00    -0.248 NA
ATOM     51  C   UNL A   1      43.012  29.225  35.557  1.00  0.00     0.031 C 
ATOM     52  C   UNL A   1      44.941  27.484  31.085  1.00  0.00     0.029 A 
ATOM     53  C   UNL A   1      44.179  26.638  31.878  1.00  0.00     0.049 A 
ATOM     54  H   UNL A   1      43.029  24.984  31.289  1.00  0.00     0.167 HD
ATOM     55  C   UNL A   1      43.514  27.579  33.985  1.00  0.00     0.074 A 
ATOM     56  C   UNL A   1      43.649  28.058  35.349  1.00  0.00     0.031 C 
ATOM     57  C   UNL A   1      44.006  26.482  33.323  1.00  0.00     0.037 A 
BRANCH  44  58
ATOM     58  C   UNL A   1      43.377  24.704  27.488  1.00  0.00     0.058 A 
ATOM     59  C   UNL A   1      43.014  23.339  27.458  1.00  0.00     0.135 A 
ATOM     60  C   UNL A   1      44.231  25.108  26.439  1.00  0.00     0.135 A 
ATOM     61  F   UNL A   1      42.226  22.804  28.402  1.00  0.00    -0.206 F 
ATOM     62  C   UNL A   1      43.471  22.449  26.488  1.00  0.00     0.059 A 
ATOM     63  C   UNL A   1      44.685  24.236  25.443  1.00  0.00     0.059 A 
ATOM     64  F   UNL A   1      44.695  26.358  26.338  1.00  0.00    -0.206 F 
ATOM     65  C   UNL A   1      44.307  22.904  25.481  1.00  0.00     0.060 A 
BRANCH  65  66
ATOM     66  S   UNL A   1      44.885  21.729  24.246  1.00  0.00     0.124 S 
ATOM     67  O   UNL A   1      46.324  21.715  24.490  1.00  0.00    -0.237 OA
ATOM     68  O   UNL A   1      44.164  20.516  24.620  1.00  0.00    -0.237 OA
ATOM     69  O   UNL A   1      44.474  22.332  22.981  1.00  0.00    -0.744 OA
ENDBRANCH  65  66
ENDBRANCH  44  58
BRANCH  45  70
ATOM     70  C   UNL A   1      40.559  31.457  34.429  1.00  0.00     0.058 A 
ATOM     71  C   UNL A   1      39.465  30.594  34.681  1.00  0.00     0.135 A 
ATOM     72  C   UNL A   1      40.582  32.659  35.149  1.00  0.00     0.135 A 
ATOM     73  F   UNL A   1      39.346  29.454  33.980  1.00  0.00    -0.206 F 
ATOM     74  C   UNL A   1      38.578  30.797  35.736  1.00  0.00     0.059 A 
ATOM     75  C   UNL A   1      39.658  32.913  36.183  1.00  0.00     0.059 A 
ATOM     76  F   UNL A   1      41.595  33.525  34.988  1.00  0.00    -0.206 F 
ATOM     77  C   UNL A   1      38.713  31.937  36.518  1.00  0.00     0.060 A 
BRANCH  77  78
ATOM     78  S   UNL A   1      37.751  32.027  38.055  1.00  0.00     0.124 S 
ATOM     79  O   UNL A   1      36.779  33.070  37.750  1.00  0.00    -0.237 OA
ATOM     80  O   UNL A   1      37.203  30.680  38.166  1.00  0.00    -0.237 OA
ATOM     81  O   UNL A   1      38.754  32.371  39.060  1.00  0.00    -0.744 OA
ENDBRANCH  77  78
ENDBRANCH  45  70
BRANCH  57  82
ATOM     82  C   UNL A   1      44.461  25.179  33.974  1.00  0.00     0.058 A 
ATOM     83  C   UNL A   1      43.600  24.266  34.606  1.00  0.00     0.135 A 
ATOM     84  C   UNL A   1      45.805  24.726  33.856  1.00  0.00     0.135 A 
ATOM     85  F   UNL A   1      42.275  24.454  34.652  1.00  0.00    -0.206 F 
ATOM     86  C   UNL A   1      44.049  23.077  35.183  1.00  0.00     0.059 A 
ATOM     87  C   UNL A   1      46.253  23.498  34.332  1.00  0.00     0.059 A 
ATOM     88  F   UNL A   1      46.758  25.449  33.251  1.00  0.00    -0.206 F 
ATOM     89  C   UNL A   1      45.380  22.704  35.045  1.00  0.00     0.060 A 
BRANCH  89  90
ATOM     90  S   UNL A   1      45.946  21.170  35.787  1.00  0.00     0.124 S 
ATOM     91  O   UNL A   1      45.763  21.456  37.206  1.00  0.00    -0.237 OA
ATOM     92  O   UNL A   1      45.030  20.188  35.215  1.00  0.00    -0.237 OA
ATOM     93  O   UNL A   1      47.330  21.063  35.338  1.00  0.00    -0.744 OA
ENDBRANCH  89  90
ENDBRANCH  57  82
ENDBRANCH  31  32
ENDBRANCH  24  26
ENDBRANCH  23  24
ENDBRANCH  22  23
ENDBRANCH   1  22
TORSDOF 17
ENDMDL
