MODEL 1
REMARK VINA RESULT:      -9.5      0.000      0.000
REMARK SMILES COc1ccc2cc([C@@H](C)C(=O)OCCOC(=O)c3ccc(-c4c5nc(c(-c6c(F)cc(S(=O)(=O)[O-])cc6F)c6ccc([nH]6)c(-c6c(F)cc(S(=O)(=O)[O-])cc6F)c6nc(c(-c7c(F)cc(S(=O)(=O)[O-])cc7F)c7ccc4[nH]7)C=C6)C=C5)cc3)ccc2c1
REMARK SMILES IDX 15 1 14 2 13 3 11 4 12 5 9 6 10 7 8 8 3 9 4 10 88 11 5 12
REMARK SMILES IDX 87 13 6 14 86 15 7 16 85 17 2 18 1 19 16 20 17 21 18 22
REMARK SMILES IDX 19 23 20 24 84 25 21 26 83 27 22 28 23 29 24 30 77 31 25 32
REMARK SMILES IDX 82 33 76 34 78 35 26 36 81 37 75 38 74 39 27 41 61 42 40 43
REMARK SMILES IDX 60 44 41 45 44 46 59 47 79 48 42 49 43 50 58 52 80 53 45 54
REMARK SMILES IDX 28 55 29 56 38 57 30 58 31 59 37 60 39 61 32 62 33 63 34 64
REMARK SMILES IDX 35 65 36 66 62 67 63 68 72 69 64 70 65 71 71 72 73 73 66 74
REMARK SMILES IDX 67 75 68 76 69 77 70 78 46 79 47 80 56 81 48 82 49 83 55 84
REMARK SMILES IDX 57 85 50 86 51 87 52 88 53 89 54 90
REMARK H PARENT 78 40 44 51
REMARK Flexibility Score: inf
ROOT
ATOM      1  C   UNL A   1      43.195  24.187  25.046  1.00  0.00     0.275 C 
ENDROOT
BRANCH   1   2
ATOM      2  C   UNL A   1      44.641  24.684  25.038  1.00  0.00     0.274 C 
BRANCH   2   3
ATOM      3  O   UNL A   1      45.503  23.803  25.782  1.00  0.00    -0.462 OA
BRANCH   3   4
ATOM      4  C   UNL A   1      46.299  24.375  26.722  1.00  0.00     0.313 C 
ATOM      5  O   UNL A   1      47.477  24.078  26.899  1.00  0.00    -0.252 OA
BRANCH   4   6
ATOM      6  C   UNL A   1      45.583  25.394  27.602  1.00  0.00     0.126 C 
ATOM      7  C   UNL A   1      46.358  26.711  27.601  1.00  0.00     0.025 C 
BRANCH   6   8
ATOM      8  C   UNL A   1      45.228  24.934  29.008  1.00  0.00    -0.033 A 
ATOM      9  C   UNL A   1      44.797  24.206  34.023  1.00  0.00     0.119 A 
ATOM     10  C   UNL A   1      45.856  25.096  33.850  1.00  0.00     0.047 A 
ATOM     11  C   UNL A   1      44.146  23.679  32.907  1.00  0.00     0.055 A 
ATOM     12  C   UNL A   1      46.229  25.494  32.563  1.00  0.00     0.012 A 
ATOM     13  C   UNL A   1      44.503  24.079  31.610  1.00  0.00    -0.015 A 
ATOM     14  C   UNL A   1      45.551  25.006  31.435  1.00  0.00    -0.018 A 
ATOM     15  C   UNL A   1      43.838  23.581  30.481  1.00  0.00     0.009 A 
ATOM     16  C   UNL A   1      45.899  25.422  30.140  1.00  0.00     0.013 A 
ATOM     17  C   UNL A   1      44.194  24.006  29.198  1.00  0.00     0.005 A 
BRANCH   9  18
ATOM     18  O   UNL A   1      44.352  23.762  35.239  1.00  0.00    -0.497 OA
ATOM     19  C   UNL A   1      44.928  22.531  35.661  1.00  0.00     0.278 C 
ENDBRANCH   9  18
ENDBRANCH   6   8
ENDBRANCH   4   6
ENDBRANCH   3   4
ENDBRANCH   2   3
ENDBRANCH   1   2
BRANCH   1  20
ATOM     20  O   UNL A   1      42.290  25.221  25.470  1.00  0.00    -0.458 OA
BRANCH  20  21
ATOM     21  C   UNL A   1      41.336  24.824  26.345  1.00  0.00     0.338 C 
ATOM     22  O   UNL A   1      40.648  23.822  26.287  1.00  0.00    -0.246 OA
BRANCH  21  23
ATOM     23  C   UNL A   1      41.312  25.745  27.490  1.00  0.00     0.060 A 
ATOM     24  C   UNL A   1      40.273  25.621  28.415  1.00  0.00     0.016 A 
ATOM     25  C   UNL A   1      42.251  26.771  27.606  1.00  0.00     0.016 A 
ATOM     26  C   UNL A   1      40.157  26.532  29.459  1.00  0.00     0.010 A 
ATOM     27  C   UNL A   1      42.138  27.682  28.661  1.00  0.00     0.010 A 
ATOM     28  C   UNL A   1      41.083  27.575  29.586  1.00  0.00    -0.014 A 
BRANCH  28  29
ATOM     29  C   UNL A   1      40.924  28.573  30.669  1.00  0.00     0.031 A 
ATOM     30  C   UNL A   1      41.786  28.488  31.897  1.00  0.00     0.074 A 
ATOM     31  C   UNL A   1      40.010  29.552  30.544  1.00  0.00     0.049 A 
ATOM     32  N   UNL A   1      41.744  29.211  32.986  1.00  0.00    -0.248 NA
ATOM     33  C   UNL A   1      42.830  27.451  31.903  1.00  0.00     0.031 C 
ATOM     34  C   UNL A   1      39.134  29.747  29.388  1.00  0.00     0.029 A 
ATOM     35  N   UNL A   1      39.658  30.563  31.404  1.00  0.00    -0.354 N 
ATOM     36  C   UNL A   1      42.732  28.702  33.818  1.00  0.00     0.074 A 
ATOM     37  C   UNL A   1      43.357  27.604  33.110  1.00  0.00     0.031 C 
ATOM     38  C   UNL A   1      38.335  30.803  29.616  1.00  0.00     0.029 A 
ATOM     39  C   UNL A   1      38.617  31.335  30.945  1.00  0.00     0.049 A 
ATOM     40  H   UNL A   1      40.107  30.718  32.266  1.00  0.00     0.167 HD
ATOM     41  C   UNL A   1      43.083  29.114  35.059  1.00  0.00     0.037 A 
ATOM     42  C   UNL A   1      37.946  32.338  31.545  1.00  0.00     0.037 A 
ATOM     43  C   UNL A   1      42.477  30.224  35.745  1.00  0.00     0.049 A 
ATOM     44  C   UNL A   1      38.347  32.766  32.930  1.00  0.00     0.074 A 
ATOM     45  C   UNL A   1      42.793  30.745  36.988  1.00  0.00     0.029 A 
ATOM     46  N   UNL A   1      41.429  30.984  35.248  1.00  0.00    -0.354 N 
ATOM     47  N   UNL A   1      39.296  32.286  33.697  1.00  0.00    -0.248 NA
ATOM     48  C   UNL A   1      37.585  33.869  33.532  1.00  0.00     0.031 C 
ATOM     49  C   UNL A   1      41.913  31.800  37.257  1.00  0.00     0.029 A 
ATOM     50  C   UNL A   1      41.073  31.958  36.166  1.00  0.00     0.049 A 
ATOM     51  H   UNL A   1      41.001  30.852  34.371  1.00  0.00     0.167 HD
ATOM     52  C   UNL A   1      39.253  33.034  34.867  1.00  0.00     0.074 A 
ATOM     53  C   UNL A   1      38.195  34.010  34.701  1.00  0.00     0.031 C 
ATOM     54  C   UNL A   1      40.018  32.921  35.981  1.00  0.00     0.037 A 
BRANCH  41  55
ATOM     55  C   UNL A   1      44.158  28.344  35.772  1.00  0.00     0.058 A 
ATOM     56  C   UNL A   1      43.859  27.260  36.611  1.00  0.00     0.135 A 
ATOM     57  C   UNL A   1      45.510  28.669  35.574  1.00  0.00     0.135 A 
ATOM     58  F   UNL A   1      42.582  26.919  36.845  1.00  0.00    -0.206 F 
ATOM     59  C   UNL A   1      44.864  26.531  37.239  1.00  0.00     0.059 A 
ATOM     60  C   UNL A   1      46.532  27.943  36.178  1.00  0.00     0.059 A 
ATOM     61  F   UNL A   1      45.848  29.702  34.786  1.00  0.00    -0.206 F 
ATOM     62  C   UNL A   1      46.198  26.882  37.018  1.00  0.00     0.060 A 
BRANCH  62  63
ATOM     63  S   UNL A   1      47.493  25.917  37.825  1.00  0.00     0.124 S 
ATOM     64  O   UNL A   1      47.024  24.554  37.599  1.00  0.00    -0.237 OA
ATOM     65  O   UNL A   1      48.687  26.307  37.081  1.00  0.00    -0.237 OA
ATOM     66  O   UNL A   1      47.445  26.376  39.210  1.00  0.00    -0.744 OA
ENDBRANCH  62  63
ENDBRANCH  41  55
BRANCH  42  67
ATOM     67  C   UNL A   1      36.802  32.981  30.848  1.00  0.00     0.058 A 
ATOM     68  C   UNL A   1      35.479  32.722  31.231  1.00  0.00     0.135 A 
ATOM     69  C   UNL A   1      37.015  33.876  29.788  1.00  0.00     0.135 A 
ATOM     70  F   UNL A   1      35.226  31.867  32.233  1.00  0.00    -0.206 F 
ATOM     71  C   UNL A   1      34.404  33.317  30.579  1.00  0.00     0.059 A 
ATOM     72  C   UNL A   1      35.959  34.501  29.135  1.00  0.00     0.059 A 
ATOM     73  F   UNL A   1      38.266  34.165  29.393  1.00  0.00    -0.206 F 
ATOM     74  C   UNL A   1      34.655  34.205  29.530  1.00  0.00     0.060 A 
BRANCH  74  75
ATOM     75  S   UNL A   1      33.259  35.013  28.716  1.00  0.00     0.124 S 
ATOM     76  O   UNL A   1      32.406  35.337  29.855  1.00  0.00    -0.237 OA
ATOM     77  O   UNL A   1      33.896  36.146  28.054  1.00  0.00    -0.237 OA
ATOM     78  O   UNL A   1      32.752  33.978  27.820  1.00  0.00    -0.744 OA
ENDBRANCH  74  75
ENDBRANCH  42  67
BRANCH  54  79
ATOM     79  C   UNL A   1      39.750  33.889  37.098  1.00  0.00     0.058 A 
ATOM     80  C   UNL A   1      38.960  33.533  38.201  1.00  0.00     0.135 A 
ATOM     81  C   UNL A   1      40.329  35.167  37.087  1.00  0.00     0.135 A 
ATOM     82  F   UNL A   1      38.378  32.324  38.253  1.00  0.00    -0.206 F 
ATOM     83  C   UNL A   1      38.736  34.420  39.249  1.00  0.00     0.059 A 
ATOM     84  C   UNL A   1      40.136  36.063  38.134  1.00  0.00     0.059 A 
ATOM     85  F   UNL A   1      41.102  35.552  36.058  1.00  0.00    -0.206 F 
ATOM     86  C   UNL A   1      39.328  35.684  39.206  1.00  0.00     0.060 A 
BRANCH  86  87
ATOM     87  S   UNL A   1      39.061  36.818  40.585  1.00  0.00     0.124 S 
ATOM     88  O   UNL A   1      40.420  36.995  41.086  1.00  0.00    -0.237 OA
ATOM     89  O   UNL A   1      38.471  37.982  39.929  1.00  0.00    -0.237 OA
ATOM     90  O   UNL A   1      38.158  36.077  41.461  1.00  0.00    -0.744 OA
ENDBRANCH  86  87
ENDBRANCH  54  79
ENDBRANCH  28  29
ENDBRANCH  21  23
ENDBRANCH  20  21
ENDBRANCH   1  20
TORSDOF 16
ENDMDL
MODEL 2
REMARK VINA RESULT:      -9.4      7.173     14.474
REMARK SMILES COc1ccc2cc([C@@H](C)C(=O)OCCOC(=O)c3ccc(-c4c5nc(c(-c6c(F)cc(S(=O)(=O)[O-])cc6F)c6ccc([nH]6)c(-c6c(F)cc(S(=O)(=O)[O-])cc6F)c6nc(c(-c7c(F)cc(S(=O)(=O)[O-])cc7F)c7ccc4[nH]7)C=C6)C=C5)cc3)ccc2c1
REMARK SMILES IDX 15 1 14 2 13 3 11 4 12 5 9 6 10 7 8 8 3 9 4 10 88 11 5 12
REMARK SMILES IDX 87 13 6 14 86 15 7 16 85 17 2 18 1 19 16 20 17 21 18 22
REMARK SMILES IDX 19 23 20 24 84 25 21 26 83 27 22 28 23 29 24 30 77 31 25 32
REMARK SMILES IDX 82 33 76 34 78 35 26 36 81 37 75 38 74 39 27 41 61 42 40 43
REMARK SMILES IDX 60 44 41 45 44 46 59 47 79 48 42 49 43 50 58 52 80 53 45 54
REMARK SMILES IDX 28 55 29 56 38 57 30 58 31 59 37 60 39 61 32 62 33 63 34 64
REMARK SMILES IDX 35 65 36 66 62 67 63 68 72 69 64 70 65 71 71 72 73 73 66 74
REMARK SMILES IDX 67 75 68 76 69 77 70 78 46 79 47 80 56 81 48 82 49 83 55 84
REMARK SMILES IDX 57 85 50 86 51 87 52 88 53 89 54 90
REMARK H PARENT 78 40 44 51
REMARK Flexibility Score: inf
ROOT
ATOM      1  C   UNL A   1      34.515  30.924  27.691  1.00  0.00     0.275 C 
ENDROOT
BRANCH   1   2
ATOM      2  C   UNL A   1      33.162  30.319  27.317  1.00  0.00     0.274 C 
BRANCH   2   3
ATOM      3  O   UNL A   1      33.306  28.968  26.838  1.00  0.00    -0.462 OA
BRANCH   3   4
ATOM      4  C   UNL A   1      32.175  28.219  26.772  1.00  0.00     0.313 C 
ATOM      5  O   UNL A   1      31.445  27.991  27.732  1.00  0.00    -0.252 OA
BRANCH   4   6
ATOM      6  C   UNL A   1      31.911  27.616  25.397  1.00  0.00     0.126 C 
ATOM      7  C   UNL A   1      33.234  27.209  24.750  1.00  0.00     0.025 C 
BRANCH   6   8
ATOM      8  C   UNL A   1      31.038  28.438  24.460  1.00  0.00    -0.033 A 
ATOM      9  C   UNL A   1      28.351  32.038  22.077  1.00  0.00     0.119 A 
ATOM     10  C   UNL A   1      28.748  32.592  23.292  1.00  0.00     0.047 A 
ATOM     11  C   UNL A   1      28.673  30.712  21.781  1.00  0.00     0.055 A 
ATOM     12  C   UNL A   1      29.510  31.836  24.187  1.00  0.00     0.012 A 
ATOM     13  C   UNL A   1      29.447  29.946  22.666  1.00  0.00    -0.015 A 
ATOM     14  C   UNL A   1      29.880  30.518  23.881  1.00  0.00    -0.018 A 
ATOM     15  C   UNL A   1      29.805  28.624  22.369  1.00  0.00     0.009 A 
ATOM     16  C   UNL A   1      30.669  29.759  24.760  1.00  0.00     0.013 A 
ATOM     17  C   UNL A   1      30.592  27.882  23.253  1.00  0.00     0.005 A 
BRANCH   9  18
ATOM     18  O   UNL A   1      27.610  32.697  21.133  1.00  0.00    -0.497 OA
ATOM     19  C   UNL A   1      27.922  32.343  19.790  1.00  0.00     0.278 C 
ENDBRANCH   9  18
ENDBRANCH   6   8
ENDBRANCH   4   6
ENDBRANCH   3   4
ENDBRANCH   2   3
ENDBRANCH   1   2
BRANCH   1  20
ATOM     20  O   UNL A   1      35.329  29.979  28.407  1.00  0.00    -0.458 OA
BRANCH  20  21
ATOM     21  C   UNL A   1      36.225  30.526  29.262  1.00  0.00     0.338 C 
ATOM     22  O   UNL A   1      35.999  31.280  30.190  1.00  0.00    -0.246 OA
BRANCH  21  23
ATOM     23  C   UNL A   1      37.560  29.979  28.983  1.00  0.00     0.060 A 
ATOM     24  C   UNL A   1      38.433  29.790  30.057  1.00  0.00     0.016 A 
ATOM     25  C   UNL A   1      37.977  29.736  27.674  1.00  0.00     0.016 A 
ATOM     26  C   UNL A   1      39.738  29.367  29.829  1.00  0.00     0.010 A 
ATOM     27  C   UNL A   1      39.287  29.301  27.446  1.00  0.00     0.010 A 
ATOM     28  C   UNL A   1      40.178  29.127  28.521  1.00  0.00    -0.014 A 
BRANCH  28  29
ATOM     29  C   UNL A   1      41.584  28.727  28.280  1.00  0.00     0.031 A 
ATOM     30  C   UNL A   1      42.669  29.766  28.288  1.00  0.00     0.074 A 
ATOM     31  C   UNL A   1      41.880  27.433  28.060  1.00  0.00     0.049 A 
ATOM     32  N   UNL A   1      43.942  29.631  28.019  1.00  0.00    -0.248 NA
ATOM     33  C   UNL A   1      42.270  31.137  28.643  1.00  0.00     0.031 C 
ATOM     34  C   UNL A   1      40.913  26.335  28.051  1.00  0.00     0.029 A 
ATOM     35  N   UNL A   1      43.080  26.823  27.789  1.00  0.00    -0.354 N 
ATOM     36  C   UNL A   1      44.492  30.900  28.142  1.00  0.00     0.074 A 
ATOM     37  C   UNL A   1      43.414  31.795  28.507  1.00  0.00     0.031 C 
ATOM     38  C   UNL A   1      41.554  25.187  27.774  1.00  0.00     0.029 A 
ATOM     39  C   UNL A   1      42.968  25.474  27.551  1.00  0.00     0.049 A 
ATOM     40  H   UNL A   1      43.937  27.306  27.767  1.00  0.00     0.167 HD
ATOM     41  C   UNL A   1      45.779  31.282  27.964  1.00  0.00     0.037 A 
ATOM     42  C   UNL A   1      43.896  24.577  27.164  1.00  0.00     0.037 A 
ATOM     43  C   UNL A   1      46.851  30.382  27.628  1.00  0.00     0.049 A 
ATOM     44  C   UNL A   1      45.316  25.030  26.960  1.00  0.00     0.074 A 
ATOM     45  C   UNL A   1      48.196  30.666  27.469  1.00  0.00     0.029 A 
ATOM     46  N   UNL A   1      46.700  29.022  27.399  1.00  0.00    -0.354 N 
ATOM     47  N   UNL A   1      45.824  26.231  27.097  1.00  0.00    -0.248 NA
ATOM     48  C   UNL A   1      46.287  24.008  26.545  1.00  0.00     0.031 C 
ATOM     49  C   UNL A   1      48.854  29.484  27.110  1.00  0.00     0.029 A 
ATOM     50  C   UNL A   1      47.923  28.457  27.081  1.00  0.00     0.049 A 
ATOM     51  H   UNL A   1      45.848  28.531  27.455  1.00  0.00     0.167 HD
ATOM     52  C   UNL A   1      47.175  26.108  26.796  1.00  0.00     0.074 A 
ATOM     53  C   UNL A   1      47.409  24.712  26.486  1.00  0.00     0.031 C 
ATOM     54  C   UNL A   1      48.136  27.065  26.776  1.00  0.00     0.037 A 
BRANCH  41  55
ATOM     55  C   UNL A   1      46.100  32.742  28.102  1.00  0.00     0.058 A 
ATOM     56  C   UNL A   1      46.613  33.278  29.293  1.00  0.00     0.135 A 
ATOM     57  C   UNL A   1      45.935  33.609  27.009  1.00  0.00     0.135 A 
ATOM     58  F   UNL A   1      46.774  32.495  30.372  1.00  0.00    -0.206 F 
ATOM     59  C   UNL A   1      46.940  34.625  29.400  1.00  0.00     0.059 A 
ATOM     60  C   UNL A   1      46.273  34.956  27.088  1.00  0.00     0.059 A 
ATOM     61  F   UNL A   1      45.443  33.147  25.849  1.00  0.00    -0.206 F 
ATOM     62  C   UNL A   1      46.765  35.458  28.292  1.00  0.00     0.060 A 
BRANCH  62  63
ATOM     63  S   UNL A   1      47.210  37.201  28.438  1.00  0.00     0.124 S 
ATOM     64  O   UNL A   1      46.189  37.832  27.607  1.00  0.00    -0.237 OA
ATOM     65  O   UNL A   1      47.093  37.438  29.873  1.00  0.00    -0.237 OA
ATOM     66  O   UNL A   1      48.569  37.251  27.907  1.00  0.00    -0.744 OA
ENDBRANCH  62  63
ENDBRANCH  41  55
BRANCH  42  67
ATOM     67  C   UNL A   1      43.501  23.167  26.912  1.00  0.00     0.058 A 
ATOM     68  C   UNL A   1      43.198  22.297  27.967  1.00  0.00     0.135 A 
ATOM     69  C   UNL A   1      43.412  22.668  25.603  1.00  0.00     0.135 A 
ATOM     70  F   UNL A   1      43.276  22.727  29.235  1.00  0.00    -0.206 F 
ATOM     71  C   UNL A   1      42.833  20.974  27.737  1.00  0.00     0.059 A 
ATOM     72  C   UNL A   1      43.029  21.356  25.345  1.00  0.00     0.059 A 
ATOM     73  F   UNL A   1      43.682  23.467  24.558  1.00  0.00    -0.206 F 
ATOM     74  C   UNL A   1      42.753  20.513  26.421  1.00  0.00     0.060 A 
BRANCH  74  75
ATOM     75  S   UNL A   1      42.233  18.808  26.122  1.00  0.00     0.124 S 
ATOM     76  O   UNL A   1      42.452  18.204  27.432  1.00  0.00    -0.237 OA
ATOM     77  O   UNL A   1      40.840  18.973  25.720  1.00  0.00    -0.237 OA
ATOM     78  O   UNL A   1      43.134  18.367  25.062  1.00  0.00    -0.744 OA
ENDBRANCH  74  75
ENDBRANCH  42  67
BRANCH  54  79
ATOM     79  C   UNL A   1      49.529  26.631  26.424  1.00  0.00     0.058 A 
ATOM     80  C   UNL A   1      50.354  25.988  27.359  1.00  0.00     0.135 A 
ATOM     81  C   UNL A   1      50.027  26.818  25.125  1.00  0.00     0.135 A 
ATOM     82  F   UNL A   1      49.925  25.794  28.616  1.00  0.00    -0.206 F 
ATOM     83  C   UNL A   1      51.635  25.561  27.024  1.00  0.00     0.059 A 
ATOM     84  C   UNL A   1      51.297  26.381  24.762  1.00  0.00     0.059 A 
ATOM     85  F   UNL A   1      49.273  27.420  24.191  1.00  0.00    -0.206 F 
ATOM     86  C   UNL A   1      52.098  25.764  25.722  1.00  0.00     0.060 A 
BRANCH  86  87
ATOM     87  S   UNL A   1      53.748  25.177  25.284  1.00  0.00     0.124 S 
ATOM     88  O   UNL A   1      53.612  23.738  25.489  1.00  0.00    -0.237 OA
ATOM     89  O   UNL A   1      53.881  25.609  23.896  1.00  0.00    -0.237 OA
ATOM     90  O   UNL A   1      54.615  25.868  26.234  1.00  0.00    -0.744 OA
ENDBRANCH  86  87
ENDBRANCH  54  79
ENDBRANCH  28  29
ENDBRANCH  21  23
ENDBRANCH  20  21
ENDBRANCH   1  20
TORSDOF 16
ENDMDL
MODEL 3
REMARK VINA RESULT:      -9.4      6.212     13.822
REMARK SMILES COc1ccc2cc([C@@H](C)C(=O)OCCOC(=O)c3ccc(-c4c5nc(c(-c6c(F)cc(S(=O)(=O)[O-])cc6F)c6ccc([nH]6)c(-c6c(F)cc(S(=O)(=O)[O-])cc6F)c6nc(c(-c7c(F)cc(S(=O)(=O)[O-])cc7F)c7ccc4[nH]7)C=C6)C=C5)cc3)ccc2c1
REMARK SMILES IDX 15 1 14 2 13 3 11 4 12 5 9 6 10 7 8 8 3 9 4 10 88 11 5 12
REMARK SMILES IDX 87 13 6 14 86 15 7 16 85 17 2 18 1 19 16 20 17 21 18 22
REMARK SMILES IDX 19 23 20 24 84 25 21 26 83 27 22 28 23 29 24 30 77 31 25 32
REMARK SMILES IDX 82 33 76 34 78 35 26 36 81 37 75 38 74 39 27 41 61 42 40 43
REMARK SMILES IDX 60 44 41 45 44 46 59 47 79 48 42 49 43 50 58 52 80 53 45 54
REMARK SMILES IDX 28 55 29 56 38 57 30 58 31 59 37 60 39 61 32 62 33 63 34 64
REMARK SMILES IDX 35 65 36 66 62 67 63 68 72 69 64 70 65 71 71 72 73 73 66 74
REMARK SMILES IDX 67 75 68 76 69 77 70 78 46 79 47 80 56 81 48 82 49 83 55 84
REMARK SMILES IDX 57 85 50 86 51 87 52 88 53 89 54 90
REMARK H PARENT 78 40 44 51
REMARK Flexibility Score: inf
ROOT
ATOM      1  C   UNL A   1      46.510  38.416  28.338  1.00  0.00     0.275 C 
ENDROOT
BRANCH   1   2
ATOM      2  C   UNL A   1      45.537  38.366  27.161  1.00  0.00     0.274 C 
BRANCH   2   3
ATOM      3  O   UNL A   1      44.181  38.592  27.592  1.00  0.00    -0.462 OA
BRANCH   3   4
ATOM      4  C   UNL A   1      43.232  37.763  27.085  1.00  0.00     0.313 C 
ATOM      5  O   UNL A   1      42.207  38.149  26.530  1.00  0.00    -0.252 OA
BRANCH   4   6
ATOM      6  C   UNL A   1      43.514  36.283  27.319  1.00  0.00     0.126 C 
ATOM      7  C   UNL A   1      42.984  35.465  26.143  1.00  0.00     0.025 C 
BRANCH   6   8
ATOM      8  C   UNL A   1      43.071  35.720  28.662  1.00  0.00    -0.033 A 
ATOM      9  C   UNL A   1      40.637  33.558  32.568  1.00  0.00     0.119 A 
ATOM     10  C   UNL A   1      39.713  33.627  31.526  1.00  0.00     0.047 A 
ATOM     11  C   UNL A   1      41.915  34.091  32.397  1.00  0.00     0.055 A 
ATOM     12  C   UNL A   1      40.086  34.185  30.300  1.00  0.00     0.012 A 
ATOM     13  C   UNL A   1      42.306  34.643  31.167  1.00  0.00    -0.015 A 
ATOM     14  C   UNL A   1      41.383  34.682  30.101  1.00  0.00    -0.018 A 
ATOM     15  C   UNL A   1      43.596  35.154  30.971  1.00  0.00     0.009 A 
ATOM     16  C   UNL A   1      41.777  35.218  28.864  1.00  0.00     0.013 A 
ATOM     17  C   UNL A   1      43.974  35.683  29.734  1.00  0.00     0.005 A 
BRANCH   9  18
ATOM     18  O   UNL A   1      40.371  33.026  33.801  1.00  0.00    -0.497 OA
ATOM     19  C   UNL A   1      39.002  33.088  34.185  1.00  0.00     0.278 C 
ENDBRANCH   9  18
ENDBRANCH   6   8
ENDBRANCH   4   6
ENDBRANCH   3   4
ENDBRANCH   2   3
ENDBRANCH   1   2
BRANCH   1  20
ATOM     20  O   UNL A   1      47.539  37.420  28.206  1.00  0.00    -0.458 OA
BRANCH  20  21
ATOM     21  C   UNL A   1      47.761  36.675  29.315  1.00  0.00     0.338 C 
ATOM     22  O   UNL A   1      48.093  37.068  30.418  1.00  0.00    -0.246 OA
BRANCH  21  23
ATOM     23  C   UNL A   1      47.425  35.273  29.034  1.00  0.00     0.060 A 
ATOM     24  C   UNL A   1      47.016  34.939  27.741  1.00  0.00     0.016 A 
ATOM     25  C   UNL A   1      47.431  34.315  30.049  1.00  0.00     0.016 A 
ATOM     26  C   UNL A   1      46.596  33.644  27.455  1.00  0.00     0.010 A 
ATOM     27  C   UNL A   1      47.017  33.011  29.759  1.00  0.00     0.010 A 
ATOM     28  C   UNL A   1      46.585  32.672  28.463  1.00  0.00    -0.014 A 
BRANCH  28  29
ATOM     29  C   UNL A   1      46.087  31.309  28.165  1.00  0.00     0.031 A 
ATOM     30  C   UNL A   1      44.642  30.973  28.400  1.00  0.00     0.074 A 
ATOM     31  C   UNL A   1      46.933  30.382  27.681  1.00  0.00     0.049 A 
ATOM     32  N   UNL A   1      44.033  29.821  28.281  1.00  0.00    -0.248 NA
ATOM     33  C   UNL A   1      43.767  32.075  28.830  1.00  0.00     0.031 C 
ATOM     34  C   UNL A   1      48.351  30.601  27.392  1.00  0.00     0.029 A 
ATOM     35  N   UNL A   1      46.726  29.064  27.356  1.00  0.00    -0.354 N 
ATOM     36  C   UNL A   1      42.713  30.050  28.647  1.00  0.00     0.074 A 
ATOM     37  C   UNL A   1      42.608  31.451  28.997  1.00  0.00     0.031 C 
ATOM     38  C   UNL A   1      48.890  29.454  26.946  1.00  0.00     0.029 A 
ATOM     39  C   UNL A   1      47.867  28.414  26.953  1.00  0.00     0.049 A 
ATOM     40  H   UNL A   1      45.846  28.628  27.409  1.00  0.00     0.167 HD
ATOM     41  C   UNL A   1      41.685  29.170  28.688  1.00  0.00     0.037 A 
ATOM     42  C   UNL A   1      48.071  27.115  26.654  1.00  0.00     0.037 A 
ATOM     43  C   UNL A   1      41.791  27.784  28.312  1.00  0.00     0.049 A 
ATOM     44  C   UNL A   1      46.915  26.155  26.721  1.00  0.00     0.074 A 
ATOM     45  C   UNL A   1      40.795  26.823  28.279  1.00  0.00     0.029 A 
ATOM     46  N   UNL A   1      42.962  27.162  27.905  1.00  0.00    -0.354 N 
ATOM     47  N   UNL A   1      45.669  26.391  27.052  1.00  0.00    -0.248 NA
ATOM     48  C   UNL A   1      47.194  24.753  26.378  1.00  0.00     0.031 C 
ATOM     49  C   UNL A   1      41.372  25.610  27.883  1.00  0.00     0.029 A 
ATOM     50  C   UNL A   1      42.719  25.826  27.636  1.00  0.00     0.049 A 
ATOM     51  H   UNL A   1      43.837  27.605  27.818  1.00  0.00     0.167 HD
ATOM     52  C   UNL A   1      45.011  25.171  26.947  1.00  0.00     0.074 A 
ATOM     53  C   UNL A   1      45.993  24.202  26.506  1.00  0.00     0.031 C 
ATOM     54  C   UNL A   1      43.711  24.878  27.197  1.00  0.00     0.037 A 
BRANCH  41  55
ATOM     55  C   UNL A   1      40.358  29.669  29.182  1.00  0.00     0.058 A 
ATOM     56  C   UNL A   1      39.277  29.880  28.313  1.00  0.00     0.135 A 
ATOM     57  C   UNL A   1      40.152  29.892  30.553  1.00  0.00     0.135 A 
ATOM     58  F   UNL A   1      39.426  29.697  26.991  1.00  0.00    -0.206 F 
ATOM     59  C   UNL A   1      38.040  30.309  28.785  1.00  0.00     0.059 A 
ATOM     60  C   UNL A   1      38.919  30.304  31.050  1.00  0.00     0.059 A 
ATOM     61  F   UNL A   1      41.157  29.710  31.425  1.00  0.00    -0.206 F 
ATOM     62  C   UNL A   1      37.872  30.520  30.155  1.00  0.00     0.060 A 
BRANCH  62  63
ATOM     63  S   UNL A   1      36.258  31.060  30.758  1.00  0.00     0.124 S 
ATOM     64  O   UNL A   1      35.979  30.056  31.781  1.00  0.00    -0.237 OA
ATOM     65  O   UNL A   1      36.538  32.404  31.250  1.00  0.00    -0.237 OA
ATOM     66  O   UNL A   1      35.412  30.995  29.569  1.00  0.00    -0.744 OA
ENDBRANCH  62  63
ENDBRANCH  41  55
BRANCH  42  67
ATOM     67  C   UNL A   1      49.435  26.644  26.298  1.00  0.00     0.058 A 
ATOM     68  C   UNL A   1      50.282  26.078  27.259  1.00  0.00     0.135 A 
ATOM     69  C   UNL A   1      49.911  26.747  24.981  1.00  0.00     0.135 A 
ATOM     70  F   UNL A   1      49.874  25.967  28.532  1.00  0.00    -0.206 F 
ATOM     71  C   UNL A   1      51.562  25.640  26.933  1.00  0.00     0.059 A 
ATOM     72  C   UNL A   1      51.177  26.297  24.625  1.00  0.00     0.059 A 
ATOM     73  F   UNL A   1      49.131  27.272  24.023  1.00  0.00    -0.206 F 
ATOM     74  C   UNL A   1      52.001  25.755  25.611  1.00  0.00     0.060 A 
BRANCH  74  75
ATOM     75  S   UNL A   1      53.645  25.142  25.180  1.00  0.00     0.124 S 
ATOM     76  O   UNL A   1      53.432  23.699  25.200  1.00  0.00    -0.237 OA
ATOM     77  O   UNL A   1      53.865  25.737  23.866  1.00  0.00    -0.237 OA
ATOM     78  O   UNL A   1      54.487  25.673  26.248  1.00  0.00    -0.744 OA
ENDBRANCH  74  75
ENDBRANCH  42  67
BRANCH  54  79
ATOM     79  C   UNL A   1      43.274  23.458  26.981  1.00  0.00     0.058 A 
ATOM     80  C   UNL A   1      43.022  22.957  25.695  1.00  0.00     0.135 A 
ATOM     81  C   UNL A   1      43.150  22.577  28.067  1.00  0.00     0.135 A 
ATOM     82  F   UNL A   1      43.118  23.763  24.625  1.00  0.00    -0.206 F 
ATOM     83  C   UNL A   1      42.644  21.633  25.493  1.00  0.00     0.059 A 
ATOM     84  C   UNL A   1      42.794  21.244  27.886  1.00  0.00     0.059 A 
ATOM     85  F   UNL A   1      43.389  23.006  29.316  1.00  0.00    -0.206 F 
ATOM     86  C   UNL A   1      42.532  20.784  26.596  1.00  0.00     0.060 A 
BRANCH  86  87
ATOM     87  S   UNL A   1      42.074  19.060  26.324  1.00  0.00     0.124 S 
ATOM     88  O   UNL A   1      40.690  19.190  25.881  1.00  0.00    -0.237 OA
ATOM     89  O   UNL A   1      43.029  18.635  25.303  1.00  0.00    -0.237 OA
ATOM     90  O   UNL A   1      42.260  18.449  27.637  1.00  0.00    -0.744 OA
ENDBRANCH  86  87
ENDBRANCH  54  79
ENDBRANCH  28  29
ENDBRANCH  21  23
ENDBRANCH  20  21
ENDBRANCH   1  20
TORSDOF 16
ENDMDL
