MODEL 1
REMARK VINA RESULT:     -10.9      0.000      0.000
REMARK SMILES Cc1ccc2nc(C(=O)OCCOC(=O)c3ccc(-c4c5nc(c(-c6c(F)cc(S(=O)(=O)[O-])cc6F)c6ccc([nH]6)c(-c6c(F)cc(S(=O)(=O)[O-])cc6F)c6nc(c(-c7c(F)cc(S(=O)(=O)[O-])cc7F)c7ccc4[nH]7)C=C6)C=C5)cc3)cc(N3CCOCC3)c2c1
REMARK SMILES IDX 12 1 11 2 10 3 8 4 9 5 7 6 1 7 2 8 3 9 91 10 4 11 90 12 5 13
REMARK SMILES IDX 83 14 6 15 82 16 84 17 85 18 89 19 86 20 88 21 87 22 13 23
REMARK SMILES IDX 14 24 15 25 16 26 17 27 81 28 18 29 80 30 19 31 20 32 21 33
REMARK SMILES IDX 74 34 22 35 79 36 73 37 75 38 23 39 78 40 72 41 71 42 24 44
REMARK SMILES IDX 58 45 37 46 57 47 38 48 41 49 56 50 76 51 39 52 40 53 55 55
REMARK SMILES IDX 77 56 42 57 25 58 26 59 35 60 27 61 28 62 34 63 36 64 29 65
REMARK SMILES IDX 30 66 31 67 32 68 33 69 59 70 60 71 69 72 61 73 62 74 68 75
REMARK SMILES IDX 70 76 63 77 64 78 65 79 66 80 67 81 43 82 44 83 53 84 45 85
REMARK SMILES IDX 46 86 52 87 54 88 47 89 48 90 49 91 50 92 51 93
REMARK H PARENT 75 43 41 54
REMARK Flexibility Score: inf
ROOT
ATOM      1  C   UNL A   1      39.153  22.563  26.026  1.00  0.00     0.275 C 
ENDROOT
BRANCH   1   2
ATOM      2  C   UNL A   1      39.608  21.106  26.150  1.00  0.00     0.275 C 
BRANCH   2   3
ATOM      3  O   UNL A   1      40.749  20.970  27.023  1.00  0.00    -0.457 OA
BRANCH   3   4
ATOM      4  C   UNL A   1      41.952  20.938  26.389  1.00  0.00     0.357 C 
ATOM      5  O   UNL A   1      42.250  20.180  25.477  1.00  0.00    -0.244 OA
BRANCH   4   6
ATOM      6  C   UNL A   1      42.864  22.010  26.893  1.00  0.00     0.151 A 
ATOM      7  C   UNL A   1      45.794  26.241  30.808  1.00  0.00     0.044 C 
ATOM      8  C   UNL A   1      45.045  25.140  30.120  1.00  0.00    -0.050 A 
ATOM      9  C   UNL A   1      44.272  24.239  30.841  1.00  0.00     0.005 A 
ATOM     10  C   UNL A   1      45.088  25.019  28.724  1.00  0.00     0.016 A 
ATOM     11  C   UNL A   1      43.537  23.266  30.167  1.00  0.00     0.029 A 
ATOM     12  C   UNL A   1      44.399  23.991  28.029  1.00  0.00     0.024 A 
ATOM     13  C   UNL A   1      43.575  23.140  28.786  1.00  0.00     0.073 A 
ATOM     14  C   UNL A   1      44.450  23.783  26.614  1.00  0.00     0.049 A 
ATOM     15  N   UNL A   1      42.802  22.208  28.229  1.00  0.00    -0.241 NA
ATOM     16  C   UNL A   1      43.671  22.759  26.056  1.00  0.00     0.062 A 
BRANCH  14  17
ATOM     17  N   UNL A   1      45.238  24.592  25.801  1.00  0.00    -0.366 N 
ATOM     18  C   UNL A   1      46.233  23.970  24.910  1.00  0.00     0.145 C 
ATOM     19  C   UNL A   1      44.759  25.897  25.332  1.00  0.00     0.145 C 
ATOM     20  C   UNL A   1      47.390  24.963  24.702  1.00  0.00     0.181 C 
ATOM     21  C   UNL A   1      45.973  26.813  25.101  1.00  0.00     0.181 C 
ATOM     22  O   UNL A   1      46.919  26.225  24.190  1.00  0.00    -0.378 OA
ENDBRANCH  14  17
ENDBRANCH   4   6
ENDBRANCH   3   4
ENDBRANCH   2   3
ENDBRANCH   1   2
BRANCH   1  23
ATOM     23  O   UNL A   1      39.627  23.367  27.122  1.00  0.00    -0.458 OA
BRANCH  23  24
ATOM     24  C   UNL A   1      40.359  24.448  26.767  1.00  0.00     0.338 C 
ATOM     25  O   UNL A   1      40.809  24.702  25.662  1.00  0.00    -0.246 OA
BRANCH  24  26
ATOM     26  C   UNL A   1      40.487  25.365  27.911  1.00  0.00     0.060 A 
ATOM     27  C   UNL A   1      39.382  25.520  28.739  1.00  0.00     0.016 A 
ATOM     28  C   UNL A   1      41.613  26.166  28.092  1.00  0.00     0.016 A 
ATOM     29  C   UNL A   1      39.359  26.511  29.713  1.00  0.00     0.010 A 
ATOM     30  C   UNL A   1      41.614  27.129  29.114  1.00  0.00     0.010 A 
ATOM     31  C   UNL A   1      40.474  27.330  29.916  1.00  0.00    -0.014 A 
BRANCH  31  32
ATOM     32  C   UNL A   1      40.403  28.413  30.932  1.00  0.00     0.031 A 
ATOM     33  C   UNL A   1      41.370  28.434  32.085  1.00  0.00     0.074 A 
ATOM     34  C   UNL A   1      39.515  29.418  30.789  1.00  0.00     0.049 A 
ATOM     35  N   UNL A   1      41.412  29.238  33.117  1.00  0.00    -0.248 NA
ATOM     36  C   UNL A   1      42.430  27.414  32.079  1.00  0.00     0.031 C 
ATOM     37  C   UNL A   1      38.564  29.554  29.682  1.00  0.00     0.029 A 
ATOM     38  N   UNL A   1      39.277  30.525  31.566  1.00  0.00    -0.354 N 
ATOM     39  C   UNL A   1      42.469  28.796  33.903  1.00  0.00     0.074 A 
ATOM     40  C   UNL A   1      43.042  27.648  33.231  1.00  0.00     0.031 C 
ATOM     41  C   UNL A   1      37.870  30.692  29.836  1.00  0.00     0.029 A 
ATOM     42  C   UNL A   1      38.272  31.331  31.084  1.00  0.00     0.049 A 
ATOM     43  H   UNL A   1      39.777  30.723  32.390  1.00  0.00     0.167 HD
ATOM     44  C   UNL A   1      42.919  29.299  35.077  1.00  0.00     0.037 A 
ATOM     45  C   UNL A   1      37.713  32.441  31.602  1.00  0.00     0.037 A 
ATOM     46  C   UNL A   1      42.373  30.467  35.721  1.00  0.00     0.049 A 
ATOM     47  C   UNL A   1      38.203  32.960  32.925  1.00  0.00     0.074 A 
ATOM     48  C   UNL A   1      42.763  31.057  36.911  1.00  0.00     0.029 A 
ATOM     49  N   UNL A   1      41.327  31.229  35.222  1.00  0.00    -0.354 N 
ATOM     50  N   UNL A   1      39.170  32.499  33.683  1.00  0.00    -0.248 NA
ATOM     51  C   UNL A   1      37.518  34.140  33.472  1.00  0.00     0.031 C 
ATOM     52  C   UNL A   1      41.931  32.159  37.146  1.00  0.00     0.029 A 
ATOM     53  C   UNL A   1      41.048  32.276  36.085  1.00  0.00     0.049 A 
ATOM     54  H   UNL A   1      40.851  31.052  34.378  1.00  0.00     0.167 HD
ATOM     55  C   UNL A   1      39.212  33.334  34.793  1.00  0.00     0.074 A 
ATOM     56  C   UNL A   1      38.188  34.341  34.599  1.00  0.00     0.031 C 
ATOM     57  C   UNL A   1      40.023  33.269  35.878  1.00  0.00     0.037 A 
BRANCH  44  58
ATOM     58  C   UNL A   1      44.036  28.563  35.765  1.00  0.00     0.058 A 
ATOM     59  C   UNL A   1      45.382  28.909  35.579  1.00  0.00     0.135 A 
ATOM     60  C   UNL A   1      43.747  27.501  36.638  1.00  0.00     0.135 A 
ATOM     61  F   UNL A   1      45.715  29.904  34.742  1.00  0.00    -0.206 F 
ATOM     62  C   UNL A   1      46.406  28.208  36.210  1.00  0.00     0.059 A 
ATOM     63  C   UNL A   1      44.754  26.802  37.298  1.00  0.00     0.059 A 
ATOM     64  F   UNL A   1      42.476  27.129  36.853  1.00  0.00    -0.206 F 
ATOM     65  C   UNL A   1      46.082  27.152  37.063  1.00  0.00     0.060 A 
BRANCH  65  66
ATOM     66  S   UNL A   1      47.418  26.242  37.867  1.00  0.00     0.124 S 
ATOM     67  O   UNL A   1      48.595  26.869  37.271  1.00  0.00    -0.237 OA
ATOM     68  O   UNL A   1      47.195  26.533  39.279  1.00  0.00    -0.237 OA
ATOM     69  O   UNL A   1      47.175  24.859  37.469  1.00  0.00    -0.744 OA
ENDBRANCH  65  66
ENDBRANCH  44  58
BRANCH  45  70
ATOM     70  C   UNL A   1      36.598  33.113  30.882  1.00  0.00     0.058 A 
ATOM     71  C   UNL A   1      35.274  33.004  31.330  1.00  0.00     0.135 A 
ATOM     72  C   UNL A   1      36.842  33.899  29.744  1.00  0.00     0.135 A 
ATOM     73  F   UNL A   1      34.989  32.253  32.405  1.00  0.00    -0.206 F 
ATOM     74  C   UNL A   1      34.229  33.649  30.676  1.00  0.00     0.059 A 
ATOM     75  C   UNL A   1      35.817  34.574  29.089  1.00  0.00     0.059 A 
ATOM     76  F   UNL A   1      38.092  34.041  29.280  1.00  0.00    -0.206 F 
ATOM     77  C   UNL A   1      34.512  34.436  29.558  1.00  0.00     0.060 A 
BRANCH  77  78
ATOM     78  S   UNL A   1      33.161  35.323  28.752  1.00  0.00     0.124 S 
ATOM     79  O   UNL A   1      32.417  35.830  29.899  1.00  0.00    -0.237 OA
ATOM     80  O   UNL A   1      33.873  36.321  27.961  1.00  0.00    -0.237 OA
ATOM     81  O   UNL A   1      32.493  34.282  27.976  1.00  0.00    -0.744 OA
ENDBRANCH  77  78
ENDBRANCH  45  70
BRANCH  57  82
ATOM     82  C   UNL A   1      39.847  34.326  36.931  1.00  0.00     0.058 A 
ATOM     83  C   UNL A   1      39.056  34.103  38.068  1.00  0.00     0.135 A 
ATOM     84  C   UNL A   1      40.510  35.558  36.821  1.00  0.00     0.135 A 
ATOM     85  F   UNL A   1      38.395  32.944  38.215  1.00  0.00    -0.206 F 
ATOM     86  C   UNL A   1      38.911  35.074  39.053  1.00  0.00     0.059 A 
ATOM     87  C   UNL A   1      40.397  36.536  37.805  1.00  0.00     0.059 A 
ATOM     88  F   UNL A   1      41.286  35.816  35.756  1.00  0.00    -0.206 F 
ATOM     89  C   UNL A   1      39.586  36.289  38.912  1.00  0.00     0.060 A 
BRANCH  89  90
ATOM     90  S   UNL A   1      39.417  37.532  40.210  1.00  0.00     0.124 S 
ATOM     91  O   UNL A   1      38.451  38.449  39.616  1.00  0.00    -0.237 OA
ATOM     92  O   UNL A   1      38.932  36.744  41.340  1.00  0.00    -0.237 OA
ATOM     93  O   UNL A   1      40.773  38.055  40.357  1.00  0.00    -0.744 OA
ENDBRANCH  89  90
ENDBRANCH  57  82
ENDBRANCH  31  32
ENDBRANCH  24  26
ENDBRANCH  23  24
ENDBRANCH   1  23
TORSDOF 15
ENDMDL
MODEL 2
REMARK VINA RESULT:     -10.7      5.577     13.497
REMARK SMILES Cc1ccc2nc(C(=O)OCCOC(=O)c3ccc(-c4c5nc(c(-c6c(F)cc(S(=O)(=O)[O-])cc6F)c6ccc([nH]6)c(-c6c(F)cc(S(=O)(=O)[O-])cc6F)c6nc(c(-c7c(F)cc(S(=O)(=O)[O-])cc7F)c7ccc4[nH]7)C=C6)C=C5)cc3)cc(N3CCOCC3)c2c1
REMARK SMILES IDX 12 1 11 2 10 3 8 4 9 5 7 6 1 7 2 8 3 9 91 10 4 11 90 12 5 13
REMARK SMILES IDX 83 14 6 15 82 16 84 17 85 18 89 19 86 20 88 21 87 22 13 23
REMARK SMILES IDX 14 24 15 25 16 26 17 27 81 28 18 29 80 30 19 31 20 32 21 33
REMARK SMILES IDX 74 34 22 35 79 36 73 37 75 38 23 39 78 40 72 41 71 42 24 44
REMARK SMILES IDX 58 45 37 46 57 47 38 48 41 49 56 50 76 51 39 52 40 53 55 55
REMARK SMILES IDX 77 56 42 57 25 58 26 59 35 60 27 61 28 62 34 63 36 64 29 65
REMARK SMILES IDX 30 66 31 67 32 68 33 69 59 70 60 71 69 72 61 73 62 74 68 75
REMARK SMILES IDX 70 76 63 77 64 78 65 79 66 80 67 81 43 82 44 83 53 84 45 85
REMARK SMILES IDX 46 86 52 87 54 88 47 89 48 90 49 91 50 92 51 93
REMARK H PARENT 75 43 41 54
REMARK Flexibility Score: inf
ROOT
ATOM      1  C   UNL A   1      34.281  30.888  28.005  1.00  0.00     0.275 C 
ENDROOT
BRANCH   1   2
ATOM      2  C   UNL A   1      34.296  32.420  27.979  1.00  0.00     0.275 C 
BRANCH   2   3
ATOM      3  O   UNL A   1      33.932  32.985  29.256  1.00  0.00    -0.457 OA
BRANCH   3   4
ATOM      4  C   UNL A   1      34.522  34.177  29.542  1.00  0.00     0.357 C 
ATOM      5  O   UNL A   1      34.054  35.276  29.283  1.00  0.00    -0.244 OA
BRANCH   4   6
ATOM      6  C   UNL A   1      35.798  33.987  30.297  1.00  0.00     0.151 A 
ATOM      7  C   UNL A   1      42.093  33.472  31.686  1.00  0.00     0.044 C 
ATOM      8  C   UNL A   1      40.715  33.715  31.151  1.00  0.00    -0.050 A 
ATOM      9  C   UNL A   1      40.521  34.223  29.872  1.00  0.00     0.005 A 
ATOM     10  C   UNL A   1      39.588  33.403  31.925  1.00  0.00     0.016 A 
ATOM     11  C   UNL A   1      39.227  34.378  29.379  1.00  0.00     0.029 A 
ATOM     12  C   UNL A   1      38.264  33.620  31.462  1.00  0.00     0.024 A 
ATOM     13  C   UNL A   1      38.108  34.071  30.140  1.00  0.00     0.073 A 
ATOM     14  C   UNL A   1      37.079  33.375  32.226  1.00  0.00     0.049 A 
ATOM     15  N   UNL A   1      36.914  34.210  29.566  1.00  0.00    -0.241 NA
ATOM     16  C   UNL A   1      35.832  33.581  31.618  1.00  0.00     0.062 A 
BRANCH  14  17
ATOM     17  N   UNL A   1      37.157  32.918  33.538  1.00  0.00    -0.366 N 
ATOM     18  C   UNL A   1      36.450  33.653  34.602  1.00  0.00     0.145 C 
ATOM     19  C   UNL A   1      37.365  31.497  33.839  1.00  0.00     0.145 C 
ATOM     20  C   UNL A   1      37.214  33.454  35.923  1.00  0.00     0.181 C 
ATOM     21  C   UNL A   1      38.086  31.381  35.193  1.00  0.00     0.181 C 
ATOM     22  O   UNL A   1      37.367  32.057  36.240  1.00  0.00    -0.378 OA
ENDBRANCH  14  17
ENDBRANCH   4   6
ENDBRANCH   3   4
ENDBRANCH   2   3
ENDBRANCH   1   2
BRANCH   1  23
ATOM     23  O   UNL A   1      35.612  30.340  27.971  1.00  0.00    -0.458 OA
BRANCH  23  24
ATOM     24  C   UNL A   1      36.276  30.369  29.149  1.00  0.00     0.338 C 
ATOM     25  O   UNL A   1      35.793  30.464  30.265  1.00  0.00    -0.246 OA
BRANCH  24  26
ATOM     26  C   UNL A   1      37.718  30.181  28.917  1.00  0.00     0.060 A 
ATOM     27  C   UNL A   1      38.116  29.730  27.664  1.00  0.00     0.016 A 
ATOM     28  C   UNL A   1      38.653  30.307  29.943  1.00  0.00     0.016 A 
ATOM     29  C   UNL A   1      39.429  29.340  27.435  1.00  0.00     0.010 A 
ATOM     30  C   UNL A   1      39.993  29.969  29.697  1.00  0.00     0.010 A 
ATOM     31  C   UNL A   1      40.388  29.455  28.447  1.00  0.00    -0.014 A 
BRANCH  31  32
ATOM     32  C   UNL A   1      41.775  28.985  28.188  1.00  0.00     0.031 A 
ATOM     33  C   UNL A   1      42.930  29.946  28.282  1.00  0.00     0.074 A 
ATOM     34  C   UNL A   1      42.012  27.682  27.932  1.00  0.00     0.049 A 
ATOM     35  N   UNL A   1      44.194  29.751  28.007  1.00  0.00    -0.248 NA
ATOM     36  C   UNL A   1      42.622  31.307  28.748  1.00  0.00     0.031 C 
ATOM     37  C   UNL A   1      40.989  26.633  27.876  1.00  0.00     0.029 A 
ATOM     38  N   UNL A   1      43.185  27.012  27.688  1.00  0.00    -0.354 N 
ATOM     39  C   UNL A   1      44.824  30.971  28.220  1.00  0.00     0.074 A 
ATOM     40  C   UNL A   1      43.801  31.904  28.646  1.00  0.00     0.031 C 
ATOM     41  C   UNL A   1      41.584  25.452  27.646  1.00  0.00     0.029 A 
ATOM     42  C   UNL A   1      43.016  25.666  27.467  1.00  0.00     0.049 A 
ATOM     43  H   UNL A   1      44.065  27.454  27.673  1.00  0.00     0.167 HD
ATOM     44  C   UNL A   1      46.133  31.286  28.073  1.00  0.00     0.037 A 
ATOM     45  C   UNL A   1      43.905  24.714  27.125  1.00  0.00     0.037 A 
ATOM     46  C   UNL A   1      47.155  30.344  27.691  1.00  0.00     0.049 A 
ATOM     47  C   UNL A   1      45.347  25.093  26.931  1.00  0.00     0.074 A 
ATOM     48  C   UNL A   1      48.510  30.565  27.519  1.00  0.00     0.029 A 
ATOM     49  N   UNL A   1      46.934  28.999  27.433  1.00  0.00    -0.354 N 
ATOM     50  N   UNL A   1      45.918  26.264  27.086  1.00  0.00    -0.248 NA
ATOM     51  C   UNL A   1      46.263  24.027  26.502  1.00  0.00     0.031 C 
ATOM     52  C   UNL A   1      49.104  29.359  27.126  1.00  0.00     0.029 A 
ATOM     53  C   UNL A   1      48.125  28.379  27.090  1.00  0.00     0.049 A 
ATOM     54  H   UNL A   1      46.060  28.549  27.485  1.00  0.00     0.167 HD
ATOM     55  C   UNL A   1      47.260  26.075  26.777  1.00  0.00     0.074 A 
ATOM     56  C   UNL A   1      47.420  24.673  26.447  1.00  0.00     0.031 C 
ATOM     57  C   UNL A   1      48.266  26.983  26.763  1.00  0.00     0.037 A 
BRANCH  44  58
ATOM     58  C   UNL A   1      46.531  32.720  28.288  1.00  0.00     0.058 A 
ATOM     59  C   UNL A   1      47.008  33.184  29.523  1.00  0.00     0.135 A 
ATOM     60  C   UNL A   1      46.446  33.641  27.231  1.00  0.00     0.135 A 
ATOM     61  F   UNL A   1      47.094  32.351  30.571  1.00  0.00    -0.206 F 
ATOM     62  C   UNL A   1      47.358  34.519  29.711  1.00  0.00     0.059 A 
ATOM     63  C   UNL A   1      46.811  34.974  27.390  1.00  0.00     0.059 A 
ATOM     64  F   UNL A   1      45.996  33.250  26.028  1.00  0.00    -0.206 F 
ATOM     65  C   UNL A   1      47.249  35.408  28.640  1.00  0.00     0.060 A 
BRANCH  65  66
ATOM     66  S   UNL A   1      47.693  37.138  28.899  1.00  0.00     0.124 S 
ATOM     67  O   UNL A   1      48.339  37.465  27.630  1.00  0.00    -0.237 OA
ATOM     68  O   UNL A   1      46.396  37.767  29.128  1.00  0.00    -0.237 OA
ATOM     69  O   UNL A   1      48.578  37.093  30.059  1.00  0.00    -0.744 OA
ENDBRANCH  65  66
ENDBRANCH  44  58
BRANCH  45  70
ATOM     70  C   UNL A   1      43.445  23.316  26.909  1.00  0.00     0.058 A 
ATOM     71  C   UNL A   1      43.315  22.786  25.618  1.00  0.00     0.135 A 
ATOM     72  C   UNL A   1      43.152  22.474  27.994  1.00  0.00     0.135 A 
ATOM     73  F   UNL A   1      43.571  23.556  24.548  1.00  0.00    -0.206 F 
ATOM     74  C   UNL A   1      42.909  21.472  25.407  1.00  0.00     0.059 A 
ATOM     75  C   UNL A   1      42.769  21.149  27.810  1.00  0.00     0.059 A 
ATOM     76  F   UNL A   1      43.268  22.931  29.250  1.00  0.00    -0.206 F 
ATOM     77  C   UNL A   1      42.642  20.660  26.511  1.00  0.00     0.060 A 
BRANCH  77  78
ATOM     78  S   UNL A   1      42.178  18.937  26.234  1.00  0.00     0.124 S 
ATOM     79  O   UNL A   1      42.345  18.370  27.567  1.00  0.00    -0.237 OA
ATOM     80  O   UNL A   1      40.803  19.057  25.760  1.00  0.00    -0.237 OA
ATOM     81  O   UNL A   1      43.140  18.488  25.232  1.00  0.00    -0.744 OA
ENDBRANCH  77  78
ENDBRANCH  45  70
BRANCH  57  82
ATOM     82  C   UNL A   1      49.636  26.483  26.395  1.00  0.00     0.058 A 
ATOM     83  C   UNL A   1      50.152  26.647  25.100  1.00  0.00     0.135 A 
ATOM     84  C   UNL A   1      50.454  25.874  27.358  1.00  0.00     0.135 A 
ATOM     85  F   UNL A   1      49.404  27.217  24.142  1.00  0.00    -0.206 F 
ATOM     86  C   UNL A   1      51.427  26.205  24.766  1.00  0.00     0.059 A 
ATOM     87  C   UNL A   1      51.741  25.442  27.052  1.00  0.00     0.059 A 
ATOM     88  F   UNL A   1      50.009  25.702  28.613  1.00  0.00    -0.206 F 
ATOM     89  C   UNL A   1      52.214  25.602  25.750  1.00  0.00     0.060 A 
BRANCH  89  90
ATOM     90  S   UNL A   1      53.881  25.059  25.317  1.00  0.00     0.124 S 
ATOM     91  O   UNL A   1      54.661  25.582  26.433  1.00  0.00    -0.237 OA
ATOM     92  O   UNL A   1      53.737  23.606  25.271  1.00  0.00    -0.237 OA
ATOM     93  O   UNL A   1      54.121  25.699  24.027  1.00  0.00    -0.744 OA
ENDBRANCH  89  90
ENDBRANCH  57  82
ENDBRANCH  31  32
ENDBRANCH  24  26
ENDBRANCH  23  24
ENDBRANCH   1  23
TORSDOF 15
ENDMDL
MODEL 3
REMARK VINA RESULT:     -10.6      2.925      5.615
REMARK SMILES Cc1ccc2nc(C(=O)OCCOC(=O)c3ccc(-c4c5nc(c(-c6c(F)cc(S(=O)(=O)[O-])cc6F)c6ccc([nH]6)c(-c6c(F)cc(S(=O)(=O)[O-])cc6F)c6nc(c(-c7c(F)cc(S(=O)(=O)[O-])cc7F)c7ccc4[nH]7)C=C6)C=C5)cc3)cc(N3CCOCC3)c2c1
REMARK SMILES IDX 12 1 11 2 10 3 8 4 9 5 7 6 1 7 2 8 3 9 91 10 4 11 90 12 5 13
REMARK SMILES IDX 83 14 6 15 82 16 84 17 85 18 89 19 86 20 88 21 87 22 13 23
REMARK SMILES IDX 14 24 15 25 16 26 17 27 81 28 18 29 80 30 19 31 20 32 21 33
REMARK SMILES IDX 74 34 22 35 79 36 73 37 75 38 23 39 78 40 72 41 71 42 24 44
REMARK SMILES IDX 58 45 37 46 57 47 38 48 41 49 56 50 76 51 39 52 40 53 55 55
REMARK SMILES IDX 77 56 42 57 25 58 26 59 35 60 27 61 28 62 34 63 36 64 29 65
REMARK SMILES IDX 30 66 31 67 32 68 33 69 59 70 60 71 69 72 61 73 62 74 68 75
REMARK SMILES IDX 70 76 63 77 64 78 65 79 66 80 67 81 43 82 44 83 53 84 45 85
REMARK SMILES IDX 46 86 52 87 54 88 47 89 48 90 49 91 50 92 51 93
REMARK H PARENT 75 43 41 54
REMARK Flexibility Score: inf
ROOT
ATOM      1  C   UNL A   1      41.608  22.486  26.218  1.00  0.00     0.275 C 
ENDROOT
BRANCH   1   2
ATOM      2  C   UNL A   1      40.302  21.979  26.836  1.00  0.00     0.275 C 
BRANCH   2   3
ATOM      3  O   UNL A   1      39.254  21.850  25.852  1.00  0.00    -0.457 OA
BRANCH   3   4
ATOM      4  C   UNL A   1      38.262  22.775  25.949  1.00  0.00     0.357 C 
ATOM      5  O   UNL A   1      38.427  23.969  26.155  1.00  0.00    -0.244 OA
BRANCH   4   6
ATOM      6  C   UNL A   1      36.921  22.167  25.691  1.00  0.00     0.151 A 
ATOM      7  C   UNL A   1      32.307  17.991  23.931  1.00  0.00     0.044 C 
ATOM      8  C   UNL A   1      33.531  18.750  24.346  1.00  0.00    -0.050 A 
ATOM      9  C   UNL A   1      34.778  18.138  24.381  1.00  0.00     0.005 A 
ATOM     10  C   UNL A   1      33.442  20.109  24.680  1.00  0.00     0.016 A 
ATOM     11  C   UNL A   1      35.906  18.887  24.709  1.00  0.00     0.029 A 
ATOM     12  C   UNL A   1      34.572  20.867  25.083  1.00  0.00     0.024 A 
ATOM     13  C   UNL A   1      35.825  20.232  25.041  1.00  0.00     0.073 A 
ATOM     14  C   UNL A   1      34.535  22.239  25.489  1.00  0.00     0.049 A 
ATOM     15  N   UNL A   1      36.965  20.874  25.297  1.00  0.00    -0.241 NA
ATOM     16  C   UNL A   1      35.742  22.879  25.807  1.00  0.00     0.062 A 
BRANCH  14  17
ATOM     17  N   UNL A   1      33.332  22.935  25.546  1.00  0.00    -0.366 N 
ATOM     18  C   UNL A   1      32.312  22.536  26.532  1.00  0.00     0.145 C 
ATOM     19  C   UNL A   1      33.246  24.344  25.144  1.00  0.00     0.145 C 
ATOM     20  C   UNL A   1      30.924  22.887  25.969  1.00  0.00     0.181 C 
ATOM     21  C   UNL A   1      31.820  24.627  24.642  1.00  0.00     0.181 C 
ATOM     22  O   UNL A   1      30.829  24.284  25.627  1.00  0.00    -0.378 OA
ENDBRANCH  14  17
ENDBRANCH   4   6
ENDBRANCH   3   4
ENDBRANCH   2   3
ENDBRANCH   1   2
BRANCH   1  23
ATOM     23  O   UNL A   1      42.176  23.566  26.981  1.00  0.00    -0.458 OA
BRANCH  23  24
ATOM     24  C   UNL A   1      42.082  24.788  26.406  1.00  0.00     0.338 C 
ATOM     25  O   UNL A   1      42.259  25.064  25.231  1.00  0.00    -0.246 OA
BRANCH  24  26
ATOM     26  C   UNL A   1      41.641  25.779  27.401  1.00  0.00     0.060 A 
ATOM     27  C   UNL A   1      42.340  26.978  27.469  1.00  0.00     0.016 A 
ATOM     28  C   UNL A   1      40.656  25.490  28.344  1.00  0.00     0.016 A 
ATOM     29  C   UNL A   1      42.113  27.873  28.508  1.00  0.00     0.010 A 
ATOM     30  C   UNL A   1      40.384  26.419  29.360  1.00  0.00     0.010 A 
ATOM     31  C   UNL A   1      41.132  27.608  29.468  1.00  0.00    -0.014 A 
BRANCH  31  32
ATOM     32  C   UNL A   1      40.944  28.560  30.595  1.00  0.00     0.031 A 
ATOM     33  C   UNL A   1      41.876  28.526  31.777  1.00  0.00     0.074 A 
ATOM     34  C   UNL A   1      39.980  29.501  30.534  1.00  0.00     0.049 A 
ATOM     35  N   UNL A   1      41.825  29.208  32.892  1.00  0.00    -0.248 NA
ATOM     36  C   UNL A   1      43.017  27.601  31.694  1.00  0.00     0.031 C 
ATOM     37  C   UNL A   1      39.050  29.685  29.416  1.00  0.00     0.029 A 
ATOM     38  N   UNL A   1      39.631  30.489  31.420  1.00  0.00    -0.354 N 
ATOM     39  C   UNL A   1      42.894  28.766  33.661  1.00  0.00     0.074 A 
ATOM     40  C   UNL A   1      43.578  27.752  32.886  1.00  0.00     0.031 C 
ATOM     41  C   UNL A   1      38.260  30.739  29.671  1.00  0.00     0.029 A 
ATOM     42  C   UNL A   1      38.575  31.262  30.996  1.00  0.00     0.049 A 
ATOM     43  H   UNL A   1      40.091  30.631  32.278  1.00  0.00     0.167 HD
ATOM     44  C   UNL A   1      43.270  29.167  34.899  1.00  0.00     0.037 A 
ATOM     45  C   UNL A   1      37.912  32.258  31.615  1.00  0.00     0.037 A 
ATOM     46  C   UNL A   1      42.612  30.206  35.649  1.00  0.00     0.049 A 
ATOM     47  C   UNL A   1      38.323  32.661  33.004  1.00  0.00     0.074 A 
ATOM     48  C   UNL A   1      42.921  30.687  36.910  1.00  0.00     0.029 A 
ATOM     49  N   UNL A   1      41.520  30.934  35.202  1.00  0.00    -0.354 N 
ATOM     50  N   UNL A   1      39.305  32.195  33.739  1.00  0.00    -0.248 NA
ATOM     51  C   UNL A   1      37.529  33.712  33.654  1.00  0.00     0.031 C 
ATOM     52  C   UNL A   1      41.994  31.684  37.237  1.00  0.00     0.029 A 
ATOM     53  C   UNL A   1      41.133  31.851  36.166  1.00  0.00     0.049 A 
ATOM     54  H   UNL A   1      41.082  30.817  34.327  1.00  0.00     0.167 HD
ATOM     55  C   UNL A   1      39.249  32.899  34.936  1.00  0.00     0.074 A 
ATOM     56  C   UNL A   1      38.150  33.837  34.820  1.00  0.00     0.031 C 
ATOM     57  C   UNL A   1      40.034  32.776  36.034  1.00  0.00     0.037 A 
BRANCH  44  58
ATOM     58  C   UNL A   1      44.426  28.449  35.540  1.00  0.00     0.058 A 
ATOM     59  C   UNL A   1      44.240  27.370  36.416  1.00  0.00     0.135 A 
ATOM     60  C   UNL A   1      45.745  28.842  35.257  1.00  0.00     0.135 A 
ATOM     61  F   UNL A   1      43.001  26.963  36.735  1.00  0.00    -0.206 F 
ATOM     62  C   UNL A   1      45.319  26.725  37.014  1.00  0.00     0.059 A 
ATOM     63  C   UNL A   1      46.839  28.197  35.825  1.00  0.00     0.059 A 
ATOM     64  F   UNL A   1      45.980  29.869  34.424  1.00  0.00    -0.206 F 
ATOM     65  C   UNL A   1      46.615  27.151  36.717  1.00  0.00     0.060 A 
BRANCH  65  66
ATOM     66  S   UNL A   1      48.007  26.316  37.508  1.00  0.00     0.124 S 
ATOM     67  O   UNL A   1      47.460  26.030  38.831  1.00  0.00    -0.237 OA
ATOM     68  O   UNL A   1      48.212  25.156  36.645  1.00  0.00    -0.237 OA
ATOM     69  O   UNL A   1      49.070  27.316  37.470  1.00  0.00    -0.744 OA
ENDBRANCH  65  66
ENDBRANCH  44  58
BRANCH  45  70
ATOM     70  C   UNL A   1      36.765  32.916  30.935  1.00  0.00     0.058 A 
ATOM     71  C   UNL A   1      35.441  32.616  31.290  1.00  0.00     0.135 A 
ATOM     72  C   UNL A   1      36.971  33.878  29.934  1.00  0.00     0.135 A 
ATOM     73  F   UNL A   1      35.192  31.693  32.231  1.00  0.00    -0.206 F 
ATOM     74  C   UNL A   1      34.363  33.245  30.676  1.00  0.00     0.059 A 
ATOM     75  C   UNL A   1      35.910  34.539  29.324  1.00  0.00     0.059 A 
ATOM     76  F   UNL A   1      38.219  34.206  29.564  1.00  0.00    -0.206 F 
ATOM     77  C   UNL A   1      34.608  34.209  29.696  1.00  0.00     0.060 A 
BRANCH  77  78
ATOM     78  S   UNL A   1      33.207  35.069  28.948  1.00  0.00     0.124 S 
ATOM     79  O   UNL A   1      33.847  36.267  28.417  1.00  0.00    -0.237 OA
ATOM     80  O   UNL A   1      32.741  34.103  27.959  1.00  0.00    -0.237 OA
ATOM     81  O   UNL A   1      32.305  35.282  30.076  1.00  0.00    -0.744 OA
ENDBRANCH  77  78
ENDBRANCH  45  70
BRANCH  57  82
ATOM     82  C   UNL A   1      39.744  33.689  37.192  1.00  0.00     0.058 A 
ATOM     83  C   UNL A   1      38.895  33.298  38.238  1.00  0.00     0.135 A 
ATOM     84  C   UNL A   1      40.354  34.950  37.274  1.00  0.00     0.135 A 
ATOM     85  F   UNL A   1      38.282  32.104  38.202  1.00  0.00    -0.206 F 
ATOM     86  C   UNL A   1      38.644  34.135  39.320  1.00  0.00     0.059 A 
ATOM     87  C   UNL A   1      40.134  35.796  38.357  1.00  0.00     0.059 A 
ATOM     88  F   UNL A   1      41.180  35.367  36.301  1.00  0.00    -0.206 F 
ATOM     89  C   UNL A   1      39.268  35.384  39.370  1.00  0.00     0.060 A 
BRANCH  89  90
ATOM     90  S   UNL A   1      38.961  36.452  40.793  1.00  0.00     0.124 S 
ATOM     91  O   UNL A   1      37.871  35.748  41.460  1.00  0.00    -0.237 OA
ATOM     92  O   UNL A   1      40.247  36.431  41.486  1.00  0.00    -0.237 OA
ATOM     93  O   UNL A   1      38.606  37.731  40.186  1.00  0.00    -0.744 OA
ENDBRANCH  89  90
ENDBRANCH  57  82
ENDBRANCH  31  32
ENDBRANCH  24  26
ENDBRANCH  23  24
ENDBRANCH   1  23
TORSDOF 15
ENDMDL
