MODEL 1
REMARK VINA RESULT:     -12.4      0.000      0.000
REMARK SMILES O=C(N[C@@H](Cc1c[nH]c2ccccc12)C(=O)N[C@@H](CO)C(=O)OCCOC(=O)c1ccc(-c2c3nc(c(-c4c(F)cc(S(=O)(=O)[O-])cc4F)c4ccc([nH]4)c(-c4c(F)cc(S(=O)(=O)[O-])cc4F)c4nc(c(-c5c(F)cc(S(=O)(=O)[O-])cc5F)c5ccc2[nH]5)C=C4)C=C3)cc1)c1ccc(F)cc1
REMARK SMILES IDX 24 1 23 2 21 3 22 4 18 5 17 6 15 7 16 8 4 10 3 11 1 12 2 13
REMARK SMILES IDX 95 15 96 16 101 17 97 18 100 19 98 20 99 21 5 22 6 23 7 24
REMARK SMILES IDX 14 25 8 26 9 27 13 28 10 30 12 31 11 32 19 33 20 34 25 36
REMARK SMILES IDX 26 37 27 38 28 39 29 40 30 41 94 42 31 43 93 44 32 45 33 46
REMARK SMILES IDX 34 47 87 48 35 49 92 50 86 51 88 52 36 53 91 54 85 55 84 56
REMARK SMILES IDX 37 58 71 59 50 60 70 61 51 62 54 63 69 64 89 65 52 66 53 67
REMARK SMILES IDX 68 69 90 70 55 71 38 72 39 73 48 74 40 75 41 76 47 77 49 78
REMARK SMILES IDX 42 79 43 80 44 81 45 82 46 83 72 84 73 85 82 86 74 87 75 88
REMARK SMILES IDX 81 89 83 90 76 91 77 92 78 93 79 94 80 95 56 96 57 97 66 98
REMARK SMILES IDX 58 99 59 100 65 101 67 102 60 103 61 104 62 105 63 106
REMARK SMILES IDX 64 107
REMARK H PARENT 17 9 3 14 8 29 20 35 88 57 54 68
REMARK Flexibility Score: inf
ROOT
ATOM      1  C   UNL A   1      35.415  31.695  28.925  1.00  0.00     0.274 C 
ENDROOT
BRANCH   1   2
ATOM      2  O   UNL A   1      34.349  31.236  28.057  1.00  0.00    -0.460 OA
BRANCH   2   3
ATOM      3  C   UNL A   1      34.574  29.971  27.605  1.00  0.00     0.331 C 
ATOM      4  O   UNL A   1      35.635  29.378  27.822  1.00  0.00    -0.250 OA
BRANCH   3   5
ATOM      5  C   UNL A   1      33.269  29.264  26.707  1.00  0.00     0.218 C 
BRANCH   5   6
ATOM      6  N   UNL A   1      33.912  29.410  25.170  1.00  0.00    -0.339 N 
ATOM      7  C   UNL A   1      33.876  28.626  24.034  1.00  0.00     0.243 C 
ATOM      8  O   UNL A   1      34.614  29.022  23.114  1.00  0.00    -0.273 OA
ATOM      9  H   UNL A   1      34.430  30.238  25.049  1.00  0.00     0.164 HD
BRANCH   7  10
ATOM     10  C   UNL A   1      33.152  27.205  23.846  1.00  0.00     0.176 C 
BRANCH  10  11
ATOM     11  N   UNL A   1      32.666  26.858  22.495  1.00  0.00    -0.340 N 
ATOM     12  O   UNL A   1      31.026  26.020  21.229  1.00  0.00    -0.269 OA
ATOM     13  C   UNL A   1      31.373  26.872  22.042  1.00  0.00     0.251 C 
ATOM     14  H   UNL A   1      33.352  26.585  21.844  1.00  0.00     0.164 HD
BRANCH  13  15
ATOM     15  C   UNL A   1      30.408  27.897  22.487  1.00  0.00     0.040 A 
ATOM     16  C   UNL A   1      30.541  29.229  22.076  1.00  0.00     0.017 A 
ATOM     17  C   UNL A   1      29.272  27.487  23.200  1.00  0.00     0.017 A 
ATOM     18  C   UNL A   1      29.537  30.147  22.383  1.00  0.00     0.040 A 
ATOM     19  C   UNL A   1      28.272  28.411  23.506  1.00  0.00     0.040 A 
ATOM     20  C   UNL A   1      28.411  29.731  23.086  1.00  0.00     0.123 A 
ATOM     21  F   UNL A   1      27.432  30.609  23.336  1.00  0.00    -0.207 F 
ENDBRANCH  13  15
ENDBRANCH  10  11
BRANCH  10  22
ATOM     22  C   UNL A   1      33.771  25.944  24.446  1.00  0.00     0.072 C 
BRANCH  22  23
ATOM     23  C   UNL A   1      33.204  24.603  24.021  1.00  0.00    -0.020 A 
ATOM     24  C   UNL A   1      31.971  24.126  24.482  1.00  0.00     0.087 A 
ATOM     25  C   UNL A   1      34.010  23.465  23.654  1.00  0.00     0.003 A 
ATOM     26  N   UNL A   1      31.998  22.784  24.863  1.00  0.00    -0.361 N 
ATOM     27  C   UNL A   1      33.276  22.299  24.759  1.00  0.00     0.046 A 
ATOM     28  C   UNL A   1      35.785  23.289  23.286  1.00  0.00     0.010 A 
ATOM     29  H   UNL A   1      31.217  22.263  25.160  1.00  0.00     0.166 HD
ATOM     30  C   UNL A   1      34.270  21.005  25.548  1.00  0.00     0.026 A 
ATOM     31  C   UNL A   1      36.796  22.076  24.140  1.00  0.00     0.001 A 
ATOM     32  C   UNL A   1      36.036  20.954  25.277  1.00  0.00     0.002 A 
ENDBRANCH  22  23
ENDBRANCH  10  22
ENDBRANCH   7  10
ENDBRANCH   5   6
BRANCH   5  33
ATOM     33  C   UNL A   1      31.620  27.965  27.374  1.00  0.00     0.193 C 
BRANCH  33  34
ATOM     34  O   UNL A   1      31.197  26.536  26.863  1.00  0.00    -0.394 OA
ATOM     35  H   UNL A   1      30.494  26.624  26.202  1.00  0.00     0.210 HD
ENDBRANCH  33  34
ENDBRANCH   5  33
ENDBRANCH   3   5
ENDBRANCH   2   3
ENDBRANCH   1   2
BRANCH   1  36
ATOM     36  C   UNL A   1      35.274  31.282  30.399  1.00  0.00     0.275 C 
BRANCH  36  37
ATOM     37  O   UNL A   1      36.484  31.447  31.170  1.00  0.00    -0.458 OA
BRANCH  37  38
ATOM     38  C   UNL A   1      37.256  30.339  31.274  1.00  0.00     0.338 C 
ATOM     39  O   UNL A   1      36.918  29.258  31.733  1.00  0.00    -0.246 OA
BRANCH  38  40
ATOM     40  C   UNL A   1      38.603  30.526  30.696  1.00  0.00     0.060 A 
ATOM     41  C   UNL A   1      38.731  30.423  29.318  1.00  0.00     0.016 A 
ATOM     42  C   UNL A   1      39.747  30.476  31.498  1.00  0.00     0.016 A 
ATOM     43  C   UNL A   1      39.971  30.113  28.754  1.00  0.00     0.010 A 
ATOM     44  C   UNL A   1      41.012  30.277  30.910  1.00  0.00     0.010 A 
ATOM     45  C   UNL A   1      41.134  30.033  29.531  1.00  0.00    -0.014 A 
BRANCH  45  46
ATOM     46  C   UNL A   1      42.430  29.621  28.899  1.00  0.00     0.031 A 
ATOM     47  C   UNL A   1      42.607  28.219  28.362  1.00  0.00     0.074 A 
ATOM     48  C   UNL A   1      43.426  30.513  28.709  1.00  0.00     0.049 A 
ATOM     49  N   UNL A   1      43.694  27.618  27.944  1.00  0.00    -0.248 NA
ATOM     50  C   UNL A   1      41.395  27.391  28.260  1.00  0.00     0.031 C 
ATOM     51  C   UNL A   1      43.359  31.938  29.040  1.00  0.00     0.029 A 
ATOM     52  N   UNL A   1      44.683  30.367  28.168  1.00  0.00    -0.354 N 
ATOM     53  C   UNL A   1      43.311  26.327  27.589  1.00  0.00     0.074 A 
ATOM     54  C   UNL A   1      41.883  26.241  27.814  1.00  0.00     0.031 C 
ATOM     55  C   UNL A   1      44.495  32.539  28.654  1.00  0.00     0.029 A 
ATOM     56  C   UNL A   1      45.426  31.527  28.169  1.00  0.00     0.049 A 
ATOM     57  H   UNL A   1      45.020  29.511  27.813  1.00  0.00     0.167 HD
ATOM     58  C   UNL A   1      44.082  25.306  27.139  1.00  0.00     0.037 A 
ATOM     59  C   UNL A   1      46.726  31.749  27.883  1.00  0.00     0.037 A 
ATOM     60  C   UNL A   1      45.499  25.414  26.892  1.00  0.00     0.049 A 
ATOM     61  C   UNL A   1      47.591  30.582  27.490  1.00  0.00     0.074 A 
ATOM     62  C   UNL A   1      46.390  24.424  26.514  1.00  0.00     0.029 A 
ATOM     63  N   UNL A   1      46.230  26.590  26.990  1.00  0.00    -0.354 N 
ATOM     64  N   UNL A   1      47.247  29.332  27.294  1.00  0.00    -0.248 NA
ATOM     65  C   UNL A   1      49.027  30.845  27.314  1.00  0.00     0.031 C 
ATOM     66  C   UNL A   1      47.667  24.992  26.430  1.00  0.00     0.029 A 
ATOM     67  C   UNL A   1      47.563  26.347  26.700  1.00  0.00     0.049 A 
ATOM     68  H   UNL A   1      45.856  27.468  27.229  1.00  0.00     0.167 HD
ATOM     69  C   UNL A   1      48.420  28.661  26.964  1.00  0.00     0.074 A 
ATOM     70  C   UNL A   1      49.480  29.649  26.965  1.00  0.00     0.031 C 
ATOM     71  C   UNL A   1      48.605  27.344  26.697  1.00  0.00     0.037 A 
BRANCH  58  72
ATOM     72  C   UNL A   1      43.429  23.956  26.981  1.00  0.00     0.058 A 
ATOM     73  C   UNL A   1      43.178  23.101  28.065  1.00  0.00     0.135 A 
ATOM     74  C   UNL A   1      43.050  23.513  25.701  1.00  0.00     0.135 A 
ATOM     75  F   UNL A   1      43.531  23.467  29.308  1.00  0.00    -0.206 F 
ATOM     76  C   UNL A   1      42.610  21.841  27.883  1.00  0.00     0.059 A 
ATOM     77  C   UNL A   1      42.458  22.270  25.498  1.00  0.00     0.059 A 
ATOM     78  F   UNL A   1      43.262  24.290  24.627  1.00  0.00    -0.206 F 
ATOM     79  C   UNL A   1      42.262  21.431  26.593  1.00  0.00     0.060 A 
BRANCH  79  80
ATOM     80  S   UNL A   1      41.567  19.780  26.358  1.00  0.00     0.124 S 
ATOM     81  O   UNL A   1      41.872  19.151  27.639  1.00  0.00    -0.237 OA
ATOM     82  O   UNL A   1      40.157  20.064  26.111  1.00  0.00    -0.237 OA
ATOM     83  O   UNL A   1      42.308  19.258  25.214  1.00  0.00    -0.744 OA
ENDBRANCH  79  80
ENDBRANCH  58  72
BRANCH  59  84
ATOM     84  C   UNL A   1      47.311  33.112  28.057  1.00  0.00     0.058 A 
ATOM     85  C   UNL A   1      47.295  34.059  27.022  1.00  0.00     0.135 A 
ATOM     86  C   UNL A   1      47.906  33.493  29.274  1.00  0.00     0.135 A 
ATOM     87  F   UNL A   1      46.759  33.744  25.833  1.00  0.00    -0.206 F 
ATOM     88  C   UNL A   1      47.849  35.328  27.183  1.00  0.00     0.059 A 
ATOM     89  C   UNL A   1      48.433  34.765  29.469  1.00  0.00     0.059 A 
ATOM     90  F   UNL A   1      47.953  32.631  30.300  1.00  0.00    -0.206 F 
ATOM     91  C   UNL A   1      48.410  35.673  28.413  1.00  0.00     0.060 A 
BRANCH  91  92
ATOM     92  S   UNL A   1      49.077  37.336  28.636  1.00  0.00     0.124 S 
ATOM     93  O   UNL A   1      47.929  38.164  28.283  1.00  0.00    -0.237 OA
ATOM     94  O   UNL A   1      49.453  37.331  30.046  1.00  0.00    -0.237 OA
ATOM     95  O   UNL A   1      50.197  37.377  27.699  1.00  0.00    -0.744 OA
ENDBRANCH  91  92
ENDBRANCH  59  84
BRANCH  71  96
ATOM     96  C   UNL A   1      49.998  26.898  26.349  1.00  0.00     0.058 A 
ATOM     97  C   UNL A   1      50.854  26.337  27.311  1.00  0.00     0.135 A 
ATOM     98  C   UNL A   1      50.461  26.980  25.026  1.00  0.00     0.135 A 
ATOM     99  F   UNL A   1      50.464  26.244  28.591  1.00  0.00    -0.206 F 
ATOM    100  C   UNL A   1      52.127  25.887  26.974  1.00  0.00     0.059 A 
ATOM    101  C   UNL A   1      51.719  26.513  24.663  1.00  0.00     0.059 A 
ATOM    102  F   UNL A   1      49.678  27.503  24.068  1.00  0.00    -0.206 F 
ATOM    103  C   UNL A   1      52.550  25.976  25.646  1.00  0.00     0.060 A 
BRANCH 103 104
ATOM    104  S   UNL A   1      54.185  25.348  25.214  1.00  0.00     0.124 S 
ATOM    105  O   UNL A   1      54.434  26.021  23.943  1.00  0.00    -0.237 OA
ATOM    106  O   UNL A   1      55.000  25.797  26.339  1.00  0.00    -0.237 OA
ATOM    107  O   UNL A   1      53.984  23.904  25.132  1.00  0.00    -0.744 OA
ENDBRANCH 103 104
ENDBRANCH  71  96
ENDBRANCH  45  46
ENDBRANCH  38  40
ENDBRANCH  37  38
ENDBRANCH  36  37
ENDBRANCH   1  36
TORSDOF 22
ENDMDL
MODEL 2
REMARK VINA RESULT:     -11.6      4.720     11.243
REMARK SMILES O=C(N[C@@H](Cc1c[nH]c2ccccc12)C(=O)N[C@@H](CO)C(=O)OCCOC(=O)c1ccc(-c2c3nc(c(-c4c(F)cc(S(=O)(=O)[O-])cc4F)c4ccc([nH]4)c(-c4c(F)cc(S(=O)(=O)[O-])cc4F)c4nc(c(-c5c(F)cc(S(=O)(=O)[O-])cc5F)c5ccc2[nH]5)C=C4)C=C3)cc1)c1ccc(F)cc1
REMARK SMILES IDX 24 1 23 2 21 3 22 4 18 5 17 6 15 7 16 8 4 10 3 11 1 12 2 13
REMARK SMILES IDX 95 15 96 16 101 17 97 18 100 19 98 20 99 21 5 22 6 23 7 24
REMARK SMILES IDX 14 25 8 26 9 27 13 28 10 30 12 31 11 32 19 33 20 34 25 36
REMARK SMILES IDX 26 37 27 38 28 39 29 40 30 41 94 42 31 43 93 44 32 45 33 46
REMARK SMILES IDX 34 47 87 48 35 49 92 50 86 51 88 52 36 53 91 54 85 55 84 56
REMARK SMILES IDX 37 58 71 59 50 60 70 61 51 62 54 63 69 64 89 65 52 66 53 67
REMARK SMILES IDX 68 69 90 70 55 71 38 72 39 73 48 74 40 75 41 76 47 77 49 78
REMARK SMILES IDX 42 79 43 80 44 81 45 82 46 83 72 84 73 85 82 86 74 87 75 88
REMARK SMILES IDX 81 89 83 90 76 91 77 92 78 93 79 94 80 95 56 96 57 97 66 98
REMARK SMILES IDX 58 99 59 100 65 101 67 102 60 103 61 104 62 105 63 106
REMARK SMILES IDX 64 107
REMARK H PARENT 17 9 3 14 8 29 20 35 88 57 54 68
REMARK Flexibility Score: inf
ROOT
ATOM      1  C   UNL A   1      35.645  33.991  31.178  1.00  0.00     0.274 C 
ENDROOT
BRANCH   1   2
ATOM      2  O   UNL A   1      36.626  33.471  32.108  1.00  0.00    -0.460 OA
BRANCH   2   3
ATOM      3  C   UNL A   1      37.857  33.357  31.535  1.00  0.00     0.331 C 
ATOM      4  O   UNL A   1      38.043  33.588  30.335  1.00  0.00    -0.250 OA
BRANCH   3   5
ATOM      5  C   UNL A   1      39.129  32.865  32.606  1.00  0.00     0.218 C 
BRANCH   5   6
ATOM      6  N   UNL A   1      38.489  31.402  33.104  1.00  0.00    -0.339 N 
ATOM      7  C   UNL A   1      39.015  30.277  33.705  1.00  0.00     0.243 C 
ATOM      8  O   UNL A   1      38.223  29.321  33.788  1.00  0.00    -0.273 OA
ATOM      9  H   UNL A   1      37.523  31.328  32.929  1.00  0.00     0.164 HD
BRANCH   7  10
ATOM     10  C   UNL A   1      40.543  30.014  34.127  1.00  0.00     0.176 C 
BRANCH  10  11
ATOM     11  N   UNL A   1      40.849  29.926  35.568  1.00  0.00    -0.340 N 
ATOM     12  O   UNL A   1      42.072  30.651  37.293  1.00  0.00    -0.269 OA
ATOM     13  C   UNL A   1      41.283  30.930  36.394  1.00  0.00     0.251 C 
ATOM     14  H   UNL A   1      40.727  29.042  35.985  1.00  0.00     0.164 HD
BRANCH  13  15
ATOM     15  C   UNL A   1      40.804  32.318  36.243  1.00  0.00     0.040 A 
ATOM     16  C   UNL A   1      39.441  32.619  36.354  1.00  0.00     0.017 A 
ATOM     17  C   UNL A   1      41.750  33.349  36.139  1.00  0.00     0.017 A 
ATOM     18  C   UNL A   1      39.029  33.952  36.358  1.00  0.00     0.040 A 
ATOM     19  C   UNL A   1      41.330  34.680  36.141  1.00  0.00     0.040 A 
ATOM     20  C   UNL A   1      39.974  34.968  36.260  1.00  0.00     0.123 A 
ATOM     21  F   UNL A   1      39.573  36.244  36.311  1.00  0.00    -0.207 F 
ENDBRANCH  13  15
ENDBRANCH  10  11
BRANCH  10  22
ATOM     22  C   UNL A   1      41.357  28.931  33.420  1.00  0.00     0.072 C 
BRANCH  22  23
ATOM     23  C   UNL A   1      42.697  28.546  34.018  1.00  0.00    -0.020 A 
ATOM     24  C   UNL A   1      43.914  28.858  33.400  1.00  0.00     0.087 A 
ATOM     25  C   UNL A   1      42.907  27.390  34.853  1.00  0.00     0.003 A 
ATOM     26  N   UNL A   1      44.825  27.800  33.395  1.00  0.00    -0.361 N 
ATOM     27  C   UNL A   1      44.240  26.684  33.935  1.00  0.00     0.046 A 
ATOM     28  C   UNL A   1      41.751  26.256  35.687  1.00  0.00     0.010 A 
ATOM     29  H   UNL A   1      45.748  27.847  33.054  1.00  0.00     0.166 HD
ATOM     30  C   UNL A   1      44.419  24.887  33.780  1.00  0.00     0.026 A 
ATOM     31  C   UNL A   1      41.861  24.479  35.453  1.00  0.00     0.001 A 
ATOM     32  C   UNL A   1      43.183  23.808  34.488  1.00  0.00     0.002 A 
ENDBRANCH  22  23
ENDBRANCH  10  22
ENDBRANCH   7  10
ENDBRANCH   5   6
BRANCH   5  33
ATOM     33  C   UNL A   1      41.214  33.558  32.755  1.00  0.00     0.193 C 
BRANCH  33  34
ATOM     34  O   UNL A   1      41.854  34.923  32.296  1.00  0.00    -0.394 OA
ATOM     35  H   UNL A   1      41.803  34.996  31.331  1.00  0.00     0.210 HD
ENDBRANCH  33  34
ENDBRANCH   5  33
ENDBRANCH   3   5
ENDBRANCH   2   3
ENDBRANCH   1   2
BRANCH   1  36
ATOM     36  C   UNL A   1      34.655  32.949  30.630  1.00  0.00     0.275 C 
BRANCH  36  37
ATOM     37  O   UNL A   1      35.205  31.617  30.534  1.00  0.00    -0.458 OA
BRANCH  37  38
ATOM     38  C   UNL A   1      35.248  31.102  29.283  1.00  0.00     0.338 C 
ATOM     39  O   UNL A   1      34.459  31.325  28.377  1.00  0.00    -0.246 OA
BRANCH  38  40
ATOM     40  C   UNL A   1      36.430  30.244  29.059  1.00  0.00     0.060 A 
ATOM     41  C   UNL A   1      37.067  29.723  30.177  1.00  0.00     0.016 A 
ATOM     42  C   UNL A   1      37.082  30.220  27.823  1.00  0.00     0.016 A 
ATOM     43  C   UNL A   1      38.405  29.328  30.096  1.00  0.00     0.010 A 
ATOM     44  C   UNL A   1      38.394  29.713  27.727  1.00  0.00     0.010 A 
ATOM     45  C   UNL A   1      39.096  29.312  28.877  1.00  0.00    -0.014 A 
BRANCH  45  46
ATOM     46  C   UNL A   1      40.552  28.956  28.846  1.00  0.00     0.031 A 
ATOM     47  C   UNL A   1      41.598  29.976  29.238  1.00  0.00     0.074 A 
ATOM     48  C   UNL A   1      40.955  27.697  28.566  1.00  0.00     0.049 A 
ATOM     49  N   UNL A   1      42.900  29.924  29.111  1.00  0.00    -0.248 NA
ATOM     50  C   UNL A   1      41.113  31.210  29.876  1.00  0.00     0.031 C 
ATOM     51  C   UNL A   1      40.065  26.563  28.309  1.00  0.00     0.029 A 
ATOM     52  N   UNL A   1      42.213  27.148  28.474  1.00  0.00    -0.354 N 
ATOM     53  C   UNL A   1      43.386  31.136  29.596  1.00  0.00     0.074 A 
ATOM     54  C   UNL A   1      42.236  31.893  30.046  1.00  0.00     0.031 C 
ATOM     55  C   UNL A   1      40.798  25.453  28.137  1.00  0.00     0.029 A 
ATOM     56  C   UNL A   1      42.211  25.812  28.140  1.00  0.00     0.049 A 
ATOM     57  H   UNL A   1      43.039  27.663  28.632  1.00  0.00     0.167 HD
ATOM     58  C   UNL A   1      44.666  31.582  29.639  1.00  0.00     0.037 A 
ATOM     59  C   UNL A   1      43.218  24.980  27.803  1.00  0.00     0.037 A 
ATOM     60  C   UNL A   1      45.805  30.806  29.213  1.00  0.00     0.049 A 
ATOM     61  C   UNL A   1      44.622  25.523  27.752  1.00  0.00     0.074 A 
ATOM     62  C   UNL A   1      47.134  31.187  29.139  1.00  0.00     0.029 A 
ATOM     63  N   UNL A   1      45.748  29.482  28.799  1.00  0.00    -0.354 N 
ATOM     64  N   UNL A   1      45.054  26.718  28.078  1.00  0.00    -0.248 NA
ATOM     65  C   UNL A   1      45.670  24.619  27.255  1.00  0.00     0.031 C 
ATOM     66  C   UNL A   1      47.871  30.110  28.634  1.00  0.00     0.029 A 
ATOM     67  C   UNL A   1      47.013  29.039  28.448  1.00  0.00     0.049 A 
ATOM     68  H   UNL A   1      44.929  28.938  28.760  1.00  0.00     0.167 HD
ATOM     69  C   UNL A   1      46.423  26.708  27.833  1.00  0.00     0.074 A 
ATOM     70  C   UNL A   1      46.751  25.381  27.354  1.00  0.00     0.031 C 
ATOM     71  C   UNL A   1      47.324  27.710  27.981  1.00  0.00     0.037 A 
BRANCH  58  72
ATOM     72  C   UNL A   1      44.894  33.008  30.071  1.00  0.00     0.058 A 
ATOM     73  C   UNL A   1      45.105  33.373  31.409  1.00  0.00     0.135 A 
ATOM     74  C   UNL A   1      44.897  34.034  29.108  1.00  0.00     0.135 A 
ATOM     75  F   UNL A   1      45.100  32.438  32.372  1.00  0.00    -0.206 F 
ATOM     76  C   UNL A   1      45.272  34.706  31.783  1.00  0.00     0.059 A 
ATOM     77  C   UNL A   1      45.087  35.368  29.455  1.00  0.00     0.059 A 
ATOM     78  F   UNL A   1      44.703  33.744  27.812  1.00  0.00    -0.206 F 
ATOM     79  C   UNL A   1      45.252  35.698  30.798  1.00  0.00     0.060 A 
BRANCH  79  80
ATOM     80  S   UNL A   1      45.426  37.426  31.295  1.00  0.00     0.124 S 
ATOM     81  O   UNL A   1      44.330  38.051  30.562  1.00  0.00    -0.237 OA
ATOM     82  O   UNL A   1      45.261  37.356  32.743  1.00  0.00    -0.237 OA
ATOM     83  O   UNL A   1      46.766  37.780  30.837  1.00  0.00    -0.744 OA
ENDBRANCH  79  80
ENDBRANCH  58  72
BRANCH  59  84
ATOM     84  C   UNL A   1      42.926  23.575  27.388  1.00  0.00     0.058 A 
ATOM     85  C   UNL A   1      42.751  22.550  28.328  1.00  0.00     0.135 A 
ATOM     86  C   UNL A   1      42.820  23.231  26.028  1.00  0.00     0.135 A 
ATOM     87  F   UNL A   1      42.861  22.816  29.639  1.00  0.00    -0.206 F 
ATOM     88  C   UNL A   1      42.485  21.238  27.940  1.00  0.00     0.059 A 
ATOM     89  C   UNL A   1      42.521  21.936  25.617  1.00  0.00     0.059 A 
ATOM     90  F   UNL A   1      42.979  24.168  25.081  1.00  0.00    -0.206 F 
ATOM     91  C   UNL A   1      42.366  20.943  26.581  1.00  0.00     0.060 A 
BRANCH  91  92
ATOM     92  S   UNL A   1      41.969  19.253  26.082  1.00  0.00     0.124 S 
ATOM     93  O   UNL A   1      42.318  18.503  27.284  1.00  0.00    -0.237 OA
ATOM     94  O   UNL A   1      40.544  19.349  25.779  1.00  0.00    -0.237 OA
ATOM     95  O   UNL A   1      42.834  19.032  24.926  1.00  0.00    -0.744 OA
ENDBRANCH  91  92
ENDBRANCH  59  84
BRANCH  71  96
ATOM     96  C   UNL A   1      48.759  27.404  27.653  1.00  0.00     0.058 A 
ATOM     97  C   UNL A   1      49.645  26.902  28.619  1.00  0.00     0.135 A 
ATOM     98  C   UNL A   1      49.237  27.559  26.341  1.00  0.00     0.135 A 
ATOM     99  F   UNL A   1      49.242  26.743  29.890  1.00  0.00    -0.206 F 
ATOM    100  C   UNL A   1      50.961  26.580  28.300  1.00  0.00     0.059 A 
ATOM    101  C   UNL A   1      50.540  27.219  25.995  1.00  0.00     0.059 A 
ATOM    102  F   UNL A   1      48.427  28.029  25.379  1.00  0.00    -0.206 F 
ATOM    103  C   UNL A   1      51.398  26.738  26.983  1.00  0.00     0.060 A 
BRANCH 103 104
ATOM    104  S   UNL A   1      53.093  26.274  26.572  1.00  0.00     0.124 S 
ATOM    105  O   UNL A   1      53.333  27.067  25.371  1.00  0.00    -0.237 OA
ATOM    106  O   UNL A   1      53.829  26.690  27.763  1.00  0.00    -0.237 OA
ATOM    107  O   UNL A   1      53.010  24.831  26.367  1.00  0.00    -0.744 OA
ENDBRANCH 103 104
ENDBRANCH  71  96
ENDBRANCH  45  46
ENDBRANCH  38  40
ENDBRANCH  37  38
ENDBRANCH  36  37
ENDBRANCH   1  36
TORSDOF 22
ENDMDL
MODEL 3
REMARK VINA RESULT:     -11.5      4.781     11.389
REMARK SMILES O=C(N[C@@H](Cc1c[nH]c2ccccc12)C(=O)N[C@@H](CO)C(=O)OCCOC(=O)c1ccc(-c2c3nc(c(-c4c(F)cc(S(=O)(=O)[O-])cc4F)c4ccc([nH]4)c(-c4c(F)cc(S(=O)(=O)[O-])cc4F)c4nc(c(-c5c(F)cc(S(=O)(=O)[O-])cc5F)c5ccc2[nH]5)C=C4)C=C3)cc1)c1ccc(F)cc1
REMARK SMILES IDX 24 1 23 2 21 3 22 4 18 5 17 6 15 7 16 8 4 10 3 11 1 12 2 13
REMARK SMILES IDX 95 15 96 16 101 17 97 18 100 19 98 20 99 21 5 22 6 23 7 24
REMARK SMILES IDX 14 25 8 26 9 27 13 28 10 30 12 31 11 32 19 33 20 34 25 36
REMARK SMILES IDX 26 37 27 38 28 39 29 40 30 41 94 42 31 43 93 44 32 45 33 46
REMARK SMILES IDX 34 47 87 48 35 49 92 50 86 51 88 52 36 53 91 54 85 55 84 56
REMARK SMILES IDX 37 58 71 59 50 60 70 61 51 62 54 63 69 64 89 65 52 66 53 67
REMARK SMILES IDX 68 69 90 70 55 71 38 72 39 73 48 74 40 75 41 76 47 77 49 78
REMARK SMILES IDX 42 79 43 80 44 81 45 82 46 83 72 84 73 85 82 86 74 87 75 88
REMARK SMILES IDX 81 89 83 90 76 91 77 92 78 93 79 94 80 95 56 96 57 97 66 98
REMARK SMILES IDX 58 99 59 100 65 101 67 102 60 103 61 104 62 105 63 106
REMARK SMILES IDX 64 107
REMARK H PARENT 17 9 3 14 8 29 20 35 88 57 54 68
REMARK Flexibility Score: inf
ROOT
ATOM      1  C   UNL A   1      35.857  33.623  32.108  1.00  0.00     0.274 C 
ENDROOT
BRANCH   1   2
ATOM      2  O   UNL A   1      36.619  33.089  33.219  1.00  0.00    -0.460 OA
BRANCH   2   3
ATOM      3  C   UNL A   1      37.926  32.892  32.888  1.00  0.00     0.331 C 
ATOM      4  O   UNL A   1      38.340  33.050  31.735  1.00  0.00    -0.250 OA
BRANCH   3   5
ATOM      5  C   UNL A   1      38.955  32.407  34.197  1.00  0.00     0.218 C 
BRANCH   5   6
ATOM      6  N   UNL A   1      38.941  30.756  33.931  1.00  0.00    -0.339 N 
ATOM      7  C   UNL A   1      39.881  29.754  34.057  1.00  0.00     0.243 C 
ATOM      8  O   UNL A   1      39.516  28.649  33.616  1.00  0.00    -0.273 OA
ATOM      9  H   UNL A   1      38.069  30.427  33.614  1.00  0.00     0.164 HD
BRANCH   7  10
ATOM     10  C   UNL A   1      41.411  29.897  34.525  1.00  0.00     0.176 C 
BRANCH  10  11
ATOM     11  N   UNL A   1      42.229  30.943  33.879  1.00  0.00    -0.340 N 
ATOM     12  O   UNL A   1      44.265  31.697  33.347  1.00  0.00    -0.269 OA
ATOM     13  C   UNL A   1      43.440  30.792  33.255  1.00  0.00     0.251 C 
ATOM     14  H   UNL A   1      41.861  31.856  33.900  1.00  0.00     0.164 HD
BRANCH  13  15
ATOM     15  C   UNL A   1      43.756  29.589  32.461  1.00  0.00     0.040 A 
ATOM     16  C   UNL A   1      45.060  29.352  32.012  1.00  0.00     0.017 A 
ATOM     17  C   UNL A   1      42.762  28.612  32.295  1.00  0.00     0.017 A 
ATOM     18  C   UNL A   1      45.367  28.138  31.396  1.00  0.00     0.040 A 
ATOM     19  C   UNL A   1      43.075  27.401  31.675  1.00  0.00     0.040 A 
ATOM     20  C   UNL A   1      44.377  27.173  31.240  1.00  0.00     0.123 A 
ATOM     21  F   UNL A   1      44.691  25.995  30.688  1.00  0.00    -0.207 F 
ENDBRANCH  13  15
ENDBRANCH  10  11
BRANCH  10  22
ATOM     22  C   UNL A   1      41.760  29.899  36.013  1.00  0.00     0.072 C 
BRANCH  22  23
ATOM     23  C   UNL A   1      42.960  29.087  36.461  1.00  0.00    -0.020 A 
ATOM     24  C   UNL A   1      44.277  29.481  36.196  1.00  0.00     0.087 A 
ATOM     25  C   UNL A   1      42.951  27.655  36.627  1.00  0.00     0.003 A 
ATOM     26  N   UNL A   1      45.093  28.440  35.750  1.00  0.00    -0.361 N 
ATOM     27  C   UNL A   1      44.348  27.297  35.608  1.00  0.00     0.046 A 
ATOM     28  C   UNL A   1      41.597  26.437  36.676  1.00  0.00     0.010 A 
ATOM     29  H   UNL A   1      46.057  28.514  35.565  1.00  0.00     0.166 HD
ATOM     30  C   UNL A   1      44.407  25.795  34.597  1.00  0.00     0.026 A 
ATOM     31  C   UNL A   1      41.602  24.999  35.601  1.00  0.00     0.001 A 
ATOM     32  C   UNL A   1      42.998  24.696  34.557  1.00  0.00     0.002 A 
ENDBRANCH  22  23
ENDBRANCH  10  22
ENDBRANCH   7  10
ENDBRANCH   5   6
BRANCH   5  33
ATOM     33  C   UNL A   1      40.381  33.579  35.398  1.00  0.00     0.193 C 
BRANCH  33  34
ATOM     34  O   UNL A   1      41.937  33.396  35.570  1.00  0.00    -0.394 OA
ATOM     35  H   UNL A   1      42.291  32.910  34.810  1.00  0.00     0.210 HD
ENDBRANCH  33  34
ENDBRANCH   5  33
ENDBRANCH   3   5
ENDBRANCH   2   3
ENDBRANCH   1   2
BRANCH   1  36
ATOM     36  C   UNL A   1      34.855  32.642  31.478  1.00  0.00     0.275 C 
BRANCH  36  37
ATOM     37  O   UNL A   1      35.434  31.368  31.118  1.00  0.00    -0.458 OA
BRANCH  37  38
ATOM     38  C   UNL A   1      35.580  31.157  29.789  1.00  0.00     0.338 C 
ATOM     39  O   UNL A   1      34.902  31.643  28.897  1.00  0.00    -0.246 OA
BRANCH  38  40
ATOM     40  C   UNL A   1      36.734  30.291  29.472  1.00  0.00     0.060 A 
ATOM     41  C   UNL A   1      37.511  29.843  30.532  1.00  0.00     0.016 A 
ATOM     42  C   UNL A   1      37.228  30.192  28.168  1.00  0.00     0.016 A 
ATOM     43  C   UNL A   1      38.833  29.447  30.309  1.00  0.00     0.010 A 
ATOM     44  C   UNL A   1      38.522  29.683  27.941  1.00  0.00     0.010 A 
ATOM     45  C   UNL A   1      39.367  29.358  29.017  1.00  0.00    -0.014 A 
BRANCH  45  46
ATOM     46  C   UNL A   1      40.812  29.005  28.826  1.00  0.00     0.031 A 
ATOM     47  C   UNL A   1      41.890  30.036  29.071  1.00  0.00     0.074 A 
ATOM     48  C   UNL A   1      41.186  27.741  28.529  1.00  0.00     0.049 A 
ATOM     49  N   UNL A   1      43.169  29.985  28.796  1.00  0.00    -0.248 NA
ATOM     50  C   UNL A   1      41.475  31.283  29.734  1.00  0.00     0.031 C 
ATOM     51  C   UNL A   1      40.278  26.599  28.401  1.00  0.00     0.029 A 
ATOM     52  N   UNL A   1      42.428  27.193  28.304  1.00  0.00    -0.354 N 
ATOM     53  C   UNL A   1      43.701  31.208  29.195  1.00  0.00     0.074 A 
ATOM     54  C   UNL A   1      42.607  31.973  29.758  1.00  0.00     0.031 C 
ATOM     55  C   UNL A   1      40.993  25.487  28.170  1.00  0.00     0.029 A 
ATOM     56  C   UNL A   1      42.394  25.850  28.002  1.00  0.00     0.049 A 
ATOM     57  H   UNL A   1      43.263  27.714  28.354  1.00  0.00     0.167 HD
ATOM     58  C   UNL A   1      44.976  31.659  29.081  1.00  0.00     0.037 A 
ATOM     59  C   UNL A   1      43.360  25.013  27.569  1.00  0.00     0.037 A 
ATOM     60  C   UNL A   1      46.062  30.876  28.543  1.00  0.00     0.049 A 
ATOM     61  C   UNL A   1      44.746  25.558  27.346  1.00  0.00     0.074 A 
ATOM     62  C   UNL A   1      47.371  31.259  28.308  1.00  0.00     0.029 A 
ATOM     63  N   UNL A   1      45.964  29.543  28.168  1.00  0.00    -0.354 N 
ATOM     64  N   UNL A   1      45.206  26.761  27.593  1.00  0.00    -0.248 NA
ATOM     65  C   UNL A   1      45.734  24.647  26.751  1.00  0.00     0.031 C 
ATOM     66  C   UNL A   1      48.052  30.173  27.745  1.00  0.00     0.029 A 
ATOM     67  C   UNL A   1      47.182  29.095  27.683  1.00  0.00     0.049 A 
ATOM     68  H   UNL A   1      45.149  28.996  28.236  1.00  0.00     0.167 HD
ATOM     69  C   UNL A   1      46.538  26.750  27.192  1.00  0.00     0.074 A 
ATOM     70  C   UNL A   1      46.815  25.413  26.707  1.00  0.00     0.031 C 
ATOM     71  C   UNL A   1      47.445  27.758  27.212  1.00  0.00     0.037 A 
BRANCH  58  72
ATOM     72  C   UNL A   1      45.244  33.095  29.452  1.00  0.00     0.058 A 
ATOM     73  C   UNL A   1      45.839  33.468  30.667  1.00  0.00     0.135 A 
ATOM     74  C   UNL A   1      44.890  34.121  28.558  1.00  0.00     0.135 A 
ATOM     75  F   UNL A   1      46.185  32.531  31.564  1.00  0.00    -0.206 F 
ATOM     76  C   UNL A   1      46.037  34.807  31.000  1.00  0.00     0.059 A 
ATOM     77  C   UNL A   1      45.102  35.464  28.857  1.00  0.00     0.059 A 
ATOM     78  F   UNL A   1      44.322  33.824  27.379  1.00  0.00    -0.206 F 
ATOM     79  C   UNL A   1      45.657  35.799  30.091  1.00  0.00     0.060 A 
BRANCH  79  80
ATOM     80  S   UNL A   1      45.876  37.533  30.547  1.00  0.00     0.124 S 
ATOM     81  O   UNL A   1      45.904  37.451  32.004  1.00  0.00    -0.237 OA
ATOM     82  O   UNL A   1      47.144  37.869  29.907  1.00  0.00    -0.237 OA
ATOM     83  O   UNL A   1      44.700  38.186  29.980  1.00  0.00    -0.744 OA
ENDBRANCH  79  80
ENDBRANCH  58  72
BRANCH  59  84
ATOM     84  C   UNL A   1      43.029  23.599  27.222  1.00  0.00     0.058 A 
ATOM     85  C   UNL A   1      42.995  22.589  28.195  1.00  0.00     0.135 A 
ATOM     86  C   UNL A   1      42.743  23.229  25.895  1.00  0.00     0.135 A 
ATOM     87  F   UNL A   1      43.279  22.880  29.474  1.00  0.00    -0.206 F 
ATOM     88  C   UNL A   1      42.693  21.268  27.868  1.00  0.00     0.059 A 
ATOM     89  C   UNL A   1      42.405  21.925  25.551  1.00  0.00     0.059 A 
ATOM     90  F   UNL A   1      42.762  24.149  24.919  1.00  0.00    -0.206 F 
ATOM     91  C   UNL A   1      42.394  20.947  26.544  1.00  0.00     0.060 A 
BRANCH  91  92
ATOM     92  S   UNL A   1      41.950  19.246  26.133  1.00  0.00     0.124 S 
ATOM     93  O   UNL A   1      40.531  19.379  25.820  1.00  0.00    -0.237 OA
ATOM     94  O   UNL A   1      42.830  18.962  25.003  1.00  0.00    -0.237 OA
ATOM     95  O   UNL A   1      42.261  18.513  27.357  1.00  0.00    -0.744 OA
ENDBRANCH  91  92
ENDBRANCH  59  84
BRANCH  71  96
ATOM     96  C   UNL A   1      48.834  27.447  26.728  1.00  0.00     0.058 A 
ATOM     97  C   UNL A   1      49.175  27.523  25.368  1.00  0.00     0.135 A 
ATOM     98  C   UNL A   1      49.850  27.126  27.642  1.00  0.00     0.135 A 
ATOM     99  F   UNL A   1      48.239  27.818  24.451  1.00  0.00    -0.206 F 
ATOM    100  C   UNL A   1      50.472  27.277  24.930  1.00  0.00     0.059 A 
ATOM    101  C   UNL A   1      51.159  26.901  27.229  1.00  0.00     0.059 A 
ATOM    102  F   UNL A   1      49.577  27.047  28.954  1.00  0.00    -0.206 F 
ATOM    103  C   UNL A   1      51.459  26.969  25.869  1.00  0.00     0.060 A 
BRANCH 103 104
ATOM    104  S   UNL A   1      53.147  26.695  25.293  1.00  0.00     0.124 S 
ATOM    105  O   UNL A   1      52.941  25.718  24.229  1.00  0.00    -0.237 OA
ATOM    106  O   UNL A   1      53.550  28.029  24.859  1.00  0.00    -0.237 OA
ATOM    107  O   UNL A   1      53.835  26.196  26.481  1.00  0.00    -0.744 OA
ENDBRANCH 103 104
ENDBRANCH  71  96
ENDBRANCH  45  46
ENDBRANCH  38  40
ENDBRANCH  37  38
ENDBRANCH  36  37
ENDBRANCH   1  36
TORSDOF 22
ENDMDL
