MODEL 1
REMARK VINA RESULT:     -13.5      0.000      0.000
REMARK SMILES Cc1ccc(NC(=O)C[C@H]2SC[C@H](C(=O)OCCOC(=O)c3ccc(-c4c5nc(c(-c6c(F)cc(S(=O)(=O)[O-])cc6F)c6ccc([nH]6)c(-c6c(F)cc(S(=O)(=O)[O-])cc6F)c6nc(c(-c7c(F)cc(S(=O)(=O)[O-])cc7F)c7ccc4[nH]7)C=C6)C=C5)cc3)NC2=O)cc1
REMARK SMILES IDX 17 1 16 2 14 3 15 4 13 5 10 6 11 7 89 8 12 9 88 10 90 11
REMARK SMILES IDX 9 13 7 14 6 15 8 17 5 18 1 19 2 20 3 21 92 22 4 23 91 24
REMARK SMILES IDX 18 25 19 26 20 27 21 28 22 29 23 30 87 31 24 32 86 33 25 34
REMARK SMILES IDX 26 35 27 36 80 37 28 38 85 39 79 40 81 41 29 42 84 43 78 44
REMARK SMILES IDX 77 45 30 47 64 48 43 49 63 50 44 51 47 52 62 53 82 54 45 55
REMARK SMILES IDX 46 56 61 58 83 59 48 60 31 61 32 62 41 63 33 64 34 65 40 66
REMARK SMILES IDX 42 67 35 68 36 69 37 70 38 71 39 72 65 73 66 74 75 75 67 76
REMARK SMILES IDX 68 77 74 78 76 79 69 80 70 81 71 82 72 83 73 84 49 85 50 86
REMARK SMILES IDX 59 87 51 88 52 89 58 90 60 91 53 92 54 93 55 94 56 95 57 96
REMARK H PARENT 88 12 6 16 81 46 47 57
REMARK Flexibility Score: inf
ROOT
ATOM      1  C   UNL A   1      37.226  21.935  25.091  1.00  0.00     0.274 C 
ENDROOT
BRANCH   1   2
ATOM      2  O   UNL A   1      36.069  21.842  24.251  1.00  0.00    -0.461 OA
BRANCH   2   3
ATOM      3  C   UNL A   1      34.950  21.312  24.817  1.00  0.00     0.329 C 
ATOM      4  O   UNL A   1      34.954  20.487  25.705  1.00  0.00    -0.250 OA
BRANCH   3   5
ATOM      5  C   UNL A   1      33.710  21.893  24.123  1.00  0.00     0.202 C 
ATOM      6  C   UNL A   1      32.201  24.396  23.368  1.00  0.00     0.145 C 
ATOM      7  S   UNL A   1      31.307  23.220  24.468  1.00  0.00    -0.145 SA
ATOM      8  C   UNL A   1      33.164  23.653  22.443  1.00  0.00     0.234 C 
ATOM      9  C   UNL A   1      32.777  22.432  25.195  1.00  0.00     0.107 C 
ATOM     10  N   UNL A   1      34.076  22.833  23.063  1.00  0.00    -0.341 N 
ATOM     11  O   UNL A   1      33.265  23.841  21.235  1.00  0.00    -0.274 OA
ATOM     12  H   UNL A   1      35.018  22.882  22.780  1.00  0.00     0.164 HD
BRANCH   6  13
ATOM     13  C   UNL A   1      31.213  25.382  22.745  1.00  0.00     0.124 C 
BRANCH  13  14
ATOM     14  C   UNL A   1      31.706  26.449  21.786  1.00  0.00     0.226 C 
ATOM     15  N   UNL A   1      32.326  27.596  22.165  1.00  0.00    -0.326 N 
ATOM     16  H   UNL A   1      32.697  28.103  21.408  1.00  0.00     0.169 HD
ATOM     17  O   UNL A   1      31.500  26.297  20.574  1.00  0.00    -0.275 OA
BRANCH  15  18
ATOM     18  C   UNL A   1      32.549  28.211  23.402  1.00  0.00     0.041 A 
ATOM     19  C   UNL A   1      33.426  29.875  27.281  1.00  0.00     0.044 C 
ATOM     20  C   UNL A   1      33.137  29.303  25.925  1.00  0.00    -0.051 A 
ATOM     21  C   UNL A   1      31.969  29.665  25.246  1.00  0.00     0.005 A 
ATOM     22  C   UNL A   1      34.023  28.408  25.324  1.00  0.00     0.005 A 
ATOM     23  C   UNL A   1      31.688  29.138  23.981  1.00  0.00     0.026 A 
ATOM     24  C   UNL A   1      33.734  27.877  24.065  1.00  0.00     0.026 A 
ENDBRANCH  15  18
ENDBRANCH  13  14
ENDBRANCH   6  13
ENDBRANCH   3   5
ENDBRANCH   2   3
ENDBRANCH   1   2
BRANCH   1  25
ATOM     25  C   UNL A   1      37.081  23.199  25.958  1.00  0.00     0.275 C 
BRANCH  25  26
ATOM     26  O   UNL A   1      38.244  24.060  26.035  1.00  0.00    -0.458 OA
BRANCH  26  27
ATOM     27  C   UNL A   1      39.237  23.703  26.899  1.00  0.00     0.338 C 
ATOM     28  O   UNL A   1      39.689  22.571  26.996  1.00  0.00    -0.246 OA
BRANCH  27  29
ATOM     29  C   UNL A   1      39.882  24.953  27.399  1.00  0.00     0.060 A 
ATOM     30  C   UNL A   1      40.376  25.913  26.501  1.00  0.00     0.016 A 
ATOM     31  C   UNL A   1      39.673  25.295  28.736  1.00  0.00     0.016 A 
ATOM     32  C   UNL A   1      40.499  27.250  26.902  1.00  0.00     0.010 A 
ATOM     33  C   UNL A   1      39.684  26.620  29.092  1.00  0.00     0.010 A 
ATOM     34  C   UNL A   1      40.075  27.612  28.179  1.00  0.00    -0.014 A 
BRANCH  34  35
ATOM     35  C   UNL A   1      40.135  28.943  28.776  1.00  0.00     0.031 A 
ATOM     36  C   UNL A   1      39.044  29.942  28.745  1.00  0.00     0.074 A 
ATOM     37  C   UNL A   1      41.192  29.091  29.599  1.00  0.00     0.049 A 
ATOM     38  N   UNL A   1      39.123  31.112  29.284  1.00  0.00    -0.248 NA
ATOM     39  C   UNL A   1      37.774  29.729  28.073  1.00  0.00     0.031 C 
ATOM     40  C   UNL A   1      41.401  30.011  30.702  1.00  0.00     0.029 A 
ATOM     41  N   UNL A   1      42.417  28.447  29.448  1.00  0.00    -0.354 N 
ATOM     42  C   UNL A   1      37.889  31.731  29.211  1.00  0.00     0.074 A 
ATOM     43  C   UNL A   1      37.102  30.846  28.387  1.00  0.00     0.031 C 
ATOM     44  C   UNL A   1      42.718  30.058  30.970  1.00  0.00     0.029 A 
ATOM     45  C   UNL A   1      43.397  29.329  29.903  1.00  0.00     0.049 A 
ATOM     46  H   UNL A   1      42.563  27.542  29.089  1.00  0.00     0.167 HD
ATOM     47  C   UNL A   1      37.685  32.876  29.933  1.00  0.00     0.037 A 
ATOM     48  C   UNL A   1      44.220  29.896  28.966  1.00  0.00     0.037 A 
ATOM     49  C   UNL A   1      38.957  33.331  30.502  1.00  0.00     0.049 A 
ATOM     50  C   UNL A   1      44.047  31.397  28.852  1.00  0.00     0.074 A 
ATOM     51  C   UNL A   1      39.576  33.171  31.729  1.00  0.00     0.029 A 
ATOM     52  N   UNL A   1      39.920  33.830  29.643  1.00  0.00    -0.354 N 
ATOM     53  N   UNL A   1      43.028  32.061  29.326  1.00  0.00    -0.248 NA
ATOM     54  C   UNL A   1      45.002  32.262  28.162  1.00  0.00     0.031 C 
ATOM     55  C   UNL A   1      40.953  33.510  31.570  1.00  0.00     0.029 A 
ATOM     56  C   UNL A   1      41.152  33.904  30.259  1.00  0.00     0.049 A 
ATOM     57  H   UNL A   1      39.748  34.096  28.711  1.00  0.00     0.167 HD
ATOM     58  C   UNL A   1      43.186  33.391  29.061  1.00  0.00     0.074 A 
ATOM     59  C   UNL A   1      44.423  33.468  28.304  1.00  0.00     0.031 C 
ATOM     60  C   UNL A   1      42.301  34.338  29.481  1.00  0.00     0.037 A 
BRANCH  47  61
ATOM     61  C   UNL A   1      36.362  33.554  30.283  1.00  0.00     0.058 A 
ATOM     62  C   UNL A   1      35.516  34.037  29.251  1.00  0.00     0.135 A 
ATOM     63  C   UNL A   1      35.885  33.829  31.578  1.00  0.00     0.135 A 
ATOM     64  F   UNL A   1      35.800  33.826  27.958  1.00  0.00    -0.206 F 
ATOM     65  C   UNL A   1      34.352  34.781  29.487  1.00  0.00     0.059 A 
ATOM     66  C   UNL A   1      34.724  34.569  31.842  1.00  0.00     0.059 A 
ATOM     67  F   UNL A   1      36.512  33.397  32.671  1.00  0.00    -0.206 F 
ATOM     68  C   UNL A   1      33.977  35.067  30.790  1.00  0.00     0.060 A 
BRANCH  68  69
ATOM     69  S   UNL A   1      32.524  36.090  31.096  1.00  0.00     0.124 S 
ATOM     70  O   UNL A   1      31.909  36.140  29.773  1.00  0.00    -0.237 OA
ATOM     71  O   UNL A   1      31.802  35.324  32.105  1.00  0.00    -0.237 OA
ATOM     72  O   UNL A   1      33.092  37.352  31.565  1.00  0.00    -0.744 OA
ENDBRANCH  68  69
ENDBRANCH  47  61
BRANCH  48  73
ATOM     73  C   UNL A   1      44.503  28.979  27.808  1.00  0.00     0.058 A 
ATOM     74  C   UNL A   1      45.421  27.922  27.997  1.00  0.00     0.135 A 
ATOM     75  C   UNL A   1      43.638  28.883  26.708  1.00  0.00     0.135 A 
ATOM     76  F   UNL A   1      46.272  27.948  29.037  1.00  0.00    -0.206 F 
ATOM     77  C   UNL A   1      45.385  26.766  27.221  1.00  0.00     0.059 A 
ATOM     78  C   UNL A   1      43.598  27.738  25.904  1.00  0.00     0.059 A 
ATOM     79  F   UNL A   1      42.743  29.851  26.464  1.00  0.00    -0.206 F 
ATOM     80  C   UNL A   1      44.439  26.665  26.204  1.00  0.00     0.060 A 
BRANCH  80  81
ATOM     81  S   UNL A   1      44.224  25.053  25.409  1.00  0.00     0.124 S 
ATOM     82  O   UNL A   1      43.009  25.263  24.629  1.00  0.00    -0.237 OA
ATOM     83  O   UNL A   1      45.458  24.929  24.636  1.00  0.00    -0.237 OA
ATOM     84  O   UNL A   1      44.106  24.131  26.533  1.00  0.00    -0.744 OA
ENDBRANCH  80  81
ENDBRANCH  48  73
BRANCH  60  85
ATOM     85  C   UNL A   1      42.480  35.793  29.195  1.00  0.00     0.058 A 
ATOM     86  C   UNL A   1      41.895  36.411  28.081  1.00  0.00     0.135 A 
ATOM     87  C   UNL A   1      43.345  36.582  29.980  1.00  0.00     0.135 A 
ATOM     88  F   UNL A   1      41.099  35.718  27.250  1.00  0.00    -0.206 F 
ATOM     89  C   UNL A   1      42.117  37.755  27.786  1.00  0.00     0.059 A 
ATOM     90  C   UNL A   1      43.624  37.909  29.674  1.00  0.00     0.059 A 
ATOM     91  F   UNL A   1      43.922  36.089  31.086  1.00  0.00    -0.206 F 
ATOM     92  C   UNL A   1      42.983  38.495  28.590  1.00  0.00     0.060 A 
BRANCH  92  93
ATOM     93  S   UNL A   1      43.276  40.229  28.205  1.00  0.00     0.124 S 
ATOM     94  O   UNL A   1      44.718  40.268  27.977  1.00  0.00    -0.237 OA
ATOM     95  O   UNL A   1      42.445  40.404  27.018  1.00  0.00    -0.237 OA
ATOM     96  O   UNL A   1      42.817  40.925  29.403  1.00  0.00    -0.744 OA
ENDBRANCH  92  93
ENDBRANCH  60  85
ENDBRANCH  34  35
ENDBRANCH  27  29
ENDBRANCH  26  27
ENDBRANCH  25  26
ENDBRANCH   1  25
TORSDOF 17
ENDMDL
MODEL 2
REMARK VINA RESULT:     -13.5      4.771     11.300
REMARK SMILES Cc1ccc(NC(=O)C[C@H]2SC[C@H](C(=O)OCCOC(=O)c3ccc(-c4c5nc(c(-c6c(F)cc(S(=O)(=O)[O-])cc6F)c6ccc([nH]6)c(-c6c(F)cc(S(=O)(=O)[O-])cc6F)c6nc(c(-c7c(F)cc(S(=O)(=O)[O-])cc7F)c7ccc4[nH]7)C=C6)C=C5)cc3)NC2=O)cc1
REMARK SMILES IDX 17 1 16 2 14 3 15 4 13 5 10 6 11 7 89 8 12 9 88 10 90 11
REMARK SMILES IDX 9 13 7 14 6 15 8 17 5 18 1 19 2 20 3 21 92 22 4 23 91 24
REMARK SMILES IDX 18 25 19 26 20 27 21 28 22 29 23 30 87 31 24 32 86 33 25 34
REMARK SMILES IDX 26 35 27 36 80 37 28 38 85 39 79 40 81 41 29 42 84 43 78 44
REMARK SMILES IDX 77 45 30 47 64 48 43 49 63 50 44 51 47 52 62 53 82 54 45 55
REMARK SMILES IDX 46 56 61 58 83 59 48 60 31 61 32 62 41 63 33 64 34 65 40 66
REMARK SMILES IDX 42 67 35 68 36 69 37 70 38 71 39 72 65 73 66 74 75 75 67 76
REMARK SMILES IDX 68 77 74 78 76 79 69 80 70 81 71 82 72 83 73 84 49 85 50 86
REMARK SMILES IDX 59 87 51 88 52 89 58 90 60 91 53 92 54 93 55 94 56 95 57 96
REMARK H PARENT 88 12 6 16 81 46 47 57
REMARK Flexibility Score: inf
ROOT
ATOM      1  C   UNL A   1      33.202  29.301  25.395  1.00  0.00     0.274 C 
ENDROOT
BRANCH   1   2
ATOM      2  O   UNL A   1      31.772  29.210  25.410  1.00  0.00    -0.461 OA
BRANCH   2   3
ATOM      3  C   UNL A   1      31.170  28.945  24.217  1.00  0.00     0.329 C 
ATOM      4  O   UNL A   1      31.049  29.746  23.316  1.00  0.00    -0.250 OA
BRANCH   3   5
ATOM      5  C   UNL A   1      30.644  27.503  24.229  1.00  0.00     0.202 C 
ATOM      6  C   UNL A   1      31.110  24.671  25.164  1.00  0.00     0.145 C 
ATOM      7  S   UNL A   1      31.047  24.914  23.340  1.00  0.00    -0.145 SA
ATOM      8  C   UNL A   1      30.219  25.683  25.881  1.00  0.00     0.234 C 
ATOM      9  C   UNL A   1      31.540  26.666  23.330  1.00  0.00     0.107 C 
ATOM     10  N   UNL A   1      30.464  27.004  25.593  1.00  0.00    -0.341 N 
ATOM     11  O   UNL A   1      29.420  25.412  26.771  1.00  0.00    -0.274 OA
ATOM     12  H   UNL A   1      30.520  27.644  26.340  1.00  0.00     0.164 HD
BRANCH   6  13
ATOM     13  C   UNL A   1      30.939  23.190  25.499  1.00  0.00     0.124 C 
BRANCH  13  14
ATOM     14  C   UNL A   1      31.813  22.543  26.558  1.00  0.00     0.226 C 
ATOM     15  N   UNL A   1      32.513  21.394  26.379  1.00  0.00    -0.326 N 
ATOM     16  H   UNL A   1      33.130  21.198  27.121  1.00  0.00     0.169 HD
ATOM     17  O   UNL A   1      31.869  23.066  27.680  1.00  0.00    -0.275 OA
BRANCH  15  18
ATOM     18  C   UNL A   1      32.547  20.430  25.367  1.00  0.00     0.041 A 
ATOM     19  C   UNL A   1      32.483  17.649  22.073  1.00  0.00     0.044 C 
ATOM     20  C   UNL A   1      32.520  18.626  23.210  1.00  0.00    -0.051 A 
ATOM     21  C   UNL A   1      32.764  18.177  24.512  1.00  0.00     0.005 A 
ATOM     22  C   UNL A   1      32.311  19.988  22.988  1.00  0.00     0.005 A 
ATOM     23  C   UNL A   1      32.800  19.078  25.581  1.00  0.00     0.026 A 
ATOM     24  C   UNL A   1      32.338  20.883  24.059  1.00  0.00     0.026 A 
ENDBRANCH  15  18
ENDBRANCH  13  14
ENDBRANCH   6  13
ENDBRANCH   3   5
ENDBRANCH   2   3
ENDBRANCH   1   2
BRANCH   1  25
ATOM     25  C   UNL A   1      33.698  29.193  26.849  1.00  0.00     0.275 C 
BRANCH  25  26
ATOM     26  O   UNL A   1      35.133  29.224  27.041  1.00  0.00    -0.458 OA
BRANCH  26  27
ATOM     27  C   UNL A   1      35.682  30.377  27.522  1.00  0.00     0.338 C 
ATOM     28  O   UNL A   1      35.074  31.434  27.625  1.00  0.00    -0.246 OA
BRANCH  27  29
ATOM     29  C   UNL A   1      36.962  30.028  28.203  1.00  0.00     0.060 A 
ATOM     30  C   UNL A   1      36.958  29.325  29.419  1.00  0.00     0.016 A 
ATOM     31  C   UNL A   1      38.135  30.107  27.451  1.00  0.00     0.016 A 
ATOM     32  C   UNL A   1      38.075  28.566  29.794  1.00  0.00     0.010 A 
ATOM     33  C   UNL A   1      39.181  29.275  27.760  1.00  0.00     0.010 A 
ATOM     34  C   UNL A   1      39.156  28.481  28.918  1.00  0.00    -0.014 A 
BRANCH  34  35
ATOM     35  C   UNL A   1      40.404  27.755  29.137  1.00  0.00     0.031 A 
ATOM     36  C   UNL A   1      40.692  26.389  28.647  1.00  0.00     0.074 A 
ATOM     37  C   UNL A   1      41.386  28.549  29.606  1.00  0.00     0.049 A 
ATOM     38  N   UNL A   1      41.806  25.770  28.854  1.00  0.00    -0.248 NA
ATOM     39  C   UNL A   1      39.738  25.576  27.912  1.00  0.00     0.031 C 
ATOM     40  C   UNL A   1      42.828  28.396  29.540  1.00  0.00     0.029 A 
ATOM     41  N   UNL A   1      41.193  29.663  30.417  1.00  0.00    -0.354 N 
ATOM     42  C   UNL A   1      41.809  24.588  28.139  1.00  0.00     0.074 A 
ATOM     43  C   UNL A   1      40.466  24.489  27.621  1.00  0.00     0.031 C 
ATOM     44  C   UNL A   1      43.382  29.209  30.458  1.00  0.00     0.029 A 
ATOM     45  C   UNL A   1      42.292  29.739  31.272  1.00  0.00     0.049 A 
ATOM     46  H   UNL A   1      40.426  30.281  30.392  1.00  0.00     0.167 HD
ATOM     47  C   UNL A   1      42.983  23.894  28.021  1.00  0.00     0.037 A 
ATOM     48  C   UNL A   1      42.085  29.443  32.594  1.00  0.00     0.037 A 
ATOM     49  C   UNL A   1      43.996  24.490  28.896  1.00  0.00     0.049 A 
ATOM     50  C   UNL A   1      42.819  28.198  33.048  1.00  0.00     0.074 A 
ATOM     51  C   UNL A   1      45.011  25.412  28.707  1.00  0.00     0.029 A 
ATOM     52  N   UNL A   1      43.845  24.354  30.264  1.00  0.00    -0.354 N 
ATOM     53  N   UNL A   1      43.327  27.305  32.243  1.00  0.00    -0.248 NA
ATOM     54  C   UNL A   1      43.009  27.850  34.454  1.00  0.00     0.031 C 
ATOM     55  C   UNL A   1      45.415  25.885  29.991  1.00  0.00     0.029 A 
ATOM     56  C   UNL A   1      44.665  25.226  30.950  1.00  0.00     0.049 A 
ATOM     57  H   UNL A   1      43.229  23.718  30.694  1.00  0.00     0.167 HD
ATOM     58  C   UNL A   1      43.924  26.318  32.972  1.00  0.00     0.074 A 
ATOM     59  C   UNL A   1      43.675  26.685  34.355  1.00  0.00     0.031 C 
ATOM     60  C   UNL A   1      44.585  25.272  32.400  1.00  0.00     0.037 A 
BRANCH  47  61
ATOM     61  C   UNL A   1      43.328  22.772  27.043  1.00  0.00     0.058 A 
ATOM     62  C   UNL A   1      42.610  21.549  27.083  1.00  0.00     0.135 A 
ATOM     63  C   UNL A   1      44.371  22.782  26.099  1.00  0.00     0.135 A 
ATOM     64  F   UNL A   1      41.558  21.381  27.898  1.00  0.00    -0.206 F 
ATOM     65  C   UNL A   1      42.945  20.427  26.312  1.00  0.00     0.059 A 
ATOM     66  C   UNL A   1      44.726  21.676  25.315  1.00  0.00     0.059 A 
ATOM     67  F   UNL A   1      45.113  23.865  25.874  1.00  0.00    -0.206 F 
ATOM     68  C   UNL A   1      44.026  20.491  25.447  1.00  0.00     0.060 A 
BRANCH  68  69
ATOM     69  S   UNL A   1      44.508  19.027  24.512  1.00  0.00     0.124 S 
ATOM     70  O   UNL A   1      45.878  18.818  24.971  1.00  0.00    -0.237 OA
ATOM     71  O   UNL A   1      43.532  18.035  24.949  1.00  0.00    -0.237 OA
ATOM     72  O   UNL A   1      44.378  19.454  23.121  1.00  0.00    -0.744 OA
ENDBRANCH  68  69
ENDBRANCH  47  61
BRANCH  48  73
ATOM     73  C   UNL A   1      40.722  29.853  33.076  1.00  0.00     0.058 A 
ATOM     74  C   UNL A   1      40.484  31.221  33.337  1.00  0.00     0.135 A 
ATOM     75  C   UNL A   1      39.596  29.032  32.907  1.00  0.00     0.135 A 
ATOM     76  F   UNL A   1      41.518  32.064  33.499  1.00  0.00    -0.206 F 
ATOM     77  C   UNL A   1      39.205  31.770  33.291  1.00  0.00     0.059 A 
ATOM     78  C   UNL A   1      38.301  29.560  32.876  1.00  0.00     0.059 A 
ATOM     79  F   UNL A   1      39.745  27.723  32.661  1.00  0.00    -0.206 F 
ATOM     80  C   UNL A   1      38.122  30.938  33.015  1.00  0.00     0.060 A 
BRANCH  80  81
ATOM     81  S   UNL A   1      36.524  31.716  32.678  1.00  0.00     0.124 S 
ATOM     82  O   UNL A   1      35.711  30.571  32.281  1.00  0.00    -0.237 OA
ATOM     83  O   UNL A   1      36.194  32.307  33.973  1.00  0.00    -0.237 OA
ATOM     84  O   UNL A   1      36.828  32.676  31.622  1.00  0.00    -0.744 OA
ENDBRANCH  80  81
ENDBRANCH  48  73
BRANCH  60  85
ATOM     85  C   UNL A   1      45.243  24.197  33.201  1.00  0.00     0.058 A 
ATOM     86  C   UNL A   1      44.568  23.026  33.573  1.00  0.00     0.135 A 
ATOM     87  C   UNL A   1      46.543  24.374  33.716  1.00  0.00     0.135 A 
ATOM     88  F   UNL A   1      43.307  22.803  33.170  1.00  0.00    -0.206 F 
ATOM     89  C   UNL A   1      45.168  22.056  34.373  1.00  0.00     0.059 A 
ATOM     90  C   UNL A   1      47.141  23.446  34.560  1.00  0.00     0.059 A 
ATOM     91  F   UNL A   1      47.280  25.445  33.387  1.00  0.00    -0.206 F 
ATOM     92  C   UNL A   1      46.456  22.276  34.861  1.00  0.00     0.060 A 
BRANCH  92  93
ATOM     93  S   UNL A   1      47.229  21.025  35.901  1.00  0.00     0.124 S 
ATOM     94  O   UNL A   1      46.934  19.787  35.186  1.00  0.00    -0.237 OA
ATOM     95  O   UNL A   1      48.624  21.453  35.874  1.00  0.00    -0.237 OA
ATOM     96  O   UNL A   1      46.547  21.181  37.182  1.00  0.00    -0.744 OA
ENDBRANCH  92  93
ENDBRANCH  60  85
ENDBRANCH  34  35
ENDBRANCH  27  29
ENDBRANCH  26  27
ENDBRANCH  25  26
ENDBRANCH   1  25
TORSDOF 17
ENDMDL
MODEL 3
REMARK VINA RESULT:     -13.5      1.576      2.414
REMARK SMILES Cc1ccc(NC(=O)C[C@H]2SC[C@H](C(=O)OCCOC(=O)c3ccc(-c4c5nc(c(-c6c(F)cc(S(=O)(=O)[O-])cc6F)c6ccc([nH]6)c(-c6c(F)cc(S(=O)(=O)[O-])cc6F)c6nc(c(-c7c(F)cc(S(=O)(=O)[O-])cc7F)c7ccc4[nH]7)C=C6)C=C5)cc3)NC2=O)cc1
REMARK SMILES IDX 17 1 16 2 14 3 15 4 13 5 10 6 11 7 89 8 12 9 88 10 90 11
REMARK SMILES IDX 9 13 7 14 6 15 8 17 5 18 1 19 2 20 3 21 92 22 4 23 91 24
REMARK SMILES IDX 18 25 19 26 20 27 21 28 22 29 23 30 87 31 24 32 86 33 25 34
REMARK SMILES IDX 26 35 27 36 80 37 28 38 85 39 79 40 81 41 29 42 84 43 78 44
REMARK SMILES IDX 77 45 30 47 64 48 43 49 63 50 44 51 47 52 62 53 82 54 45 55
REMARK SMILES IDX 46 56 61 58 83 59 48 60 31 61 32 62 41 63 33 64 34 65 40 66
REMARK SMILES IDX 42 67 35 68 36 69 37 70 38 71 39 72 65 73 66 74 75 75 67 76
REMARK SMILES IDX 68 77 74 78 76 79 69 80 70 81 71 82 72 83 73 84 49 85 50 86
REMARK SMILES IDX 59 87 51 88 52 89 58 90 60 91 53 92 54 93 55 94 56 95 57 96
REMARK H PARENT 88 12 6 16 81 46 47 57
REMARK Flexibility Score: inf
ROOT
ATOM      1  C   UNL A   1      37.811  22.753  25.994  1.00  0.00     0.274 C 
ENDROOT
BRANCH   1   2
ATOM      2  O   UNL A   1      37.256  22.310  24.749  1.00  0.00    -0.461 OA
BRANCH   2   3
ATOM      3  C   UNL A   1      36.517  21.167  24.787  1.00  0.00     0.329 C 
ATOM      4  O   UNL A   1      36.957  20.074  25.072  1.00  0.00    -0.250 OA
BRANCH   3   5
ATOM      5  C   UNL A   1      35.074  21.488  24.375  1.00  0.00     0.202 C 
ATOM      6  C   UNL A   1      32.361  22.450  25.284  1.00  0.00     0.145 C 
ATOM      7  S   UNL A   1      32.417  20.746  24.589  1.00  0.00    -0.145 SA
ATOM      8  C   UNL A   1      33.423  23.338  24.637  1.00  0.00     0.234 C 
ATOM      9  C   UNL A   1      34.168  20.412  24.954  1.00  0.00     0.107 C 
ATOM     10  N   UNL A   1      34.713  22.868  24.698  1.00  0.00    -0.341 N 
ATOM     11  O   UNL A   1      33.228  24.470  24.207  1.00  0.00    -0.274 OA
ATOM     12  H   UNL A   1      35.426  23.490  24.972  1.00  0.00     0.164 HD
BRANCH   6  13
ATOM     13  C   UNL A   1      30.918  22.953  25.317  1.00  0.00     0.124 C 
BRANCH  13  14
ATOM     14  C   UNL A   1      30.411  23.730  26.517  1.00  0.00     0.226 C 
ATOM     15  N   UNL A   1      30.031  25.033  26.484  1.00  0.00    -0.326 N 
ATOM     16  H   UNL A   1      29.601  25.331  27.319  1.00  0.00     0.169 HD
ATOM     17  O   UNL A   1      30.372  23.162  27.618  1.00  0.00    -0.275 OA
BRANCH  15  18
ATOM     18  C   UNL A   1      30.120  26.042  25.520  1.00  0.00     0.041 A 
ATOM     19  C   UNL A   1      30.534  29.326  22.758  1.00  0.00     0.044 C 
ATOM     20  C   UNL A   1      30.409  28.179  23.715  1.00  0.00    -0.051 A 
ATOM     21  C   UNL A   1      29.440  27.192  23.503  1.00  0.00     0.005 A 
ATOM     22  C   UNL A   1      31.249  28.079  24.825  1.00  0.00     0.005 A 
ATOM     23  C   UNL A   1      29.312  26.118  24.390  1.00  0.00     0.026 A 
ATOM     24  C   UNL A   1      31.112  27.009  25.712  1.00  0.00     0.026 A 
ENDBRANCH  15  18
ENDBRANCH  13  14
ENDBRANCH   6  13
ENDBRANCH   3   5
ENDBRANCH   2   3
ENDBRANCH   1   2
BRANCH   1  25
ATOM     25  C   UNL A   1      39.247  22.208  26.094  1.00  0.00     0.275 C 
BRANCH  25  26
ATOM     26  O   UNL A   1      40.091  22.806  27.108  1.00  0.00    -0.458 OA
BRANCH  26  27
ATOM     27  C   UNL A   1      40.956  23.784  26.714  1.00  0.00     0.338 C 
ATOM     28  O   UNL A   1      41.845  23.621  25.889  1.00  0.00    -0.246 OA
BRANCH  27  29
ATOM     29  C   UNL A   1      40.408  25.094  27.170  1.00  0.00     0.060 A 
ATOM     30  C   UNL A   1      39.653  25.183  28.350  1.00  0.00     0.016 A 
ATOM     31  C   UNL A   1      40.943  26.250  26.600  1.00  0.00     0.016 A 
ATOM     32  C   UNL A   1      39.576  26.398  29.045  1.00  0.00     0.010 A 
ATOM     33  C   UNL A   1      40.964  27.407  27.337  1.00  0.00     0.010 A 
ATOM     34  C   UNL A   1      40.302  27.489  28.572  1.00  0.00    -0.014 A 
BRANCH  34  35
ATOM     35  C   UNL A   1      40.338  28.831  29.148  1.00  0.00     0.031 A 
ATOM     36  C   UNL A   1      39.265  29.842  29.021  1.00  0.00     0.074 A 
ATOM     37  C   UNL A   1      41.336  28.981  30.042  1.00  0.00     0.049 A 
ATOM     38  N   UNL A   1      39.322  31.021  29.543  1.00  0.00    -0.248 NA
ATOM     39  C   UNL A   1      38.044  29.632  28.263  1.00  0.00     0.031 C 
ATOM     40  C   UNL A   1      41.477  29.920  31.140  1.00  0.00     0.029 A 
ATOM     41  N   UNL A   1      42.559  28.320  29.991  1.00  0.00    -0.354 N 
ATOM     42  C   UNL A   1      38.105  31.653  29.371  1.00  0.00     0.074 A 
ATOM     43  C   UNL A   1      37.367  30.763  28.508  1.00  0.00     0.031 C 
ATOM     44  C   UNL A   1      42.772  29.955  31.502  1.00  0.00     0.029 A 
ATOM     45  C   UNL A   1      43.516  29.198  30.500  1.00  0.00     0.049 A 
ATOM     46  H   UNL A   1      42.718  27.407  29.660  1.00  0.00     0.167 HD
ATOM     47  C   UNL A   1      37.865  32.815  30.055  1.00  0.00     0.037 A 
ATOM     48  C   UNL A   1      44.411  29.737  29.613  1.00  0.00     0.037 A 
ATOM     49  C   UNL A   1      39.098  33.265  30.705  1.00  0.00     0.049 A 
ATOM     50  C   UNL A   1      44.268  31.238  29.460  1.00  0.00     0.074 A 
ATOM     51  C   UNL A   1      39.626  33.120  31.977  1.00  0.00     0.029 A 
ATOM     52  N   UNL A   1      40.128  33.736  29.909  1.00  0.00    -0.354 N 
ATOM     53  N   UNL A   1      43.226  31.923  29.848  1.00  0.00    -0.248 NA
ATOM     54  C   UNL A   1      45.281  32.078  28.826  1.00  0.00     0.031 C 
ATOM     55  C   UNL A   1      41.015  33.440  31.911  1.00  0.00     0.029 A 
ATOM     56  C   UNL A   1      41.314  33.806  30.610  1.00  0.00     0.049 A 
ATOM     57  H   UNL A   1      40.026  33.986  28.963  1.00  0.00     0.167 HD
ATOM     58  C   UNL A   1      43.421  33.246  29.572  1.00  0.00     0.074 A 
ATOM     59  C   UNL A   1      44.709  33.293  28.904  1.00  0.00     0.031 C 
ATOM     60  C   UNL A   1      42.521  34.212  29.910  1.00  0.00     0.037 A 
BRANCH  47  61
ATOM     61  C   UNL A   1      36.529  33.515  30.296  1.00  0.00     0.058 A 
ATOM     62  C   UNL A   1      35.776  34.007  29.200  1.00  0.00     0.135 A 
ATOM     63  C   UNL A   1      35.956  33.804  31.548  1.00  0.00     0.135 A 
ATOM     64  F   UNL A   1      36.158  33.786  27.933  1.00  0.00    -0.206 F 
ATOM     65  C   UNL A   1      34.609  34.770  29.340  1.00  0.00     0.059 A 
ATOM     66  C   UNL A   1      34.790  34.563  31.717  1.00  0.00     0.059 A 
ATOM     67  F   UNL A   1      36.487  33.367  32.689  1.00  0.00    -0.206 F 
ATOM     68  C   UNL A   1      34.136  35.068  30.608  1.00  0.00     0.060 A 
BRANCH  68  69
ATOM     69  S   UNL A   1      32.681  36.116  30.794  1.00  0.00     0.124 S 
ATOM     70  O   UNL A   1      32.170  36.164  29.428  1.00  0.00    -0.237 OA
ATOM     71  O   UNL A   1      31.872  35.369  31.751  1.00  0.00    -0.237 OA
ATOM     72  O   UNL A   1      33.231  37.373  31.296  1.00  0.00    -0.744 OA
ENDBRANCH  68  69
ENDBRANCH  47  61
BRANCH  48  73
ATOM     73  C   UNL A   1      44.765  28.796  28.497  1.00  0.00     0.058 A 
ATOM     74  C   UNL A   1      44.286  29.082  27.199  1.00  0.00     0.135 A 
ATOM     75  C   UNL A   1      45.836  27.894  28.596  1.00  0.00     0.135 A 
ATOM     76  F   UNL A   1      43.268  29.944  27.033  1.00  0.00    -0.206 F 
ATOM     77  C   UNL A   1      44.926  28.611  26.055  1.00  0.00     0.059 A 
ATOM     78  C   UNL A   1      46.481  27.394  27.460  1.00  0.00     0.059 A 
ATOM     79  F   UNL A   1      46.339  27.571  29.796  1.00  0.00    -0.206 F 
ATOM     80  C   UNL A   1      46.051  27.803  26.196  1.00  0.00     0.060 A 
BRANCH  80  81
ATOM     81  S   UNL A   1      47.025  27.447  24.712  1.00  0.00     0.124 S 
ATOM     82  O   UNL A   1      48.390  27.587  25.209  1.00  0.00    -0.237 OA
ATOM     83  O   UNL A   1      46.606  26.085  24.393  1.00  0.00    -0.237 OA
ATOM     84  O   UNL A   1      46.587  28.465  23.764  1.00  0.00    -0.744 OA
ENDBRANCH  80  81
ENDBRANCH  48  73
BRANCH  60  85
ATOM     85  C   UNL A   1      42.739  35.659  29.611  1.00  0.00     0.058 A 
ATOM     86  C   UNL A   1      42.231  36.266  28.454  1.00  0.00     0.135 A 
ATOM     87  C   UNL A   1      43.569  36.448  30.433  1.00  0.00     0.135 A 
ATOM     88  F   UNL A   1      41.475  35.570  27.589  1.00  0.00    -0.206 F 
ATOM     89  C   UNL A   1      42.492  37.601  28.151  1.00  0.00     0.059 A 
ATOM     90  C   UNL A   1      43.887  37.765  30.122  1.00  0.00     0.059 A 
ATOM     91  F   UNL A   1      44.071  35.966  31.579  1.00  0.00    -0.206 F 
ATOM     92  C   UNL A   1      43.320  38.341  28.993  1.00  0.00     0.060 A 
BRANCH  92  93
ATOM     93  S   UNL A   1      43.663  40.065  28.597  1.00  0.00     0.124 S 
ATOM     94  O   UNL A   1      42.365  40.704  28.799  1.00  0.00    -0.237 OA
ATOM     95  O   UNL A   1      44.686  40.388  29.587  1.00  0.00    -0.237 OA
ATOM     96  O   UNL A   1      44.120  40.010  27.212  1.00  0.00    -0.744 OA
ENDBRANCH  92  93
ENDBRANCH  60  85
ENDBRANCH  34  35
ENDBRANCH  27  29
ENDBRANCH  26  27
ENDBRANCH  25  26
ENDBRANCH   1  25
TORSDOF 17
ENDMDL
