MODEL 1
REMARK VINA RESULT:     -10.2      0.000      0.000
REMARK SMILES Cc1coc2c(C)c3oc(=O)c(CCC(=O)N[C@H](CC(C)C)C(=O)OCCOC(=O)c4ccc(-c5c6nc(c(-c7c(F)cc(S(=O)(=O)[O-])cc7F)c7ccc([nH]7)c(-c7c(F)cc(S(=O)(=O)[O-])cc7F)c7nc(c(-c8c(F)cc(S(=O)(=O)[O-])cc8F)c8ccc5[nH]8)C=C7)C=C6)cc4)c(C)c3cc12
REMARK SMILES IDX 26 1 25 2 23 3 24 4 18 5 17 6 15 7 16 8 14 10 13 11 12 12
REMARK SMILES IDX 1 13 2 14 3 15 101 16 4 17 5 18 100 19 6 20 99 21 7 22 8 23
REMARK SMILES IDX 97 24 9 25 98 26 10 27 11 28 19 29 20 30 21 31 22 32 27 33
REMARK SMILES IDX 28 34 29 35 30 36 31 37 32 38 96 39 33 40 95 41 34 42 35 43
REMARK SMILES IDX 36 44 89 45 37 46 94 47 88 48 90 49 38 50 93 51 87 52 86 53
REMARK SMILES IDX 39 55 73 56 52 57 72 58 53 59 56 60 71 61 91 62 54 63 55 64
REMARK SMILES IDX 70 66 92 67 57 68 40 69 41 70 50 71 42 72 43 73 49 74 51 75
REMARK SMILES IDX 44 76 45 77 46 78 47 79 48 80 74 81 75 82 84 83 76 84 77 85
REMARK SMILES IDX 83 86 85 87 78 88 79 89 80 90 81 91 82 92 58 93 59 94 68 95
REMARK SMILES IDX 60 96 61 97 67 98 69 99 62 100 63 101 64 102 65 103 66 104
REMARK H PARENT 17 9 90 54 56 65
REMARK Flexibility Score: inf
ROOT
ATOM      1  C   UNL A   1      49.864  31.769  27.022  1.00  0.00     0.274 C 
ENDROOT
BRANCH   1   2
ATOM      2  O   UNL A   1      49.067  30.626  26.617  1.00  0.00    -0.461 OA
BRANCH   2   3
ATOM      3  C   UNL A   1      49.275  29.468  27.291  1.00  0.00     0.328 C 
ATOM      4  O   UNL A   1      50.388  29.073  27.643  1.00  0.00    -0.250 OA
BRANCH   3   5
ATOM      5  C   UNL A   1      47.979  28.687  27.673  1.00  0.00     0.192 C 
BRANCH   5   6
ATOM      6  N   UNL A   1      46.930  29.658  27.287  1.00  0.00    -0.343 N 
ATOM      7  C   UNL A   1      45.688  29.556  26.769  1.00  0.00     0.221 C 
ATOM      8  O   UNL A   1      45.149  30.599  26.389  1.00  0.00    -0.275 OA
ATOM      9  H   UNL A   1      47.201  30.592  27.444  1.00  0.00     0.164 HD
BRANCH   7  10
ATOM     10  C   UNL A   1      44.936  28.250  26.727  1.00  0.00     0.105 C 
BRANCH  10  11
ATOM     11  C   UNL A   1      45.246  27.229  25.604  1.00  0.00     0.053 C 
BRANCH  11  12
ATOM     12  C   UNL A   1      44.472  25.921  25.346  1.00  0.00     0.042 A 
ATOM     13  C   UNL A   1      46.442  19.294  25.174  1.00  0.00     0.048 C 
ATOM     14  C   UNL A   1      44.949  19.352  25.190  1.00  0.00    -0.005 A 
ATOM     15  C   UNL A   1      44.032  18.472  25.744  1.00  0.00     0.199 A 
ATOM     16  C   UNL A   1      44.209  20.503  24.837  1.00  0.00     0.024 A 
ATOM     17  O   UNL A   1      42.822  19.005  26.139  1.00  0.00    -0.464 OA
ATOM     18  C   UNL A   1      42.817  20.424  25.941  1.00  0.00     0.140 A 
ATOM     19  C   UNL A   1      44.756  22.059  24.268  1.00  0.00     0.024 A 
ATOM     20  C   UNL A   1      41.955  22.174  26.507  1.00  0.00     0.036 A 
ATOM     21  C   UNL A   1      44.099  23.567  24.730  1.00  0.00     0.022 A 
ATOM     22  C   UNL A   1      40.686  22.742  27.210  1.00  0.00     0.052 C 
ATOM     23  C   UNL A   1      42.728  23.667  25.726  1.00  0.00     0.145 A 
ATOM     24  C   UNL A   1      45.025  24.743  24.978  1.00  0.00    -0.030 A 
ATOM     25  O   UNL A   1      42.201  24.973  25.759  1.00  0.00    -0.422 OA
ATOM     26  C   UNL A   1      46.516  24.496  25.031  1.00  0.00     0.046 C 
ATOM     27  C   UNL A   1      42.978  26.013  25.206  1.00  0.00     0.339 A 
ATOM     28  O   UNL A   1      42.473  27.024  24.728  1.00  0.00    -0.246 OA
ENDBRANCH  11  12
ENDBRANCH  10  11
ENDBRANCH   7  10
ENDBRANCH   5   6
BRANCH   5  29
ATOM     29  C   UNL A   1      47.846  28.081  29.097  1.00  0.00     0.040 C 
BRANCH  29  30
ATOM     30  C   UNL A   1      47.340  26.628  29.254  1.00  0.00    -0.015 C 
ATOM     31  C   UNL A   1      47.836  25.640  28.211  1.00  0.00     0.007 C 
ATOM     32  C   UNL A   1      47.669  26.026  30.633  1.00  0.00     0.007 C 
ENDBRANCH  29  30
ENDBRANCH   5  29
ENDBRANCH   3   5
ENDBRANCH   2   3
ENDBRANCH   1   2
BRANCH   1  33
ATOM     33  C   UNL A   1      49.362  33.083  26.404  1.00  0.00     0.275 C 
BRANCH  33  34
ATOM     34  O   UNL A   1      47.946  33.037  26.144  1.00  0.00    -0.458 OA
BRANCH  34  35
ATOM     35  C   UNL A   1      47.477  34.248  25.799  1.00  0.00     0.338 C 
ATOM     36  O   UNL A   1      47.926  34.980  24.939  1.00  0.00    -0.246 OA
BRANCH  35  37
ATOM     37  C   UNL A   1      46.643  34.883  26.772  1.00  0.00     0.060 A 
ATOM     38  C   UNL A   1      47.348  35.224  28.394  1.00  0.00     0.016 A 
ATOM     39  C   UNL A   1      45.118  34.126  26.652  1.00  0.00     0.016 A 
ATOM     40  C   UNL A   1      46.276  34.666  30.042  1.00  0.00     0.010 A 
ATOM     41  C   UNL A   1      44.201  33.620  27.993  1.00  0.00     0.010 A 
ATOM     42  C   UNL A   1      44.698  33.753  29.666  1.00  0.00    -0.014 A 
BRANCH  42  43
ATOM     43  C   UNL A   1      43.587  32.961  30.376  1.00  0.00     0.031 A 
ATOM     44  C   UNL A   1      44.024  31.562  30.359  1.00  0.00     0.074 A 
ATOM     45  C   UNL A   1      42.645  33.352  31.358  1.00  0.00     0.049 A 
ATOM     46  N   UNL A   1      43.554  30.634  29.603  1.00  0.00    -0.248 NA
ATOM     47  C   UNL A   1      45.265  31.188  31.072  1.00  0.00     0.031 C 
ATOM     48  C   UNL A   1      42.318  34.718  31.846  1.00  0.00     0.029 A 
ATOM     49  N   UNL A   1      41.813  32.623  32.250  1.00  0.00    -0.354 N 
ATOM     50  C   UNL A   1      44.175  29.496  30.078  1.00  0.00     0.074 A 
ATOM     51  C   UNL A   1      45.404  29.915  30.695  1.00  0.00     0.031 C 
ATOM     52  C   UNL A   1      41.603  34.718  33.000  1.00  0.00     0.029 A 
ATOM     53  C   UNL A   1      41.237  33.365  33.350  1.00  0.00     0.049 A 
ATOM     54  H   UNL A   1      41.638  31.662  32.126  1.00  0.00     0.167 HD
ATOM     55  C   UNL A   1      43.425  28.399  30.346  1.00  0.00     0.037 A 
ATOM     56  C   UNL A   1      40.454  32.968  34.424  1.00  0.00     0.037 A 
ATOM     57  C   UNL A   1      42.062  28.587  29.921  1.00  0.00     0.049 A 
ATOM     58  C   UNL A   1      39.842  31.694  34.023  1.00  0.00     0.074 A 
ATOM     59  C   UNL A   1      41.426  28.752  28.710  1.00  0.00     0.029 A 
ATOM     60  N   UNL A   1      41.245  29.121  30.883  1.00  0.00    -0.354 N 
ATOM     61  N   UNL A   1      38.913  31.598  33.121  1.00  0.00    -0.248 NA
ATOM     62  C   UNL A   1      40.475  30.452  34.437  1.00  0.00     0.031 C 
ATOM     63  C   UNL A   1      40.217  29.449  28.973  1.00  0.00     0.029 A 
ATOM     64  C   UNL A   1      40.086  29.614  30.346  1.00  0.00     0.049 A 
ATOM     65  H   UNL A   1      41.464  29.146  31.843  1.00  0.00     0.167 HD
ATOM     66  C   UNL A   1      39.219  30.413  32.501  1.00  0.00     0.074 A 
ATOM     67  C   UNL A   1      40.057  29.674  33.439  1.00  0.00     0.031 C 
ATOM     68  C   UNL A   1      39.136  30.344  31.147  1.00  0.00     0.037 A 
BRANCH  55  69
ATOM     69  C   UNL A   1      43.788  27.371  31.367  1.00  0.00     0.058 A 
ATOM     70  C   UNL A   1      44.079  26.069  30.938  1.00  0.00     0.135 A 
ATOM     71  C   UNL A   1      43.687  27.569  32.761  1.00  0.00     0.135 A 
ATOM     72  F   UNL A   1      44.120  25.781  29.627  1.00  0.00    -0.206 F 
ATOM     73  C   UNL A   1      44.311  25.034  31.838  1.00  0.00     0.059 A 
ATOM     74  C   UNL A   1      43.968  26.566  33.681  1.00  0.00     0.059 A 
ATOM     75  F   UNL A   1      43.254  28.730  33.275  1.00  0.00    -0.206 F 
ATOM     76  C   UNL A   1      44.278  25.299  33.206  1.00  0.00     0.060 A 
BRANCH  76  77
ATOM     77  S   UNL A   1      44.658  23.964  34.352  1.00  0.00     0.124 S 
ATOM     78  O   UNL A   1      44.311  24.565  35.634  1.00  0.00    -0.237 OA
ATOM     79  O   UNL A   1      43.768  22.907  33.879  1.00  0.00    -0.237 OA
ATOM     80  O   UNL A   1      46.080  23.722  34.130  1.00  0.00    -0.744 OA
ENDBRANCH  76  77
ENDBRANCH  55  69
BRANCH  56  81
ATOM     81  C   UNL A   1      40.133  33.428  35.853  1.00  0.00     0.058 A 
ATOM     82  C   UNL A   1      38.849  33.955  36.200  1.00  0.00     0.135 A 
ATOM     83  C   UNL A   1      40.893  33.011  36.955  1.00  0.00     0.135 A 
ATOM     84  F   UNL A   1      38.040  34.456  35.253  1.00  0.00    -0.206 F 
ATOM     85  C   UNL A   1      38.306  33.908  37.500  1.00  0.00     0.059 A 
ATOM     86  C   UNL A   1      40.375  32.964  38.269  1.00  0.00     0.059 A 
ATOM     87  F   UNL A   1      42.138  32.548  36.775  1.00  0.00    -0.206 F 
ATOM     88  C   UNL A   1      39.061  33.355  38.525  1.00  0.00     0.060 A 
BRANCH  88  89
ATOM     89  S   UNL A   1      38.271  32.992  40.129  1.00  0.00     0.124 S 
ATOM     90  O   UNL A   1      39.078  31.889  40.637  1.00  0.00    -0.237 OA
ATOM     91  O   UNL A   1      38.411  34.259  40.839  1.00  0.00    -0.237 OA
ATOM     92  O   UNL A   1      36.902  32.642  39.756  1.00  0.00    -0.744 OA
ENDBRANCH  88  89
ENDBRANCH  56  81
BRANCH  68  93
ATOM     93  C   UNL A   1      38.040  31.112  30.470  1.00  0.00     0.058 A 
ATOM     94  C   UNL A   1      38.128  32.405  29.925  1.00  0.00     0.135 A 
ATOM     95  C   UNL A   1      36.818  30.435  30.327  1.00  0.00     0.135 A 
ATOM     96  F   UNL A   1      39.277  33.099  29.964  1.00  0.00    -0.206 F 
ATOM     97  C   UNL A   1      37.035  32.998  29.285  1.00  0.00     0.059 A 
ATOM     98  C   UNL A   1      35.735  30.989  29.663  1.00  0.00     0.059 A 
ATOM     99  F   UNL A   1      36.680  29.190  30.814  1.00  0.00    -0.206 F 
ATOM    100  C   UNL A   1      35.844  32.278  29.155  1.00  0.00     0.060 A 
BRANCH 100 101
ATOM    101  S   UNL A   1      34.441  33.016  28.292  1.00  0.00     0.124 S 
ATOM    102  O   UNL A   1      35.095  33.950  27.382  1.00  0.00    -0.237 OA
ATOM    103  O   UNL A   1      33.811  31.856  27.670  1.00  0.00    -0.237 OA
ATOM    104  O   UNL A   1      33.666  33.636  29.365  1.00  0.00    -0.744 OA
ENDBRANCH 100 101
ENDBRANCH  68  93
ENDBRANCH  42  43
ENDBRANCH  35  37
ENDBRANCH  34  35
ENDBRANCH  33  34
ENDBRANCH   1  33
TORSDOF 20
ENDMDL
MODEL 2
REMARK VINA RESULT:      -9.6      3.750     12.458
REMARK SMILES Cc1coc2c(C)c3oc(=O)c(CCC(=O)N[C@H](CC(C)C)C(=O)OCCOC(=O)c4ccc(-c5c6nc(c(-c7c(F)cc(S(=O)(=O)[O-])cc7F)c7ccc([nH]7)c(-c7c(F)cc(S(=O)(=O)[O-])cc7F)c7nc(c(-c8c(F)cc(S(=O)(=O)[O-])cc8F)c8ccc5[nH]8)C=C7)C=C6)cc4)c(C)c3cc12
REMARK SMILES IDX 26 1 25 2 23 3 24 4 18 5 17 6 15 7 16 8 14 10 13 11 12 12
REMARK SMILES IDX 1 13 2 14 3 15 101 16 4 17 5 18 100 19 6 20 99 21 7 22 8 23
REMARK SMILES IDX 97 24 9 25 98 26 10 27 11 28 19 29 20 30 21 31 22 32 27 33
REMARK SMILES IDX 28 34 29 35 30 36 31 37 32 38 96 39 33 40 95 41 34 42 35 43
REMARK SMILES IDX 36 44 89 45 37 46 94 47 88 48 90 49 38 50 93 51 87 52 86 53
REMARK SMILES IDX 39 55 73 56 52 57 72 58 53 59 56 60 71 61 91 62 54 63 55 64
REMARK SMILES IDX 70 66 92 67 57 68 40 69 41 70 50 71 42 72 43 73 49 74 51 75
REMARK SMILES IDX 44 76 45 77 46 78 47 79 48 80 74 81 75 82 84 83 76 84 77 85
REMARK SMILES IDX 83 86 85 87 78 88 79 89 80 90 81 91 82 92 58 93 59 94 68 95
REMARK SMILES IDX 60 96 61 97 67 98 69 99 62 100 63 101 64 102 65 103 66 104
REMARK H PARENT 17 9 90 54 56 65
REMARK Flexibility Score: inf
ROOT
ATOM      1  C   UNL A   1      44.533  30.564  38.151  1.00  0.00     0.274 C 
ENDROOT
BRANCH   1   2
ATOM      2  O   UNL A   1      43.935  31.530  37.248  1.00  0.00    -0.461 OA
BRANCH   2   3
ATOM      3  C   UNL A   1      42.582  31.514  37.146  1.00  0.00     0.328 C 
ATOM      4  O   UNL A   1      41.826  31.447  38.117  1.00  0.00    -0.250 OA
BRANCH   3   5
ATOM      5  C   UNL A   1      42.029  31.671  35.696  1.00  0.00     0.192 C 
BRANCH   5   6
ATOM      6  N   UNL A   1      41.903  30.256  35.278  1.00  0.00    -0.343 N 
ATOM      7  C   UNL A   1      41.019  29.563  34.530  1.00  0.00     0.221 C 
ATOM      8  O   UNL A   1      41.116  28.333  34.540  1.00  0.00    -0.275 OA
ATOM      9  H   UNL A   1      42.632  29.691  35.626  1.00  0.00     0.164 HD
BRANCH   7  10
ATOM     10  C   UNL A   1      40.004  30.242  33.646  1.00  0.00     0.105 C 
BRANCH  10  11
ATOM     11  C   UNL A   1      38.668  30.733  34.257  1.00  0.00     0.053 C 
BRANCH  11  12
ATOM     12  C   UNL A   1      37.432  31.188  33.457  1.00  0.00     0.042 A 
ATOM     13  C   UNL A   1      33.937  37.153  33.265  1.00  0.00     0.048 C 
ATOM     14  C   UNL A   1      33.490  36.296  32.125  1.00  0.00    -0.005 A 
ATOM     15  C   UNL A   1      33.052  36.658  30.860  1.00  0.00     0.199 A 
ATOM     16  C   UNL A   1      33.689  34.897  32.076  1.00  0.00     0.024 A 
ATOM     17  O   UNL A   1      33.260  35.744  29.848  1.00  0.00    -0.464 OA
ATOM     18  C   UNL A   1      33.977  34.607  30.345  1.00  0.00     0.140 A 
ATOM     19  C   UNL A   1      34.403  33.822  33.249  1.00  0.00     0.024 A 
ATOM     20  C   UNL A   1      35.163  33.039  29.832  1.00  0.00     0.036 A 
ATOM     21  C   UNL A   1      35.435  32.509  32.887  1.00  0.00     0.022 A 
ATOM     22  C   UNL A   1      35.596  32.183  28.604  1.00  0.00     0.052 C 
ATOM     23  C   UNL A   1      35.761  32.056  31.285  1.00  0.00     0.145 A 
ATOM     24  C   UNL A   1      36.634  32.232  33.775  1.00  0.00    -0.030 A 
ATOM     25  O   UNL A   1      36.403  30.804  31.217  1.00  0.00    -0.422 OA
ATOM     26  C   UNL A   1      37.016  33.255  34.821  1.00  0.00     0.046 C 
ATOM     27  C   UNL A   1      36.892  30.247  32.417  1.00  0.00     0.339 A 
ATOM     28  O   UNL A   1      36.993  29.035  32.582  1.00  0.00    -0.246 OA
ENDBRANCH  11  12
ENDBRANCH  10  11
ENDBRANCH   7  10
ENDBRANCH   5   6
BRANCH   5  29
ATOM     29  C   UNL A   1      42.765  32.606  34.697  1.00  0.00     0.040 C 
BRANCH  29  30
ATOM     30  C   UNL A   1      41.935  33.555  33.801  1.00  0.00    -0.015 C 
ATOM     31  C   UNL A   1      40.565  33.938  34.337  1.00  0.00     0.007 C 
ATOM     32  C   UNL A   1      42.672  34.867  33.476  1.00  0.00     0.007 C 
ENDBRANCH  29  30
ENDBRANCH   5  29
ENDBRANCH   3   5
ENDBRANCH   2   3
ENDBRANCH   1   2
BRANCH   1  33
ATOM     33  C   UNL A   1      44.925  29.259  37.439  1.00  0.00     0.275 C 
BRANCH  33  34
ATOM     34  O   UNL A   1      44.009  28.193  37.751  1.00  0.00    -0.458 OA
BRANCH  34  35
ATOM     35  C   UNL A   1      44.668  27.079  38.114  1.00  0.00     0.338 C 
ATOM     36  O   UNL A   1      44.993  26.766  39.243  1.00  0.00    -0.246 OA
BRANCH  35  37
ATOM     37  C   UNL A   1      45.378  26.416  37.064  1.00  0.00     0.060 A 
ATOM     38  C   UNL A   1      47.012  27.036  36.629  1.00  0.00     0.016 A 
ATOM     39  C   UNL A   1      44.231  26.114  35.837  1.00  0.00     0.016 A 
ATOM     40  C   UNL A   1      47.418  27.366  34.653  1.00  0.00     0.010 A 
ATOM     41  C   UNL A   1      44.512  26.398  34.183  1.00  0.00     0.010 A 
ATOM     42  C   UNL A   1      45.978  27.078  33.509  1.00  0.00    -0.014 A 
BRANCH  42  43
ATOM     43  C   UNL A   1      45.568  27.284  32.041  1.00  0.00     0.031 A 
ATOM     44  C   UNL A   1      44.875  28.575  32.000  1.00  0.00     0.074 A 
ATOM     45  C   UNL A   1      46.131  26.792  30.839  1.00  0.00     0.049 A 
ATOM     46  N   UNL A   1      43.606  28.745  31.886  1.00  0.00    -0.248 NA
ATOM     47  C   UNL A   1      45.620  29.802  32.357  1.00  0.00     0.031 C 
ATOM     48  C   UNL A   1      47.175  25.749  30.654  1.00  0.00     0.029 A 
ATOM     49  N   UNL A   1      45.993  27.171  29.475  1.00  0.00    -0.354 N 
ATOM     50  C   UNL A   1      43.484  30.113  31.739  1.00  0.00     0.074 A 
ATOM     51  C   UNL A   1      44.638  30.706  32.358  1.00  0.00     0.031 C 
ATOM     52  C   UNL A   1      47.707  25.738  29.406  1.00  0.00     0.029 A 
ATOM     53  C   UNL A   1      46.991  26.663  28.559  1.00  0.00     0.049 A 
ATOM     54  H   UNL A   1      45.257  27.750  29.171  1.00  0.00     0.167 HD
ATOM     55  C   UNL A   1      42.719  30.602  30.732  1.00  0.00     0.037 A 
ATOM     56  C   UNL A   1      47.200  26.884  27.206  1.00  0.00     0.037 A 
ATOM     57  C   UNL A   1      42.017  29.543  30.055  1.00  0.00     0.049 A 
ATOM     58  C   UNL A   1      45.914  27.356  26.674  1.00  0.00     0.074 A 
ATOM     59  C   UNL A   1      41.029  28.645  30.397  1.00  0.00     0.029 A 
ATOM     60  N   UNL A   1      42.699  29.008  28.994  1.00  0.00    -0.354 N 
ATOM     61  N   UNL A   1      44.872  26.593  26.538  1.00  0.00    -0.248 NA
ATOM     62  C   UNL A   1      45.692  28.787  26.546  1.00  0.00     0.031 C 
ATOM     63  C   UNL A   1      41.174  27.527  29.534  1.00  0.00     0.029 A 
ATOM     64  C   UNL A   1      42.181  27.797  28.617  1.00  0.00     0.049 A 
ATOM     65  H   UNL A   1      43.468  29.441  28.556  1.00  0.00     0.167 HD
ATOM     66  C   UNL A   1      43.838  27.443  26.838  1.00  0.00     0.074 A 
ATOM     67  C   UNL A   1      44.364  28.792  26.663  1.00  0.00     0.031 C 
ATOM     68  C   UNL A   1      42.820  26.985  27.613  1.00  0.00     0.037 A 
BRANCH  55  69
ATOM     69  C   UNL A   1      42.947  31.927  30.081  1.00  0.00     0.058 A 
ATOM     70  C   UNL A   1      41.960  32.915  30.203  1.00  0.00     0.135 A 
ATOM     71  C   UNL A   1      44.012  32.202  29.196  1.00  0.00     0.135 A 
ATOM     72  F   UNL A   1      40.878  32.701  30.968  1.00  0.00    -0.206 F 
ATOM     73  C   UNL A   1      42.051  34.128  29.530  1.00  0.00     0.059 A 
ATOM     74  C   UNL A   1      44.152  33.426  28.554  1.00  0.00     0.059 A 
ATOM     75  F   UNL A   1      44.919  31.267  28.878  1.00  0.00    -0.206 F 
ATOM     76  C   UNL A   1      43.162  34.384  28.729  1.00  0.00     0.060 A 
BRANCH  76  77
ATOM     77  S   UNL A   1      43.297  35.991  27.928  1.00  0.00     0.124 S 
ATOM     78  O   UNL A   1      43.479  35.612  26.532  1.00  0.00    -0.237 OA
ATOM     79  O   UNL A   1      42.012  36.596  28.265  1.00  0.00    -0.237 OA
ATOM     80  O   UNL A   1      44.456  36.595  28.577  1.00  0.00    -0.744 OA
ENDBRANCH  76  77
ENDBRANCH  55  69
BRANCH  56  81
ATOM     81  C   UNL A   1      48.353  26.845  26.193  1.00  0.00     0.058 A 
ATOM     82  C   UNL A   1      48.198  26.245  24.904  1.00  0.00     0.135 A 
ATOM     83  C   UNL A   1      49.456  27.706  26.291  1.00  0.00     0.135 A 
ATOM     84  F   UNL A   1      47.227  25.345  24.683  1.00  0.00    -0.206 F 
ATOM     85  C   UNL A   1      48.963  26.603  23.774  1.00  0.00     0.059 A 
ATOM     86  C   UNL A   1      50.243  28.073  25.175  1.00  0.00     0.059 A 
ATOM     87  F   UNL A   1      49.748  28.292  27.460  1.00  0.00    -0.206 F 
ATOM     88  C   UNL A   1      49.953  27.566  23.909  1.00  0.00     0.060 A 
BRANCH  88  89
ATOM     89  S   UNL A   1      50.729  28.273  22.417  1.00  0.00     0.124 S 
ATOM     90  O   UNL A   1      51.652  27.220  22.010  1.00  0.00    -0.237 OA
ATOM     91  O   UNL A   1      49.581  28.483  21.540  1.00  0.00    -0.237 OA
ATOM     92  O   UNL A   1      51.357  29.495  22.913  1.00  0.00    -0.744 OA
ENDBRANCH  88  89
ENDBRANCH  56  81
BRANCH  68  93
ATOM     93  C   UNL A   1      42.396  25.557  27.443  1.00  0.00     0.058 A 
ATOM     94  C   UNL A   1      42.922  24.436  28.107  1.00  0.00     0.135 A 
ATOM     95  C   UNL A   1      41.323  25.340  26.563  1.00  0.00     0.135 A 
ATOM     96  F   UNL A   1      43.907  24.561  29.010  1.00  0.00    -0.206 F 
ATOM     97  C   UNL A   1      42.409  23.153  27.883  1.00  0.00     0.059 A 
ATOM     98  C   UNL A   1      40.775  24.083  26.356  1.00  0.00     0.059 A 
ATOM     99  F   UNL A   1      40.768  26.377  25.911  1.00  0.00    -0.206 F 
ATOM    100  C   UNL A   1      41.332  22.990  27.009  1.00  0.00     0.060 A 
BRANCH 100 101
ATOM    101  S   UNL A   1      40.633  21.347  26.745  1.00  0.00     0.124 S 
ATOM    102  O   UNL A   1      41.576  20.759  25.799  1.00  0.00    -0.237 OA
ATOM    103  O   UNL A   1      40.646  20.781  28.091  1.00  0.00    -0.237 OA
ATOM    104  O   UNL A   1      39.303  21.622  26.206  1.00  0.00    -0.744 OA
ENDBRANCH 100 101
ENDBRANCH  68  93
ENDBRANCH  42  43
ENDBRANCH  35  37
ENDBRANCH  34  35
ENDBRANCH  33  34
ENDBRANCH   1  33
TORSDOF 20
ENDMDL
MODEL 3
REMARK VINA RESULT:      -9.5      6.631     11.586
REMARK SMILES Cc1coc2c(C)c3oc(=O)c(CCC(=O)N[C@H](CC(C)C)C(=O)OCCOC(=O)c4ccc(-c5c6nc(c(-c7c(F)cc(S(=O)(=O)[O-])cc7F)c7ccc([nH]7)c(-c7c(F)cc(S(=O)(=O)[O-])cc7F)c7nc(c(-c8c(F)cc(S(=O)(=O)[O-])cc8F)c8ccc5[nH]8)C=C7)C=C6)cc4)c(C)c3cc12
REMARK SMILES IDX 26 1 25 2 23 3 24 4 18 5 17 6 15 7 16 8 14 10 13 11 12 12
REMARK SMILES IDX 1 13 2 14 3 15 101 16 4 17 5 18 100 19 6 20 99 21 7 22 8 23
REMARK SMILES IDX 97 24 9 25 98 26 10 27 11 28 19 29 20 30 21 31 22 32 27 33
REMARK SMILES IDX 28 34 29 35 30 36 31 37 32 38 96 39 33 40 95 41 34 42 35 43
REMARK SMILES IDX 36 44 89 45 37 46 94 47 88 48 90 49 38 50 93 51 87 52 86 53
REMARK SMILES IDX 39 55 73 56 52 57 72 58 53 59 56 60 71 61 91 62 54 63 55 64
REMARK SMILES IDX 70 66 92 67 57 68 40 69 41 70 50 71 42 72 43 73 49 74 51 75
REMARK SMILES IDX 44 76 45 77 46 78 47 79 48 80 74 81 75 82 84 83 76 84 77 85
REMARK SMILES IDX 83 86 85 87 78 88 79 89 80 90 81 91 82 92 58 93 59 94 68 95
REMARK SMILES IDX 60 96 61 97 67 98 69 99 62 100 63 101 64 102 65 103 66 104
REMARK H PARENT 17 9 90 54 56 65
REMARK Flexibility Score: inf
ROOT
ATOM      1  C   UNL A   1      46.972  39.898  26.620  1.00  0.00     0.274 C 
ENDROOT
BRANCH   1   2
ATOM      2  O   UNL A   1      46.209  41.132  26.627  1.00  0.00    -0.461 OA
BRANCH   2   3
ATOM      3  C   UNL A   1      45.647  41.509  25.452  1.00  0.00     0.328 C 
ATOM      4  O   UNL A   1      46.295  41.922  24.487  1.00  0.00    -0.250 OA
BRANCH   3   5
ATOM      5  C   UNL A   1      44.103  41.308  25.365  1.00  0.00     0.192 C 
BRANCH   5   6
ATOM      6  N   UNL A   1      43.657  42.652  24.931  1.00  0.00    -0.343 N 
ATOM      7  C   UNL A   1      42.905  43.118  23.913  1.00  0.00     0.221 C 
ATOM      8  O   UNL A   1      42.889  44.339  23.738  1.00  0.00    -0.275 OA
ATOM      9  H   UNL A   1      43.987  43.370  25.520  1.00  0.00     0.164 HD
BRANCH   7  10
ATOM     10  C   UNL A   1      42.045  42.214  23.065  1.00  0.00     0.105 C 
BRANCH  10  11
ATOM     11  C   UNL A   1      42.342  42.079  21.551  1.00  0.00     0.053 C 
BRANCH  11  12
ATOM     12  C   UNL A   1      43.196  43.053  20.716  1.00  0.00     0.042 A 
ATOM     13  C   UNL A   1      41.526  48.110  16.304  1.00  0.00     0.048 C 
ATOM     14  C   UNL A   1      42.983  48.210  16.622  1.00  0.00    -0.005 A 
ATOM     15  C   UNL A   1      43.800  49.328  16.704  1.00  0.00     0.199 A 
ATOM     16  C   UNL A   1      43.739  47.144  17.161  1.00  0.00     0.024 A 
ATOM     17  O   UNL A   1      44.887  49.241  17.549  1.00  0.00    -0.464 OA
ATOM     18  C   UNL A   1      44.883  47.982  18.234  1.00  0.00     0.140 A 
ATOM     19  C   UNL A   1      43.266  45.507  17.534  1.00  0.00     0.024 A 
ATOM     20  C   UNL A   1      45.554  46.982  19.870  1.00  0.00     0.036 A 
ATOM     21  C   UNL A   1      43.765  44.623  18.908  1.00  0.00     0.022 A 
ATOM     22  C   UNL A   1      46.635  47.053  20.989  1.00  0.00     0.052 C 
ATOM     23  C   UNL A   1      44.904  45.251  19.998  1.00  0.00     0.145 A 
ATOM     24  C   UNL A   1      42.768  43.735  19.630  1.00  0.00    -0.030 A 
ATOM     25  O   UNL A   1      45.368  44.267  20.893  1.00  0.00    -0.422 OA
ATOM     26  C   UNL A   1      41.306  43.828  19.255  1.00  0.00     0.046 C 
ATOM     27  C   UNL A   1      44.683  43.034  20.932  1.00  0.00     0.339 A 
ATOM     28  O   UNL A   1      45.240  41.987  21.246  1.00  0.00    -0.246 OA
ENDBRANCH  11  12
ENDBRANCH  10  11
ENDBRANCH   7  10
ENDBRANCH   5   6
BRANCH   5  29
ATOM     29  C   UNL A   1      43.344  40.707  26.581  1.00  0.00     0.040 C 
BRANCH  29  30
ATOM     30  C   UNL A   1      42.041  39.909  26.336  1.00  0.00    -0.015 C 
ATOM     31  C   UNL A   1      41.905  38.612  27.117  1.00  0.00     0.007 C 
ATOM     32  C   UNL A   1      40.773  40.736  26.618  1.00  0.00     0.007 C 
ENDBRANCH  29  30
ENDBRANCH   5  29
ENDBRANCH   3   5
ENDBRANCH   2   3
ENDBRANCH   1   2
BRANCH   1  33
ATOM     33  C   UNL A   1      46.486  38.901  27.685  1.00  0.00     0.275 C 
BRANCH  33  34
ATOM     34  O   UNL A   1      47.192  37.649  27.596  1.00  0.00    -0.458 OA
BRANCH  34  35
ATOM     35  C   UNL A   1      46.428  36.630  28.024  1.00  0.00     0.338 C 
ATOM     36  O   UNL A   1      46.131  35.634  27.393  1.00  0.00    -0.246 OA
BRANCH  35  37
ATOM     37  C   UNL A   1      45.586  36.922  29.143  1.00  0.00     0.060 A 
ATOM     38  C   UNL A   1      46.292  36.770  30.792  1.00  0.00     0.016 A 
ATOM     39  C   UNL A   1      44.076  36.203  28.798  1.00  0.00     0.016 A 
ATOM     40  C   UNL A   1      45.243  35.715  32.193  1.00  0.00     0.010 A 
ATOM     41  C   UNL A   1      43.178  35.293  29.921  1.00  0.00     0.010 A 
ATOM     42  C   UNL A   1      43.682  34.923  31.556  1.00  0.00    -0.014 A 
BRANCH  42  43
ATOM     43  C   UNL A   1      42.593  33.929  31.991  1.00  0.00     0.031 A 
ATOM     44  C   UNL A   1      43.194  32.599  31.860  1.00  0.00     0.074 A 
ATOM     45  C   UNL A   1      41.492  34.078  32.869  1.00  0.00     0.049 A 
ATOM     46  N   UNL A   1      42.940  31.746  30.931  1.00  0.00    -0.248 NA
ATOM     47  C   UNL A   1      44.368  32.256  32.690  1.00  0.00     0.031 C 
ATOM     48  C   UNL A   1      40.942  35.320  33.475  1.00  0.00     0.029 A 
ATOM     49  N   UNL A   1      40.645  33.148  33.531  1.00  0.00    -0.354 N 
ATOM     50  C   UNL A   1      43.628  30.621  31.341  1.00  0.00     0.074 A 
ATOM     51  C   UNL A   1      44.707  31.070  32.178  1.00  0.00     0.031 C 
ATOM     52  C   UNL A   1      40.090  35.082  34.504  1.00  0.00     0.029 A 
ATOM     53  C   UNL A   1      39.847  33.663  34.623  1.00  0.00     0.049 A 
ATOM     54  H   UNL A   1      40.605  32.202  33.262  1.00  0.00     0.167 HD
ATOM     55  C   UNL A   1      42.988  29.426  31.357  1.00  0.00     0.037 A 
ATOM     56  C   UNL A   1      38.986  33.038  35.512  1.00  0.00     0.037 A 
ATOM     57  C   UNL A   1      41.678  29.534  30.767  1.00  0.00     0.049 A 
ATOM     58  C   UNL A   1      38.590  31.779  34.868  1.00  0.00     0.074 A 
ATOM     59  C   UNL A   1      41.188  29.804  29.507  1.00  0.00     0.029 A 
ATOM     60  N   UNL A   1      40.686  29.838  31.661  1.00  0.00    -0.354 N 
ATOM     61  N   UNL A   1      37.802  31.718  33.837  1.00  0.00    -0.248 NA
ATOM     62  C   UNL A   1      39.309  30.562  35.207  1.00  0.00     0.031 C 
ATOM     63  C   UNL A   1      39.881  30.330  29.680  1.00  0.00     0.029 A 
ATOM     64  C   UNL A   1      39.554  30.282  31.029  1.00  0.00     0.049 A 
ATOM     65  H   UNL A   1      40.774  29.747  32.638  1.00  0.00     0.167 HD
ATOM     66  C   UNL A   1      38.327  30.672  33.121  1.00  0.00     0.074 A 
ATOM     67  C   UNL A   1      39.120  29.896  34.068  1.00  0.00     0.031 C 
ATOM     68  C   UNL A   1      38.428  30.790  31.772  1.00  0.00     0.037 A 
BRANCH  55  69
ATOM     69  C   UNL A   1      43.337  28.305  32.279  1.00  0.00     0.058 A 
ATOM     70  C   UNL A   1      43.815  27.107  31.732  1.00  0.00     0.135 A 
ATOM     71  C   UNL A   1      43.053  28.300  33.662  1.00  0.00     0.135 A 
ATOM     72  F   UNL A   1      44.041  27.007  30.413  1.00  0.00    -0.206 F 
ATOM     73  C   UNL A   1      44.051  25.984  32.518  1.00  0.00     0.059 A 
ATOM     74  C   UNL A   1      43.330  27.209  34.478  1.00  0.00     0.059 A 
ATOM     75  F   UNL A   1      42.439  29.334  34.256  1.00  0.00    -0.206 F 
ATOM     76  C   UNL A   1      43.829  26.054  33.893  1.00  0.00     0.060 A 
BRANCH  76  77
ATOM     77  S   UNL A   1      44.214  24.614  34.902  1.00  0.00     0.124 S 
ATOM     78  O   UNL A   1      42.979  23.846  34.807  1.00  0.00    -0.237 OA
ATOM     79  O   UNL A   1      45.368  24.061  34.199  1.00  0.00    -0.237 OA
ATOM     80  O   UNL A   1      44.504  25.187  36.213  1.00  0.00    -0.744 OA
ENDBRANCH  76  77
ENDBRANCH  55  69
BRANCH  56  81
ATOM     81  C   UNL A   1      38.430  33.254  36.927  1.00  0.00     0.058 A 
ATOM     82  C   UNL A   1      37.027  33.396  37.167  1.00  0.00     0.135 A 
ATOM     83  C   UNL A   1      39.174  32.937  38.073  1.00  0.00     0.135 A 
ATOM     84  F   UNL A   1      36.200  33.766  36.176  1.00  0.00    -0.206 F 
ATOM     85  C   UNL A   1      36.404  33.080  38.392  1.00  0.00     0.059 A 
ATOM     86  C   UNL A   1      38.574  32.626  39.314  1.00  0.00     0.059 A 
ATOM     87  F   UNL A   1      40.508  32.828  37.999  1.00  0.00    -0.206 F 
ATOM     88  C   UNL A   1      37.186  32.640  39.451  1.00  0.00     0.060 A 
BRANCH  88  89
ATOM     89  S   UNL A   1      36.383  31.926  40.925  1.00  0.00     0.124 S 
ATOM     90  O   UNL A   1      35.142  31.387  40.381  1.00  0.00    -0.237 OA
ATOM     91  O   UNL A   1      37.363  30.938  41.366  1.00  0.00    -0.237 OA
ATOM     92  O   UNL A   1      36.227  33.076  41.812  1.00  0.00    -0.744 OA
ENDBRANCH  88  89
ENDBRANCH  56  81
BRANCH  68  93
ATOM     93  C   UNL A   1      37.344  31.531  31.048  1.00  0.00     0.058 A 
ATOM     94  C   UNL A   1      36.154  30.991  30.530  1.00  0.00     0.135 A 
ATOM     95  C   UNL A   1      37.527  32.918  30.929  1.00  0.00     0.135 A 
ATOM     96  F   UNL A   1      35.871  29.684  30.655  1.00  0.00    -0.206 F 
ATOM     97  C   UNL A   1      35.201  31.802  29.904  1.00  0.00     0.059 A 
ATOM     98  C   UNL A   1      36.579  33.745  30.346  1.00  0.00     0.059 A 
ATOM     99  F   UNL A   1      38.639  33.493  31.419  1.00  0.00    -0.206 F 
ATOM    100  C   UNL A   1      35.423  33.179  29.822  1.00  0.00     0.060 A 
BRANCH 100 101
ATOM    101  S   UNL A   1      34.182  34.242  29.056  1.00  0.00     0.124 S 
ATOM    102  O   UNL A   1      33.321  34.575  30.185  1.00  0.00    -0.237 OA
ATOM    103  O   UNL A   1      34.989  35.336  28.526  1.00  0.00    -0.237 OA
ATOM    104  O   UNL A   1      33.572  33.382  28.043  1.00  0.00    -0.744 OA
ENDBRANCH 100 101
ENDBRANCH  68  93
ENDBRANCH  42  43
ENDBRANCH  35  37
ENDBRANCH  34  35
ENDBRANCH  33  34
ENDBRANCH   1  33
TORSDOF 20
ENDMDL
