MODEL 1
REMARK VINA RESULT:      -9.8      0.000      0.000
REMARK SMILES CCc1ccc(C(=O)OCCOC(=O)c2ccc(-c3c4nc(c(-c5c(F)cc(S(=O)(=O)[O-])cc5F)c5ccc([nH]5)c(-c5c(F)cc(S(=O)(=O)[O-])cc5F)c5nc(c(-c6c(F)cc(S(=O)(=O)[O-])cc6F)c6ccc3[nH]6)C=C5)C=C4)cc2)cc1S(=O)(=O)C(CC)CC
REMARK SMILES IDX 10 1 9 2 7 3 8 4 6 5 3 6 4 7 82 8 5 9 81 10 2 11 1 12 83 13
REMARK SMILES IDX 84 14 85 15 86 16 87 17 88 18 89 19 90 20 11 21 12 22 13 23
REMARK SMILES IDX 14 24 15 25 16 26 80 27 17 28 79 29 18 30 19 31 20 32 73 33
REMARK SMILES IDX 21 34 78 35 72 36 74 37 22 38 77 39 71 40 70 41 23 43 57 44
REMARK SMILES IDX 36 45 56 46 37 47 40 48 55 49 75 50 38 51 39 52 54 54 76 55
REMARK SMILES IDX 41 56 24 57 25 58 34 59 26 60 27 61 33 62 35 63 28 64 29 65
REMARK SMILES IDX 30 66 31 67 32 68 58 69 59 70 68 71 60 72 61 73 67 74 69 75
REMARK SMILES IDX 62 76 63 77 64 78 65 79 66 80 42 81 43 82 52 83 44 84 45 85
REMARK SMILES IDX 51 86 53 87 46 88 47 89 48 90 49 91 50 92
REMARK H PARENT 74 42 40 53
REMARK Flexibility Score: inf
ROOT
ATOM      1  C   UNL A   1      32.340  28.313  25.861  1.00  0.00     0.275 C 
ENDROOT
BRANCH   1   2
ATOM      2  O   UNL A   1      31.959  27.138  25.117  1.00  0.00    -0.458 OA
BRANCH   2   3
ATOM      3  C   UNL A   1      31.277  26.216  25.830  1.00  0.00     0.338 C 
ATOM      4  O   UNL A   1      30.358  26.427  26.612  1.00  0.00    -0.246 OA
BRANCH   3   5
ATOM      5  C   UNL A   1      31.688  24.847  25.476  1.00  0.00     0.061 A 
ATOM      6  C   UNL A   1      32.111  22.077  24.977  1.00  0.00    -0.030 A 
ATOM      7  C   UNL A   1      31.148  22.819  24.284  1.00  0.00     0.006 A 
ATOM      8  C   UNL A   1      32.953  22.795  25.864  1.00  0.00     0.071 A 
ATOM      9  C   UNL A   1      30.931  24.156  24.551  1.00  0.00     0.016 A 
ATOM     10  C   UNL A   1      32.724  24.182  26.104  1.00  0.00     0.036 A 
BRANCH   6  11
ATOM     11  C   UNL A   1      32.108  20.613  24.617  1.00  0.00     0.033 C 
ATOM     12  C   UNL A   1      32.485  20.254  23.172  1.00  0.00     0.009 C 
ENDBRANCH   6  11
BRANCH   8  13
ATOM     13  S   UNL A   1      34.357  22.242  26.829  1.00  0.00     0.181 S 
ATOM     14  O   UNL A   1      34.548  23.280  27.827  1.00  0.00    -0.223 OA
ATOM     15  O   UNL A   1      33.992  20.911  27.294  1.00  0.00    -0.223 OA
BRANCH  13  16
ATOM     16  C   UNL A   1      35.884  22.039  25.968  1.00  0.00     0.113 C 
BRANCH  16  17
ATOM     17  C   UNL A   1      35.925  20.827  24.992  1.00  0.00     0.017 C 
ATOM     18  C   UNL A   1      37.192  19.992  24.806  1.00  0.00     0.005 C 
ENDBRANCH  16  17
BRANCH  16  19
ATOM     19  C   UNL A   1      36.608  23.330  25.535  1.00  0.00     0.017 C 
ATOM     20  C   UNL A   1      38.027  23.497  26.072  1.00  0.00     0.005 C 
ENDBRANCH  16  19
ENDBRANCH  13  16
ENDBRANCH   8  13
ENDBRANCH   3   5
ENDBRANCH   2   3
ENDBRANCH   1   2
BRANCH   1  21
ATOM     21  C   UNL A   1      33.855  28.365  26.080  1.00  0.00     0.275 C 
BRANCH  21  22
ATOM     22  O   UNL A   1      34.179  28.590  27.467  1.00  0.00    -0.458 OA
BRANCH  22  23
ATOM     23  C   UNL A   1      34.522  29.863  27.770  1.00  0.00     0.338 C 
ATOM     24  O   UNL A   1      33.801  30.847  27.732  1.00  0.00    -0.246 OA
BRANCH  23  25
ATOM     25  C   UNL A   1      35.910  29.948  28.254  1.00  0.00     0.060 A 
ATOM     26  C   UNL A   1      36.896  30.297  27.348  1.00  0.00     0.016 A 
ATOM     27  C   UNL A   1      36.269  29.393  29.481  1.00  0.00     0.016 A 
ATOM     28  C   UNL A   1      38.196  29.843  27.546  1.00  0.00     0.010 A 
ATOM     29  C   UNL A   1      37.625  29.174  29.774  1.00  0.00     0.010 A 
ATOM     30  C   UNL A   1      38.611  29.339  28.788  1.00  0.00    -0.014 A 
BRANCH  30  31
ATOM     31  C   UNL A   1      40.060  29.039  29.038  1.00  0.00     0.031 A 
ATOM     32  C   UNL A   1      41.002  30.088  29.589  1.00  0.00     0.074 A 
ATOM     33  C   UNL A   1      40.547  27.808  28.756  1.00  0.00     0.049 A 
ATOM     34  N   UNL A   1      42.311  30.071  29.651  1.00  0.00    -0.248 NA
ATOM     35  C   UNL A   1      40.403  31.324  30.119  1.00  0.00     0.031 C 
ATOM     36  C   UNL A   1      39.764  26.676  28.245  1.00  0.00     0.029 A 
ATOM     37  N   UNL A   1      41.817  27.290  28.856  1.00  0.00    -0.354 N 
ATOM     38  C   UNL A   1      42.694  31.312  30.158  1.00  0.00     0.074 A 
ATOM     39  C   UNL A   1      41.476  32.059  30.385  1.00  0.00     0.031 C 
ATOM     40  C   UNL A   1      40.541  25.594  28.150  1.00  0.00     0.029 A 
ATOM     41  C   UNL A   1      41.912  25.983  28.430  1.00  0.00     0.049 A 
ATOM     42  H   UNL A   1      42.584  27.804  29.198  1.00  0.00     0.167 HD
ATOM     43  C   UNL A   1      43.944  31.779  30.403  1.00  0.00     0.037 A 
ATOM     44  C   UNL A   1      42.976  25.192  28.201  1.00  0.00     0.037 A 
ATOM     45  C   UNL A   1      45.147  31.002  30.219  1.00  0.00     0.049 A 
ATOM     46  C   UNL A   1      44.347  25.750  28.422  1.00  0.00     0.074 A 
ATOM     47  C   UNL A   1      46.457  31.373  30.467  1.00  0.00     0.029 A 
ATOM     48  N   UNL A   1      45.187  29.698  29.747  1.00  0.00    -0.354 N 
ATOM     49  N   UNL A   1      44.689  26.938  28.860  1.00  0.00    -0.248 NA
ATOM     50  C   UNL A   1      45.478  24.874  28.097  1.00  0.00     0.031 C 
ATOM     51  C   UNL A   1      47.293  30.315  30.092  1.00  0.00     0.029 A 
ATOM     52  C   UNL A   1      46.501  29.261  29.668  1.00  0.00     0.049 A 
ATOM     53  H   UNL A   1      44.398  29.160  29.504  1.00  0.00     0.167 HD
ATOM     54  C   UNL A   1      46.077  26.948  28.874  1.00  0.00     0.074 A 
ATOM     55  C   UNL A   1      46.509  25.639  28.425  1.00  0.00     0.031 C 
ATOM     56  C   UNL A   1      46.917  27.955  29.218  1.00  0.00     0.037 A 
BRANCH  43  57
ATOM     57  C   UNL A   1      44.093  33.211  30.862  1.00  0.00     0.058 A 
ATOM     58  C   UNL A   1      44.272  33.555  32.210  1.00  0.00     0.135 A 
ATOM     59  C   UNL A   1      44.109  34.255  29.919  1.00  0.00     0.135 A 
ATOM     60  F   UNL A   1      44.257  32.604  33.159  1.00  0.00    -0.206 F 
ATOM     61  C   UNL A   1      44.432  34.880  32.611  1.00  0.00     0.059 A 
ATOM     62  C   UNL A   1      44.298  35.583  30.293  1.00  0.00     0.059 A 
ATOM     63  F   UNL A   1      43.949  33.989  28.612  1.00  0.00    -0.206 F 
ATOM     64  C   UNL A   1      44.443  35.888  31.644  1.00  0.00     0.060 A 
BRANCH  64  65
ATOM     65  S   UNL A   1      44.651  37.600  32.182  1.00  0.00     0.124 S 
ATOM     66  O   UNL A   1      45.023  38.255  30.931  1.00  0.00    -0.237 OA
ATOM     67  O   UNL A   1      43.328  37.928  32.700  1.00  0.00    -0.237 OA
ATOM     68  O   UNL A   1      45.710  37.516  33.183  1.00  0.00    -0.744 OA
ENDBRANCH  64  65
ENDBRANCH  43  57
BRANCH  44  69
ATOM     69  C   UNL A   1      42.774  23.817  27.669  1.00  0.00     0.058 A 
ATOM     70  C   UNL A   1      42.648  22.720  28.532  1.00  0.00     0.135 A 
ATOM     71  C   UNL A   1      42.662  23.577  26.288  1.00  0.00     0.135 A 
ATOM     72  F   UNL A   1      42.756  22.895  29.858  1.00  0.00    -0.206 F 
ATOM     73  C   UNL A   1      42.424  21.435  28.048  1.00  0.00     0.059 A 
ATOM     74  C   UNL A   1      42.401  22.309  25.782  1.00  0.00     0.059 A 
ATOM     75  F   UNL A   1      42.758  24.593  25.416  1.00  0.00    -0.206 F 
ATOM     76  C   UNL A   1      42.295  21.240  26.671  1.00  0.00     0.060 A 
BRANCH  76  77
ATOM     77  S   UNL A   1      41.950  19.578  26.060  1.00  0.00     0.124 S 
ATOM     78  O   UNL A   1      40.519  19.655  25.796  1.00  0.00    -0.237 OA
ATOM     79  O   UNL A   1      42.815  19.498  24.886  1.00  0.00    -0.237 OA
ATOM     80  O   UNL A   1      42.341  18.722  27.177  1.00  0.00    -0.744 OA
ENDBRANCH  76  77
ENDBRANCH  44  69
BRANCH  56  81
ATOM     81  C   UNL A   1      48.390  27.666  29.151  1.00  0.00     0.058 A 
ATOM     82  C   UNL A   1      49.097  27.172  30.258  1.00  0.00     0.135 A 
ATOM     83  C   UNL A   1      49.097  27.860  27.952  1.00  0.00     0.135 A 
ATOM     84  F   UNL A   1      48.471  26.984  31.430  1.00  0.00    -0.206 F 
ATOM     85  C   UNL A   1      50.459  26.903  30.187  1.00  0.00     0.059 A 
ATOM     86  C   UNL A   1      50.452  27.567  27.851  1.00  0.00     0.059 A 
ATOM     87  F   UNL A   1      48.467  28.327  26.863  1.00  0.00    -0.206 F 
ATOM     88  C   UNL A   1      51.128  27.100  28.977  1.00  0.00     0.060 A 
BRANCH  88  89
ATOM     89  S   UNL A   1      52.888  26.713  28.892  1.00  0.00     0.124 S 
ATOM     90  O   UNL A   1      53.477  28.043  28.775  1.00  0.00    -0.237 OA
ATOM     91  O   UNL A   1      53.116  26.027  30.160  1.00  0.00    -0.237 OA
ATOM     92  O   UNL A   1      52.994  25.873  27.703  1.00  0.00    -0.744 OA
ENDBRANCH  88  89
ENDBRANCH  56  81
ENDBRANCH  30  31
ENDBRANCH  23  25
ENDBRANCH  22  23
ENDBRANCH  21  22
ENDBRANCH   1  21
TORSDOF 19
ENDMDL
MODEL 2
REMARK VINA RESULT:      -9.7      5.112      9.934
REMARK SMILES CCc1ccc(C(=O)OCCOC(=O)c2ccc(-c3c4nc(c(-c5c(F)cc(S(=O)(=O)[O-])cc5F)c5ccc([nH]5)c(-c5c(F)cc(S(=O)(=O)[O-])cc5F)c5nc(c(-c6c(F)cc(S(=O)(=O)[O-])cc6F)c6ccc3[nH]6)C=C5)C=C4)cc2)cc1S(=O)(=O)C(CC)CC
REMARK SMILES IDX 10 1 9 2 7 3 8 4 6 5 3 6 4 7 82 8 5 9 81 10 2 11 1 12 83 13
REMARK SMILES IDX 84 14 85 15 86 16 87 17 88 18 89 19 90 20 11 21 12 22 13 23
REMARK SMILES IDX 14 24 15 25 16 26 80 27 17 28 79 29 18 30 19 31 20 32 73 33
REMARK SMILES IDX 21 34 78 35 72 36 74 37 22 38 77 39 71 40 70 41 23 43 57 44
REMARK SMILES IDX 36 45 56 46 37 47 40 48 55 49 75 50 38 51 39 52 54 54 76 55
REMARK SMILES IDX 41 56 24 57 25 58 34 59 26 60 27 61 33 62 35 63 28 64 29 65
REMARK SMILES IDX 30 66 31 67 32 68 58 69 59 70 68 71 60 72 61 73 67 74 69 75
REMARK SMILES IDX 62 76 63 77 64 78 65 79 66 80 42 81 43 82 52 83 44 84 45 85
REMARK SMILES IDX 51 86 53 87 46 88 47 89 48 90 49 91 50 92
REMARK H PARENT 74 42 40 53
REMARK Flexibility Score: inf
ROOT
ATOM      1  C   UNL A   1      33.454  30.777  27.356  1.00  0.00     0.275 C 
ENDROOT
BRANCH   1   2
ATOM      2  O   UNL A   1      32.776  29.915  26.419  1.00  0.00    -0.458 OA
BRANCH   2   3
ATOM      3  C   UNL A   1      32.256  28.792  26.961  1.00  0.00     0.338 C 
ATOM      4  O   UNL A   1      31.463  28.728  27.892  1.00  0.00    -0.246 OA
BRANCH   3   5
ATOM      5  C   UNL A   1      32.667  27.593  26.213  1.00  0.00     0.061 A 
ATOM      6  C   UNL A   1      33.273  25.464  24.423  1.00  0.00    -0.030 A 
ATOM      7  C   UNL A   1      33.921  26.702  24.353  1.00  0.00     0.006 A 
ATOM      8  C   UNL A   1      32.376  25.274  25.506  1.00  0.00     0.071 A 
ATOM      9  C   UNL A   1      33.603  27.738  25.208  1.00  0.00     0.016 A 
ATOM     10  C   UNL A   1      32.082  26.353  26.390  1.00  0.00     0.036 A 
BRANCH   6  11
ATOM     11  C   UNL A   1      33.685  24.512  23.329  1.00  0.00     0.033 C 
ATOM     12  C   UNL A   1      35.056  23.836  23.479  1.00  0.00     0.009 C 
ENDBRANCH   6  11
BRANCH   8  13
ATOM     13  S   UNL A   1      31.457  23.820  26.005  1.00  0.00     0.181 S 
ATOM     14  O   UNL A   1      30.801  24.208  27.243  1.00  0.00    -0.223 OA
ATOM     15  O   UNL A   1      30.614  23.497  24.862  1.00  0.00    -0.223 OA
BRANCH  13  16
ATOM     16  C   UNL A   1      32.392  22.360  26.331  1.00  0.00     0.113 C 
BRANCH  16  17
ATOM     17  C   UNL A   1      32.732  21.511  25.071  1.00  0.00     0.017 C 
ATOM     18  C   UNL A   1      32.390  20.023  24.992  1.00  0.00     0.005 C 
ENDBRANCH  16  17
BRANCH  16  19
ATOM     19  C   UNL A   1      33.463  22.459  27.436  1.00  0.00     0.017 C 
ATOM     20  C   UNL A   1      34.882  22.745  26.949  1.00  0.00     0.005 C 
ENDBRANCH  16  19
ENDBRANCH  13  16
ENDBRANCH   8  13
ENDBRANCH   3   5
ENDBRANCH   2   3
ENDBRANCH   1   2
BRANCH   1  21
ATOM     21  C   UNL A   1      32.697  32.095  27.546  1.00  0.00     0.275 C 
BRANCH  21  22
ATOM     22  O   UNL A   1      33.588  33.227  27.486  1.00  0.00    -0.458 OA
BRANCH  22  23
ATOM     23  C   UNL A   1      33.471  34.097  28.515  1.00  0.00     0.338 C 
ATOM     24  O   UNL A   1      32.555  34.877  28.718  1.00  0.00    -0.246 OA
BRANCH  23  25
ATOM     25  C   UNL A   1      34.582  33.954  29.472  1.00  0.00     0.060 A 
ATOM     26  C   UNL A   1      35.840  34.374  29.076  1.00  0.00     0.016 A 
ATOM     27  C   UNL A   1      34.450  33.144  30.597  1.00  0.00     0.016 A 
ATOM     28  C   UNL A   1      36.965  33.767  29.626  1.00  0.00     0.010 A 
ATOM     29  C   UNL A   1      35.596  32.744  31.303  1.00  0.00     0.010 A 
ATOM     30  C   UNL A   1      36.880  32.998  30.795  1.00  0.00    -0.014 A 
BRANCH  30  31
ATOM     31  C   UNL A   1      38.127  32.518  31.479  1.00  0.00     0.031 A 
ATOM     32  C   UNL A   1      38.976  31.411  30.890  1.00  0.00     0.074 A 
ATOM     33  C   UNL A   1      38.500  33.070  32.657  1.00  0.00     0.049 A 
ATOM     34  N   UNL A   1      39.943  30.726  31.450  1.00  0.00    -0.248 NA
ATOM     35  C   UNL A   1      38.693  31.006  29.503  1.00  0.00     0.031 C 
ATOM     36  C   UNL A   1      37.805  34.166  33.344  1.00  0.00     0.029 A 
ATOM     37  N   UNL A   1      39.558  32.796  33.493  1.00  0.00    -0.354 N 
ATOM     38  C   UNL A   1      40.334  29.768  30.516  1.00  0.00     0.074 A 
ATOM     39  C   UNL A   1      39.497  29.961  29.351  1.00  0.00     0.031 C 
ATOM     40  C   UNL A   1      38.484  34.515  34.440  1.00  0.00     0.029 A 
ATOM     41  C   UNL A   1      39.570  33.570  34.632  1.00  0.00     0.049 A 
ATOM     42  H   UNL A   1      40.238  32.113  33.297  1.00  0.00     0.167 HD
ATOM     43  C   UNL A   1      41.297  28.819  30.626  1.00  0.00     0.037 A 
ATOM     44  C   UNL A   1      40.306  33.495  35.757  1.00  0.00     0.037 A 
ATOM     45  C   UNL A   1      42.158  28.673  31.775  1.00  0.00     0.049 A 
ATOM     46  C   UNL A   1      41.321  32.401  35.879  1.00  0.00     0.074 A 
ATOM     47  C   UNL A   1      43.183  27.763  31.973  1.00  0.00     0.029 A 
ATOM     48  N   UNL A   1      42.101  29.458  32.918  1.00  0.00    -0.354 N 
ATOM     49  N   UNL A   1      41.646  31.481  35.004  1.00  0.00    -0.248 NA
ATOM     50  C   UNL A   1      42.053  32.319  37.147  1.00  0.00     0.031 C 
ATOM     51  C   UNL A   1      43.707  27.961  33.255  1.00  0.00     0.029 A 
ATOM     52  C   UNL A   1      43.051  29.034  33.835  1.00  0.00     0.049 A 
ATOM     53  H   UNL A   1      41.477  30.207  33.057  1.00  0.00     0.167 HD
ATOM     54  C   UNL A   1      42.629  30.714  35.612  1.00  0.00     0.074 A 
ATOM     55  C   UNL A   1      42.864  31.296  36.918  1.00  0.00     0.031 C 
ATOM     56  C   UNL A   1      43.273  29.621  35.133  1.00  0.00     0.037 A 
BRANCH  43  57
ATOM     57  C   UNL A   1      41.455  27.829  29.496  1.00  0.00     0.058 A 
ATOM     58  C   UNL A   1      42.561  27.842  28.632  1.00  0.00     0.135 A 
ATOM     59  C   UNL A   1      40.501  26.812  29.311  1.00  0.00     0.135 A 
ATOM     60  F   UNL A   1      43.501  28.794  28.752  1.00  0.00    -0.206 F 
ATOM     61  C   UNL A   1      42.701  26.906  27.610  1.00  0.00     0.059 A 
ATOM     62  C   UNL A   1      40.636  25.846  28.316  1.00  0.00     0.059 A 
ATOM     63  F   UNL A   1      39.424  26.741  30.110  1.00  0.00    -0.206 F 
ATOM     64  C   UNL A   1      41.732  25.911  27.460  1.00  0.00     0.060 A 
BRANCH  64  65
ATOM     65  S   UNL A   1      41.931  24.705  26.130  1.00  0.00     0.124 S 
ATOM     66  O   UNL A   1      42.019  25.573  24.960  1.00  0.00    -0.237 OA
ATOM     67  O   UNL A   1      43.165  24.025  26.507  1.00  0.00    -0.237 OA
ATOM     68  O   UNL A   1      40.720  23.895  26.218  1.00  0.00    -0.744 OA
ENDBRANCH  64  65
ENDBRANCH  43  57
BRANCH  44  69
ATOM     69  C   UNL A   1      40.050  34.445  36.874  1.00  0.00     0.058 A 
ATOM     70  C   UNL A   1      40.692  35.689  36.925  1.00  0.00     0.135 A 
ATOM     71  C   UNL A   1      39.126  34.145  37.890  1.00  0.00     0.135 A 
ATOM     72  F   UNL A   1      41.589  36.020  35.984  1.00  0.00    -0.206 F 
ATOM     73  C   UNL A   1      40.435  36.600  37.945  1.00  0.00     0.059 A 
ATOM     74  C   UNL A   1      38.824  35.053  38.898  1.00  0.00     0.059 A 
ATOM     75  F   UNL A   1      38.469  32.974  37.881  1.00  0.00    -0.206 F 
ATOM     76  C   UNL A   1      39.493  36.276  38.923  1.00  0.00     0.060 A 
BRANCH  76  77
ATOM     77  S   UNL A   1      39.128  37.488  40.210  1.00  0.00     0.124 S 
ATOM     78  O   UNL A   1      40.450  38.043  40.471  1.00  0.00    -0.237 OA
ATOM     79  O   UNL A   1      38.183  38.374  39.535  1.00  0.00    -0.237 OA
ATOM     80  O   UNL A   1      38.559  36.678  41.283  1.00  0.00    -0.744 OA
ENDBRANCH  76  77
ENDBRANCH  44  69
BRANCH  56  81
ATOM     81  C   UNL A   1      44.316  29.003  36.021  1.00  0.00     0.058 A 
ATOM     82  C   UNL A   1      44.018  27.926  36.871  1.00  0.00     0.135 A 
ATOM     83  C   UNL A   1      45.638  29.477  36.000  1.00  0.00     0.135 A 
ATOM     84  F   UNL A   1      42.766  27.447  36.940  1.00  0.00    -0.206 F 
ATOM     85  C   UNL A   1      44.988  27.356  37.687  1.00  0.00     0.059 A 
ATOM     86  C   UNL A   1      46.631  28.901  36.784  1.00  0.00     0.059 A 
ATOM     87  F   UNL A   1      45.977  30.502  35.203  1.00  0.00    -0.206 F 
ATOM     88  C   UNL A   1      46.294  27.848  37.634  1.00  0.00     0.060 A 
BRANCH  88  89
ATOM     89  S   UNL A   1      47.550  27.075  38.673  1.00  0.00     0.124 S 
ATOM     90  O   UNL A   1      46.946  27.187  39.998  1.00  0.00    -0.237 OA
ATOM     91  O   UNL A   1      47.622  25.727  38.120  1.00  0.00    -0.237 OA
ATOM     92  O   UNL A   1      48.731  27.903  38.451  1.00  0.00    -0.744 OA
ENDBRANCH  88  89
ENDBRANCH  56  81
ENDBRANCH  30  31
ENDBRANCH  23  25
ENDBRANCH  22  23
ENDBRANCH  21  22
ENDBRANCH   1  21
TORSDOF 19
ENDMDL
MODEL 3
REMARK VINA RESULT:      -9.6      5.372     10.768
REMARK SMILES CCc1ccc(C(=O)OCCOC(=O)c2ccc(-c3c4nc(c(-c5c(F)cc(S(=O)(=O)[O-])cc5F)c5ccc([nH]5)c(-c5c(F)cc(S(=O)(=O)[O-])cc5F)c5nc(c(-c6c(F)cc(S(=O)(=O)[O-])cc6F)c6ccc3[nH]6)C=C5)C=C4)cc2)cc1S(=O)(=O)C(CC)CC
REMARK SMILES IDX 10 1 9 2 7 3 8 4 6 5 3 6 4 7 82 8 5 9 81 10 2 11 1 12 83 13
REMARK SMILES IDX 84 14 85 15 86 16 87 17 88 18 89 19 90 20 11 21 12 22 13 23
REMARK SMILES IDX 14 24 15 25 16 26 80 27 17 28 79 29 18 30 19 31 20 32 73 33
REMARK SMILES IDX 21 34 78 35 72 36 74 37 22 38 77 39 71 40 70 41 23 43 57 44
REMARK SMILES IDX 36 45 56 46 37 47 40 48 55 49 75 50 38 51 39 52 54 54 76 55
REMARK SMILES IDX 41 56 24 57 25 58 34 59 26 60 27 61 33 62 35 63 28 64 29 65
REMARK SMILES IDX 30 66 31 67 32 68 58 69 59 70 68 71 60 72 61 73 67 74 69 75
REMARK SMILES IDX 62 76 63 77 64 78 65 79 66 80 42 81 43 82 52 83 44 84 45 85
REMARK SMILES IDX 51 86 53 87 46 88 47 89 48 90 49 91 50 92
REMARK H PARENT 74 42 40 53
REMARK Flexibility Score: inf
ROOT
ATOM      1  C   UNL A   1      40.122  21.250  26.129  1.00  0.00     0.275 C 
ENDROOT
BRANCH   1   2
ATOM      2  O   UNL A   1      38.787  21.594  25.707  1.00  0.00    -0.458 OA
BRANCH   2   3
ATOM      3  C   UNL A   1      38.099  20.584  25.132  1.00  0.00     0.338 C 
ATOM      4  O   UNL A   1      38.447  19.412  25.056  1.00  0.00    -0.246 OA
BRANCH   3   5
ATOM      5  C   UNL A   1      36.768  21.025  24.682  1.00  0.00     0.061 A 
ATOM      6  C   UNL A   1      34.244  22.202  24.097  1.00  0.00    -0.030 A 
ATOM      7  C   UNL A   1      35.450  22.792  23.702  1.00  0.00     0.006 A 
ATOM      8  C   UNL A   1      34.329  20.923  24.706  1.00  0.00     0.071 A 
ATOM      9  C   UNL A   1      36.670  22.228  24.013  1.00  0.00     0.016 A 
ATOM     10  C   UNL A   1      35.603  20.351  24.994  1.00  0.00     0.036 A 
BRANCH   6  11
ATOM     11  C   UNL A   1      33.033  23.035  23.760  1.00  0.00     0.033 C 
ATOM     12  C   UNL A   1      32.801  24.295  24.607  1.00  0.00     0.009 C 
ENDBRANCH   6  11
BRANCH   8  13
ATOM     13  S   UNL A   1      33.034  19.806  25.237  1.00  0.00     0.181 S 
ATOM     14  O   UNL A   1      33.191  19.721  26.679  1.00  0.00    -0.223 OA
ATOM     15  O   UNL A   1      31.802  20.387  24.721  1.00  0.00    -0.223 OA
BRANCH  13  16
ATOM     16  C   UNL A   1      33.086  18.163  24.594  1.00  0.00     0.113 C 
BRANCH  16  17
ATOM     17  C   UNL A   1      33.327  17.055  25.660  1.00  0.00     0.017 C 
ATOM     18  C   UNL A   1      32.536  15.748  25.649  1.00  0.00     0.005 C 
ENDBRANCH  16  17
BRANCH  16  19
ATOM     19  C   UNL A   1      32.116  17.844  23.439  1.00  0.00     0.017 C 
ATOM     20  C   UNL A   1      32.539  18.361  22.066  1.00  0.00     0.005 C 
ENDBRANCH  16  19
ENDBRANCH  13  16
ENDBRANCH   8  13
ENDBRANCH   3   5
ENDBRANCH   2   3
ENDBRANCH   1   2
BRANCH   1  21
ATOM     21  C   UNL A   1      40.834  22.452  26.755  1.00  0.00     0.275 C 
BRANCH  21  22
ATOM     22  O   UNL A   1      39.997  23.626  26.742  1.00  0.00    -0.458 OA
BRANCH  22  23
ATOM     23  C   UNL A   1      40.650  24.786  26.502  1.00  0.00     0.338 C 
ATOM     24  O   UNL A   1      40.978  25.234  25.416  1.00  0.00    -0.246 OA
BRANCH  23  25
ATOM     25  C   UNL A   1      40.877  25.545  27.744  1.00  0.00     0.060 A 
ATOM     26  C   UNL A   1      39.813  25.703  28.615  1.00  0.00     0.016 A 
ATOM     27  C   UNL A   1      42.010  26.342  27.891  1.00  0.00     0.016 A 
ATOM     28  C   UNL A   1      39.767  26.824  29.438  1.00  0.00     0.010 A 
ATOM     29  C   UNL A   1      42.051  27.312  28.907  1.00  0.00     0.010 A 
ATOM     30  C   UNL A   1      40.905  27.612  29.661  1.00  0.00    -0.014 A 
BRANCH  30  31
ATOM     31  C   UNL A   1      40.885  28.695  30.700  1.00  0.00     0.031 A 
ATOM     32  C   UNL A   1      41.850  28.690  31.867  1.00  0.00     0.074 A 
ATOM     33  C   UNL A   1      39.978  29.695  30.607  1.00  0.00     0.049 A 
ATOM     34  N   UNL A   1      41.824  29.410  32.962  1.00  0.00    -0.248 NA
ATOM     35  C   UNL A   1      42.977  27.744  31.810  1.00  0.00     0.031 C 
ATOM     36  C   UNL A   1      38.996  29.860  29.528  1.00  0.00     0.029 A 
ATOM     37  N   UNL A   1      39.727  30.771  31.427  1.00  0.00    -0.354 N 
ATOM     38  C   UNL A   1      42.881  28.959  33.750  1.00  0.00     0.074 A 
ATOM     39  C   UNL A   1      43.529  27.899  33.007  1.00  0.00     0.031 C 
ATOM     40  C   UNL A   1      38.311  30.992  29.709  1.00  0.00     0.029 A 
ATOM     41  C   UNL A   1      38.679  31.555  30.996  1.00  0.00     0.049 A 
ATOM     42  H   UNL A   1      40.244  30.961  32.242  1.00  0.00     0.167 HD
ATOM     43  C   UNL A   1      43.267  29.387  34.978  1.00  0.00     0.037 A 
ATOM     44  C   UNL A   1      38.016  32.565  31.589  1.00  0.00     0.037 A 
ATOM     45  C   UNL A   1      42.642  30.479  35.686  1.00  0.00     0.049 A 
ATOM     46  C   UNL A   1      38.421  32.980  32.969  1.00  0.00     0.074 A 
ATOM     47  C   UNL A   1      42.977  31.009  36.920  1.00  0.00     0.029 A 
ATOM     48  N   UNL A   1      41.559  31.212  35.221  1.00  0.00    -0.354 N 
ATOM     49  N   UNL A   1      39.395  32.513  33.713  1.00  0.00    -0.248 NA
ATOM     50  C   UNL A   1      37.629  34.040  33.600  1.00  0.00     0.031 C 
ATOM     51  C   UNL A   1      42.063  32.023  37.226  1.00  0.00     0.029 A 
ATOM     52  C   UNL A   1      41.195  32.168  36.157  1.00  0.00     0.049 A 
ATOM     53  H   UNL A   1      41.115  31.074  34.353  1.00  0.00     0.167 HD
ATOM     54  C   UNL A   1      39.337  33.231  34.900  1.00  0.00     0.074 A 
ATOM     55  C   UNL A   1      38.252  34.181  34.761  1.00  0.00     0.031 C 
ATOM     56  C   UNL A   1      40.110  33.107  36.006  1.00  0.00     0.037 A 
BRANCH  43  57
ATOM     57  C   UNL A   1      44.395  28.655  35.668  1.00  0.00     0.058 A 
ATOM     58  C   UNL A   1      45.739  29.023  35.511  1.00  0.00     0.135 A 
ATOM     59  C   UNL A   1      44.113  27.593  36.547  1.00  0.00     0.135 A 
ATOM     60  F   UNL A   1      46.074  30.023  34.678  1.00  0.00    -0.206 F 
ATOM     61  C   UNL A   1      46.764  28.350  36.173  1.00  0.00     0.059 A 
ATOM     62  C   UNL A   1      45.118  26.926  37.244  1.00  0.00     0.059 A 
ATOM     63  F   UNL A   1      42.845  27.197  36.745  1.00  0.00    -0.206 F 
ATOM     64  C   UNL A   1      46.443  27.302  37.038  1.00  0.00     0.060 A 
BRANCH  64  65
ATOM     65  S   UNL A   1      47.784  26.442  37.890  1.00  0.00     0.124 S 
ATOM     66  O   UNL A   1      48.278  27.486  38.782  1.00  0.00    -0.237 OA
ATOM     67  O   UNL A   1      47.085  25.336  38.536  1.00  0.00    -0.237 OA
ATOM     68  O   UNL A   1      48.688  26.063  36.809  1.00  0.00    -0.744 OA
ENDBRANCH  64  65
ENDBRANCH  43  57
BRANCH  44  69
ATOM     69  C   UNL A   1      36.857  33.195  30.898  1.00  0.00     0.058 A 
ATOM     70  C   UNL A   1      35.542  32.856  31.240  1.00  0.00     0.135 A 
ATOM     71  C   UNL A   1      37.041  34.179  29.911  1.00  0.00     0.135 A 
ATOM     72  F   UNL A   1      35.312  31.917  32.170  1.00  0.00    -0.206 F 
ATOM     73  C   UNL A   1      34.450  33.463  30.627  1.00  0.00     0.059 A 
ATOM     74  C   UNL A   1      35.968  34.827  29.311  1.00  0.00     0.059 A 
ATOM     75  F   UNL A   1      38.281  34.555  29.556  1.00  0.00    -0.206 F 
ATOM     76  C   UNL A   1      34.674  34.453  29.668  1.00  0.00     0.060 A 
BRANCH  76  77
ATOM     77  S   UNL A   1      33.250  35.271  28.919  1.00  0.00     0.124 S 
ATOM     78  O   UNL A   1      33.892  36.332  28.153  1.00  0.00    -0.237 OA
ATOM     79  O   UNL A   1      32.651  34.190  28.140  1.00  0.00    -0.237 OA
ATOM     80  O   UNL A   1      32.469  35.709  30.073  1.00  0.00    -0.744 OA
ENDBRANCH  76  77
ENDBRANCH  44  69
BRANCH  56  81
ATOM     81  C   UNL A   1      39.824  34.046  37.145  1.00  0.00     0.058 A 
ATOM     82  C   UNL A   1      38.958  33.693  38.192  1.00  0.00     0.135 A 
ATOM     83  C   UNL A   1      40.446  35.304  37.201  1.00  0.00     0.135 A 
ATOM     84  F   UNL A   1      38.326  32.509  38.177  1.00  0.00    -0.206 F 
ATOM     85  C   UNL A   1      38.700  34.565  39.244  1.00  0.00     0.059 A 
ATOM     86  C   UNL A   1      40.227  36.178  38.260  1.00  0.00     0.059 A 
ATOM     87  F   UNL A   1      41.285  35.688  36.227  1.00  0.00    -0.206 F 
ATOM     88  C   UNL A   1      39.343  35.804  39.271  1.00  0.00     0.060 A 
BRANCH  88  89
ATOM     89  S   UNL A   1      39.025  36.910  40.661  1.00  0.00     0.124 S 
ATOM     90  O   UNL A   1      38.330  36.024  41.590  1.00  0.00    -0.237 OA
ATOM     91  O   UNL A   1      40.372  37.311  41.053  1.00  0.00    -0.237 OA
ATOM     92  O   UNL A   1      38.208  37.967  40.073  1.00  0.00    -0.744 OA
ENDBRANCH  88  89
ENDBRANCH  56  81
ENDBRANCH  30  31
ENDBRANCH  23  25
ENDBRANCH  22  23
ENDBRANCH  21  22
ENDBRANCH   1  21
TORSDOF 19
ENDMDL
