MODEL 1
REMARK VINA RESULT:     -11.5      0.000      0.000
REMARK SMILES [NH3+][C@]1(C(=O)OCCOC(=O)c2ccc(-c3c4nc(c(-c5c(F)cc(S(=O)(=O)[O-])cc5F)c5ccc([nH]5)c(-c5c(F)cc(S(=O)(=O)[O-])cc5F)c5nc(c(-c6c(F)cc(S(=O)(=O)[O-])cc6F)c6ccc3[nH]6)C=C5)C=C4)cc2)CC[C@@H](Sc2cc3ccccc3[nH]2)C1
REMARK SMILES IDX 7 1 6 2 5 3 3 4 4 5 2 6 77 7 90 8 78 9 79 10 1 11 80 15
REMARK SMILES IDX 81 16 82 17 89 18 83 19 88 20 84 22 87 23 85 24 86 25 8 26
REMARK SMILES IDX 9 27 10 28 11 29 12 30 76 31 13 32 75 33 14 34 15 35 16 36
REMARK SMILES IDX 69 37 17 38 74 39 68 40 70 41 18 42 73 43 67 44 66 45 19 47
REMARK SMILES IDX 53 48 32 49 52 50 33 51 36 52 51 53 71 54 34 55 35 56 50 58
REMARK SMILES IDX 72 59 37 60 20 61 21 62 30 63 22 64 23 65 29 66 31 67 24 68
REMARK SMILES IDX 25 69 26 70 27 71 28 72 54 73 55 74 64 75 56 76 57 77 63 78
REMARK SMILES IDX 65 79 58 80 59 81 60 82 61 83 62 84 38 85 39 86 48 87 40 88
REMARK SMILES IDX 41 89 47 90 49 91 42 92 43 93 44 94 45 95 46 96
REMARK H PARENT 1 12 1 13 1 14 89 21 70 46 36 57
REMARK Flexibility Score: inf
ROOT
ATOM      1  C   UNL A   1      39.569  22.722  26.558  1.00  0.00     0.275 C 
ENDROOT
BRANCH   1   2
ATOM      2  C   UNL A   1      38.525  21.910  25.791  1.00  0.00     0.274 C 
BRANCH   2   3
ATOM      3  O   UNL A   1      37.241  22.558  25.822  1.00  0.00    -0.457 OA
BRANCH   3   4
ATOM      4  C   UNL A   1      36.423  22.286  24.763  1.00  0.00     0.368 C 
ATOM      5  O   UNL A   1      36.696  22.549  23.598  1.00  0.00    -0.245 OA
BRANCH   4   6
ATOM      6  C   UNL A   1      35.158  21.522  25.221  1.00  0.00     0.193 C 
ATOM      7  C   UNL A   1      34.668  21.982  26.599  1.00  0.00     0.082 C 
ATOM      8  C   UNL A   1      33.986  21.824  24.267  1.00  0.00     0.096 C 
ATOM      9  C   UNL A   1      33.168  21.735  26.573  1.00  0.00     0.022 C 
ATOM     10  C   UNL A   1      32.752  22.051  25.144  1.00  0.00     0.060 C 
BRANCH   6  11
ATOM     11  N   UNL A   1      35.406  20.067  25.209  1.00  0.00    -0.343 N 
ATOM     12  H   UNL A   1      35.446  19.737  24.244  1.00  0.00     0.345 HD
ATOM     13  H   UNL A   1      34.650  19.590  25.700  1.00  0.00     0.345 HD
ATOM     14  H   UNL A   1      36.292  19.869  25.672  1.00  0.00     0.345 HD
ENDBRANCH   6  11
BRANCH  10  15
ATOM     15  S   UNL A   1      32.034  23.670  24.786  1.00  0.00    -0.105 SA
BRANCH  15  16
ATOM     16  C   UNL A   1      32.692  24.843  25.870  1.00  0.00     0.073 A 
ATOM     17  C   UNL A   1      33.836  25.604  25.778  1.00  0.00     0.043 A 
ATOM     18  N   UNL A   1      31.827  25.491  26.708  1.00  0.00    -0.350 N 
ATOM     19  C   UNL A   1      33.442  26.925  26.170  1.00  0.00     0.001 A 
ATOM     20  C   UNL A   1      32.159  26.829  26.713  1.00  0.00     0.046 A 
ATOM     21  H   UNL A   1      31.095  25.076  27.218  1.00  0.00     0.167 HD
ATOM     22  C   UNL A   1      33.993  28.206  25.972  1.00  0.00     0.010 A 
ATOM     23  C   UNL A   1      31.387  27.942  27.056  1.00  0.00     0.027 A 
ATOM     24  C   UNL A   1      33.201  29.333  26.236  1.00  0.00     0.001 A 
ATOM     25  C   UNL A   1      31.918  29.200  26.765  1.00  0.00     0.002 A 
ENDBRANCH  15  16
ENDBRANCH  10  15
ENDBRANCH   4   6
ENDBRANCH   3   4
ENDBRANCH   2   3
ENDBRANCH   1   2
BRANCH   1  26
ATOM     26  O   UNL A   1      39.195  24.109  26.657  1.00  0.00    -0.458 OA
BRANCH  26  27
ATOM     27  C   UNL A   1      40.221  24.983  26.526  1.00  0.00     0.338 C 
ATOM     28  O   UNL A   1      40.916  25.157  25.538  1.00  0.00    -0.246 OA
BRANCH  27  29
ATOM     29  C   UNL A   1      40.384  25.765  27.761  1.00  0.00     0.060 A 
ATOM     30  C   UNL A   1      39.368  25.743  28.718  1.00  0.00     0.016 A 
ATOM     31  C   UNL A   1      41.453  26.651  27.885  1.00  0.00     0.016 A 
ATOM     32  C   UNL A   1      39.366  26.674  29.753  1.00  0.00     0.010 A 
ATOM     33  C   UNL A   1      41.480  27.547  28.959  1.00  0.00     0.010 A 
ATOM     34  C   UNL A   1      40.414  27.596  29.875  1.00  0.00    -0.014 A 
BRANCH  34  35
ATOM     35  C   UNL A   1      40.349  28.661  30.909  1.00  0.00     0.031 A 
ATOM     36  C   UNL A   1      41.295  28.625  32.081  1.00  0.00     0.074 A 
ATOM     37  C   UNL A   1      39.468  29.673  30.786  1.00  0.00     0.049 A 
ATOM     38  N   UNL A   1      41.323  29.382  33.147  1.00  0.00    -0.248 NA
ATOM     39  C   UNL A   1      42.344  27.592  32.052  1.00  0.00     0.031 C 
ATOM     40  C   UNL A   1      38.530  29.848  29.677  1.00  0.00     0.029 A 
ATOM     41  N   UNL A   1      39.221  30.744  31.606  1.00  0.00    -0.354 N 
ATOM     42  C   UNL A   1      42.359  28.894  33.934  1.00  0.00     0.074 A 
ATOM     43  C   UNL A   1      42.933  27.770  33.226  1.00  0.00     0.031 C 
ATOM     44  C   UNL A   1      37.817  30.968  29.879  1.00  0.00     0.029 A 
ATOM     45  C   UNL A   1      38.210  31.558  31.155  1.00  0.00     0.049 A 
ATOM     46  H   UNL A   1      39.719  30.915  32.438  1.00  0.00     0.167 HD
ATOM     47  C   UNL A   1      42.794  29.344  35.136  1.00  0.00     0.037 A 
ATOM     48  C   UNL A   1      37.644  32.642  31.719  1.00  0.00     0.037 A 
ATOM     49  C   UNL A   1      42.248  30.489  35.819  1.00  0.00     0.049 A 
ATOM     50  C   UNL A   1      38.138  33.119  33.056  1.00  0.00     0.074 A 
ATOM     51  C   UNL A   1      42.618  31.025  37.039  1.00  0.00     0.029 A 
ATOM     52  N   UNL A   1      41.223  31.285  35.328  1.00  0.00    -0.354 N 
ATOM     53  N   UNL A   1      39.087  32.617  33.811  1.00  0.00    -0.248 NA
ATOM     54  C   UNL A   1      37.481  34.305  33.620  1.00  0.00     0.031 C 
ATOM     55  C   UNL A   1      41.803  32.134  37.297  1.00  0.00     0.029 A 
ATOM     56  C   UNL A   1      40.947  32.307  36.222  1.00  0.00     0.049 A 
ATOM     57  H   UNL A   1      40.760  31.144  34.471  1.00  0.00     0.167 HD
ATOM     58  C   UNL A   1      39.149  33.433  34.934  1.00  0.00     0.074 A 
ATOM     59  C   UNL A   1      38.155  34.471  34.751  1.00  0.00     0.031 C 
ATOM     60  C   UNL A   1      39.953  33.331  36.020  1.00  0.00     0.037 A 
BRANCH  47  61
ATOM     61  C   UNL A   1      43.899  28.573  35.806  1.00  0.00     0.058 A 
ATOM     62  C   UNL A   1      45.252  28.882  35.592  1.00  0.00     0.135 A 
ATOM     63  C   UNL A   1      43.598  27.521  36.684  1.00  0.00     0.135 A 
ATOM     64  F   UNL A   1      45.596  29.867  34.747  1.00  0.00    -0.206 F 
ATOM     65  C   UNL A   1      46.268  28.155  36.206  1.00  0.00     0.059 A 
ATOM     66  C   UNL A   1      44.597  26.795  37.326  1.00  0.00     0.059 A 
ATOM     67  F   UNL A   1      42.321  27.184  36.922  1.00  0.00    -0.206 F 
ATOM     68  C   UNL A   1      45.930  27.108  37.067  1.00  0.00     0.060 A 
BRANCH  68  69
ATOM     69  S   UNL A   1      47.256  26.166  37.850  1.00  0.00     0.124 S 
ATOM     70  O   UNL A   1      47.051  26.491  39.258  1.00  0.00    -0.237 OA
ATOM     71  O   UNL A   1      46.939  24.794  37.465  1.00  0.00    -0.237 OA
ATOM     72  O   UNL A   1      48.466  26.717  37.249  1.00  0.00    -0.744 OA
ENDBRANCH  68  69
ENDBRANCH  47  61
BRANCH  48  73
ATOM     73  C   UNL A   1      36.529  33.337  31.025  1.00  0.00     0.058 A 
ATOM     74  C   UNL A   1      35.206  33.209  31.473  1.00  0.00     0.135 A 
ATOM     75  C   UNL A   1      36.767  34.156  29.910  1.00  0.00     0.135 A 
ATOM     76  F   UNL A   1      34.929  32.428  32.529  1.00  0.00    -0.206 F 
ATOM     77  C   UNL A   1      34.156  33.862  30.837  1.00  0.00     0.059 A 
ATOM     78  C   UNL A   1      35.737  34.837  29.272  1.00  0.00     0.059 A 
ATOM     79  F   UNL A   1      38.018  34.319  29.451  1.00  0.00    -0.206 F 
ATOM     80  C   UNL A   1      34.433  34.676  29.737  1.00  0.00     0.060 A 
BRANCH  80  81
ATOM     81  S   UNL A   1      33.075  35.568  28.948  1.00  0.00     0.124 S 
ATOM     82  O   UNL A   1      32.431  34.505  28.185  1.00  0.00    -0.237 OA
ATOM     83  O   UNL A   1      32.326  36.074  30.094  1.00  0.00    -0.237 OA
ATOM     84  O   UNL A   1      33.760  36.588  28.159  1.00  0.00    -0.744 OA
ENDBRANCH  80  81
ENDBRANCH  48  73
BRANCH  60  85
ATOM     85  C   UNL A   1      39.803  34.388  37.077  1.00  0.00     0.058 A 
ATOM     86  C   UNL A   1      40.504  35.601  37.008  1.00  0.00     0.135 A 
ATOM     87  C   UNL A   1      38.940  34.187  38.166  1.00  0.00     0.135 A 
ATOM     88  F   UNL A   1      41.345  35.838  35.988  1.00  0.00    -0.206 F 
ATOM     89  C   UNL A   1      40.384  36.566  38.001  1.00  0.00     0.059 A 
ATOM     90  C   UNL A   1      38.789  35.147  39.161  1.00  0.00     0.059 A 
ATOM     91  F   UNL A   1      38.239  33.047  38.272  1.00  0.00    -0.206 F 
ATOM     92  C   UNL A   1      39.528  36.326  39.079  1.00  0.00     0.060 A 
BRANCH  92  93
ATOM     93  S   UNL A   1      39.375  37.581  40.367  1.00  0.00     0.124 S 
ATOM     94  O   UNL A   1      38.182  38.301  39.936  1.00  0.00    -0.237 OA
ATOM     95  O   UNL A   1      39.228  36.778  41.578  1.00  0.00    -0.237 OA
ATOM     96  O   UNL A   1      40.629  38.324  40.266  1.00  0.00    -0.744 OA
ENDBRANCH  92  93
ENDBRANCH  60  85
ENDBRANCH  34  35
ENDBRANCH  27  29
ENDBRANCH  26  27
ENDBRANCH   1  26
TORSDOF 17
ENDMDL
MODEL 2
REMARK VINA RESULT:     -11.5      6.839     12.383
REMARK SMILES [NH3+][C@]1(C(=O)OCCOC(=O)c2ccc(-c3c4nc(c(-c5c(F)cc(S(=O)(=O)[O-])cc5F)c5ccc([nH]5)c(-c5c(F)cc(S(=O)(=O)[O-])cc5F)c5nc(c(-c6c(F)cc(S(=O)(=O)[O-])cc6F)c6ccc3[nH]6)C=C5)C=C4)cc2)CC[C@@H](Sc2cc3ccccc3[nH]2)C1
REMARK SMILES IDX 7 1 6 2 5 3 3 4 4 5 2 6 77 7 90 8 78 9 79 10 1 11 80 15
REMARK SMILES IDX 81 16 82 17 89 18 83 19 88 20 84 22 87 23 85 24 86 25 8 26
REMARK SMILES IDX 9 27 10 28 11 29 12 30 76 31 13 32 75 33 14 34 15 35 16 36
REMARK SMILES IDX 69 37 17 38 74 39 68 40 70 41 18 42 73 43 67 44 66 45 19 47
REMARK SMILES IDX 53 48 32 49 52 50 33 51 36 52 51 53 71 54 34 55 35 56 50 58
REMARK SMILES IDX 72 59 37 60 20 61 21 62 30 63 22 64 23 65 29 66 31 67 24 68
REMARK SMILES IDX 25 69 26 70 27 71 28 72 54 73 55 74 64 75 56 76 57 77 63 78
REMARK SMILES IDX 65 79 58 80 59 81 60 82 61 83 62 84 38 85 39 86 48 87 40 88
REMARK SMILES IDX 41 89 47 90 49 91 42 92 43 93 44 94 45 95 46 96
REMARK H PARENT 1 12 1 13 1 14 89 21 70 46 36 57
REMARK Flexibility Score: inf
ROOT
ATOM      1  C   UNL A   1      34.357  31.576  27.871  1.00  0.00     0.275 C 
ENDROOT
BRANCH   1   2
ATOM      2  C   UNL A   1      33.538  30.313  27.604  1.00  0.00     0.274 C 
BRANCH   2   3
ATOM      3  O   UNL A   1      32.926  30.360  26.303  1.00  0.00    -0.457 OA
BRANCH   3   4
ATOM      4  C   UNL A   1      33.231  29.317  25.475  1.00  0.00     0.368 C 
ATOM      5  O   UNL A   1      34.302  28.720  25.486  1.00  0.00    -0.245 OA
BRANCH   4   6
ATOM      6  C   UNL A   1      32.019  28.933  24.595  1.00  0.00     0.193 C 
ATOM      7  C   UNL A   1      32.440  28.458  23.200  1.00  0.00     0.082 C 
ATOM      8  C   UNL A   1      31.279  27.730  25.211  1.00  0.00     0.096 C 
ATOM      9  C   UNL A   1      31.342  27.496  22.775  1.00  0.00     0.022 C 
ATOM     10  C   UNL A   1      30.941  26.782  24.059  1.00  0.00     0.060 C 
BRANCH   6  11
ATOM     11  N   UNL A   1      31.074  30.064  24.503  1.00  0.00    -0.343 N 
ATOM     12  H   UNL A   1      30.182  29.796  24.917  1.00  0.00     0.345 HD
ATOM     13  H   UNL A   1      30.934  30.310  23.522  1.00  0.00     0.345 HD
ATOM     14  H   UNL A   1      31.454  30.867  25.004  1.00  0.00     0.345 HD
ENDBRANCH   6  11
BRANCH  10  15
ATOM     15  S   UNL A   1      31.624  25.144  24.391  1.00  0.00    -0.105 SA
BRANCH  15  16
ATOM     16  C   UNL A   1      33.347  25.243  24.469  1.00  0.00     0.073 A 
ATOM     17  C   UNL A   1      34.193  25.270  25.555  1.00  0.00     0.043 A 
ATOM     18  N   UNL A   1      34.060  24.784  23.397  1.00  0.00    -0.350 N 
ATOM     19  C   UNL A   1      35.256  24.367  25.226  1.00  0.00     0.001 A 
ATOM     20  C   UNL A   1      35.122  24.047  23.873  1.00  0.00     0.046 A 
ATOM     21  H   UNL A   1      33.851  24.950  22.449  1.00  0.00     0.167 HD
ATOM     22  C   UNL A   1      36.220  23.677  25.987  1.00  0.00     0.010 A 
ATOM     23  C   UNL A   1      35.886  23.064  23.239  1.00  0.00     0.027 A 
ATOM     24  C   UNL A   1      36.938  22.634  25.386  1.00  0.00     0.001 A 
ATOM     25  C   UNL A   1      36.769  22.331  24.036  1.00  0.00     0.002 A 
ENDBRANCH  15  16
ENDBRANCH  10  15
ENDBRANCH   4   6
ENDBRANCH   3   4
ENDBRANCH   2   3
ENDBRANCH   1   2
BRANCH   1  26
ATOM     26  O   UNL A   1      35.772  31.314  27.811  1.00  0.00    -0.458 OA
BRANCH  26  27
ATOM     27  C   UNL A   1      36.358  31.087  29.011  1.00  0.00     0.338 C 
ATOM     28  O   UNL A   1      35.952  31.443  30.106  1.00  0.00    -0.246 OA
BRANCH  27  29
ATOM     29  C   UNL A   1      37.582  30.291  28.836  1.00  0.00     0.060 A 
ATOM     30  C   UNL A   1      38.458  30.147  29.913  1.00  0.00     0.016 A 
ATOM     31  C   UNL A   1      37.944  29.845  27.566  1.00  0.00     0.016 A 
ATOM     32  C   UNL A   1      39.739  29.641  29.707  1.00  0.00     0.010 A 
ATOM     33  C   UNL A   1      39.210  29.283  27.371  1.00  0.00     0.010 A 
ATOM     34  C   UNL A   1      40.134  29.220  28.429  1.00  0.00    -0.014 A 
BRANCH  34  35
ATOM     35  C   UNL A   1      41.537  28.794  28.189  1.00  0.00     0.031 A 
ATOM     36  C   UNL A   1      42.649  29.807  28.261  1.00  0.00     0.074 A 
ATOM     37  C   UNL A   1      41.819  27.502  27.936  1.00  0.00     0.049 A 
ATOM     38  N   UNL A   1      43.916  29.669  27.966  1.00  0.00    -0.248 NA
ATOM     39  C   UNL A   1      42.284  31.158  28.717  1.00  0.00     0.031 C 
ATOM     40  C   UNL A   1      40.839  26.416  27.884  1.00  0.00     0.029 A 
ATOM     41  N   UNL A   1      43.016  26.885  27.675  1.00  0.00    -0.354 N 
ATOM     42  C   UNL A   1      44.491  30.919  28.159  1.00  0.00     0.074 A 
ATOM     43  C   UNL A   1      43.433  31.808  28.590  1.00  0.00     0.031 C 
ATOM     44  C   UNL A   1      41.475  25.263  27.621  1.00  0.00     0.029 A 
ATOM     45  C   UNL A   1      42.897  25.537  27.432  1.00  0.00     0.049 A 
ATOM     46  H   UNL A   1      43.877  27.360  27.662  1.00  0.00     0.167 HD
ATOM     47  C   UNL A   1      45.784  31.292  27.994  1.00  0.00     0.037 A 
ATOM     48  C   UNL A   1      43.823  24.630  27.071  1.00  0.00     0.037 A 
ATOM     49  C   UNL A   1      46.842  30.395  27.606  1.00  0.00     0.049 A 
ATOM     50  C   UNL A   1      45.250  25.067  26.889  1.00  0.00     0.074 A 
ATOM     51  C   UNL A   1      48.183  30.675  27.411  1.00  0.00     0.029 A 
ATOM     52  N   UNL A   1      46.679  29.039  27.368  1.00  0.00    -0.354 N 
ATOM     53  N   UNL A   1      45.769  26.265  27.026  1.00  0.00    -0.248 NA
ATOM     54  C   UNL A   1      46.215  24.033  26.494  1.00  0.00     0.031 C 
ATOM     55  C   UNL A   1      48.828  29.490  27.036  1.00  0.00     0.029 A 
ATOM     56  C   UNL A   1      47.894  28.467  27.027  1.00  0.00     0.049 A 
ATOM     57  H   UNL A   1      45.825  28.553  27.432  1.00  0.00     0.167 HD
ATOM     58  C   UNL A   1      47.123  26.125  26.748  1.00  0.00     0.074 A 
ATOM     59  C   UNL A   1      47.346  24.724  26.451  1.00  0.00     0.031 C 
ATOM     60  C   UNL A   1      48.094  27.071  26.736  1.00  0.00     0.037 A 
BRANCH  47  61
ATOM     61  C   UNL A   1      46.118  32.743  28.205  1.00  0.00     0.058 A 
ATOM     62  C   UNL A   1      46.523  33.237  29.456  1.00  0.00     0.135 A 
ATOM     63  C   UNL A   1      46.046  33.650  27.136  1.00  0.00     0.135 A 
ATOM     64  F   UNL A   1      46.591  32.416  30.516  1.00  0.00    -0.206 F 
ATOM     65  C   UNL A   1      46.818  34.583  29.644  1.00  0.00     0.059 A 
ATOM     66  C   UNL A   1      46.357  34.997  27.297  1.00  0.00     0.059 A 
ATOM     67  F   UNL A   1      45.662  33.231  25.920  1.00  0.00    -0.206 F 
ATOM     68  C   UNL A   1      46.726  35.458  28.559  1.00  0.00     0.060 A 
BRANCH  68  69
ATOM     69  S   UNL A   1      47.102  37.205  28.817  1.00  0.00     0.124 S 
ATOM     70  O   UNL A   1      47.089  37.293  30.273  1.00  0.00    -0.237 OA
ATOM     71  O   UNL A   1      48.411  37.344  28.185  1.00  0.00    -0.237 OA
ATOM     72  O   UNL A   1      46.007  37.891  28.137  1.00  0.00    -0.744 OA
ENDBRANCH  68  69
ENDBRANCH  47  61
BRANCH  48  73
ATOM     73  C   UNL A   1      43.423  23.218  26.840  1.00  0.00     0.058 A 
ATOM     74  C   UNL A   1      43.366  22.685  25.544  1.00  0.00     0.135 A 
ATOM     75  C   UNL A   1      43.105  22.370  27.912  1.00  0.00     0.135 A 
ATOM     76  F   UNL A   1      43.652  23.461  24.488  1.00  0.00    -0.206 F 
ATOM     77  C   UNL A   1      43.002  21.362  25.317  1.00  0.00     0.059 A 
ATOM     78  C   UNL A   1      42.759  21.038  27.712  1.00  0.00     0.059 A 
ATOM     79  F   UNL A   1      43.155  22.831  29.172  1.00  0.00    -0.206 F 
ATOM     80  C   UNL A   1      42.700  20.546  26.408  1.00  0.00     0.060 A 
BRANCH  80  81
ATOM     81  S   UNL A   1      42.282  18.814  26.114  1.00  0.00     0.124 S 
ATOM     82  O   UNL A   1      40.878  18.913  25.736  1.00  0.00    -0.237 OA
ATOM     83  O   UNL A   1      43.206  18.447  25.045  1.00  0.00    -0.237 OA
ATOM     84  O   UNL A   1      42.548  18.183  27.403  1.00  0.00    -0.744 OA
ENDBRANCH  80  81
ENDBRANCH  48  73
BRANCH  60  85
ATOM     85  C   UNL A   1      49.487  26.608  26.415  1.00  0.00     0.058 A 
ATOM     86  C   UNL A   1      50.044  26.782  25.139  1.00  0.00     0.135 A 
ATOM     87  C   UNL A   1      50.275  25.990  27.399  1.00  0.00     0.135 A 
ATOM     88  F   UNL A   1      49.327  27.363  24.163  1.00  0.00    -0.206 F 
ATOM     89  C   UNL A   1      51.323  26.328  24.837  1.00  0.00     0.059 A 
ATOM     90  C   UNL A   1      51.565  25.546  27.125  1.00  0.00     0.059 A 
ATOM     91  F   UNL A   1      49.792  25.810  28.638  1.00  0.00    -0.206 F 
ATOM     92  C   UNL A   1      52.073  25.704  25.836  1.00  0.00     0.060 A 
BRANCH  92  93
ATOM     93  S   UNL A   1      53.733  25.114  25.440  1.00  0.00     0.124 S 
ATOM     94  O   UNL A   1      53.549  23.668  25.483  1.00  0.00    -0.237 OA
ATOM     95  O   UNL A   1      53.966  25.684  24.116  1.00  0.00    -0.237 OA
ATOM     96  O   UNL A   1      54.555  25.676  26.509  1.00  0.00    -0.744 OA
ENDBRANCH  92  93
ENDBRANCH  60  85
ENDBRANCH  34  35
ENDBRANCH  27  29
ENDBRANCH  26  27
ENDBRANCH   1  26
TORSDOF 17
ENDMDL
MODEL 3
REMARK VINA RESULT:     -11.3      5.153     10.845
REMARK SMILES [NH3+][C@]1(C(=O)OCCOC(=O)c2ccc(-c3c4nc(c(-c5c(F)cc(S(=O)(=O)[O-])cc5F)c5ccc([nH]5)c(-c5c(F)cc(S(=O)(=O)[O-])cc5F)c5nc(c(-c6c(F)cc(S(=O)(=O)[O-])cc6F)c6ccc3[nH]6)C=C5)C=C4)cc2)CC[C@@H](Sc2cc3ccccc3[nH]2)C1
REMARK SMILES IDX 7 1 6 2 5 3 3 4 4 5 2 6 77 7 90 8 78 9 79 10 1 11 80 15
REMARK SMILES IDX 81 16 82 17 89 18 83 19 88 20 84 22 87 23 85 24 86 25 8 26
REMARK SMILES IDX 9 27 10 28 11 29 12 30 76 31 13 32 75 33 14 34 15 35 16 36
REMARK SMILES IDX 69 37 17 38 74 39 68 40 70 41 18 42 73 43 67 44 66 45 19 47
REMARK SMILES IDX 53 48 32 49 52 50 33 51 36 52 51 53 71 54 34 55 35 56 50 58
REMARK SMILES IDX 72 59 37 60 20 61 21 62 30 63 22 64 23 65 29 66 31 67 24 68
REMARK SMILES IDX 25 69 26 70 27 71 28 72 54 73 55 74 64 75 56 76 57 77 63 78
REMARK SMILES IDX 65 79 58 80 59 81 60 82 61 83 62 84 38 85 39 86 48 87 40 88
REMARK SMILES IDX 41 89 47 90 49 91 42 92 43 93 44 94 45 95 46 96
REMARK H PARENT 1 12 1 13 1 14 89 21 70 46 36 57
REMARK Flexibility Score: inf
ROOT
ATOM      1  C   UNL A   1      32.610  30.803  26.942  1.00  0.00     0.275 C 
ENDROOT
BRANCH   1   2
ATOM      2  C   UNL A   1      31.520  29.882  26.392  1.00  0.00     0.274 C 
BRANCH   2   3
ATOM      3  O   UNL A   1      31.480  29.929  24.954  1.00  0.00    -0.457 OA
BRANCH   3   4
ATOM      4  C   UNL A   1      31.202  28.743  24.339  1.00  0.00     0.368 C 
ATOM      5  O   UNL A   1      30.420  27.906  24.777  1.00  0.00    -0.245 OA
BRANCH   4   6
ATOM      6  C   UNL A   1      31.929  28.640  22.977  1.00  0.00     0.193 C 
ATOM      7  C   UNL A   1      33.454  28.652  23.130  1.00  0.00     0.082 C 
ATOM      8  C   UNL A   1      31.613  27.286  22.312  1.00  0.00     0.096 C 
ATOM      9  C   UNL A   1      33.965  27.857  21.939  1.00  0.00     0.022 C 
ATOM     10  C   UNL A   1      32.931  26.757  21.741  1.00  0.00     0.060 C 
BRANCH   6  11
ATOM     11  N   UNL A   1      31.482  29.719  22.075  1.00  0.00    -0.343 N 
ATOM     12  H   UNL A   1      30.471  29.833  22.156  1.00  0.00     0.345 HD
ATOM     13  H   UNL A   1      31.720  29.478  21.113  1.00  0.00     0.345 HD
ATOM     14  H   UNL A   1      31.943  30.591  22.332  1.00  0.00     0.345 HD
ENDBRANCH   6  11
BRANCH  10  15
ATOM     15  S   UNL A   1      33.273  25.114  22.410  1.00  0.00    -0.105 SA
BRANCH  15  16
ATOM     16  C   UNL A   1      33.305  25.190  24.135  1.00  0.00     0.073 A 
ATOM     17  C   UNL A   1      32.287  25.074  25.055  1.00  0.00     0.043 A 
ATOM     18  N   UNL A   1      34.474  24.863  24.765  1.00  0.00    -0.350 N 
ATOM     19  C   UNL A   1      32.800  24.211  26.077  1.00  0.00     0.001 A 
ATOM     20  C   UNL A   1      34.169  24.063  25.845  1.00  0.00     0.046 A 
ATOM     21  H   UNL A   1      35.377  25.148  24.494  1.00  0.00     0.167 HD
ATOM     22  C   UNL A   1      32.200  23.423  27.080  1.00  0.00     0.010 A 
ATOM     23  C   UNL A   1      34.973  23.162  26.548  1.00  0.00     0.027 A 
ATOM     24  C   UNL A   1      32.976  22.458  27.738  1.00  0.00     0.001 A 
ATOM     25  C   UNL A   1      34.338  22.328  27.471  1.00  0.00     0.002 A 
ENDBRANCH  15  16
ENDBRANCH  10  15
ENDBRANCH   4   6
ENDBRANCH   3   4
ENDBRANCH   2   3
ENDBRANCH   1   2
BRANCH   1  26
ATOM     26  O   UNL A   1      33.616  30.064  27.660  1.00  0.00    -0.458 OA
BRANCH  26  27
ATOM     27  C   UNL A   1      34.504  30.828  28.338  1.00  0.00     0.338 C 
ATOM     28  O   UNL A   1      34.296  31.916  28.852  1.00  0.00    -0.246 OA
BRANCH  27  29
ATOM     29  C   UNL A   1      35.804  30.145  28.420  1.00  0.00     0.060 A 
ATOM     30  C   UNL A   1      36.236  29.653  29.653  1.00  0.00     0.016 A 
ATOM     31  C   UNL A   1      36.664  30.156  27.323  1.00  0.00     0.016 A 
ATOM     32  C   UNL A   1      37.560  29.255  29.819  1.00  0.00     0.010 A 
ATOM     33  C   UNL A   1      37.977  29.700  27.476  1.00  0.00     0.010 A 
ATOM     34  C   UNL A   1      38.449  29.291  28.736  1.00  0.00    -0.014 A 
BRANCH  34  35
ATOM     35  C   UNL A   1      39.887  28.980  28.945  1.00  0.00     0.031 A 
ATOM     36  C   UNL A   1      40.803  30.027  29.523  1.00  0.00     0.074 A 
ATOM     37  C   UNL A   1      40.366  27.758  28.645  1.00  0.00     0.049 A 
ATOM     38  N   UNL A   1      42.102  30.001  29.671  1.00  0.00    -0.248 NA
ATOM     39  C   UNL A   1      40.171  31.272  29.990  1.00  0.00     0.031 C 
ATOM     40  C   UNL A   1      39.576  26.644  28.122  1.00  0.00     0.029 A 
ATOM     41  N   UNL A   1      41.638  27.251  28.739  1.00  0.00    -0.354 N 
ATOM     42  C   UNL A   1      42.450  31.236  30.205  1.00  0.00     0.074 A 
ATOM     43  C   UNL A   1      41.224  31.992  30.351  1.00  0.00     0.031 C 
ATOM     44  C   UNL A   1      40.376  25.579  27.953  1.00  0.00     0.029 A 
ATOM     45  C   UNL A   1      41.744  25.952  28.304  1.00  0.00     0.049 A 
ATOM     46  H   UNL A   1      42.401  27.767  29.086  1.00  0.00     0.167 HD
ATOM     47  C   UNL A   1      43.678  31.696  30.546  1.00  0.00     0.037 A 
ATOM     48  C   UNL A   1      42.824  25.159  28.176  1.00  0.00     0.037 A 
ATOM     49  C   UNL A   1      44.890  30.925  30.439  1.00  0.00     0.049 A 
ATOM     50  C   UNL A   1      44.178  25.693  28.554  1.00  0.00     0.074 A 
ATOM     51  C   UNL A   1      46.183  31.300  30.757  1.00  0.00     0.029 A 
ATOM     52  N   UNL A   1      44.954  29.614  29.991  1.00  0.00    -0.354 N 
ATOM     53  N   UNL A   1      44.496  26.881  29.012  1.00  0.00    -0.248 NA
ATOM     54  C   UNL A   1      45.318  24.782  28.391  1.00  0.00     0.031 C 
ATOM     55  C   UNL A   1      47.033  30.222  30.483  1.00  0.00     0.029 A 
ATOM     56  C   UNL A   1      46.265  29.165  30.024  1.00  0.00     0.049 A 
ATOM     57  H   UNL A   1      44.182  29.080  29.695  1.00  0.00     0.167 HD
ATOM     58  C   UNL A   1      45.872  26.856  29.204  1.00  0.00     0.074 A 
ATOM     59  C   UNL A   1      46.322  25.530  28.830  1.00  0.00     0.031 C 
ATOM     60  C   UNL A   1      46.691  27.841  29.647  1.00  0.00     0.037 A 
BRANCH  47  61
ATOM     61  C   UNL A   1      43.774  33.114  31.039  1.00  0.00     0.058 A 
ATOM     62  C   UNL A   1      43.930  34.196  30.159  1.00  0.00     0.135 A 
ATOM     63  C   UNL A   1      43.693  33.393  32.412  1.00  0.00     0.135 A 
ATOM     64  F   UNL A   1      44.031  33.983  28.837  1.00  0.00    -0.206 F 
ATOM     65  C   UNL A   1      44.031  35.503  30.625  1.00  0.00     0.059 A 
ATOM     66  C   UNL A   1      43.770  34.695  32.900  1.00  0.00     0.059 A 
ATOM     67  F   UNL A   1      43.546  32.395  33.298  1.00  0.00    -0.206 F 
ATOM     68  C   UNL A   1      43.956  35.742  31.999  1.00  0.00     0.060 A 
BRANCH  68  69
ATOM     69  S   UNL A   1      44.097  37.441  32.595  1.00  0.00     0.124 S 
ATOM     70  O   UNL A   1      45.471  37.463  33.086  1.00  0.00    -0.237 OA
ATOM     71  O   UNL A   1      43.843  38.222  31.388  1.00  0.00    -0.237 OA
ATOM     72  O   UNL A   1      43.063  37.527  33.621  1.00  0.00    -0.744 OA
ENDBRANCH  68  69
ENDBRANCH  47  61
BRANCH  48  73
ATOM     73  C   UNL A   1      42.669  23.780  27.645  1.00  0.00     0.058 A 
ATOM     74  C   UNL A   1      42.705  23.527  26.266  1.00  0.00     0.135 A 
ATOM     75  C   UNL A   1      42.498  22.686  28.508  1.00  0.00     0.135 A 
ATOM     76  F   UNL A   1      42.855  24.543  25.403  1.00  0.00    -0.206 F 
ATOM     77  C   UNL A   1      42.570  22.239  25.759  1.00  0.00     0.059 A 
ATOM     78  C   UNL A   1      42.384  21.387  28.026  1.00  0.00     0.059 A 
ATOM     79  F   UNL A   1      42.469  22.876  29.836  1.00  0.00    -0.206 F 
ATOM     80  C   UNL A   1      42.410  21.175  26.649  1.00  0.00     0.060 A 
BRANCH  80  81
ATOM     81  S   UNL A   1      42.292  19.497  25.990  1.00  0.00     0.124 S 
ATOM     82  O   UNL A   1      43.173  19.575  24.831  1.00  0.00    -0.237 OA
ATOM     83  O   UNL A   1      42.776  18.689  27.106  1.00  0.00    -0.237 OA
ATOM     84  O   UNL A   1      40.869  19.354  25.695  1.00  0.00    -0.744 OA
ENDBRANCH  80  81
ENDBRANCH  48  73
BRANCH  60  85
ATOM     85  C   UNL A   1      48.149  27.505  29.773  1.00  0.00     0.058 A 
ATOM     86  C   UNL A   1      48.674  26.938  30.944  1.00  0.00     0.135 A 
ATOM     87  C   UNL A   1      49.030  27.747  28.706  1.00  0.00     0.135 A 
ATOM     88  F   UNL A   1      47.874  26.693  31.993  1.00  0.00    -0.206 F 
ATOM     89  C   UNL A   1      50.030  26.654  31.068  1.00  0.00     0.059 A 
ATOM     90  C   UNL A   1      50.385  27.452  28.800  1.00  0.00     0.059 A 
ATOM     91  F   UNL A   1      48.574  28.279  27.561  1.00  0.00    -0.206 F 
ATOM     92  C   UNL A   1      50.879  26.921  29.992  1.00  0.00     0.060 A 
BRANCH  92  93
ATOM     93  S   UNL A   1      52.639  26.552  30.156  1.00  0.00     0.124 S 
ATOM     94  O   UNL A   1      53.173  27.846  30.564  1.00  0.00    -0.237 OA
ATOM     95  O   UNL A   1      52.651  25.511  31.180  1.00  0.00    -0.237 OA
ATOM     96  O   UNL A   1      53.017  26.108  28.817  1.00  0.00    -0.744 OA
ENDBRANCH  92  93
ENDBRANCH  60  85
ENDBRANCH  34  35
ENDBRANCH  27  29
ENDBRANCH  26  27
ENDBRANCH   1  26
TORSDOF 17
ENDMDL
