MODEL 1
REMARK VINA RESULT:     -11.2      0.000      0.000
REMARK SMILES CS(=O)(=O)c1ccc(/C=C(/C(=O)OCCOC(=O)c2ccc(-c3c4nc(c(-c5c(F)cc(S(=O)(=O)[O-])cc5F)c5ccc([nH]5)c(-c5c(F)cc(S(=O)(=O)[O-])cc5F)c5nc(c(-c6c(F)cc(S(=O)(=O)[O-])cc6F)c6ccc3[nH]6)C=C5)C=C4)cc2)c2cccc(Br)c2)cc1
REMARK SMILES IDX 15 1 14 2 13 3 11 4 12 5 10 6 9 7 8 8 5 9 6 10 93 11 7 12
REMARK SMILES IDX 92 13 2 14 1 15 3 16 4 17 85 18 86 19 91 20 87 21 89 22
REMARK SMILES IDX 88 23 90 24 16 25 17 26 18 27 19 28 20 29 84 30 21 31 83 32
REMARK SMILES IDX 22 33 23 34 24 35 77 36 25 37 82 38 76 39 78 40 26 41 81 42
REMARK SMILES IDX 75 43 74 44 27 46 61 47 40 48 60 49 41 50 44 51 59 52 79 53
REMARK SMILES IDX 42 54 43 55 58 57 80 58 45 59 28 60 29 61 38 62 30 63 31 64
REMARK SMILES IDX 37 65 39 66 32 67 33 68 34 69 35 70 36 71 62 72 63 73 72 74
REMARK SMILES IDX 64 75 65 76 71 77 73 78 66 79 67 80 68 81 69 82 70 83 46 84
REMARK SMILES IDX 47 85 56 86 48 87 49 88 55 89 57 90 50 91 51 92 52 93 53 94
REMARK SMILES IDX 54 95
REMARK H PARENT 78 45 44 56
REMARK Flexibility Score: inf
ROOT
ATOM      1  C   UNL A   1      36.352  22.985  24.995  1.00  0.00     0.275 C 
ENDROOT
BRANCH   1   2
ATOM      2  C   UNL A   1      35.354  23.661  24.057  1.00  0.00     0.275 C 
BRANCH   2   3
ATOM      3  O   UNL A   1      34.877  24.899  24.626  1.00  0.00    -0.458 OA
BRANCH   3   4
ATOM      4  C   UNL A   1      33.584  24.884  25.045  1.00  0.00     0.338 C 
ATOM      5  O   UNL A   1      33.052  23.977  25.669  1.00  0.00    -0.246 OA
BRANCH   4   6
ATOM      6  C   UNL A   1      32.864  26.141  24.685  1.00  0.00     0.067 C 
ATOM      7  C   UNL A   1      32.262  26.208  23.474  1.00  0.00     0.024 C 
BRANCH   7   8
ATOM      8  C   UNL A   1      31.238  27.181  23.022  1.00  0.00    -0.025 A 
ATOM      9  C   UNL A   1      29.230  29.098  22.591  1.00  0.00     0.067 A 
ATOM     10  C   UNL A   1      30.541  29.378  22.223  1.00  0.00     0.021 A 
ATOM     11  C   UNL A   1      28.892  27.847  23.105  1.00  0.00     0.021 A 
ATOM     12  C   UNL A   1      31.522  28.401  22.395  1.00  0.00     0.009 A 
ATOM     13  C   UNL A   1      29.896  26.896  23.321  1.00  0.00     0.009 A 
BRANCH   9  14
ATOM     14  S   UNL A   1      28.012  30.375  22.437  1.00  0.00     0.175 S 
ATOM     15  C   UNL A   1      28.871  31.828  22.979  1.00  0.00     0.163 C 
ATOM     16  O   UNL A   1      26.958  30.087  23.382  1.00  0.00    -0.224 OA
ATOM     17  O   UNL A   1      27.723  30.542  21.020  1.00  0.00    -0.224 OA
ENDBRANCH   9  14
ENDBRANCH   7   8
BRANCH   6  18
ATOM     18  C   UNL A   1      32.678  27.163  25.732  1.00  0.00    -0.010 A 
ATOM     19  C   UNL A   1      31.569  27.068  26.593  1.00  0.00     0.009 A 
ATOM     20  C   UNL A   1      33.635  28.160  25.951  1.00  0.00     0.024 A 
ATOM     21  C   UNL A   1      31.443  27.933  27.682  1.00  0.00     0.002 A 
ATOM     22  C   UNL A   1      33.498  29.022  27.040  1.00  0.00     0.018 A 
ATOM     23  C   UNL A   1      32.411  28.911  27.908  1.00  0.00     0.016 A 
ATOM     24  Br  UNL A   1      34.823  30.330  27.367  1.00  0.00    -0.051 Br
ENDBRANCH   6  18
ENDBRANCH   4   6
ENDBRANCH   3   4
ENDBRANCH   2   3
ENDBRANCH   1   2
BRANCH   1  25
ATOM     25  O   UNL A   1      37.485  23.844  25.207  1.00  0.00    -0.458 OA
BRANCH  25  26
ATOM     26  C   UNL A   1      38.564  23.267  25.784  1.00  0.00     0.338 C 
ATOM     27  O   UNL A   1      38.980  22.133  25.601  1.00  0.00    -0.246 OA
BRANCH  26  28
ATOM     28  C   UNL A   1      39.245  24.228  26.670  1.00  0.00     0.060 A 
ATOM     29  C   UNL A   1      38.969  24.219  28.030  1.00  0.00     0.016 A 
ATOM     30  C   UNL A   1      40.019  25.254  26.128  1.00  0.00     0.016 A 
ATOM     31  C   UNL A   1      39.339  25.309  28.817  1.00  0.00     0.010 A 
ATOM     32  C   UNL A   1      40.503  26.279  26.957  1.00  0.00     0.010 A 
ATOM     33  C   UNL A   1      40.121  26.357  28.308  1.00  0.00    -0.014 A 
BRANCH  33  34
ATOM     34  C   UNL A   1      40.495  27.525  29.173  1.00  0.00     0.031 A 
ATOM     35  C   UNL A   1      41.809  27.552  29.927  1.00  0.00     0.074 A 
ATOM     36  C   UNL A   1      39.677  28.598  29.274  1.00  0.00     0.049 A 
ATOM     37  N   UNL A   1      42.199  28.362  30.881  1.00  0.00    -0.248 NA
ATOM     38  C   UNL A   1      42.808  26.531  29.576  1.00  0.00     0.031 C 
ATOM     39  C   UNL A   1      38.396  28.760  28.582  1.00  0.00     0.029 A 
ATOM     40  N   UNL A   1      39.808  29.767  29.986  1.00  0.00    -0.354 N 
ATOM     41  C   UNL A   1      43.444  27.898  31.299  1.00  0.00     0.074 A 
ATOM     42  C   UNL A   1      43.753  26.744  30.483  1.00  0.00     0.031 C 
ATOM     43  C   UNL A   1      37.903  29.978  28.836  1.00  0.00     0.029 A 
ATOM     44  C   UNL A   1      38.750  30.633  29.824  1.00  0.00     0.049 A 
ATOM     45  H   UNL A   1      40.584  29.967  30.559  1.00  0.00     0.167 HD
ATOM     46  C   UNL A   1      44.248  28.386  32.277  1.00  0.00     0.037 A 
ATOM     47  C   UNL A   1      38.438  31.789  30.441  1.00  0.00     0.037 A 
ATOM     48  C   UNL A   1      43.978  29.587  33.029  1.00  0.00     0.049 A 
ATOM     49  C   UNL A   1      39.327  32.298  31.537  1.00  0.00     0.074 A 
ATOM     50  C   UNL A   1      44.751  30.177  34.016  1.00  0.00     0.029 A 
ATOM     51  N   UNL A   1      42.862  30.395  32.865  1.00  0.00    -0.354 N 
ATOM     52  N   UNL A   1      40.450  31.792  31.985  1.00  0.00    -0.248 NA
ATOM     53  C   UNL A   1      38.886  33.510  32.239  1.00  0.00     0.031 C 
ATOM     54  C   UNL A   1      44.084  31.318  34.476  1.00  0.00     0.029 A 
ATOM     55  C   UNL A   1      42.917  31.466  33.745  1.00  0.00     0.049 A 
ATOM     56  H   UNL A   1      42.137  30.232  32.220  1.00  0.00     0.167 HD
ATOM     57  C   UNL A   1      40.845  32.618  33.029  1.00  0.00     0.074 A 
ATOM     58  C   UNL A   1      39.858  33.675  33.125  1.00  0.00     0.031 C 
ATOM     59  C   UNL A   1      41.922  32.503  33.845  1.00  0.00     0.037 A 
BRANCH  46  60
ATOM     60  C   UNL A   1      45.490  27.608  32.632  1.00  0.00     0.058 A 
ATOM     61  C   UNL A   1      45.459  26.481  33.467  1.00  0.00     0.135 A 
ATOM     62  C   UNL A   1      46.725  27.964  32.064  1.00  0.00     0.135 A 
ATOM     63  F   UNL A   1      44.311  26.101  34.048  1.00  0.00    -0.206 F 
ATOM     64  C   UNL A   1      46.612  25.749  33.744  1.00  0.00     0.059 A 
ATOM     65  C   UNL A   1      47.885  27.232  32.305  1.00  0.00     0.059 A 
ATOM     66  F   UNL A   1      46.814  29.030  31.253  1.00  0.00    -0.206 F 
ATOM     67  C   UNL A   1      47.820  26.132  33.158  1.00  0.00     0.060 A 
BRANCH  67  68
ATOM     68  S   UNL A   1      49.304  25.167  33.518  1.00  0.00     0.124 S 
ATOM     69  O   UNL A   1      48.750  24.058  34.288  1.00  0.00    -0.237 OA
ATOM     70  O   UNL A   1      49.791  24.831  32.184  1.00  0.00    -0.237 OA
ATOM     71  O   UNL A   1      50.141  26.097  34.271  1.00  0.00    -0.744 OA
ENDBRANCH  67  68
ENDBRANCH  46  60
BRANCH  47  72
ATOM     72  C   UNL A   1      37.175  32.491  30.088  1.00  0.00     0.058 A 
ATOM     73  C   UNL A   1      35.969  32.185  30.733  1.00  0.00     0.135 A 
ATOM     74  C   UNL A   1      37.162  33.517  29.129  1.00  0.00     0.135 A 
ATOM     75  F   UNL A   1      35.925  31.200  31.641  1.00  0.00    -0.206 F 
ATOM     76  C   UNL A   1      34.796  32.881  30.449  1.00  0.00     0.059 A 
ATOM     77  C   UNL A   1      36.013  34.248  28.852  1.00  0.00     0.059 A 
ATOM     78  F   UNL A   1      38.292  33.853  28.487  1.00  0.00    -0.206 F 
ATOM     79  C   UNL A   1      34.832  33.918  29.515  1.00  0.00     0.060 A 
BRANCH  79  80
ATOM     80  S   UNL A   1      33.331  34.876  29.213  1.00  0.00     0.124 S 
ATOM     81  O   UNL A   1      32.716  34.879  30.535  1.00  0.00    -0.237 OA
ATOM     82  O   UNL A   1      33.865  36.154  28.754  1.00  0.00    -0.237 OA
ATOM     83  O   UNL A   1      32.636  34.095  28.194  1.00  0.00    -0.744 OA
ENDBRANCH  79  80
ENDBRANCH  47  72
BRANCH  59  84
ATOM     84  C   UNL A   1      42.088  33.550  34.907  1.00  0.00     0.058 A 
ATOM     85  C   UNL A   1      42.653  34.801  34.619  1.00  0.00     0.135 A 
ATOM     86  C   UNL A   1      41.659  33.309  36.223  1.00  0.00     0.135 A 
ATOM     87  F   UNL A   1      43.088  35.077  33.378  1.00  0.00    -0.206 F 
ATOM     88  C   UNL A   1      42.812  35.771  35.603  1.00  0.00     0.059 A 
ATOM     89  C   UNL A   1      41.788  34.273  37.218  1.00  0.00     0.059 A 
ATOM     90  F   UNL A   1      41.106  32.130  36.549  1.00  0.00    -0.206 F 
ATOM     91  C   UNL A   1      42.378  35.496  36.901  1.00  0.00     0.060 A 
BRANCH  91  92
ATOM     92  S   UNL A   1      42.575  36.768  38.167  1.00  0.00     0.124 S 
ATOM     93  O   UNL A   1      43.168  36.006  39.261  1.00  0.00    -0.237 OA
ATOM     94  O   UNL A   1      43.457  37.729  37.511  1.00  0.00    -0.237 OA
ATOM     95  O   UNL A   1      41.210  37.235  38.395  1.00  0.00    -0.744 OA
ENDBRANCH  91  92
ENDBRANCH  59  84
ENDBRANCH  33  34
ENDBRANCH  26  28
ENDBRANCH  25  26
ENDBRANCH   1  25
TORSDOF 17
ENDMDL
MODEL 2
REMARK VINA RESULT:     -11.0      5.276     10.783
REMARK SMILES CS(=O)(=O)c1ccc(/C=C(/C(=O)OCCOC(=O)c2ccc(-c3c4nc(c(-c5c(F)cc(S(=O)(=O)[O-])cc5F)c5ccc([nH]5)c(-c5c(F)cc(S(=O)(=O)[O-])cc5F)c5nc(c(-c6c(F)cc(S(=O)(=O)[O-])cc6F)c6ccc3[nH]6)C=C5)C=C4)cc2)c2cccc(Br)c2)cc1
REMARK SMILES IDX 15 1 14 2 13 3 11 4 12 5 10 6 9 7 8 8 5 9 6 10 93 11 7 12
REMARK SMILES IDX 92 13 2 14 1 15 3 16 4 17 85 18 86 19 91 20 87 21 89 22
REMARK SMILES IDX 88 23 90 24 16 25 17 26 18 27 19 28 20 29 84 30 21 31 83 32
REMARK SMILES IDX 22 33 23 34 24 35 77 36 25 37 82 38 76 39 78 40 26 41 81 42
REMARK SMILES IDX 75 43 74 44 27 46 61 47 40 48 60 49 41 50 44 51 59 52 79 53
REMARK SMILES IDX 42 54 43 55 58 57 80 58 45 59 28 60 29 61 38 62 30 63 31 64
REMARK SMILES IDX 37 65 39 66 32 67 33 68 34 69 35 70 36 71 62 72 63 73 72 74
REMARK SMILES IDX 64 75 65 76 71 77 73 78 66 79 67 80 68 81 69 82 70 83 46 84
REMARK SMILES IDX 47 85 56 86 48 87 49 88 55 89 57 90 50 91 51 92 52 93 53 94
REMARK SMILES IDX 54 95
REMARK H PARENT 78 45 44 56
REMARK Flexibility Score: inf
ROOT
ATOM      1  C   UNL A   1      34.038  31.291  27.746  1.00  0.00     0.275 C 
ENDROOT
BRANCH   1   2
ATOM      2  C   UNL A   1      32.831  30.480  27.281  1.00  0.00     0.275 C 
BRANCH   2   3
ATOM      3  O   UNL A   1      33.232  29.150  26.888  1.00  0.00    -0.458 OA
BRANCH   3   4
ATOM      4  C   UNL A   1      32.305  28.179  27.101  1.00  0.00     0.338 C 
ATOM      5  O   UNL A   1      31.445  28.198  27.970  1.00  0.00    -0.246 OA
BRANCH   4   6
ATOM      6  C   UNL A   1      32.424  27.065  26.114  1.00  0.00     0.067 C 
ATOM      7  C   UNL A   1      32.822  25.852  26.565  1.00  0.00     0.024 C 
BRANCH   7   8
ATOM      8  C   UNL A   1      32.706  24.544  25.876  1.00  0.00    -0.025 A 
ATOM      9  C   UNL A   1      32.722  21.910  24.899  1.00  0.00     0.067 A 
ATOM     10  C   UNL A   1      31.530  22.474  25.341  1.00  0.00     0.021 A 
ATOM     11  C   UNL A   1      33.893  22.666  24.869  1.00  0.00     0.021 A 
ATOM     12  C   UNL A   1      31.523  23.799  25.777  1.00  0.00     0.009 A 
ATOM     13  C   UNL A   1      33.881  23.977  25.359  1.00  0.00     0.009 A 
BRANCH   9  14
ATOM     14  S   UNL A   1      32.730  20.204  24.422  1.00  0.00     0.175 S 
ATOM     15  C   UNL A   1      34.429  19.734  24.607  1.00  0.00     0.163 C 
ATOM     16  O   UNL A   1      32.388  20.143  23.020  1.00  0.00    -0.224 OA
ATOM     17  O   UNL A   1      31.961  19.465  25.413  1.00  0.00    -0.224 OA
ENDBRANCH   9  14
ENDBRANCH   7   8
BRANCH   6  18
ATOM     18  C   UNL A   1      31.917  27.286  24.748  1.00  0.00    -0.010 A 
ATOM     19  C   UNL A   1      32.684  26.850  23.652  1.00  0.00     0.009 A 
ATOM     20  C   UNL A   1      30.643  27.824  24.524  1.00  0.00     0.024 A 
ATOM     21  C   UNL A   1      32.167  26.913  22.356  1.00  0.00     0.002 A 
ATOM     22  C   UNL A   1      30.138  27.887  23.225  1.00  0.00     0.018 A 
ATOM     23  C   UNL A   1      30.890  27.431  22.142  1.00  0.00     0.016 A 
ATOM     24  Br  UNL A   1      28.396  28.561  22.934  1.00  0.00    -0.051 Br
ENDBRANCH   6  18
ENDBRANCH   4   6
ENDBRANCH   3   4
ENDBRANCH   2   3
ENDBRANCH   1   2
BRANCH   1  25
ATOM     25  O   UNL A   1      35.140  30.413  28.030  1.00  0.00    -0.458 OA
BRANCH  25  26
ATOM     26  C   UNL A   1      36.082  30.899  28.870  1.00  0.00     0.338 C 
ATOM     27  O   UNL A   1      35.954  31.810  29.673  1.00  0.00    -0.246 OA
BRANCH  26  28
ATOM     28  C   UNL A   1      37.334  30.133  28.734  1.00  0.00     0.060 A 
ATOM     29  C   UNL A   1      38.073  29.823  29.867  1.00  0.00     0.016 A 
ATOM     30  C   UNL A   1      37.866  29.879  27.469  1.00  0.00     0.016 A 
ATOM     31  C   UNL A   1      39.395  29.401  29.735  1.00  0.00     0.010 A 
ATOM     32  C   UNL A   1      39.151  29.325  27.350  1.00  0.00     0.010 A 
ATOM     33  C   UNL A   1      39.963  29.130  28.481  1.00  0.00    -0.014 A 
BRANCH  33  34
ATOM     34  C   UNL A   1      41.393  28.690  28.366  1.00  0.00     0.031 A 
ATOM     35  C   UNL A   1      42.532  29.665  28.585  1.00  0.00     0.074 A 
ATOM     36  C   UNL A   1      41.698  27.401  28.094  1.00  0.00     0.049 A 
ATOM     37  N   UNL A   1      43.807  29.522  28.315  1.00  0.00    -0.248 NA
ATOM     38  C   UNL A   1      42.197  30.973  29.168  1.00  0.00     0.031 C 
ATOM     39  C   UNL A   1      40.729  26.319  27.898  1.00  0.00     0.029 A 
ATOM     40  N   UNL A   1      42.914  26.773  27.950  1.00  0.00    -0.354 N 
ATOM     41  C   UNL A   1      44.406  30.744  28.614  1.00  0.00     0.074 A 
ATOM     42  C   UNL A   1      43.357  31.613  29.101  1.00  0.00     0.031 C 
ATOM     43  C   UNL A   1      41.380  25.160  27.743  1.00  0.00     0.029 A 
ATOM     44  C   UNL A   1      42.809  25.427  27.678  1.00  0.00     0.049 A 
ATOM     45  H   UNL A   1      43.776  27.240  28.033  1.00  0.00     0.167 HD
ATOM     46  C   UNL A   1      45.707  31.106  28.485  1.00  0.00     0.037 A 
ATOM     47  C   UNL A   1      43.737  24.510  27.339  1.00  0.00     0.037 A 
ATOM     48  C   UNL A   1      46.765  30.212  28.081  1.00  0.00     0.049 A 
ATOM     49  C   UNL A   1      45.165  24.937  27.177  1.00  0.00     0.074 A 
ATOM     50  C   UNL A   1      48.118  30.481  27.955  1.00  0.00     0.029 A 
ATOM     51  N   UNL A   1      46.597  28.873  27.760  1.00  0.00    -0.354 N 
ATOM     52  N   UNL A   1      45.696  26.120  27.369  1.00  0.00    -0.248 NA
ATOM     53  C   UNL A   1      46.113  23.916  26.712  1.00  0.00     0.031 C 
ATOM     54  C   UNL A   1      48.761  29.316  27.519  1.00  0.00     0.029 A 
ATOM     55  C   UNL A   1      47.816  28.309  27.418  1.00  0.00     0.049 A 
ATOM     56  H   UNL A   1      45.737  28.393  27.773  1.00  0.00     0.167 HD
ATOM     57  C   UNL A   1      47.039  25.989  27.039  1.00  0.00     0.074 A 
ATOM     58  C   UNL A   1      47.246  24.603  26.665  1.00  0.00     0.031 C 
ATOM     59  C   UNL A   1      48.009  26.934  27.032  1.00  0.00     0.037 A 
BRANCH  46  60
ATOM     60  C   UNL A   1      46.074  32.545  28.745  1.00  0.00     0.058 A 
ATOM     61  C   UNL A   1      46.016  33.529  27.746  1.00  0.00     0.135 A 
ATOM     62  C   UNL A   1      46.426  32.955  30.042  1.00  0.00     0.135 A 
ATOM     63  F   UNL A   1      45.699  33.195  26.486  1.00  0.00    -0.206 F 
ATOM     64  C   UNL A   1      46.315  34.862  28.019  1.00  0.00     0.059 A 
ATOM     65  C   UNL A   1      46.703  34.285  30.344  1.00  0.00     0.059 A 
ATOM     66  F   UNL A   1      46.493  32.058  31.039  1.00  0.00    -0.206 F 
ATOM     67  C   UNL A   1      46.657  35.231  29.323  1.00  0.00     0.060 A 
BRANCH  67  68
ATOM     68  S   UNL A   1      47.032  36.964  29.664  1.00  0.00     0.124 S 
ATOM     69  O   UNL A   1      48.183  37.189  28.796  1.00  0.00    -0.237 OA
ATOM     70  O   UNL A   1      45.798  37.636  29.266  1.00  0.00    -0.237 OA
ATOM     71  O   UNL A   1      47.314  36.977  31.096  1.00  0.00    -0.744 OA
ENDBRANCH  67  68
ENDBRANCH  46  60
BRANCH  47  72
ATOM     72  C   UNL A   1      43.313  23.114  27.045  1.00  0.00     0.058 A 
ATOM     73  C   UNL A   1      43.270  22.630  25.731  1.00  0.00     0.135 A 
ATOM     74  C   UNL A   1      42.990  22.223  28.082  1.00  0.00     0.135 A 
ATOM     75  F   UNL A   1      43.550  23.447  24.705  1.00  0.00    -0.206 F 
ATOM     76  C   UNL A   1      42.933  21.308  25.454  1.00  0.00     0.059 A 
ATOM     77  C   UNL A   1      42.683  20.891  27.834  1.00  0.00     0.059 A 
ATOM     78  F   UNL A   1      43.022  22.636  29.359  1.00  0.00    -0.206 F 
ATOM     79  C   UNL A   1      42.652  20.443  26.514  1.00  0.00     0.060 A 
BRANCH  79  80
ATOM     80  S   UNL A   1      42.302  18.708  26.159  1.00  0.00     0.124 S 
ATOM     81  O   UNL A   1      42.568  18.085  27.450  1.00  0.00    -0.237 OA
ATOM     82  O   UNL A   1      40.902  18.751  25.748  1.00  0.00    -0.237 OA
ATOM     83  O   UNL A   1      43.248  18.387  25.095  1.00  0.00    -0.744 OA
ENDBRANCH  79  80
ENDBRANCH  47  72
BRANCH  59  84
ATOM     84  C   UNL A   1      49.383  26.499  26.611  1.00  0.00     0.058 A 
ATOM     85  C   UNL A   1      50.299  25.974  27.535  1.00  0.00     0.135 A 
ATOM     86  C   UNL A   1      49.782  26.587  25.267  1.00  0.00     0.135 A 
ATOM     87  F   UNL A   1      49.970  25.879  28.833  1.00  0.00    -0.206 F 
ATOM     88  C   UNL A   1      51.574  25.575  27.148  1.00  0.00     0.059 A 
ATOM     89  C   UNL A   1      51.044  26.172  24.853  1.00  0.00     0.059 A 
ATOM     90  F   UNL A   1      48.940  27.076  24.342  1.00  0.00    -0.206 F 
ATOM     91  C   UNL A   1      51.937  25.680  25.804  1.00  0.00     0.060 A 
BRANCH  91  92
ATOM     92  S   UNL A   1      53.590  25.143  25.310  1.00  0.00     0.124 S 
ATOM     93  O   UNL A   1      53.411  23.699  25.207  1.00  0.00    -0.237 OA
ATOM     94  O   UNL A   1      53.785  25.851  24.048  1.00  0.00    -0.237 OA
ATOM     95  O   UNL A   1      54.436  25.595  26.411  1.00  0.00    -0.744 OA
ENDBRANCH  91  92
ENDBRANCH  59  84
ENDBRANCH  33  34
ENDBRANCH  26  28
ENDBRANCH  25  26
ENDBRANCH   1  25
TORSDOF 17
ENDMDL
MODEL 3
REMARK VINA RESULT:     -11.0      3.532      8.559
REMARK SMILES CS(=O)(=O)c1ccc(/C=C(/C(=O)OCCOC(=O)c2ccc(-c3c4nc(c(-c5c(F)cc(S(=O)(=O)[O-])cc5F)c5ccc([nH]5)c(-c5c(F)cc(S(=O)(=O)[O-])cc5F)c5nc(c(-c6c(F)cc(S(=O)(=O)[O-])cc6F)c6ccc3[nH]6)C=C5)C=C4)cc2)c2cccc(Br)c2)cc1
REMARK SMILES IDX 15 1 14 2 13 3 11 4 12 5 10 6 9 7 8 8 5 9 6 10 93 11 7 12
REMARK SMILES IDX 92 13 2 14 1 15 3 16 4 17 85 18 86 19 91 20 87 21 89 22
REMARK SMILES IDX 88 23 90 24 16 25 17 26 18 27 19 28 20 29 84 30 21 31 83 32
REMARK SMILES IDX 22 33 23 34 24 35 77 36 25 37 82 38 76 39 78 40 26 41 81 42
REMARK SMILES IDX 75 43 74 44 27 46 61 47 40 48 60 49 41 50 44 51 59 52 79 53
REMARK SMILES IDX 42 54 43 55 58 57 80 58 45 59 28 60 29 61 38 62 30 63 31 64
REMARK SMILES IDX 37 65 39 66 32 67 33 68 34 69 35 70 36 71 62 72 63 73 72 74
REMARK SMILES IDX 64 75 65 76 71 77 73 78 66 79 67 80 68 81 69 82 70 83 46 84
REMARK SMILES IDX 47 85 56 86 48 87 49 88 55 89 57 90 50 91 51 92 52 93 53 94
REMARK SMILES IDX 54 95
REMARK H PARENT 78 45 44 56
REMARK Flexibility Score: inf
ROOT
ATOM      1  C   UNL A   1      36.999  22.987  24.637  1.00  0.00     0.275 C 
ENDROOT
BRANCH   1   2
ATOM      2  C   UNL A   1      35.487  23.158  24.505  1.00  0.00     0.275 C 
BRANCH   2   3
ATOM      3  O   UNL A   1      35.108  24.531  24.739  1.00  0.00    -0.458 OA
BRANCH   3   4
ATOM      4  C   UNL A   1      33.965  24.703  25.454  1.00  0.00     0.338 C 
ATOM      5  O   UNL A   1      33.605  24.006  26.391  1.00  0.00    -0.246 OA
BRANCH   4   6
ATOM      6  C   UNL A   1      33.185  25.887  24.987  1.00  0.00     0.067 C 
ATOM      7  C   UNL A   1      32.500  25.782  23.823  1.00  0.00     0.024 C 
BRANCH   7   8
ATOM      8  C   UNL A   1      31.419  26.666  23.323  1.00  0.00    -0.025 A 
ATOM      9  C   UNL A   1      29.314  28.449  22.795  1.00  0.00     0.067 A 
ATOM     10  C   UNL A   1      30.598  28.749  22.355  1.00  0.00     0.021 A 
ATOM     11  C   UNL A   1      29.050  27.237  23.432  1.00  0.00     0.021 A 
ATOM     12  C   UNL A   1      31.627  27.834  22.578  1.00  0.00     0.009 A 
ATOM     13  C   UNL A   1      30.102  26.353  23.695  1.00  0.00     0.009 A 
BRANCH   9  14
ATOM     14  S   UNL A   1      28.035  29.655  22.572  1.00  0.00     0.175 S 
ATOM     15  C   UNL A   1      28.647  31.068  23.449  1.00  0.00     0.163 C 
ATOM     16  O   UNL A   1      26.856  29.169  23.250  1.00  0.00    -0.224 OA
ATOM     17  O   UNL A   1      27.996  30.001  21.158  1.00  0.00    -0.224 OA
ENDBRANCH   9  14
ENDBRANCH   7   8
BRANCH   6  18
ATOM     18  C   UNL A   1      33.038  27.032  25.904  1.00  0.00    -0.010 A 
ATOM     19  C   UNL A   1      31.838  27.188  26.620  1.00  0.00     0.009 A 
ATOM     20  C   UNL A   1      34.106  27.903  26.154  1.00  0.00     0.024 A 
ATOM     21  C   UNL A   1      31.722  28.176  27.601  1.00  0.00     0.002 A 
ATOM     22  C   UNL A   1      33.979  28.889  27.133  1.00  0.00     0.018 A 
ATOM     23  C   UNL A   1      32.796  29.026  27.860  1.00  0.00     0.016 A 
ATOM     24  Br  UNL A   1      35.442  30.025  27.508  1.00  0.00    -0.051 Br
ENDBRANCH   6  18
ENDBRANCH   4   6
ENDBRANCH   3   4
ENDBRANCH   2   3
ENDBRANCH   1   2
BRANCH   1  25
ATOM     25  O   UNL A   1      37.344  22.696  26.003  1.00  0.00    -0.458 OA
BRANCH  25  26
ATOM     26  C   UNL A   1      38.665  22.697  26.291  1.00  0.00     0.338 C 
ATOM     27  O   UNL A   1      39.447  21.768  26.169  1.00  0.00    -0.246 OA
BRANCH  26  28
ATOM     28  C   UNL A   1      39.087  24.035  26.747  1.00  0.00     0.060 A 
ATOM     29  C   UNL A   1      39.782  24.865  25.880  1.00  0.00     0.016 A 
ATOM     30  C   UNL A   1      38.952  24.392  28.089  1.00  0.00     0.016 A 
ATOM     31  C   UNL A   1      40.465  25.972  26.383  1.00  0.00     0.010 A 
ATOM     32  C   UNL A   1      39.531  25.582  28.558  1.00  0.00     0.010 A 
ATOM     33  C   UNL A   1      40.350  26.365  27.724  1.00  0.00    -0.014 A 
BRANCH  33  34
ATOM     34  C   UNL A   1      41.107  27.553  28.243  1.00  0.00     0.031 A 
ATOM     35  C   UNL A   1      40.394  28.686  28.953  1.00  0.00     0.074 A 
ATOM     36  C   UNL A   1      42.452  27.623  28.117  1.00  0.00     0.049 A 
ATOM     37  N   UNL A   1      40.842  29.877  29.269  1.00  0.00    -0.248 NA
ATOM     38  C   UNL A   1      38.994  28.460  29.346  1.00  0.00     0.031 C 
ATOM     39  C   UNL A   1      43.304  26.602  27.502  1.00  0.00     0.029 A 
ATOM     40  N   UNL A   1      43.346  28.591  28.513  1.00  0.00    -0.354 N 
ATOM     41  C   UNL A   1      39.762  30.566  29.815  1.00  0.00     0.074 A 
ATOM     42  C   UNL A   1      38.639  29.654  29.804  1.00  0.00     0.031 C 
ATOM     43  C   UNL A   1      44.588  26.954  27.633  1.00  0.00     0.029 A 
ATOM     44  C   UNL A   1      44.654  28.291  28.206  1.00  0.00     0.049 A 
ATOM     45  H   UNL A   1      43.076  29.419  28.972  1.00  0.00     0.167 HD
ATOM     46  C   UNL A   1      39.713  31.841  30.276  1.00  0.00     0.037 A 
ATOM     47  C   UNL A   1      45.782  29.021  28.296  1.00  0.00     0.037 A 
ATOM     48  C   UNL A   1      40.855  32.718  30.365  1.00  0.00     0.049 A 
ATOM     49  C   UNL A   1      45.702  30.437  28.784  1.00  0.00     0.074 A 
ATOM     50  C   UNL A   1      40.907  34.015  30.850  1.00  0.00     0.029 A 
ATOM     51  N   UNL A   1      42.147  32.386  29.986  1.00  0.00    -0.354 N 
ATOM     52  N   UNL A   1      44.654  31.103  29.204  1.00  0.00    -0.248 NA
ATOM     53  C   UNL A   1      46.948  31.215  28.769  1.00  0.00     0.031 C 
ATOM     54  C   UNL A   1      42.222  34.480  30.726  1.00  0.00     0.029 A 
ATOM     55  C   UNL A   1      42.998  33.457  30.207  1.00  0.00     0.049 A 
ATOM     56  H   UNL A   1      42.419  31.516  29.614  1.00  0.00     0.167 HD
ATOM     57  C   UNL A   1      45.112  32.382  29.495  1.00  0.00     0.074 A 
ATOM     58  C   UNL A   1      46.538  32.387  29.233  1.00  0.00     0.031 C 
ATOM     59  C   UNL A   1      44.412  33.459  29.927  1.00  0.00     0.037 A 
BRANCH  46  60
ATOM     60  C   UNL A   1      38.373  32.397  30.688  1.00  0.00     0.058 A 
ATOM     61  C   UNL A   1      37.872  32.265  31.992  1.00  0.00     0.135 A 
ATOM     62  C   UNL A   1      37.610  33.137  29.768  1.00  0.00     0.135 A 
ATOM     63  F   UNL A   1      38.551  31.559  32.909  1.00  0.00    -0.206 F 
ATOM     64  C   UNL A   1      36.653  32.828  32.362  1.00  0.00     0.059 A 
ATOM     65  C   UNL A   1      36.402  33.730  30.123  1.00  0.00     0.059 A 
ATOM     66  F   UNL A   1      38.042  33.300  28.508  1.00  0.00    -0.206 F 
ATOM     67  C   UNL A   1      35.925  33.560  31.421  1.00  0.00     0.060 A 
BRANCH  67  68
ATOM     68  S   UNL A   1      34.351  34.292  31.920  1.00  0.00     0.124 S 
ATOM     69  O   UNL A   1      33.661  34.400  30.638  1.00  0.00    -0.237 OA
ATOM     70  O   UNL A   1      33.818  33.293  32.842  1.00  0.00    -0.237 OA
ATOM     71  O   UNL A   1      34.742  35.558  32.530  1.00  0.00    -0.744 OA
ENDBRANCH  67  68
ENDBRANCH  46  60
BRANCH  47  72
ATOM     72  C   UNL A   1      47.070  28.441  27.829  1.00  0.00     0.058 A 
ATOM     73  C   UNL A   1      47.894  27.710  28.695  1.00  0.00     0.135 A 
ATOM     74  C   UNL A   1      47.477  28.568  26.491  1.00  0.00     0.135 A 
ATOM     75  F   UNL A   1      47.559  27.578  29.988  1.00  0.00    -0.206 F 
ATOM     76  C   UNL A   1      49.070  27.114  28.249  1.00  0.00     0.059 A 
ATOM     77  C   UNL A   1      48.629  27.954  26.014  1.00  0.00     0.059 A 
ATOM     78  F   UNL A   1      46.720  29.253  25.619  1.00  0.00    -0.206 F 
ATOM     79  C   UNL A   1      49.423  27.232  26.903  1.00  0.00     0.060 A 
BRANCH  79  80
ATOM     80  S   UNL A   1      50.902  26.385  26.308  1.00  0.00     0.124 S 
ATOM     81  O   UNL A   1      50.917  25.195  27.150  1.00  0.00    -0.237 OA
ATOM     82  O   UNL A   1      50.589  26.166  24.899  1.00  0.00    -0.237 OA
ATOM     83  O   UNL A   1      51.966  27.352  26.561  1.00  0.00    -0.744 OA
ENDBRANCH  79  80
ENDBRANCH  47  72
BRANCH  59  84
ATOM     84  C   UNL A   1      45.180  34.729  30.147  1.00  0.00     0.058 A 
ATOM     85  C   UNL A   1      45.329  35.680  29.125  1.00  0.00     0.135 A 
ATOM     86  C   UNL A   1      45.755  35.011  31.396  1.00  0.00     0.135 A 
ATOM     87  F   UNL A   1      44.806  35.453  27.910  1.00  0.00    -0.206 F 
ATOM     88  C   UNL A   1      46.044  36.856  29.326  1.00  0.00     0.059 A 
ATOM     89  C   UNL A   1      46.456  36.191  31.626  1.00  0.00     0.059 A 
ATOM     90  F   UNL A   1      45.636  34.138  32.409  1.00  0.00    -0.206 F 
ATOM     91  C   UNL A   1      46.606  37.101  30.580  1.00  0.00     0.060 A 
BRANCH  91  92
ATOM     92  S   UNL A   1      47.519  38.639  30.833  1.00  0.00     0.124 S 
ATOM     93  O   UNL A   1      48.819  38.306  30.262  1.00  0.00    -0.237 OA
ATOM     94  O   UNL A   1      46.723  39.604  30.081  1.00  0.00    -0.237 OA
ATOM     95  O   UNL A   1      47.496  38.812  32.283  1.00  0.00    -0.744 OA
ENDBRANCH  91  92
ENDBRANCH  59  84
ENDBRANCH  33  34
ENDBRANCH  26  28
ENDBRANCH  25  26
ENDBRANCH   1  25
TORSDOF 17
ENDMDL
