MODEL 1
REMARK VINA RESULT:     -11.3      0.000      0.000
REMARK SMILES O=C(OCCOC(=O)[C@H]1C[C@](O)(c2ccc(F)cc2)[C@@H](c2ccc(F)cc2)O1)c1ccc(-c2c3nc(c(-c4c(F)cc(S(=O)(=O)[O-])cc4F)c4ccc([nH]4)c(-c4c(F)cc(S(=O)(=O)[O-])cc4F)c4nc(c(-c5c(F)cc(S(=O)(=O)[O-])cc5F)c5ccc2[nH]5)C=C4)C=C3)cc1
REMARK SMILES IDX 4 1 3 2 2 3 1 4 29 5 30 6 94 7 31 8 93 9 32 10 33 11 34 12
REMARK SMILES IDX 87 13 35 14 92 15 86 16 88 17 36 18 91 19 85 20 84 21 37 23
REMARK SMILES IDX 71 24 50 25 70 26 51 27 54 28 69 29 89 30 52 31 53 32 68 34
REMARK SMILES IDX 90 35 55 36 38 37 39 38 48 39 40 40 41 41 47 42 49 43 42 44
REMARK SMILES IDX 43 45 44 46 45 47 46 48 72 49 73 50 82 51 74 52 75 53 81 54
REMARK SMILES IDX 83 55 76 56 77 57 78 58 79 59 80 60 56 61 57 62 66 63 58 64
REMARK SMILES IDX 59 65 65 66 67 67 60 68 61 69 62 70 63 71 64 72 5 73 6 74
REMARK SMILES IDX 7 75 8 76 9 77 10 78 28 79 11 80 20 81 13 82 14 83 19 84
REMARK SMILES IDX 15 85 18 86 16 87 17 88 12 89 21 91 22 92 27 93 23 94 26 95
REMARK SMILES IDX 24 96 25 97
REMARK H PARENT 88 22 54 33 12 90
REMARK Flexibility Score: inf
ROOT
ATOM      1  C   UNL A   1      35.972  23.619  25.805  1.00  0.00     0.275 C 
ENDROOT
BRANCH   1   2
ATOM      2  O   UNL A   1      37.308  23.802  25.346  1.00  0.00    -0.458 OA
BRANCH   2   3
ATOM      3  C   UNL A   1      38.430  23.518  26.039  1.00  0.00     0.338 C 
ATOM      4  O   UNL A   1      38.795  22.342  26.071  1.00  0.00    -0.246 OA
BRANCH   3   5
ATOM      5  C   UNL A   1      39.299  24.569  26.690  1.00  0.00     0.060 A 
ATOM      6  C   UNL A   1      40.325  25.358  26.135  1.00  0.00     0.016 A 
ATOM      7  C   UNL A   1      38.977  24.821  28.021  1.00  0.00     0.016 A 
ATOM      8  C   UNL A   1      40.876  26.483  26.823  1.00  0.00     0.010 A 
ATOM      9  C   UNL A   1      39.529  25.914  28.696  1.00  0.00     0.010 A 
ATOM     10  C   UNL A   1      40.420  26.832  28.091  1.00  0.00    -0.014 A 
BRANCH  10  11
ATOM     11  C   UNL A   1      40.757  28.068  28.905  1.00  0.00     0.031 A 
ATOM     12  C   UNL A   1      41.869  27.862  29.895  1.00  0.00     0.074 A 
ATOM     13  C   UNL A   1      40.026  29.219  28.983  1.00  0.00     0.049 A 
ATOM     14  N   UNL A   1      42.166  28.549  30.959  1.00  0.00    -0.248 NA
ATOM     15  C   UNL A   1      42.735  26.685  29.666  1.00  0.00     0.031 C 
ATOM     16  C   UNL A   1      39.024  29.684  28.030  1.00  0.00     0.029 A 
ATOM     17  N   UNL A   1      39.956  30.204  29.965  1.00  0.00    -0.354 N 
ATOM     18  C   UNL A   1      43.281  27.917  31.479  1.00  0.00     0.074 A 
ATOM     19  C   UNL A   1      43.468  26.679  30.764  1.00  0.00     0.031 C 
ATOM     20  C   UNL A   1      38.326  30.719  28.542  1.00  0.00     0.029 A 
ATOM     21  C   UNL A   1      38.870  31.075  29.840  1.00  0.00     0.049 A 
ATOM     22  H   UNL A   1      40.618  30.281  30.689  1.00  0.00     0.167 HD
ATOM     23  C   UNL A   1      44.171  28.403  32.366  1.00  0.00     0.037 A 
ATOM     24  C   UNL A   1      38.385  32.056  30.651  1.00  0.00     0.037 A 
ATOM     25  C   UNL A   1      44.029  29.675  33.005  1.00  0.00     0.049 A 
ATOM     26  C   UNL A   1      39.261  32.436  31.827  1.00  0.00     0.074 A 
ATOM     27  C   UNL A   1      44.934  30.331  33.810  1.00  0.00     0.029 A 
ATOM     28  N   UNL A   1      42.903  30.477  32.907  1.00  0.00    -0.354 N 
ATOM     29  N   UNL A   1      40.397  31.898  32.206  1.00  0.00    -0.248 NA
ATOM     30  C   UNL A   1      38.855  33.600  32.630  1.00  0.00     0.031 C 
ATOM     31  C   UNL A   1      44.333  31.512  34.247  1.00  0.00     0.029 A 
ATOM     32  C   UNL A   1      43.071  31.611  33.676  1.00  0.00     0.049 A 
ATOM     33  H   UNL A   1      42.103  30.270  32.370  1.00  0.00     0.167 HD
ATOM     34  C   UNL A   1      40.893  32.718  33.212  1.00  0.00     0.074 A 
ATOM     35  C   UNL A   1      39.904  33.753  33.430  1.00  0.00     0.031 C 
ATOM     36  C   UNL A   1      42.084  32.648  33.853  1.00  0.00     0.037 A 
BRANCH  23  37
ATOM     37  C   UNL A   1      45.417  27.604  32.569  1.00  0.00     0.058 A 
ATOM     38  C   UNL A   1      45.526  26.695  33.627  1.00  0.00     0.135 A 
ATOM     39  C   UNL A   1      46.506  27.736  31.688  1.00  0.00     0.135 A 
ATOM     40  F   UNL A   1      44.501  26.515  34.474  1.00  0.00    -0.206 F 
ATOM     41  C   UNL A   1      46.683  25.949  33.813  1.00  0.00     0.059 A 
ATOM     42  C   UNL A   1      47.658  26.980  31.838  1.00  0.00     0.059 A 
ATOM     43  F   UNL A   1      46.427  28.564  30.632  1.00  0.00    -0.206 F 
ATOM     44  C   UNL A   1      47.743  26.100  32.915  1.00  0.00     0.060 A 
BRANCH  44  45
ATOM     45  S   UNL A   1      49.230  25.113  33.163  1.00  0.00     0.124 S 
ATOM     46  O   UNL A   1      48.686  23.904  33.771  1.00  0.00    -0.237 OA
ATOM     47  O   UNL A   1      49.733  24.972  31.799  1.00  0.00    -0.237 OA
ATOM     48  O   UNL A   1      50.048  25.946  34.039  1.00  0.00    -0.744 OA
ENDBRANCH  44  45
ENDBRANCH  23  37
BRANCH  24  49
ATOM     49  C   UNL A   1      37.095  32.825  30.406  1.00  0.00     0.058 A 
ATOM     50  C   UNL A   1      36.991  33.787  29.389  1.00  0.00     0.135 A 
ATOM     51  C   UNL A   1      35.889  32.543  31.064  1.00  0.00     0.135 A 
ATOM     52  F   UNL A   1      38.033  34.072  28.627  1.00  0.00    -0.206 F 
ATOM     53  C   UNL A   1      35.817  34.458  29.051  1.00  0.00     0.059 A 
ATOM     54  C   UNL A   1      34.676  33.182  30.733  1.00  0.00     0.059 A 
ATOM     55  F   UNL A   1      35.860  31.592  32.009  1.00  0.00    -0.206 F 
ATOM     56  C   UNL A   1      34.654  34.150  29.731  1.00  0.00     0.060 A 
BRANCH  56  57
ATOM     57  S   UNL A   1      33.151  35.024  29.235  1.00  0.00     0.124 S 
ATOM     58  O   UNL A   1      32.591  34.105  28.252  1.00  0.00    -0.237 OA
ATOM     59  O   UNL A   1      32.424  35.124  30.494  1.00  0.00    -0.237 OA
ATOM     60  O   UNL A   1      33.659  36.286  28.698  1.00  0.00    -0.744 OA
ENDBRANCH  56  57
ENDBRANCH  24  49
BRANCH  36  61
ATOM     61  C   UNL A   1      42.450  33.746  34.806  1.00  0.00     0.058 A 
ATOM     62  C   UNL A   1      43.226  34.827  34.355  1.00  0.00     0.135 A 
ATOM     63  C   UNL A   1      42.202  33.635  36.180  1.00  0.00     0.135 A 
ATOM     64  F   UNL A   1      43.496  34.969  33.048  1.00  0.00    -0.206 F 
ATOM     65  C   UNL A   1      43.797  35.728  35.244  1.00  0.00     0.059 A 
ATOM     66  C   UNL A   1      42.741  34.543  37.086  1.00  0.00     0.059 A 
ATOM     67  F   UNL A   1      41.454  32.625  36.652  1.00  0.00    -0.206 F 
ATOM     68  C   UNL A   1      43.562  35.566  36.610  1.00  0.00     0.060 A 
BRANCH  68  69
ATOM     69  S   UNL A   1      44.375  36.699  37.754  1.00  0.00     0.124 S 
ATOM     70  O   UNL A   1      43.715  36.377  39.014  1.00  0.00    -0.237 OA
ATOM     71  O   UNL A   1      45.773  36.293  37.647  1.00  0.00    -0.237 OA
ATOM     72  O   UNL A   1      44.068  38.015  37.202  1.00  0.00    -0.744 OA
ENDBRANCH  68  69
ENDBRANCH  36  61
ENDBRANCH  10  11
ENDBRANCH   3   5
ENDBRANCH   2   3
ENDBRANCH   1   2
BRANCH   1  73
ATOM     73  C   UNL A   1      34.848  24.017  24.840  1.00  0.00     0.274 C 
BRANCH  73  74
ATOM     74  O   UNL A   1      34.579  25.432  24.711  1.00  0.00    -0.460 OA
BRANCH  74  75
ATOM     75  C   UNL A   1      33.242  25.724  24.687  1.00  0.00     0.335 C 
ATOM     76  O   UNL A   1      32.435  25.192  25.453  1.00  0.00    -0.249 OA
BRANCH  75  77
ATOM     77  C   UNL A   1      32.759  26.697  23.586  1.00  0.00     0.232 C 
ATOM     78  C   UNL A   1      31.302  27.075  23.454  1.00  0.00     0.087 C 
ATOM     79  O   UNL A   1      33.508  27.921  23.599  1.00  0.00    -0.355 OA
ATOM     80  C   UNL A   1      31.203  28.446  24.102  1.00  0.00     0.123 C 
ATOM     81  C   UNL A   1      32.689  28.983  24.150  1.00  0.00     0.186 C 
BRANCH  80  82
ATOM     82  C   UNL A   1      30.034  29.252  23.506  1.00  0.00    -0.013 A 
ATOM     83  C   UNL A   1      29.806  30.571  23.965  1.00  0.00     0.010 A 
ATOM     84  C   UNL A   1      29.145  28.805  22.534  1.00  0.00     0.010 A 
ATOM     85  C   UNL A   1      28.937  31.476  23.341  1.00  0.00     0.039 A 
ATOM     86  C   UNL A   1      28.172  29.681  21.993  1.00  0.00     0.039 A 
ATOM     87  C   UNL A   1      28.132  31.019  22.330  1.00  0.00     0.123 A 
ATOM     88  F   UNL A   1      27.276  31.844  21.714  1.00  0.00    -0.207 F 
ENDBRANCH  80  82
BRANCH  80  89
ATOM     89  O   UNL A   1      30.820  28.138  25.428  1.00  0.00    -0.382 OA
ATOM     90  H   UNL A   1      30.650  27.185  25.503  1.00  0.00     0.212 HD
ENDBRANCH  80  89
BRANCH  81  91
ATOM     91  C   UNL A   1      33.370  29.348  25.495  1.00  0.00    -0.016 A 
ATOM     92  C   UNL A   1      34.460  28.628  26.024  1.00  0.00     0.009 A 
ATOM     93  C   UNL A   1      32.961  30.472  26.236  1.00  0.00     0.009 A 
ATOM     94  C   UNL A   1      35.102  28.974  27.217  1.00  0.00     0.039 A 
ATOM     95  C   UNL A   1      33.587  30.819  27.450  1.00  0.00     0.039 A 
ATOM     96  C   UNL A   1      34.656  30.072  27.925  1.00  0.00     0.123 A 
ATOM     97  F   UNL A   1      35.263  30.408  29.071  1.00  0.00    -0.207 F 
ENDBRANCH  81  91
ENDBRANCH  75  77
ENDBRANCH  74  75
ENDBRANCH  73  74
ENDBRANCH   1  73
TORSDOF 17
ENDMDL
MODEL 2
REMARK VINA RESULT:     -11.1      3.494      5.666
REMARK SMILES O=C(OCCOC(=O)[C@H]1C[C@](O)(c2ccc(F)cc2)[C@@H](c2ccc(F)cc2)O1)c1ccc(-c2c3nc(c(-c4c(F)cc(S(=O)(=O)[O-])cc4F)c4ccc([nH]4)c(-c4c(F)cc(S(=O)(=O)[O-])cc4F)c4nc(c(-c5c(F)cc(S(=O)(=O)[O-])cc5F)c5ccc2[nH]5)C=C4)C=C3)cc1
REMARK SMILES IDX 4 1 3 2 2 3 1 4 29 5 30 6 94 7 31 8 93 9 32 10 33 11 34 12
REMARK SMILES IDX 87 13 35 14 92 15 86 16 88 17 36 18 91 19 85 20 84 21 37 23
REMARK SMILES IDX 71 24 50 25 70 26 51 27 54 28 69 29 89 30 52 31 53 32 68 34
REMARK SMILES IDX 90 35 55 36 38 37 39 38 48 39 40 40 41 41 47 42 49 43 42 44
REMARK SMILES IDX 43 45 44 46 45 47 46 48 72 49 73 50 82 51 74 52 75 53 81 54
REMARK SMILES IDX 83 55 76 56 77 57 78 58 79 59 80 60 56 61 57 62 66 63 58 64
REMARK SMILES IDX 59 65 65 66 67 67 60 68 61 69 62 70 63 71 64 72 5 73 6 74
REMARK SMILES IDX 7 75 8 76 9 77 10 78 28 79 11 80 20 81 13 82 14 83 19 84
REMARK SMILES IDX 15 85 18 86 16 87 17 88 12 89 21 91 22 92 27 93 23 94 26 95
REMARK SMILES IDX 24 96 25 97
REMARK H PARENT 88 22 54 33 12 90
REMARK Flexibility Score: inf
ROOT
ATOM      1  C   UNL A   1      40.765  22.264  27.161  1.00  0.00     0.275 C 
ENDROOT
BRANCH   1   2
ATOM      2  O   UNL A   1      41.579  23.339  26.703  1.00  0.00    -0.458 OA
BRANCH   2   3
ATOM      3  C   UNL A   1      41.256  24.648  26.736  1.00  0.00     0.338 C 
ATOM      4  O   UNL A   1      40.684  25.117  25.751  1.00  0.00    -0.246 OA
BRANCH   3   5
ATOM      5  C   UNL A   1      41.474  25.532  27.942  1.00  0.00     0.060 A 
ATOM      6  C   UNL A   1      42.672  26.049  28.473  1.00  0.00     0.016 A 
ATOM      7  C   UNL A   1      40.297  25.931  28.569  1.00  0.00     0.016 A 
ATOM      8  C   UNL A   1      42.683  27.074  29.469  1.00  0.00     0.010 A 
ATOM      9  C   UNL A   1      40.312  26.925  29.553  1.00  0.00     0.010 A 
ATOM     10  C   UNL A   1      41.490  27.594  29.965  1.00  0.00    -0.014 A 
BRANCH  10  11
ATOM     11  C   UNL A   1      41.293  28.780  30.890  1.00  0.00     0.031 A 
ATOM     12  C   UNL A   1      41.899  28.598  32.253  1.00  0.00     0.074 A 
ATOM     13  C   UNL A   1      40.459  29.843  30.690  1.00  0.00     0.049 A 
ATOM     14  N   UNL A   1      41.630  29.215  33.366  1.00  0.00    -0.248 NA
ATOM     15  C   UNL A   1      42.922  27.536  32.375  1.00  0.00     0.031 C 
ATOM     16  C   UNL A   1      39.903  30.289  29.416  1.00  0.00     0.029 A 
ATOM     17  N   UNL A   1      39.858  30.727  31.581  1.00  0.00    -0.354 N 
ATOM     18  C   UNL A   1      42.491  28.652  34.291  1.00  0.00     0.074 A 
ATOM     19  C   UNL A   1      43.116  27.506  33.681  1.00  0.00     0.031 C 
ATOM     20  C   UNL A   1      38.930  31.203  29.616  1.00  0.00     0.029 A 
ATOM     21  C   UNL A   1      38.826  31.495  31.035  1.00  0.00     0.049 A 
ATOM     22  H   UNL A   1      40.136  30.804  32.522  1.00  0.00     0.167 HD
ATOM     23  C   UNL A   1      42.854  29.144  35.492  1.00  0.00     0.037 A 
ATOM     24  C   UNL A   1      37.925  32.349  31.594  1.00  0.00     0.037 A 
ATOM     25  C   UNL A   1      42.296  30.335  36.054  1.00  0.00     0.049 A 
ATOM     26  C   UNL A   1      38.166  32.708  33.046  1.00  0.00     0.074 A 
ATOM     27  C   UNL A   1      42.686  31.004  37.195  1.00  0.00     0.029 A 
ATOM     28  N   UNL A   1      41.226  31.029  35.512  1.00  0.00    -0.354 N 
ATOM     29  N   UNL A   1      39.093  32.253  33.856  1.00  0.00    -0.248 NA
ATOM     30  C   UNL A   1      37.317  33.752  33.639  1.00  0.00     0.031 C 
ATOM     31  C   UNL A   1      41.813  32.078  37.374  1.00  0.00     0.029 A 
ATOM     32  C   UNL A   1      40.910  32.102  36.320  1.00  0.00     0.049 A 
ATOM     33  H   UNL A   1      40.761  30.792  34.677  1.00  0.00     0.167 HD
ATOM     34  C   UNL A   1      39.011  33.027  35.007  1.00  0.00     0.074 A 
ATOM     35  C   UNL A   1      37.901  33.937  34.818  1.00  0.00     0.031 C 
ATOM     36  C   UNL A   1      39.818  33.017  36.094  1.00  0.00     0.037 A 
BRANCH  23  37
ATOM     37  C   UNL A   1      43.987  28.456  36.181  1.00  0.00     0.058 A 
ATOM     38  C   UNL A   1      43.758  27.390  37.058  1.00  0.00     0.135 A 
ATOM     39  C   UNL A   1      45.316  28.855  35.949  1.00  0.00     0.135 A 
ATOM     40  F   UNL A   1      42.508  26.957  37.286  1.00  0.00    -0.206 F 
ATOM     41  C   UNL A   1      44.811  26.748  37.696  1.00  0.00     0.059 A 
ATOM     42  C   UNL A   1      46.385  28.208  36.551  1.00  0.00     0.059 A 
ATOM     43  F   UNL A   1      45.586  29.844  35.079  1.00  0.00    -0.206 F 
ATOM     44  C   UNL A   1      46.120  27.166  37.437  1.00  0.00     0.060 A 
BRANCH  44  45
ATOM     45  S   UNL A   1      47.476  26.310  38.260  1.00  0.00     0.124 S 
ATOM     46  O   UNL A   1      48.603  27.189  37.966  1.00  0.00    -0.237 OA
ATOM     47  O   UNL A   1      47.026  26.291  39.649  1.00  0.00    -0.237 OA
ATOM     48  O   UNL A   1      47.505  25.008  37.602  1.00  0.00    -0.744 OA
ENDBRANCH  44  45
ENDBRANCH  23  37
BRANCH  24  49
ATOM     49  C   UNL A   1      36.773  33.007  30.847  1.00  0.00     0.058 A 
ATOM     50  C   UNL A   1      35.436  32.672  31.110  1.00  0.00     0.135 A 
ATOM     51  C   UNL A   1      36.939  34.080  29.959  1.00  0.00     0.135 A 
ATOM     52  F   UNL A   1      35.141  31.744  32.004  1.00  0.00    -0.206 F 
ATOM     53  C   UNL A   1      34.334  33.299  30.531  1.00  0.00     0.059 A 
ATOM     54  C   UNL A   1      35.850  34.757  29.374  1.00  0.00     0.059 A 
ATOM     55  F   UNL A   1      38.174  34.528  29.689  1.00  0.00    -0.206 F 
ATOM     56  C   UNL A   1      34.547  34.349  29.658  1.00  0.00     0.060 A 
BRANCH  56  57
ATOM     57  S   UNL A   1      33.087  35.151  28.958  1.00  0.00     0.124 S 
ATOM     58  O   UNL A   1      32.247  35.309  30.140  1.00  0.00    -0.237 OA
ATOM     59  O   UNL A   1      33.644  36.380  28.409  1.00  0.00    -0.237 OA
ATOM     60  O   UNL A   1      32.610  34.180  27.973  1.00  0.00    -0.744 OA
ENDBRANCH  56  57
ENDBRANCH  24  49
BRANCH  36  61
ATOM     61  C   UNL A   1      39.606  34.059  37.153  1.00  0.00     0.058 A 
ATOM     62  C   UNL A   1      40.273  35.292  37.057  1.00  0.00     0.135 A 
ATOM     63  C   UNL A   1      38.910  33.771  38.334  1.00  0.00     0.135 A 
ATOM     64  F   UNL A   1      40.959  35.607  35.947  1.00  0.00    -0.206 F 
ATOM     65  C   UNL A   1      40.308  36.179  38.125  1.00  0.00     0.059 A 
ATOM     66  C   UNL A   1      38.908  34.658  39.405  1.00  0.00     0.059 A 
ATOM     67  F   UNL A   1      38.247  32.610  38.461  1.00  0.00    -0.206 F 
ATOM     68  C   UNL A   1      39.637  35.844  39.301  1.00  0.00     0.060 A 
BRANCH  68  69
ATOM     69  S   UNL A   1      39.759  36.973  40.702  1.00  0.00     0.124 S 
ATOM     70  O   UNL A   1      38.717  36.465  41.587  1.00  0.00    -0.237 OA
ATOM     71  O   UNL A   1      41.132  36.759  41.150  1.00  0.00    -0.237 OA
ATOM     72  O   UNL A   1      39.497  38.280  40.108  1.00  0.00    -0.744 OA
ENDBRANCH  68  69
ENDBRANCH  36  61
ENDBRANCH  10  11
ENDBRANCH   3   5
ENDBRANCH   2   3
ENDBRANCH   1   2
BRANCH   1  73
ATOM     73  C   UNL A   1      39.664  21.776  26.211  1.00  0.00     0.274 C 
BRANCH  73  74
ATOM     74  O   UNL A   1      38.321  22.236  26.489  1.00  0.00    -0.460 OA
BRANCH  74  75
ATOM     75  C   UNL A   1      37.693  22.758  25.390  1.00  0.00     0.335 C 
ATOM     76  O   UNL A   1      37.605  23.972  25.195  1.00  0.00    -0.249 OA
BRANCH  75  77
ATOM     77  C   UNL A   1      37.010  21.754  24.433  1.00  0.00     0.232 C 
ATOM     78  C   UNL A   1      36.503  20.419  24.926  1.00  0.00     0.087 C 
ATOM     79  O   UNL A   1      35.934  22.367  23.707  1.00  0.00    -0.355 OA
ATOM     80  C   UNL A   1      35.005  20.616  25.090  1.00  0.00     0.123 C 
ATOM     81  C   UNL A   1      34.668  21.904  24.238  1.00  0.00     0.186 C 
BRANCH  80  82
ATOM     82  C   UNL A   1      34.254  19.281  24.932  1.00  0.00    -0.013 A 
ATOM     83  C   UNL A   1      34.923  18.183  24.340  1.00  0.00     0.010 A 
ATOM     84  C   UNL A   1      32.941  19.031  25.318  1.00  0.00     0.010 A 
ATOM     85  C   UNL A   1      34.436  16.870  24.358  1.00  0.00     0.039 A 
ATOM     86  C   UNL A   1      32.397  17.728  25.213  1.00  0.00     0.039 A 
ATOM     87  C   UNL A   1      33.165  16.649  24.822  1.00  0.00     0.123 A 
ATOM     88  F   UNL A   1      32.653  15.413  24.845  1.00  0.00    -0.207 F 
ENDBRANCH  80  82
BRANCH  80  89
ATOM     89  O   UNL A   1      34.884  20.966  26.455  1.00  0.00    -0.382 OA
ATOM     90  H   UNL A   1      34.272  20.353  26.893  1.00  0.00     0.212 HD
ENDBRANCH  80  89
BRANCH  81  91
ATOM     91  C   UNL A   1      34.034  23.159  24.894  1.00  0.00    -0.016 A 
ATOM     92  C   UNL A   1      34.437  24.474  24.585  1.00  0.00     0.009 A 
ATOM     93  C   UNL A   1      32.966  23.044  25.802  1.00  0.00     0.009 A 
ATOM     94  C   UNL A   1      33.844  25.610  25.144  1.00  0.00     0.039 A 
ATOM     95  C   UNL A   1      32.374  24.181  26.388  1.00  0.00     0.039 A 
ATOM     96  C   UNL A   1      32.813  25.452  26.048  1.00  0.00     0.123 A 
ATOM     97  F   UNL A   1      32.243  26.536  26.591  1.00  0.00    -0.207 F 
ENDBRANCH  81  91
ENDBRANCH  75  77
ENDBRANCH  74  75
ENDBRANCH  73  74
ENDBRANCH   1  73
TORSDOF 17
ENDMDL
MODEL 3
REMARK VINA RESULT:     -11.1      3.277      5.244
REMARK SMILES O=C(OCCOC(=O)[C@H]1C[C@](O)(c2ccc(F)cc2)[C@@H](c2ccc(F)cc2)O1)c1ccc(-c2c3nc(c(-c4c(F)cc(S(=O)(=O)[O-])cc4F)c4ccc([nH]4)c(-c4c(F)cc(S(=O)(=O)[O-])cc4F)c4nc(c(-c5c(F)cc(S(=O)(=O)[O-])cc5F)c5ccc2[nH]5)C=C4)C=C3)cc1
REMARK SMILES IDX 4 1 3 2 2 3 1 4 29 5 30 6 94 7 31 8 93 9 32 10 33 11 34 12
REMARK SMILES IDX 87 13 35 14 92 15 86 16 88 17 36 18 91 19 85 20 84 21 37 23
REMARK SMILES IDX 71 24 50 25 70 26 51 27 54 28 69 29 89 30 52 31 53 32 68 34
REMARK SMILES IDX 90 35 55 36 38 37 39 38 48 39 40 40 41 41 47 42 49 43 42 44
REMARK SMILES IDX 43 45 44 46 45 47 46 48 72 49 73 50 82 51 74 52 75 53 81 54
REMARK SMILES IDX 83 55 76 56 77 57 78 58 79 59 80 60 56 61 57 62 66 63 58 64
REMARK SMILES IDX 59 65 65 66 67 67 60 68 61 69 62 70 63 71 64 72 5 73 6 74
REMARK SMILES IDX 7 75 8 76 9 77 10 78 28 79 11 80 20 81 13 82 14 83 19 84
REMARK SMILES IDX 15 85 18 86 16 87 17 88 12 89 21 91 22 92 27 93 23 94 26 95
REMARK SMILES IDX 24 96 25 97
REMARK H PARENT 88 22 54 33 12 90
REMARK Flexibility Score: inf
ROOT
ATOM      1  C   UNL A   1      40.621  22.092  26.369  1.00  0.00     0.275 C 
ENDROOT
BRANCH   1   2
ATOM      2  O   UNL A   1      41.506  23.202  26.266  1.00  0.00    -0.458 OA
BRANCH   2   3
ATOM      3  C   UNL A   1      42.125  23.821  27.292  1.00  0.00     0.338 C 
ATOM      4  O   UNL A   1      43.201  23.356  27.671  1.00  0.00    -0.246 OA
BRANCH   3   5
ATOM      5  C   UNL A   1      41.615  25.093  27.930  1.00  0.00     0.060 A 
ATOM      6  C   UNL A   1      40.317  25.424  28.362  1.00  0.00     0.016 A 
ATOM      7  C   UNL A   1      42.608  26.039  28.173  1.00  0.00     0.016 A 
ATOM      8  C   UNL A   1      40.054  26.571  29.175  1.00  0.00     0.010 A 
ATOM      9  C   UNL A   1      42.345  27.166  28.957  1.00  0.00     0.010 A 
ATOM     10  C   UNL A   1      41.089  27.419  29.560  1.00  0.00    -0.014 A 
BRANCH  10  11
ATOM     11  C   UNL A   1      41.041  28.577  30.540  1.00  0.00     0.031 A 
ATOM     12  C   UNL A   1      41.762  28.312  31.831  1.00  0.00     0.074 A 
ATOM     13  C   UNL A   1      40.249  29.685  30.456  1.00  0.00     0.049 A 
ATOM     14  N   UNL A   1      41.632  28.898  32.986  1.00  0.00    -0.248 NA
ATOM     15  C   UNL A   1      42.736  27.198  31.819  1.00  0.00     0.031 C 
ATOM     16  C   UNL A   1      39.599  30.207  29.258  1.00  0.00     0.029 A 
ATOM     17  N   UNL A   1      39.780  30.561  31.431  1.00  0.00    -0.354 N 
ATOM     18  C   UNL A   1      42.545  28.258  33.804  1.00  0.00     0.074 A 
ATOM     19  C   UNL A   1      43.050  27.108  33.098  1.00  0.00     0.031 C 
ATOM     20  C   UNL A   1      38.698  31.158  29.581  1.00  0.00     0.029 A 
ATOM     21  C   UNL A   1      38.742  31.399  31.013  1.00  0.00     0.049 A 
ATOM     22  H   UNL A   1      40.149  30.588  32.344  1.00  0.00     0.167 HD
ATOM     23  C   UNL A   1      43.044  28.685  34.980  1.00  0.00     0.037 A 
ATOM     24  C   UNL A   1      37.943  32.273  31.685  1.00  0.00     0.037 A 
ATOM     25  C   UNL A   1      42.603  29.878  35.634  1.00  0.00     0.049 A 
ATOM     26  C   UNL A   1      38.337  32.563  33.118  1.00  0.00     0.074 A 
ATOM     27  C   UNL A   1      43.133  30.482  36.754  1.00  0.00     0.029 A 
ATOM     28  N   UNL A   1      41.524  30.643  35.221  1.00  0.00    -0.354 N 
ATOM     29  N   UNL A   1      39.312  32.033  33.819  1.00  0.00    -0.248 NA
ATOM     30  C   UNL A   1      37.602  33.623  33.826  1.00  0.00     0.031 C 
ATOM     31  C   UNL A   1      42.337  31.589  37.054  1.00  0.00     0.029 A 
ATOM     32  C   UNL A   1      41.341  31.698  36.092  1.00  0.00     0.049 A 
ATOM     33  H   UNL A   1      40.971  30.462  34.426  1.00  0.00     0.167 HD
ATOM     34  C   UNL A   1      39.378  32.764  34.999  1.00  0.00     0.074 A 
ATOM     35  C   UNL A   1      38.303  33.733  34.948  1.00  0.00     0.031 C 
ATOM     36  C   UNL A   1      40.282  32.673  36.004  1.00  0.00     0.037 A 
BRANCH  23  37
ATOM     37  C   UNL A   1      44.200  27.917  35.535  1.00  0.00     0.058 A 
ATOM     38  C   UNL A   1      45.510  28.191  35.127  1.00  0.00     0.135 A 
ATOM     39  C   UNL A   1      43.997  26.909  36.495  1.00  0.00     0.135 A 
ATOM     40  F   UNL A   1      45.752  29.165  34.236  1.00  0.00    -0.206 F 
ATOM     41  C   UNL A   1      46.584  27.480  35.646  1.00  0.00     0.059 A 
ATOM     42  C   UNL A   1      45.057  26.208  37.048  1.00  0.00     0.059 A 
ATOM     43  F   UNL A   1      42.760  26.643  36.949  1.00  0.00    -0.206 F 
ATOM     44  C   UNL A   1      46.347  26.490  36.603  1.00  0.00     0.060 A 
BRANCH  44  45
ATOM     45  S   UNL A   1      47.755  25.588  37.277  1.00  0.00     0.124 S 
ATOM     46  O   UNL A   1      48.874  26.411  36.833  1.00  0.00    -0.237 OA
ATOM     47  O   UNL A   1      47.473  25.610  38.709  1.00  0.00    -0.237 OA
ATOM     48  O   UNL A   1      47.650  24.276  36.647  1.00  0.00    -0.744 OA
ENDBRANCH  44  45
ENDBRANCH  23  37
BRANCH  24  49
ATOM     49  C   UNL A   1      36.762  33.014  31.074  1.00  0.00     0.058 A 
ATOM     50  C   UNL A   1      36.941  34.135  30.249  1.00  0.00     0.135 A 
ATOM     51  C   UNL A   1      35.435  32.565  31.165  1.00  0.00     0.135 A 
ATOM     52  F   UNL A   1      38.154  34.598  30.001  1.00  0.00    -0.206 F 
ATOM     53  C   UNL A   1      35.912  34.801  29.585  1.00  0.00     0.059 A 
ATOM     54  C   UNL A   1      34.372  33.197  30.487  1.00  0.00     0.059 A 
ATOM     55  F   UNL A   1      35.160  31.461  31.874  1.00  0.00    -0.206 F 
ATOM     56  C   UNL A   1      34.621  34.325  29.708  1.00  0.00     0.060 A 
BRANCH  56  57
ATOM     57  S   UNL A   1      33.326  35.204  28.803  1.00  0.00     0.124 S 
ATOM     58  O   UNL A   1      32.564  35.802  29.893  1.00  0.00    -0.237 OA
ATOM     59  O   UNL A   1      34.097  36.133  27.987  1.00  0.00    -0.237 OA
ATOM     60  O   UNL A   1      32.645  34.137  28.071  1.00  0.00    -0.744 OA
ENDBRANCH  56  57
ENDBRANCH  24  49
BRANCH  36  61
ATOM     61  C   UNL A   1      40.223  33.681  37.112  1.00  0.00     0.058 A 
ATOM     62  C   UNL A   1      39.349  33.476  38.193  1.00  0.00     0.135 A 
ATOM     63  C   UNL A   1      40.875  34.917  37.013  1.00  0.00     0.135 A 
ATOM     64  F   UNL A   1      38.696  32.310  38.324  1.00  0.00    -0.206 F 
ATOM     65  C   UNL A   1      39.076  34.486  39.105  1.00  0.00     0.059 A 
ATOM     66  C   UNL A   1      40.638  35.934  37.932  1.00  0.00     0.059 A 
ATOM     67  F   UNL A   1      41.730  35.150  36.004  1.00  0.00    -0.206 F 
ATOM     68  C   UNL A   1      39.713  35.718  38.954  1.00  0.00     0.060 A 
BRANCH  68  69
ATOM     69  S   UNL A   1      39.287  37.043  40.102  1.00  0.00     0.124 S 
ATOM     70  O   UNL A   1      40.603  37.498  40.536  1.00  0.00    -0.237 OA
ATOM     71  O   UNL A   1      38.547  37.965  39.245  1.00  0.00    -0.237 OA
ATOM     72  O   UNL A   1      38.488  36.366  41.119  1.00  0.00    -0.744 OA
ENDBRANCH  68  69
ENDBRANCH  36  61
ENDBRANCH  10  11
ENDBRANCH   3   5
ENDBRANCH   2   3
ENDBRANCH   1   2
BRANCH   1  73
ATOM     73  C   UNL A   1      39.120  22.391  26.259  1.00  0.00     0.274 C 
BRANCH  73  74
ATOM     74  O   UNL A   1      38.295  21.353  25.681  1.00  0.00    -0.460 OA
BRANCH  74  75
ATOM     75  C   UNL A   1      37.220  21.844  24.990  1.00  0.00     0.335 C 
ATOM     76  O   UNL A   1      37.187  21.881  23.759  1.00  0.00    -0.249 OA
BRANCH  75  77
ATOM     77  C   UNL A   1      36.066  22.442  25.827  1.00  0.00     0.232 C 
ATOM     78  C   UNL A   1      35.140  23.490  25.255  1.00  0.00     0.087 C 
ATOM     79  O   UNL A   1      35.237  21.416  26.392  1.00  0.00    -0.355 OA
ATOM     80  C   UNL A   1      33.886  22.722  24.872  1.00  0.00     0.123 C 
ATOM     81  C   UNL A   1      33.978  21.363  25.675  1.00  0.00     0.186 C 
BRANCH  80  82
ATOM     82  C   UNL A   1      32.648  23.638  24.906  1.00  0.00    -0.013 A 
ATOM     83  C   UNL A   1      32.416  24.435  26.052  1.00  0.00     0.010 A 
ATOM     84  C   UNL A   1      31.699  23.767  23.897  1.00  0.00     0.010 A 
ATOM     85  C   UNL A   1      31.473  25.470  26.106  1.00  0.00     0.039 A 
ATOM     86  C   UNL A   1      30.659  24.723  24.006  1.00  0.00     0.039 A 
ATOM     87  C   UNL A   1      30.604  25.619  25.055  1.00  0.00     0.123 A 
ATOM     88  F   UNL A   1      29.678  26.585  25.069  1.00  0.00    -0.207 F 
ENDBRANCH  80  82
BRANCH  80  89
ATOM     89  O   UNL A   1      34.106  22.424  23.507  1.00  0.00    -0.382 OA
ATOM     90  H   UNL A   1      34.914  21.895  23.417  1.00  0.00     0.212 HD
ENDBRANCH  80  89
BRANCH  81  91
ATOM     91  C   UNL A   1      33.998  19.996  24.943  1.00  0.00    -0.016 A 
ATOM     92  C   UNL A   1      35.126  19.151  24.925  1.00  0.00     0.009 A 
ATOM     93  C   UNL A   1      32.850  19.498  24.299  1.00  0.00     0.009 A 
ATOM     94  C   UNL A   1      35.139  17.900  24.298  1.00  0.00     0.039 A 
ATOM     95  C   UNL A   1      32.857  18.249  23.647  1.00  0.00     0.039 A 
ATOM     96  C   UNL A   1      33.998  17.459  23.660  1.00  0.00     0.123 A 
ATOM     97  F   UNL A   1      34.003  16.264  23.054  1.00  0.00    -0.207 F 
ENDBRANCH  81  91
ENDBRANCH  75  77
ENDBRANCH  74  75
ENDBRANCH  73  74
ENDBRANCH   1  73
TORSDOF 17
ENDMDL
