MODEL 1
REMARK VINA RESULT:     -11.7      0.000      0.000
REMARK SMILES CNS(=O)(=O)c1ccc([C@H]2CC(=O)Nc3cc(O)c(C(=O)OCCOC(=O)c4ccc(-c5c6nc(c(-c7c(F)cc(S(=O)(=O)[O-])cc7F)c7ccc([nH]7)c(-c7c(F)cc(S(=O)(=O)[O-])cc7F)c7nc(c(-c8c(F)cc(S(=O)(=O)[O-])cc8F)c8ccc5[nH]8)C=C7)C=C6)cc4)cc32)cc1
REMARK SMILES IDX 23 1 22 2 20 3 21 4 19 5 10 6 11 7 95 8 12 9 15 10 94 11
REMARK SMILES IDX 13 12 14 13 16 14 17 16 9 17 6 18 7 19 97 20 8 21 96 22 3 23
REMARK SMILES IDX 4 24 5 25 2 26 1 27 18 29 24 31 25 32 26 33 27 34 28 35
REMARK SMILES IDX 29 36 93 37 30 38 92 39 31 40 32 41 33 42 86 43 34 44 91 45
REMARK SMILES IDX 85 46 87 47 35 48 90 49 84 50 83 51 36 53 70 54 49 55 69 56
REMARK SMILES IDX 50 57 53 58 68 59 88 60 51 61 52 62 67 64 89 65 54 66 37 67
REMARK SMILES IDX 38 68 47 69 39 70 40 71 46 72 48 73 41 74 42 75 43 76 44 77
REMARK SMILES IDX 45 78 71 79 72 80 81 81 73 82 74 83 80 84 82 85 75 86 76 87
REMARK SMILES IDX 77 88 78 89 79 90 55 91 56 92 65 93 57 94 58 95 64 96 66 97
REMARK SMILES IDX 59 98 60 99 61 100 62 101 63 102
REMARK H PARENT 14 15 2 28 18 30 87 52 53 63
REMARK Flexibility Score: inf
ROOT
ATOM      1  C   UNL A   1      35.118  32.206  27.840  1.00  0.00     0.275 C 
ENDROOT
BRANCH   1   2
ATOM      2  O   UNL A   1      34.046  31.236  27.821  1.00  0.00    -0.458 OA
BRANCH   2   3
ATOM      3  C   UNL A   1      34.399  30.019  27.350  1.00  0.00     0.342 C 
ATOM      4  O   UNL A   1      35.300  29.306  27.764  1.00  0.00    -0.246 OA
BRANCH   3   5
ATOM      5  C   UNL A   1      33.546  29.593  26.225  1.00  0.00     0.102 A 
ATOM      6  C   UNL A   1      33.345  26.684  23.755  1.00  0.00     0.061 C 
ATOM      7  C   UNL A   1      32.162  26.271  22.847  1.00  0.00     0.113 C 
ATOM      8  C   UNL A   1      32.958  27.771  24.734  1.00  0.00    -0.015 A 
ATOM      9  C   UNL A   1      30.811  26.304  23.504  1.00  0.00     0.225 C 
ATOM     10  C   UNL A   1      31.613  28.141  24.871  1.00  0.00     0.048 A 
ATOM     11  C   UNL A   1      33.918  28.458  25.498  1.00  0.00     0.026 A 
ATOM     12  O   UNL A   1      29.902  25.546  23.178  1.00  0.00    -0.275 OA
ATOM     13  N   UNL A   1      30.599  27.342  24.356  1.00  0.00    -0.326 N 
ATOM     14  C   UNL A   1      31.258  29.305  25.533  1.00  0.00     0.073 A 
ATOM     15  H   UNL A   1      29.671  27.541  24.623  1.00  0.00     0.169 HD
ATOM     16  C   UNL A   1      32.252  30.086  26.097  1.00  0.00     0.132 A 
BRANCH   6  17
ATOM     17  C   UNL A   1      34.044  25.435  24.274  1.00  0.00    -0.040 A 
ATOM     18  C   UNL A   1      34.727  22.860  25.085  1.00  0.00     0.082 A 
ATOM     19  C   UNL A   1      34.581  23.132  23.727  1.00  0.00     0.022 A 
ATOM     20  C   UNL A   1      34.663  23.884  26.031  1.00  0.00     0.022 A 
ATOM     21  C   UNL A   1      34.303  24.427  23.323  1.00  0.00     0.006 A 
ATOM     22  C   UNL A   1      34.309  25.174  25.623  1.00  0.00     0.006 A 
BRANCH  18  23
ATOM     23  S   UNL A   1      34.785  21.165  25.587  1.00  0.00     0.240 S 
ATOM     24  O   UNL A   1      34.139  21.048  26.880  1.00  0.00    -0.207 OA
ATOM     25  O   UNL A   1      36.118  20.659  25.363  1.00  0.00    -0.207 OA
BRANCH  23  26
ATOM     26  N   UNL A   1      33.803  20.405  24.454  1.00  0.00    -0.214 NA
ATOM     27  C   UNL A   1      32.526  19.862  24.897  1.00  0.00     0.120 C 
ATOM     28  H   UNL A   1      33.603  21.087  23.722  1.00  0.00     0.141 HD
ENDBRANCH  23  26
ENDBRANCH  18  23
ENDBRANCH   6  17
BRANCH  16  29
ATOM     29  O   UNL A   1      31.876  31.338  26.451  1.00  0.00    -0.507 OA
ATOM     30  H   UNL A   1      31.463  31.898  25.823  1.00  0.00     0.293 HD
ENDBRANCH  16  29
ENDBRANCH   3   5
ENDBRANCH   2   3
ENDBRANCH   1   2
BRANCH   1  31
ATOM     31  C   UNL A   1      35.240  32.817  29.234  1.00  0.00     0.275 C 
BRANCH  31  32
ATOM     32  O   UNL A   1      36.527  32.498  29.804  1.00  0.00    -0.458 OA
BRANCH  32  33
ATOM     33  C   UNL A   1      36.565  31.321  30.468  1.00  0.00     0.338 C 
ATOM     34  O   UNL A   1      35.687  30.874  31.194  1.00  0.00    -0.246 OA
BRANCH  33  35
ATOM     35  C   UNL A   1      37.745  30.512  30.108  1.00  0.00     0.060 A 
ATOM     36  C   UNL A   1      38.592  30.060  31.121  1.00  0.00     0.016 A 
ATOM     37  C   UNL A   1      38.174  30.498  28.781  1.00  0.00     0.016 A 
ATOM     38  C   UNL A   1      39.918  29.745  30.812  1.00  0.00     0.010 A 
ATOM     39  C   UNL A   1      39.458  30.034  28.466  1.00  0.00     0.010 A 
ATOM     40  C   UNL A   1      40.369  29.692  29.480  1.00  0.00    -0.014 A 
BRANCH  40  41
ATOM     41  C   UNL A   1      41.770  29.270  29.146  1.00  0.00     0.031 A 
ATOM     42  C   UNL A   1      42.918  30.260  29.151  1.00  0.00     0.074 A 
ATOM     43  C   UNL A   1      42.018  27.990  28.792  1.00  0.00     0.049 A 
ATOM     44  N   UNL A   1      44.126  30.129  28.658  1.00  0.00    -0.248 NA
ATOM     45  C   UNL A   1      42.677  31.572  29.773  1.00  0.00     0.031 C 
ATOM     46  C   UNL A   1      41.028  26.910  28.758  1.00  0.00     0.029 A 
ATOM     47  N   UNL A   1      43.177  27.375  28.381  1.00  0.00    -0.354 N 
ATOM     48  C   UNL A   1      44.760  31.356  28.840  1.00  0.00     0.074 A 
ATOM     49  C   UNL A   1      43.806  32.219  29.506  1.00  0.00     0.031 C 
ATOM     50  C   UNL A   1      41.624  25.766  28.399  1.00  0.00     0.029 A 
ATOM     51  C   UNL A   1      43.010  26.049  28.052  1.00  0.00     0.049 A 
ATOM     52  H   UNL A   1      44.044  27.839  28.328  1.00  0.00     0.167 HD
ATOM     53  C   UNL A   1      46.014  31.728  28.479  1.00  0.00     0.037 A 
ATOM     54  C   UNL A   1      43.841  25.162  27.472  1.00  0.00     0.037 A 
ATOM     55  C   UNL A   1      46.987  30.839  27.889  1.00  0.00     0.049 A 
ATOM     56  C   UNL A   1      45.216  25.605  27.065  1.00  0.00     0.074 A 
ATOM     57  C   UNL A   1      48.302  31.110  27.545  1.00  0.00     0.029 A 
ATOM     58  N   UNL A   1      46.761  29.509  27.568  1.00  0.00    -0.354 N 
ATOM     59  N   UNL A   1      45.780  26.778  27.213  1.00  0.00    -0.248 NA
ATOM     60  C   UNL A   1      46.059  24.608  26.390  1.00  0.00     0.031 C 
ATOM     61  C   UNL A   1      48.855  29.960  26.973  1.00  0.00     0.029 A 
ATOM     62  C   UNL A   1      47.903  28.956  27.008  1.00  0.00     0.049 A 
ATOM     63  H   UNL A   1      45.915  29.028  27.716  1.00  0.00     0.167 HD
ATOM     64  C   UNL A   1      47.052  26.655  26.667  1.00  0.00     0.074 A 
ATOM     65  C   UNL A   1      47.180  25.290  26.202  1.00  0.00     0.031 C 
ATOM     66  C   UNL A   1      48.025  27.592  26.557  1.00  0.00     0.037 A 
BRANCH  53  67
ATOM     67  C   UNL A   1      46.426  33.167  28.668  1.00  0.00     0.058 A 
ATOM     68  C   UNL A   1      47.102  33.615  29.813  1.00  0.00     0.135 A 
ATOM     69  C   UNL A   1      46.228  34.093  27.628  1.00  0.00     0.135 A 
ATOM     70  F   UNL A   1      47.313  32.779  30.842  1.00  0.00    -0.206 F 
ATOM     71  C   UNL A   1      47.553  34.928  29.927  1.00  0.00     0.059 A 
ATOM     72  C   UNL A   1      46.693  35.404  27.709  1.00  0.00     0.059 A 
ATOM     73  F   UNL A   1      45.594  33.721  26.504  1.00  0.00    -0.206 F 
ATOM     74  C   UNL A   1      47.348  35.815  28.868  1.00  0.00     0.060 A 
BRANCH  74  75
ATOM     75  S   UNL A   1      47.964  37.507  29.017  1.00  0.00     0.124 S 
ATOM     76  O   UNL A   1      46.724  38.253  29.208  1.00  0.00    -0.237 OA
ATOM     77  O   UNL A   1      48.837  37.421  30.184  1.00  0.00    -0.237 OA
ATOM     78  O   UNL A   1      48.643  37.738  27.746  1.00  0.00    -0.744 OA
ENDBRANCH  74  75
ENDBRANCH  53  67
BRANCH  54  79
ATOM     79  C   UNL A   1      43.368  23.782  27.181  1.00  0.00     0.058 A 
ATOM     80  C   UNL A   1      42.951  23.417  25.892  1.00  0.00     0.135 A 
ATOM     81  C   UNL A   1      43.329  22.799  28.183  1.00  0.00     0.135 A 
ATOM     82  F   UNL A   1      42.961  24.324  24.903  1.00  0.00    -0.206 F 
ATOM     83  C   UNL A   1      42.495  22.134  25.611  1.00  0.00     0.059 A 
ATOM     84  C   UNL A   1      42.910  21.500  27.919  1.00  0.00     0.059 A 
ATOM     85  F   UNL A   1      43.731  23.092  29.430  1.00  0.00    -0.206 F 
ATOM     86  C   UNL A   1      42.479  21.182  26.632  1.00  0.00     0.060 A 
BRANCH  86  87
ATOM     87  S   UNL A   1      41.914  19.509  26.256  1.00  0.00     0.124 S 
ATOM     88  O   UNL A   1      40.482  19.720  26.075  1.00  0.00    -0.237 OA
ATOM     89  O   UNL A   1      42.671  19.191  25.050  1.00  0.00    -0.237 OA
ATOM     90  O   UNL A   1      42.296  18.753  27.444  1.00  0.00    -0.744 OA
ENDBRANCH  86  87
ENDBRANCH  54  79
BRANCH  66  91
ATOM     91  C   UNL A   1      49.330  27.160  25.950  1.00  0.00     0.058 A 
ATOM     92  C   UNL A   1      49.552  27.208  24.566  1.00  0.00     0.135 A 
ATOM     93  C   UNL A   1      50.378  26.711  26.769  1.00  0.00     0.135 A 
ATOM     94  F   UNL A   1      48.578  27.618  23.738  1.00  0.00    -0.206 F 
ATOM     95  C   UNL A   1      50.762  26.804  24.011  1.00  0.00     0.059 A 
ATOM     96  C   UNL A   1      51.605  26.326  26.238  1.00  0.00     0.059 A 
ATOM     97  F   UNL A   1      50.218  26.650  28.100  1.00  0.00    -0.206 F 
ATOM     98  C   UNL A   1      51.783  26.364  24.856  1.00  0.00     0.060 A 
BRANCH  98  99
ATOM     99  S   UNL A   1      53.358  25.865  24.126  1.00  0.00     0.124 S 
ATOM    100  O   UNL A   1      53.522  24.522  24.672  1.00  0.00    -0.237 OA
ATOM    101  O   UNL A   1      53.076  25.937  22.695  1.00  0.00    -0.237 OA
ATOM    102  O   UNL A   1      54.295  26.866  24.626  1.00  0.00    -0.744 OA
ENDBRANCH  98  99
ENDBRANCH  66  91
ENDBRANCH  40  41
ENDBRANCH  33  35
ENDBRANCH  32  33
ENDBRANCH  31  32
ENDBRANCH   1  31
TORSDOF 18
ENDMDL
MODEL 2
REMARK VINA RESULT:     -11.6      5.596     12.908
REMARK SMILES CNS(=O)(=O)c1ccc([C@H]2CC(=O)Nc3cc(O)c(C(=O)OCCOC(=O)c4ccc(-c5c6nc(c(-c7c(F)cc(S(=O)(=O)[O-])cc7F)c7ccc([nH]7)c(-c7c(F)cc(S(=O)(=O)[O-])cc7F)c7nc(c(-c8c(F)cc(S(=O)(=O)[O-])cc8F)c8ccc5[nH]8)C=C7)C=C6)cc4)cc32)cc1
REMARK SMILES IDX 23 1 22 2 20 3 21 4 19 5 10 6 11 7 95 8 12 9 15 10 94 11
REMARK SMILES IDX 13 12 14 13 16 14 17 16 9 17 6 18 7 19 97 20 8 21 96 22 3 23
REMARK SMILES IDX 4 24 5 25 2 26 1 27 18 29 24 31 25 32 26 33 27 34 28 35
REMARK SMILES IDX 29 36 93 37 30 38 92 39 31 40 32 41 33 42 86 43 34 44 91 45
REMARK SMILES IDX 85 46 87 47 35 48 90 49 84 50 83 51 36 53 70 54 49 55 69 56
REMARK SMILES IDX 50 57 53 58 68 59 88 60 51 61 52 62 67 64 89 65 54 66 37 67
REMARK SMILES IDX 38 68 47 69 39 70 40 71 46 72 48 73 41 74 42 75 43 76 44 77
REMARK SMILES IDX 45 78 71 79 72 80 81 81 73 82 74 83 80 84 82 85 75 86 76 87
REMARK SMILES IDX 77 88 78 89 79 90 55 91 56 92 65 93 57 94 58 95 64 96 66 97
REMARK SMILES IDX 59 98 60 99 61 100 62 101 63 102
REMARK H PARENT 14 15 2 28 18 30 87 52 53 63
REMARK Flexibility Score: inf
ROOT
ATOM      1  C   UNL A   1      43.124  21.916  25.814  1.00  0.00     0.275 C 
ENDROOT
BRANCH   1   2
ATOM      2  O   UNL A   1      43.939  21.949  27.008  1.00  0.00    -0.458 OA
BRANCH   2   3
ATOM      3  C   UNL A   1      44.058  23.172  27.573  1.00  0.00     0.342 C 
ATOM      4  O   UNL A   1      43.577  23.539  28.634  1.00  0.00    -0.246 OA
BRANCH   3   5
ATOM      5  C   UNL A   1      44.875  24.083  26.751  1.00  0.00     0.102 A 
ATOM      6  C   UNL A   1      45.268  27.847  26.219  1.00  0.00     0.061 C 
ATOM      7  C   UNL A   1      46.425  28.607  25.527  1.00  0.00     0.113 C 
ATOM      8  C   UNL A   1      45.582  26.379  26.404  1.00  0.00    -0.015 A 
ATOM      9  C   UNL A   1      47.804  28.128  25.881  1.00  0.00     0.225 C 
ATOM     10  C   UNL A   1      46.874  25.903  26.144  1.00  0.00     0.048 A 
ATOM     11  C   UNL A   1      44.600  25.453  26.800  1.00  0.00     0.026 A 
ATOM     12  O   UNL A   1      48.777  28.877  25.896  1.00  0.00    -0.275 OA
ATOM     13  N   UNL A   1      47.942  26.782  26.009  1.00  0.00    -0.326 N 
ATOM     14  C   UNL A   1      47.123  24.545  26.027  1.00  0.00     0.073 A 
ATOM     15  H   UNL A   1      48.854  26.407  26.004  1.00  0.00     0.169 HD
ATOM     16  C   UNL A   1      46.081  23.653  26.211  1.00  0.00     0.132 A 
BRANCH   6  17
ATOM     17  C   UNL A   1      44.775  28.655  27.412  1.00  0.00    -0.040 A 
ATOM     18  C   UNL A   1      44.020  30.658  29.194  1.00  0.00     0.082 A 
ATOM     19  C   UNL A   1      43.224  30.398  28.080  1.00  0.00     0.022 A 
ATOM     20  C   UNL A   1      45.114  29.845  29.496  1.00  0.00     0.022 A 
ATOM     21  C   UNL A   1      43.569  29.361  27.231  1.00  0.00     0.006 A 
ATOM     22  C   UNL A   1      45.499  28.848  28.595  1.00  0.00     0.006 A 
BRANCH  18  23
ATOM     23  S   UNL A   1      43.730  32.157  30.087  1.00  0.00     0.240 S 
ATOM     24  O   UNL A   1      44.372  33.245  29.375  1.00  0.00    -0.207 OA
ATOM     25  O   UNL A   1      43.983  31.920  31.488  1.00  0.00    -0.207 OA
BRANCH  23  26
ATOM     26  N   UNL A   1      42.067  32.361  29.944  1.00  0.00    -0.214 NA
ATOM     27  C   UNL A   1      41.538  33.718  29.894  1.00  0.00     0.120 C 
ATOM     28  H   UNL A   1      41.779  31.894  29.084  1.00  0.00     0.141 HD
ENDBRANCH  23  26
ENDBRANCH  18  23
ENDBRANCH   6  17
BRANCH  16  29
ATOM     29  O   UNL A   1      46.318  22.389  25.786  1.00  0.00    -0.507 OA
ATOM     30  H   UNL A   1      46.608  21.737  26.393  1.00  0.00     0.293 HD
ENDBRANCH  16  29
ENDBRANCH   3   5
ENDBRANCH   2   3
ENDBRANCH   1   2
BRANCH   1  31
ATOM     31  C   UNL A   1      41.646  21.950  26.194  1.00  0.00     0.275 C 
BRANCH  31  32
ATOM     32  O   UNL A   1      41.033  23.158  25.698  1.00  0.00    -0.458 OA
BRANCH  32  33
ATOM     33  C   UNL A   1      39.814  23.420  26.222  1.00  0.00     0.338 C 
ATOM     34  O   UNL A   1      38.864  22.649  26.256  1.00  0.00    -0.246 OA
BRANCH  33  35
ATOM     35  C   UNL A   1      39.769  24.721  26.917  1.00  0.00     0.060 A 
ATOM     36  C   UNL A   1      40.646  25.731  26.522  1.00  0.00     0.016 A 
ATOM     37  C   UNL A   1      39.111  24.807  28.144  1.00  0.00     0.016 A 
ATOM     38  C   UNL A   1      40.974  26.743  27.428  1.00  0.00     0.010 A 
ATOM     39  C   UNL A   1      39.333  25.908  28.980  1.00  0.00     0.010 A 
ATOM     40  C   UNL A   1      40.303  26.873  28.659  1.00  0.00    -0.014 A 
BRANCH  40  41
ATOM     41  C   UNL A   1      40.597  28.011  29.592  1.00  0.00     0.031 A 
ATOM     42  C   UNL A   1      41.789  27.978  30.530  1.00  0.00     0.074 A 
ATOM     43  C   UNL A   1      39.766  29.074  29.635  1.00  0.00     0.049 A 
ATOM     44  N   UNL A   1      42.052  28.745  31.560  1.00  0.00    -0.248 NA
ATOM     45  C   UNL A   1      42.807  26.941  30.294  1.00  0.00     0.031 C 
ATOM     46  C   UNL A   1      38.590  29.270  28.784  1.00  0.00     0.029 A 
ATOM     47  N   UNL A   1      39.773  30.193  30.435  1.00  0.00    -0.354 N 
ATOM     48  C   UNL A   1      43.216  28.241  32.137  1.00  0.00     0.074 A 
ATOM     49  C   UNL A   1      43.620  27.109  31.331  1.00  0.00     0.031 C 
ATOM     50  C   UNL A   1      38.020  30.448  29.069  1.00  0.00     0.029 A 
ATOM     51  C   UNL A   1      38.709  31.038  30.208  1.00  0.00     0.049 A 
ATOM     52  H   UNL A   1      40.472  30.374  31.105  1.00  0.00     0.167 HD
ATOM     53  C   UNL A   1      43.879  28.679  33.238  1.00  0.00     0.037 A 
ATOM     54  C   UNL A   1      38.278  32.127  30.872  1.00  0.00     0.037 A 
ATOM     55  C   UNL A   1      43.516  29.858  33.989  1.00  0.00     0.049 A 
ATOM     56  C   UNL A   1      39.018  32.579  32.097  1.00  0.00     0.074 A 
ATOM     57  C   UNL A   1      44.162  30.413  35.082  1.00  0.00     0.029 A 
ATOM     58  N   UNL A   1      42.424  30.670  33.722  1.00  0.00    -0.354 N 
ATOM     59  N   UNL A   1      40.092  32.067  32.645  1.00  0.00    -0.248 NA
ATOM     60  C   UNL A   1      38.472  33.743  32.808  1.00  0.00     0.031 C 
ATOM     61  C   UNL A   1      43.435  31.530  35.505  1.00  0.00     0.029 A 
ATOM     62  C   UNL A   1      42.365  31.704  34.644  1.00  0.00     0.049 A 
ATOM     63  H   UNL A   1      41.784  30.532  32.986  1.00  0.00     0.167 HD
ATOM     64  C   UNL A   1      40.363  32.859  33.755  1.00  0.00     0.074 A 
ATOM     65  C   UNL A   1      39.349  33.893  33.790  1.00  0.00     0.031 C 
ATOM     66  C   UNL A   1      41.358  32.735  34.665  1.00  0.00     0.037 A 
BRANCH  53  67
ATOM     67  C   UNL A   1      45.052  27.877  33.744  1.00  0.00     0.058 A 
ATOM     68  C   UNL A   1      44.903  26.804  34.636  1.00  0.00     0.135 A 
ATOM     69  C   UNL A   1      46.340  28.128  33.239  1.00  0.00     0.135 A 
ATOM     70  F   UNL A   1      43.699  26.520  35.157  1.00  0.00    -0.206 F 
ATOM     71  C   UNL A   1      45.989  26.019  35.020  1.00  0.00     0.059 A 
ATOM     72  C   UNL A   1      47.436  27.341  33.589  1.00  0.00     0.059 A 
ATOM     73  F   UNL A   1      46.543  29.136  32.377  1.00  0.00    -0.206 F 
ATOM     74  C   UNL A   1      47.251  26.293  34.488  1.00  0.00     0.060 A 
BRANCH  74  75
ATOM     75  S   UNL A   1      48.645  25.249  34.972  1.00  0.00     0.124 S 
ATOM     76  O   UNL A   1      49.044  25.864  36.235  1.00  0.00    -0.237 OA
ATOM     77  O   UNL A   1      48.027  23.931  35.077  1.00  0.00    -0.237 OA
ATOM     78  O   UNL A   1      49.590  25.408  33.872  1.00  0.00    -0.744 OA
ENDBRANCH  74  75
ENDBRANCH  53  67
BRANCH  54  79
ATOM     79  C   UNL A   1      37.044  32.827  30.426  1.00  0.00     0.058 A 
ATOM     80  C   UNL A   1      35.799  32.536  31.002  1.00  0.00     0.135 A 
ATOM     81  C   UNL A   1      37.085  33.807  29.420  1.00  0.00     0.135 A 
ATOM     82  F   UNL A   1      35.707  31.601  31.961  1.00  0.00    -0.206 F 
ATOM     83  C   UNL A   1      34.636  33.175  30.585  1.00  0.00     0.059 A 
ATOM     84  C   UNL A   1      35.942  34.484  29.011  1.00  0.00     0.059 A 
ATOM     85  F   UNL A   1      38.254  34.135  28.847  1.00  0.00    -0.206 F 
ATOM     86  C   UNL A   1      34.719  34.148  29.588  1.00  0.00     0.060 A 
BRANCH  86  87
ATOM     87  S   UNL A   1      33.212  34.997  29.070  1.00  0.00     0.124 S 
ATOM     88  O   UNL A   1      32.467  35.055  30.322  1.00  0.00    -0.237 OA
ATOM     89  O   UNL A   1      33.728  36.269  28.574  1.00  0.00    -0.237 OA
ATOM     90  O   UNL A   1      32.664  34.111  28.048  1.00  0.00    -0.744 OA
ENDBRANCH  86  87
ENDBRANCH  54  79
BRANCH  66  91
ATOM     91  C   UNL A   1      41.428  33.772  35.751  1.00  0.00     0.058 A 
ATOM     92  C   UNL A   1      40.755  33.609  36.972  1.00  0.00     0.135 A 
ATOM     93  C   UNL A   1      42.196  34.934  35.574  1.00  0.00     0.135 A 
ATOM     94  F   UNL A   1      39.998  32.522  37.187  1.00  0.00    -0.206 F 
ATOM     95  C   UNL A   1      40.822  34.574  37.972  1.00  0.00     0.059 A 
ATOM     96  C   UNL A   1      42.298  35.899  36.570  1.00  0.00     0.059 A 
ATOM     97  F   UNL A   1      42.863  35.136  34.427  1.00  0.00    -0.206 F 
ATOM     98  C   UNL A   1      41.597  35.717  37.761  1.00  0.00     0.060 A 
BRANCH  98  99
ATOM     99  S   UNL A   1      41.696  36.951  39.076  1.00  0.00     0.124 S 
ATOM    100  O   UNL A   1      42.754  37.824  38.580  1.00  0.00    -0.237 OA
ATOM    101  O   UNL A   1      40.351  37.520  39.073  1.00  0.00    -0.237 OA
ATOM    102  O   UNL A   1      42.034  36.162  40.256  1.00  0.00    -0.744 OA
ENDBRANCH  98  99
ENDBRANCH  66  91
ENDBRANCH  40  41
ENDBRANCH  33  35
ENDBRANCH  32  33
ENDBRANCH  31  32
ENDBRANCH   1  31
TORSDOF 18
ENDMDL
MODEL 3
REMARK VINA RESULT:     -11.6      6.641     13.439
REMARK SMILES CNS(=O)(=O)c1ccc([C@H]2CC(=O)Nc3cc(O)c(C(=O)OCCOC(=O)c4ccc(-c5c6nc(c(-c7c(F)cc(S(=O)(=O)[O-])cc7F)c7ccc([nH]7)c(-c7c(F)cc(S(=O)(=O)[O-])cc7F)c7nc(c(-c8c(F)cc(S(=O)(=O)[O-])cc8F)c8ccc5[nH]8)C=C7)C=C6)cc4)cc32)cc1
REMARK SMILES IDX 23 1 22 2 20 3 21 4 19 5 10 6 11 7 95 8 12 9 15 10 94 11
REMARK SMILES IDX 13 12 14 13 16 14 17 16 9 17 6 18 7 19 97 20 8 21 96 22 3 23
REMARK SMILES IDX 4 24 5 25 2 26 1 27 18 29 24 31 25 32 26 33 27 34 28 35
REMARK SMILES IDX 29 36 93 37 30 38 92 39 31 40 32 41 33 42 86 43 34 44 91 45
REMARK SMILES IDX 85 46 87 47 35 48 90 49 84 50 83 51 36 53 70 54 49 55 69 56
REMARK SMILES IDX 50 57 53 58 68 59 88 60 51 61 52 62 67 64 89 65 54 66 37 67
REMARK SMILES IDX 38 68 47 69 39 70 40 71 46 72 48 73 41 74 42 75 43 76 44 77
REMARK SMILES IDX 45 78 71 79 72 80 81 81 73 82 74 83 80 84 82 85 75 86 76 87
REMARK SMILES IDX 77 88 78 89 79 90 55 91 56 92 65 93 57 94 58 95 64 96 66 97
REMARK SMILES IDX 59 98 60 99 61 100 62 101 63 102
REMARK H PARENT 14 15 2 28 18 30 87 52 53 63
REMARK Flexibility Score: inf
ROOT
ATOM      1  C   UNL A   1      40.116  21.549  26.971  1.00  0.00     0.275 C 
ENDROOT
BRANCH   1   2
ATOM      2  O   UNL A   1      41.499  21.681  27.373  1.00  0.00    -0.458 OA
BRANCH   2   3
ATOM      3  C   UNL A   1      42.388  21.618  26.357  1.00  0.00     0.342 C 
ATOM      4  O   UNL A   1      42.560  20.683  25.591  1.00  0.00    -0.246 OA
BRANCH   3   5
ATOM      5  C   UNL A   1      43.180  22.856  26.238  1.00  0.00     0.102 A 
ATOM      6  C   UNL A   1      44.711  25.481  28.554  1.00  0.00     0.061 C 
ATOM      7  C   UNL A   1      45.788  26.544  28.228  1.00  0.00     0.113 C 
ATOM      8  C   UNL A   1      44.519  24.500  27.420  1.00  0.00    -0.015 A 
ATOM      9  C   UNL A   1      46.941  26.050  27.400  1.00  0.00     0.225 C 
ATOM     10  C   UNL A   1      45.405  24.504  26.335  1.00  0.00     0.048 A 
ATOM     11  C   UNL A   1      43.444  23.593  27.397  1.00  0.00     0.026 A 
ATOM     12  O   UNL A   1      48.071  26.521  27.499  1.00  0.00    -0.275 OA
ATOM     13  N   UNL A   1      46.619  25.176  26.410  1.00  0.00    -0.326 N 
ATOM     14  C   UNL A   1      45.102  23.829  25.163  1.00  0.00     0.073 A 
ATOM     15  H   UNL A   1      47.286  25.011  25.703  1.00  0.00     0.169 HD
ATOM     16  C   UNL A   1      43.921  23.111  25.090  1.00  0.00     0.132 A 
BRANCH   6  17
ATOM     17  C   UNL A   1      44.936  24.950  29.964  1.00  0.00    -0.040 A 
ATOM     18  C   UNL A   1      44.717  24.199  32.636  1.00  0.00     0.082 A 
ATOM     19  C   UNL A   1      44.015  23.487  31.666  1.00  0.00     0.022 A 
ATOM     20  C   UNL A   1      45.625  25.196  32.275  1.00  0.00     0.022 A 
ATOM     21  C   UNL A   1      44.175  23.823  30.333  1.00  0.00     0.006 A 
ATOM     22  C   UNL A   1      45.725  25.580  30.934  1.00  0.00     0.006 A 
BRANCH  18  23
ATOM     23  S   UNL A   1      44.273  23.949  34.330  1.00  0.00     0.240 S 
ATOM     24  O   UNL A   1      43.057  24.692  34.599  1.00  0.00    -0.207 OA
ATOM     25  O   UNL A   1      45.451  24.111  35.149  1.00  0.00    -0.207 OA
BRANCH  23  26
ATOM     26  N   UNL A   1      43.894  22.312  34.379  1.00  0.00    -0.214 NA
ATOM     27  C   UNL A   1      44.849  21.398  34.992  1.00  0.00     0.120 C 
ATOM     28  H   UNL A   1      43.017  22.220  34.893  1.00  0.00     0.141 HD
ENDBRANCH  23  26
ENDBRANCH  18  23
ENDBRANCH   6  17
BRANCH  16  29
ATOM     29  O   UNL A   1      43.544  22.739  23.843  1.00  0.00    -0.507 OA
ATOM     30  H   UNL A   1      42.638  22.746  23.606  1.00  0.00     0.293 HD
ENDBRANCH  16  29
ENDBRANCH   3   5
ENDBRANCH   2   3
ENDBRANCH   1   2
BRANCH   1  31
ATOM     31  C   UNL A   1      39.761  22.645  25.970  1.00  0.00     0.275 C 
BRANCH  31  32
ATOM     32  O   UNL A   1      39.409  23.858  26.667  1.00  0.00    -0.458 OA
BRANCH  32  33
ATOM     33  C   UNL A   1      40.248  24.894  26.439  1.00  0.00     0.338 C 
ATOM     34  O   UNL A   1      40.647  25.271  25.345  1.00  0.00    -0.246 OA
BRANCH  33  35
ATOM     35  C   UNL A   1      40.538  25.662  27.665  1.00  0.00     0.060 A 
ATOM     36  C   UNL A   1      39.637  25.606  28.729  1.00  0.00     0.016 A 
ATOM     37  C   UNL A   1      41.500  26.671  27.617  1.00  0.00     0.016 A 
ATOM     38  C   UNL A   1      39.610  26.651  29.656  1.00  0.00     0.010 A 
ATOM     39  C   UNL A   1      41.560  27.629  28.637  1.00  0.00     0.010 A 
ATOM     40  C   UNL A   1      40.587  27.664  29.651  1.00  0.00    -0.014 A 
BRANCH  40  41
ATOM     41  C   UNL A   1      40.605  28.738  30.699  1.00  0.00     0.031 A 
ATOM     42  C   UNL A   1      41.577  28.693  31.862  1.00  0.00     0.074 A 
ATOM     43  C   UNL A   1      39.713  29.750  30.637  1.00  0.00     0.049 A 
ATOM     44  N   UNL A   1      41.571  29.389  32.973  1.00  0.00    -0.248 NA
ATOM     45  C   UNL A   1      42.689  27.733  31.777  1.00  0.00     0.031 C 
ATOM     46  C   UNL A   1      38.726  29.950  29.571  1.00  0.00     0.029 A 
ATOM     47  N   UNL A   1      39.479  30.801  31.492  1.00  0.00    -0.354 N 
ATOM     48  C   UNL A   1      42.622  28.903  33.747  1.00  0.00     0.074 A 
ATOM     49  C   UNL A   1      43.259  27.861  32.970  1.00  0.00     0.031 C 
ATOM     50  C   UNL A   1      38.032  31.070  29.808  1.00  0.00     0.029 A 
ATOM     51  C   UNL A   1      38.430  31.604  31.103  1.00  0.00     0.049 A 
ATOM     52  H   UNL A   1      40.012  30.964  32.304  1.00  0.00     0.167 HD
ATOM     53  C   UNL A   1      43.013  29.287  34.989  1.00  0.00     0.037 A 
ATOM     54  C   UNL A   1      37.799  32.614  31.732  1.00  0.00     0.037 A 
ATOM     55  C   UNL A   1      42.424  30.382  35.723  1.00  0.00     0.049 A 
ATOM     56  C   UNL A   1      38.238  33.005  33.113  1.00  0.00     0.074 A 
ATOM     57  C   UNL A   1      42.792  30.882  36.962  1.00  0.00     0.029 A 
ATOM     58  N   UNL A   1      41.358  31.155  35.287  1.00  0.00    -0.354 N 
ATOM     59  N   UNL A   1      39.209  32.508  33.839  1.00  0.00    -0.248 NA
ATOM     60  C   UNL A   1      37.480  34.079  33.769  1.00  0.00     0.031 C 
ATOM     61  C   UNL A   1      41.920  31.923  37.296  1.00  0.00     0.029 A 
ATOM     62  C   UNL A   1      41.041  32.108  36.243  1.00  0.00     0.049 A 
ATOM     63  H   UNL A   1      40.894  31.042  34.426  1.00  0.00     0.167 HD
ATOM     64  C   UNL A   1      39.191  33.223  35.031  1.00  0.00     0.074 A 
ATOM     65  C   UNL A   1      38.124  34.197  34.921  1.00  0.00     0.031 C 
ATOM     66  C   UNL A   1      39.984  33.080  36.120  1.00  0.00     0.037 A 
BRANCH  53  67
ATOM     67  C   UNL A   1      44.108  28.510  35.676  1.00  0.00     0.058 A 
ATOM     68  C   UNL A   1      45.466  28.838  35.540  1.00  0.00     0.135 A 
ATOM     69  C   UNL A   1      43.776  27.478  36.573  1.00  0.00     0.135 A 
ATOM     70  F   UNL A   1      45.844  29.809  34.694  1.00  0.00    -0.206 F 
ATOM     71  C   UNL A   1      46.454  28.165  36.256  1.00  0.00     0.059 A 
ATOM     72  C   UNL A   1      44.745  26.809  37.318  1.00  0.00     0.059 A 
ATOM     73  F   UNL A   1      42.494  27.125  36.751  1.00  0.00    -0.206 F 
ATOM     74  C   UNL A   1      46.084  27.154  37.145  1.00  0.00     0.060 A 
BRANCH  74  75
ATOM     75  S   UNL A   1      47.373  26.309  38.088  1.00  0.00     0.124 S 
ATOM     76  O   UNL A   1      47.456  25.031  37.387  1.00  0.00    -0.237 OA
ATOM     77  O   UNL A   1      48.518  27.198  37.919  1.00  0.00    -0.237 OA
ATOM     78  O   UNL A   1      46.825  26.248  39.439  1.00  0.00    -0.744 OA
ENDBRANCH  74  75
ENDBRANCH  53  67
BRANCH  54  79
ATOM     79  C   UNL A   1      36.638  33.281  31.084  1.00  0.00     0.058 A 
ATOM     80  C   UNL A   1      36.818  34.160  30.006  1.00  0.00     0.135 A 
ATOM     81  C   UNL A   1      35.325  33.048  31.525  1.00  0.00     0.135 A 
ATOM     82  F   UNL A   1      38.055  34.422  29.555  1.00  0.00    -0.206 F 
ATOM     83  C   UNL A   1      35.742  34.799  29.401  1.00  0.00     0.059 A 
ATOM     84  C   UNL A   1      34.230  33.648  30.914  1.00  0.00     0.059 A 
ATOM     85  F   UNL A   1      35.096  32.203  32.543  1.00  0.00    -0.206 F 
ATOM     86  C   UNL A   1      34.451  34.536  29.863  1.00  0.00     0.060 A 
BRANCH  86  87
ATOM     87  S   UNL A   1      33.054  35.345  29.054  1.00  0.00     0.124 S 
ATOM     88  O   UNL A   1      32.616  34.309  28.126  1.00  0.00    -0.237 OA
ATOM     89  O   UNL A   1      32.161  35.615  30.177  1.00  0.00    -0.237 OA
ATOM     90  O   UNL A   1      33.658  36.526  28.446  1.00  0.00    -0.744 OA
ENDBRANCH  86  87
ENDBRANCH  54  79
BRANCH  66  91
ATOM     91  C   UNL A   1      39.758  34.030  37.263  1.00  0.00     0.058 A 
ATOM     92  C   UNL A   1      39.078  33.638  38.426  1.00  0.00     0.135 A 
ATOM     93  C   UNL A   1      40.249  35.344  37.200  1.00  0.00     0.135 A 
ATOM     94  F   UNL A   1      38.578  32.396  38.531  1.00  0.00    -0.206 F 
ATOM     95  C   UNL A   1      38.871  34.524  39.478  1.00  0.00     0.059 A 
ATOM     96  C   UNL A   1      40.076  36.238  38.251  1.00  0.00     0.059 A 
ATOM     97  F   UNL A   1      40.911  35.768  36.112  1.00  0.00    -0.206 F 
ATOM     98  C   UNL A   1      39.374  35.823  39.382  1.00  0.00     0.060 A 
BRANCH  98  99
ATOM     99  S   UNL A   1      39.120  36.955  40.765  1.00  0.00     0.124 S 
ATOM    100  O   UNL A   1      38.318  38.004  40.143  1.00  0.00    -0.237 OA
ATOM    101  O   UNL A   1      38.423  36.115  41.734  1.00  0.00    -0.237 OA
ATOM    102  O   UNL A   1      40.477  37.342  41.140  1.00  0.00    -0.744 OA
ENDBRANCH  98  99
ENDBRANCH  66  91
ENDBRANCH  40  41
ENDBRANCH  33  35
ENDBRANCH  32  33
ENDBRANCH  31  32
ENDBRANCH   1  31
TORSDOF 18
ENDMDL
