MODEL 1
REMARK VINA RESULT:     -11.5      0.000      0.000
REMARK SMILES CCCCc1ncc(C[N@H+]2C[C@@H]3c4ccccc4OC[C@]3(C(=O)OCCOC(=O)c3ccc(-c4c5nc(c(-c6c(F)cc(S(=O)(=O)[O-])cc6F)c6ccc([nH]6)c(-c6c(F)cc(S(=O)(=O)[O-])cc6F)c6nc(c(-c7c(F)cc(S(=O)(=O)[O-])cc7F)c7ccc4[nH]7)C=C6)C=C5)cc3)C2)[nH]1
REMARK SMILES IDX 25 1 24 2 22 3 23 4 21 5 10 6 11 7 96 8 12 10 13 11 20 12
REMARK SMILES IDX 14 13 18 14 19 15 15 16 17 17 16 18 9 19 8 20 5 21 6 22
REMARK SMILES IDX 97 23 7 24 4 26 3 27 2 28 1 29 26 30 27 31 28 32 29 33 30 34
REMARK SMILES IDX 31 35 95 36 32 37 94 38 33 39 34 40 35 41 88 42 36 43 93 44
REMARK SMILES IDX 87 45 89 46 37 47 92 48 86 49 85 50 38 52 72 53 51 54 71 55
REMARK SMILES IDX 52 56 55 57 70 58 90 59 53 60 54 61 69 63 91 64 56 65 39 66
REMARK SMILES IDX 40 67 49 68 41 69 42 70 48 71 50 72 43 73 44 74 45 75 46 76
REMARK SMILES IDX 47 77 73 78 74 79 83 80 75 81 76 82 82 83 84 84 77 85 78 86
REMARK SMILES IDX 79 87 80 88 81 89 57 90 58 91 67 92 59 93 60 94 66 95 68 96
REMARK SMILES IDX 61 97 62 98 63 99 64 100 65 101
REMARK H PARENT 10 9 97 25 89 51 55 62
REMARK Flexibility Score: inf
ROOT
ATOM      1  C   UNL A   1      33.603  26.786  25.880  1.00  0.00     0.274 C 
ENDROOT
BRANCH   1   2
ATOM      2  O   UNL A   1      32.502  26.061  25.290  1.00  0.00    -0.461 OA
BRANCH   2   3
ATOM      3  C   UNL A   1      32.333  24.746  25.656  1.00  0.00     0.322 C 
ATOM      4  O   UNL A   1      31.973  24.381  26.753  1.00  0.00    -0.251 OA
BRANCH   3   5
ATOM      5  C   UNL A   1      32.590  23.861  24.439  1.00  0.00     0.162 C 
ATOM      6  N   UNL A   1      32.385  24.346  22.054  1.00  0.00    -0.328 N 
ATOM      7  C   UNL A   1      33.658  23.678  22.305  1.00  0.00     0.272 C 
ATOM      8  C   UNL A   1      31.695  24.474  23.335  1.00  0.00     0.286 C 
ATOM      9  H   UNL A   1      31.825  23.766  21.431  1.00  0.00     0.348 HD
ATOM     10  C   UNL A   1      33.974  23.917  23.790  1.00  0.00     0.105 C 
ATOM     11  C   UNL A   1      34.937  22.860  24.236  1.00  0.00     0.004 A 
ATOM     12  C   UNL A   1      32.196  22.439  24.893  1.00  0.00     0.255 C 
ATOM     13  C   UNL A   1      36.313  22.983  23.981  1.00  0.00     0.008 A 
ATOM     14  C   UNL A   1      34.457  21.666  24.758  1.00  0.00     0.123 A 
ATOM     15  O   UNL A   1      33.133  21.368  24.807  1.00  0.00    -0.492 OA
ATOM     16  C   UNL A   1      37.189  21.941  24.296  1.00  0.00     0.001 A 
ATOM     17  C   UNL A   1      35.336  20.644  25.120  1.00  0.00     0.047 A 
ATOM     18  C   UNL A   1      36.704  20.782  24.895  1.00  0.00     0.004 A 
BRANCH   6  19
ATOM     19  C   UNL A   1      32.450  25.565  21.244  1.00  0.00     0.319 C 
BRANCH  19  20
ATOM     20  C   UNL A   1      32.309  26.854  21.980  1.00  0.00     0.090 A 
ATOM     21  C   UNL A   1      31.430  28.543  23.138  1.00  0.00     0.106 A 
ATOM     22  N   UNL A   1      32.708  28.835  22.997  1.00  0.00    -0.241 NA
ATOM     23  N   UNL A   1      31.136  27.369  22.477  1.00  0.00    -0.341 N 
ATOM     24  C   UNL A   1      33.256  27.806  22.289  1.00  0.00     0.140 A 
ATOM     25  H   UNL A   1      30.241  26.970  22.379  1.00  0.00     0.168 HD
BRANCH  21  26
ATOM     26  C   UNL A   1      30.446  29.392  23.885  1.00  0.00     0.075 C 
BRANCH  26  27
ATOM     27  C   UNL A   1      29.488  30.233  23.044  1.00  0.00     0.008 C 
BRANCH  27  28
ATOM     28  C   UNL A   1      28.437  29.445  22.267  1.00  0.00    -0.003 C 
ATOM     29  C   UNL A   1      27.262  28.945  23.092  1.00  0.00     0.004 C 
ENDBRANCH  27  28
ENDBRANCH  26  27
ENDBRANCH  21  26
ENDBRANCH  19  20
ENDBRANCH   6  19
ENDBRANCH   3   5
ENDBRANCH   2   3
ENDBRANCH   1   2
BRANCH   1  30
ATOM     30  C   UNL A   1      33.061  28.079  26.490  1.00  0.00     0.275 C 
BRANCH  30  31
ATOM     31  O   UNL A   1      33.900  28.409  27.605  1.00  0.00    -0.458 OA
BRANCH  31  32
ATOM     32  C   UNL A   1      34.336  29.687  27.690  1.00  0.00     0.338 C 
ATOM     33  O   UNL A   1      33.689  30.694  27.455  1.00  0.00    -0.246 OA
BRANCH  32  34
ATOM     34  C   UNL A   1      35.762  29.655  28.076  1.00  0.00     0.060 A 
ATOM     35  C   UNL A   1      36.733  29.919  27.115  1.00  0.00     0.016 A 
ATOM     36  C   UNL A   1      36.144  29.334  29.383  1.00  0.00     0.016 A 
ATOM     37  C   UNL A   1      38.080  29.753  27.445  1.00  0.00     0.010 A 
ATOM     38  C   UNL A   1      37.487  29.242  29.732  1.00  0.00     0.010 A 
ATOM     39  C   UNL A   1      38.467  29.388  28.749  1.00  0.00    -0.014 A 
BRANCH  39  40
ATOM     40  C   UNL A   1      39.890  29.110  29.060  1.00  0.00     0.031 A 
ATOM     41  C   UNL A   1      40.493  27.769  28.725  1.00  0.00     0.074 A 
ATOM     42  C   UNL A   1      40.642  30.084  29.603  1.00  0.00     0.049 A 
ATOM     43  N   UNL A   1      41.744  27.388  28.795  1.00  0.00    -0.248 NA
ATOM     44  C   UNL A   1      39.577  26.712  28.265  1.00  0.00     0.031 C 
ATOM     45  C   UNL A   1      40.141  31.394  30.026  1.00  0.00     0.029 A 
ATOM     46  N   UNL A   1      41.988  30.142  29.860  1.00  0.00    -0.354 N 
ATOM     47  C   UNL A   1      41.763  26.059  28.382  1.00  0.00     0.074 A 
ATOM     48  C   UNL A   1      40.392  25.675  28.133  1.00  0.00     0.031 C 
ATOM     49  C   UNL A   1      41.176  32.151  30.422  1.00  0.00     0.029 A 
ATOM     50  C   UNL A   1      42.405  31.372  30.309  1.00  0.00     0.049 A 
ATOM     51  H   UNL A   1      42.594  29.378  29.735  1.00  0.00     0.167 HD
ATOM     52  C   UNL A   1      42.829  25.246  28.194  1.00  0.00     0.037 A 
ATOM     53  C   UNL A   1      43.645  31.826  30.573  1.00  0.00     0.037 A 
ATOM     54  C   UNL A   1      44.191  25.649  28.431  1.00  0.00     0.049 A 
ATOM     55  C   UNL A   1      44.815  30.907  30.346  1.00  0.00     0.074 A 
ATOM     56  C   UNL A   1      45.352  24.922  28.237  1.00  0.00     0.029 A 
ATOM     57  N   UNL A   1      44.573  26.893  28.912  1.00  0.00    -0.354 N 
ATOM     58  N   UNL A   1      44.821  29.675  29.894  1.00  0.00    -0.248 NA
ATOM     59  C   UNL A   1      46.147  31.442  30.658  1.00  0.00     0.031 C 
ATOM     60  C   UNL A   1      46.433  25.714  28.638  1.00  0.00     0.029 A 
ATOM     61  C   UNL A   1      45.950  26.950  29.040  1.00  0.00     0.049 A 
ATOM     62  H   UNL A   1      43.955  27.627  29.133  1.00  0.00     0.167 HD
ATOM     63  C   UNL A   1      46.155  29.288  29.861  1.00  0.00     0.074 A 
ATOM     64  C   UNL A   1      46.929  30.430  30.309  1.00  0.00     0.031 C 
ATOM     65  C   UNL A   1      46.694  28.096  29.502  1.00  0.00     0.037 A 
BRANCH  52  66
ATOM     66  C   UNL A   1      42.568  23.852  27.685  1.00  0.00     0.058 A 
ATOM     67  C   UNL A   1      42.489  23.577  26.309  1.00  0.00     0.135 A 
ATOM     68  C   UNL A   1      42.437  22.771  28.571  1.00  0.00     0.135 A 
ATOM     69  F   UNL A   1      42.593  24.572  25.413  1.00  0.00    -0.206 F 
ATOM     70  C   UNL A   1      42.264  22.289  25.832  1.00  0.00     0.059 A 
ATOM     71  C   UNL A   1      42.238  21.469  28.117  1.00  0.00     0.059 A 
ATOM     72  F   UNL A   1      42.504  22.972  29.897  1.00  0.00    -0.206 F 
ATOM     73  C   UNL A   1      42.142  21.240  26.745  1.00  0.00     0.060 A 
BRANCH  73  74
ATOM     74  S   UNL A   1      41.860  19.575  26.104  1.00  0.00     0.124 S 
ATOM     75  O   UNL A   1      42.690  19.580  24.902  1.00  0.00    -0.237 OA
ATOM     76  O   UNL A   1      42.337  18.737  27.198  1.00  0.00    -0.237 OA
ATOM     77  O   UNL A   1      40.420  19.538  25.869  1.00  0.00    -0.744 OA
ENDBRANCH  73  74
ENDBRANCH  52  66
BRANCH  53  78
ATOM     78  C   UNL A   1      43.837  33.228  31.032  1.00  0.00     0.058 A 
ATOM     79  C   UNL A   1      43.879  34.288  30.114  1.00  0.00     0.135 A 
ATOM     80  C   UNL A   1      43.942  33.541  32.396  1.00  0.00     0.135 A 
ATOM     81  F   UNL A   1      43.787  34.042  28.798  1.00  0.00    -0.206 F 
ATOM     82  C   UNL A   1      44.027  35.608  30.531  1.00  0.00     0.059 A 
ATOM     83  C   UNL A   1      44.063  34.854  32.839  1.00  0.00     0.059 A 
ATOM     84  F   UNL A   1      43.889  32.565  33.315  1.00  0.00    -0.206 F 
ATOM     85  C   UNL A   1      44.112  35.881  31.897  1.00  0.00     0.060 A 
BRANCH  85  86
ATOM     86  S   UNL A   1      44.244  37.603  32.427  1.00  0.00     0.124 S 
ATOM     87  O   UNL A   1      45.598  37.643  32.966  1.00  0.00    -0.237 OA
ATOM     88  O   UNL A   1      44.031  38.323  31.177  1.00  0.00    -0.237 OA
ATOM     89  O   UNL A   1      43.171  37.735  33.410  1.00  0.00    -0.744 OA
ENDBRANCH  85  86
ENDBRANCH  53  78
BRANCH  65  90
ATOM     90  C   UNL A   1      48.189  27.967  29.589  1.00  0.00     0.058 A 
ATOM     91  C   UNL A   1      49.016  28.318  28.509  1.00  0.00     0.135 A 
ATOM     92  C   UNL A   1      48.804  27.534  30.774  1.00  0.00     0.135 A 
ATOM     93  F   UNL A   1      48.476  28.734  27.353  1.00  0.00    -0.206 F 
ATOM     94  C   UNL A   1      50.399  28.211  28.592  1.00  0.00     0.059 A 
ATOM     95  C   UNL A   1      50.188  27.449  30.888  1.00  0.00     0.059 A 
ATOM     96  F   UNL A   1      48.059  27.200  31.840  1.00  0.00    -0.206 F 
ATOM     97  C   UNL A   1      50.976  27.776  29.786  1.00  0.00     0.060 A 
BRANCH  97  98
ATOM     98  S   UNL A   1      52.774  27.661  29.880  1.00  0.00     0.124 S 
ATOM     99  O   UNL A   1      53.129  27.457  28.479  1.00  0.00    -0.237 OA
ATOM    100  O   UNL A   1      53.141  28.955  30.446  1.00  0.00    -0.237 OA
ATOM    101  O   UNL A   1      52.996  26.514  30.757  1.00  0.00    -0.744 OA
ENDBRANCH  97  98
ENDBRANCH  65  90
ENDBRANCH  39  40
ENDBRANCH  32  34
ENDBRANCH  31  32
ENDBRANCH  30  31
ENDBRANCH   1  30
TORSDOF 19
ENDMDL
MODEL 2
REMARK VINA RESULT:     -11.4      3.509      9.415
REMARK SMILES CCCCc1ncc(C[N@H+]2C[C@@H]3c4ccccc4OC[C@]3(C(=O)OCCOC(=O)c3ccc(-c4c5nc(c(-c6c(F)cc(S(=O)(=O)[O-])cc6F)c6ccc([nH]6)c(-c6c(F)cc(S(=O)(=O)[O-])cc6F)c6nc(c(-c7c(F)cc(S(=O)(=O)[O-])cc7F)c7ccc4[nH]7)C=C6)C=C5)cc3)C2)[nH]1
REMARK SMILES IDX 25 1 24 2 22 3 23 4 21 5 10 6 11 7 96 8 12 10 13 11 20 12
REMARK SMILES IDX 14 13 18 14 19 15 15 16 17 17 16 18 9 19 8 20 5 21 6 22
REMARK SMILES IDX 97 23 7 24 4 26 3 27 2 28 1 29 26 30 27 31 28 32 29 33 30 34
REMARK SMILES IDX 31 35 95 36 32 37 94 38 33 39 34 40 35 41 88 42 36 43 93 44
REMARK SMILES IDX 87 45 89 46 37 47 92 48 86 49 85 50 38 52 72 53 51 54 71 55
REMARK SMILES IDX 52 56 55 57 70 58 90 59 53 60 54 61 69 63 91 64 56 65 39 66
REMARK SMILES IDX 40 67 49 68 41 69 42 70 48 71 50 72 43 73 44 74 45 75 46 76
REMARK SMILES IDX 47 77 73 78 74 79 83 80 75 81 76 82 82 83 84 84 77 85 78 86
REMARK SMILES IDX 79 87 80 88 81 89 57 90 58 91 67 92 59 93 60 94 66 95 68 96
REMARK SMILES IDX 61 97 62 98 63 99 64 100 65 101
REMARK H PARENT 10 9 97 25 89 51 55 62
REMARK Flexibility Score: inf
ROOT
ATOM      1  C   UNL A   1      35.084  24.562  25.096  1.00  0.00     0.274 C 
ENDROOT
BRANCH   1   2
ATOM      2  O   UNL A   1      33.871  24.134  24.440  1.00  0.00    -0.461 OA
BRANCH   2   3
ATOM      3  C   UNL A   1      33.259  25.020  23.585  1.00  0.00     0.322 C 
ATOM      4  O   UNL A   1      33.712  25.363  22.515  1.00  0.00    -0.251 OA
BRANCH   3   5
ATOM      5  C   UNL A   1      31.906  25.415  24.171  1.00  0.00     0.162 C 
ATOM      6  N   UNL A   1      30.291  24.107  25.454  1.00  0.00    -0.328 N 
ATOM      7  C   UNL A   1      30.497  25.397  26.106  1.00  0.00     0.272 C 
ATOM      8  C   UNL A   1      31.132  24.078  24.260  1.00  0.00     0.286 C 
ATOM      9  H   UNL A   1      29.314  24.031  25.175  1.00  0.00     0.348 HD
ATOM     10  C   UNL A   1      31.866  25.899  25.622  1.00  0.00     0.105 C 
ATOM     11  C   UNL A   1      31.907  27.385  25.806  1.00  0.00     0.004 A 
ATOM     12  C   UNL A   1      31.329  26.446  23.178  1.00  0.00     0.255 C 
ATOM     13  C   UNL A   1      32.205  27.950  27.057  1.00  0.00     0.008 A 
ATOM     14  C   UNL A   1      31.484  28.219  24.779  1.00  0.00     0.123 A 
ATOM     15  O   UNL A   1      30.946  27.745  23.626  1.00  0.00    -0.492 OA
ATOM     16  C   UNL A   1      32.127  29.332  27.249  1.00  0.00     0.001 A 
ATOM     17  C   UNL A   1      31.455  29.603  24.953  1.00  0.00     0.047 A 
ATOM     18  C   UNL A   1      31.782  30.163  26.187  1.00  0.00     0.004 A 
BRANCH   6  19
ATOM     19  C   UNL A   1      30.380  22.929  26.321  1.00  0.00     0.319 C 
BRANCH  19  20
ATOM     20  C   UNL A   1      31.654  22.160  26.260  1.00  0.00     0.090 A 
ATOM     21  C   UNL A   1      33.215  20.698  25.631  1.00  0.00     0.106 A 
ATOM     22  N   UNL A   1      33.754  21.394  26.612  1.00  0.00    -0.241 NA
ATOM     23  N   UNL A   1      31.911  21.096  25.427  1.00  0.00    -0.341 N 
ATOM     24  C   UNL A   1      32.807  22.293  27.004  1.00  0.00     0.140 A 
ATOM     25  H   UNL A   1      31.274  20.689  24.796  1.00  0.00     0.168 HD
BRANCH  21  26
ATOM     26  C   UNL A   1      33.921  19.611  24.877  1.00  0.00     0.075 C 
BRANCH  26  27
ATOM     27  C   UNL A   1      33.238  18.246  24.841  1.00  0.00     0.008 C 
BRANCH  27  28
ATOM     28  C   UNL A   1      33.299  17.520  23.500  1.00  0.00    -0.003 C 
ATOM     29  C   UNL A   1      32.499  18.162  22.379  1.00  0.00     0.004 C 
ENDBRANCH  27  28
ENDBRANCH  26  27
ENDBRANCH  21  26
ENDBRANCH  19  20
ENDBRANCH   6  19
ENDBRANCH   3   5
ENDBRANCH   2   3
ENDBRANCH   1   2
BRANCH   1  30
ATOM     30  C   UNL A   1      36.131  23.457  24.944  1.00  0.00     0.275 C 
BRANCH  30  31
ATOM     31  O   UNL A   1      37.422  24.079  25.030  1.00  0.00    -0.458 OA
BRANCH  31  32
ATOM     32  C   UNL A   1      38.374  23.425  25.734  1.00  0.00     0.338 C 
ATOM     33  O   UNL A   1      38.623  22.232  25.687  1.00  0.00    -0.246 OA
BRANCH  32  34
ATOM     34  C   UNL A   1      39.040  24.407  26.614  1.00  0.00     0.060 A 
ATOM     35  C   UNL A   1      38.716  24.435  27.968  1.00  0.00     0.016 A 
ATOM     36  C   UNL A   1      39.966  25.321  26.101  1.00  0.00     0.016 A 
ATOM     37  C   UNL A   1      39.240  25.450  28.772  1.00  0.00     0.010 A 
ATOM     38  C   UNL A   1      40.546  26.286  26.917  1.00  0.00     0.010 A 
ATOM     39  C   UNL A   1      40.139  26.399  28.247  1.00  0.00    -0.014 A 
BRANCH  39  40
ATOM     40  C   UNL A   1      40.604  27.534  29.081  1.00  0.00     0.031 A 
ATOM     41  C   UNL A   1      39.732  28.750  29.264  1.00  0.00     0.074 A 
ATOM     42  C   UNL A   1      41.793  27.442  29.704  1.00  0.00     0.049 A 
ATOM     43  N   UNL A   1      39.906  29.776  30.058  1.00  0.00    -0.248 NA
ATOM     44  C   UNL A   1      38.514  28.838  28.441  1.00  0.00     0.031 C 
ATOM     45  C   UNL A   1      42.743  26.339  29.541  1.00  0.00     0.029 A 
ATOM     46  N   UNL A   1      42.391  28.265  30.622  1.00  0.00    -0.354 N 
ATOM     47  C   UNL A   1      38.822  30.620  29.837  1.00  0.00     0.074 A 
ATOM     48  C   UNL A   1      38.032  30.025  28.783  1.00  0.00     0.031 C 
ATOM     49  C   UNL A   1      43.769  26.517  30.387  1.00  0.00     0.029 A 
ATOM     50  C   UNL A   1      43.565  27.759  31.126  1.00  0.00     0.049 A 
ATOM     51  H   UNL A   1      42.017  29.133  30.893  1.00  0.00     0.167 HD
ATOM     52  C   UNL A   1      38.496  31.766  30.479  1.00  0.00     0.037 A 
ATOM     53  C   UNL A   1      44.372  28.232  32.095  1.00  0.00     0.037 A 
ATOM     54  C   UNL A   1      39.284  32.338  31.540  1.00  0.00     0.049 A 
ATOM     55  C   UNL A   1      43.983  29.502  32.802  1.00  0.00     0.074 A 
ATOM     56  C   UNL A   1      39.030  33.474  32.288  1.00  0.00     0.029 A 
ATOM     57  N   UNL A   1      40.482  31.812  32.004  1.00  0.00    -0.354 N 
ATOM     58  N   UNL A   1      42.921  30.254  32.625  1.00  0.00    -0.248 NA
ATOM     59  C   UNL A   1      44.897  29.987  33.844  1.00  0.00     0.031 C 
ATOM     60  C   UNL A   1      40.095  33.655  33.178  1.00  0.00     0.029 A 
ATOM     61  C   UNL A   1      40.989  32.609  33.016  1.00  0.00     0.049 A 
ATOM     62  H   UNL A   1      40.909  30.993  31.662  1.00  0.00     0.167 HD
ATOM     63  C   UNL A   1      43.035  31.296  33.538  1.00  0.00     0.074 A 
ATOM     64  C   UNL A   1      44.255  31.059  34.286  1.00  0.00     0.031 C 
ATOM     65  C   UNL A   1      42.214  32.357  33.735  1.00  0.00     0.037 A 
BRANCH  52  66
ATOM     66  C   UNL A   1      37.223  32.463  30.072  1.00  0.00     0.058 A 
ATOM     67  C   UNL A   1      35.987  32.129  30.651  1.00  0.00     0.135 A 
ATOM     68  C   UNL A   1      37.238  33.501  29.126  1.00  0.00     0.135 A 
ATOM     69  F   UNL A   1      35.908  31.135  31.551  1.00  0.00    -0.206 F 
ATOM     70  C   UNL A   1      34.811  32.779  30.290  1.00  0.00     0.059 A 
ATOM     71  C   UNL A   1      36.077  34.184  28.769  1.00  0.00     0.059 A 
ATOM     72  F   UNL A   1      38.388  33.865  28.540  1.00  0.00    -0.206 F 
ATOM     73  C   UNL A   1      34.866  33.808  29.349  1.00  0.00     0.060 A 
BRANCH  73  74
ATOM     74  S   UNL A   1      33.329  34.645  28.903  1.00  0.00     0.124 S 
ATOM     75  O   UNL A   1      33.830  35.887  28.323  1.00  0.00    -0.237 OA
ATOM     76  O   UNL A   1      32.726  33.706  27.964  1.00  0.00    -0.237 OA
ATOM     77  O   UNL A   1      32.634  34.787  30.179  1.00  0.00    -0.744 OA
ENDBRANCH  73  74
ENDBRANCH  52  66
BRANCH  53  78
ATOM     78  C   UNL A   1      45.591  27.473  32.479  1.00  0.00     0.058 A 
ATOM     79  C   UNL A   1      45.538  26.470  33.459  1.00  0.00     0.135 A 
ATOM     80  C   UNL A   1      46.823  27.704  31.849  1.00  0.00     0.135 A 
ATOM     81  F   UNL A   1      44.385  26.212  34.095  1.00  0.00    -0.206 F 
ATOM     82  C   UNL A   1      46.665  25.730  33.807  1.00  0.00     0.059 A 
ATOM     83  C   UNL A   1      47.957  26.960  32.159  1.00  0.00     0.059 A 
ATOM     84  F   UNL A   1      46.923  28.640  30.892  1.00  0.00    -0.206 F 
ATOM     85  C   UNL A   1      47.869  25.979  33.146  1.00  0.00     0.060 A 
BRANCH  85  86
ATOM     86  S   UNL A   1      49.308  24.971  33.564  1.00  0.00     0.124 S 
ATOM     87  O   UNL A   1      49.950  24.820  32.263  1.00  0.00    -0.237 OA
ATOM     88  O   UNL A   1      50.004  25.818  34.526  1.00  0.00    -0.237 OA
ATOM     89  O   UNL A   1      48.717  23.756  34.120  1.00  0.00    -0.744 OA
ENDBRANCH  85  86
ENDBRANCH  53  78
BRANCH  65  90
ATOM     90  C   UNL A   1      42.615  33.344  34.796  1.00  0.00     0.058 A 
ATOM     91  C   UNL A   1      42.200  33.192  36.128  1.00  0.00     0.135 A 
ATOM     92  C   UNL A   1      43.456  34.425  34.488  1.00  0.00     0.135 A 
ATOM     93  F   UNL A   1      41.392  32.177  36.472  1.00  0.00    -0.206 F 
ATOM     94  C   UNL A   1      42.579  34.096  37.113  1.00  0.00     0.059 A 
ATOM     95  C   UNL A   1      43.872  35.324  35.464  1.00  0.00     0.059 A 
ATOM     96  F   UNL A   1      43.892  34.608  33.232  1.00  0.00    -0.206 F 
ATOM     97  C   UNL A   1      43.416  35.159  36.771  1.00  0.00     0.060 A 
BRANCH  97  98
ATOM     98  S   UNL A   1      43.913  36.314  38.066  1.00  0.00     0.124 S 
ATOM     99  O   UNL A   1      43.643  35.536  39.272  1.00  0.00    -0.237 OA
ATOM    100  O   UNL A   1      45.321  36.541  37.759  1.00  0.00    -0.237 OA
ATOM    101  O   UNL A   1      43.037  37.462  37.852  1.00  0.00    -0.744 OA
ENDBRANCH  97  98
ENDBRANCH  65  90
ENDBRANCH  39  40
ENDBRANCH  32  34
ENDBRANCH  31  32
ENDBRANCH  30  31
ENDBRANCH   1  30
TORSDOF 19
ENDMDL
MODEL 3
REMARK VINA RESULT:     -11.3      1.017      4.103
REMARK SMILES CCCCc1ncc(C[N@H+]2C[C@@H]3c4ccccc4OC[C@]3(C(=O)OCCOC(=O)c3ccc(-c4c5nc(c(-c6c(F)cc(S(=O)(=O)[O-])cc6F)c6ccc([nH]6)c(-c6c(F)cc(S(=O)(=O)[O-])cc6F)c6nc(c(-c7c(F)cc(S(=O)(=O)[O-])cc7F)c7ccc4[nH]7)C=C6)C=C5)cc3)C2)[nH]1
REMARK SMILES IDX 25 1 24 2 22 3 23 4 21 5 10 6 11 7 96 8 12 10 13 11 20 12
REMARK SMILES IDX 14 13 18 14 19 15 15 16 17 17 16 18 9 19 8 20 5 21 6 22
REMARK SMILES IDX 97 23 7 24 4 26 3 27 2 28 1 29 26 30 27 31 28 32 29 33 30 34
REMARK SMILES IDX 31 35 95 36 32 37 94 38 33 39 34 40 35 41 88 42 36 43 93 44
REMARK SMILES IDX 87 45 89 46 37 47 92 48 86 49 85 50 38 52 72 53 51 54 71 55
REMARK SMILES IDX 52 56 55 57 70 58 90 59 53 60 54 61 69 63 91 64 56 65 39 66
REMARK SMILES IDX 40 67 49 68 41 69 42 70 48 71 50 72 43 73 44 74 45 75 46 76
REMARK SMILES IDX 47 77 73 78 74 79 83 80 75 81 76 82 82 83 84 84 77 85 78 86
REMARK SMILES IDX 79 87 80 88 81 89 57 90 58 91 67 92 59 93 60 94 66 95 68 96
REMARK SMILES IDX 61 97 62 98 63 99 64 100 65 101
REMARK H PARENT 10 9 97 25 89 51 55 62
REMARK Flexibility Score: inf
ROOT
ATOM      1  C   UNL A   1      31.776  28.244  27.625  1.00  0.00     0.274 C 
ENDROOT
BRANCH   1   2
ATOM      2  O   UNL A   1      31.348  27.695  26.360  1.00  0.00    -0.461 OA
BRANCH   2   3
ATOM      3  C   UNL A   1      32.284  27.036  25.598  1.00  0.00     0.322 C 
ATOM      4  O   UNL A   1      33.069  26.222  26.032  1.00  0.00    -0.251 OA
BRANCH   3   5
ATOM      5  C   UNL A   1      32.102  27.439  24.138  1.00  0.00     0.162 C 
ATOM      6  N   UNL A   1      32.556  26.201  22.082  1.00  0.00    -0.328 N 
ATOM      7  C   UNL A   1      31.234  26.814  21.996  1.00  0.00     0.272 C 
ATOM      8  C   UNL A   1      33.127  26.564  23.377  1.00  0.00     0.286 C 
ATOM      9  H   UNL A   1      33.144  26.581  21.341  1.00  0.00     0.348 HD
ATOM     10  C   UNL A   1      30.790  27.062  23.447  1.00  0.00     0.105 C 
ATOM     11  C   UNL A   1      29.739  28.129  23.435  1.00  0.00     0.004 A 
ATOM     12  C   UNL A   1      32.382  28.957  24.108  1.00  0.00     0.255 C 
ATOM     13  C   UNL A   1      28.401  27.822  23.138  1.00  0.00     0.008 A 
ATOM     14  C   UNL A   1      30.110  29.463  23.553  1.00  0.00     0.123 A 
ATOM     15  O   UNL A   1      31.407  29.862  23.594  1.00  0.00    -0.492 OA
ATOM     16  C   UNL A   1      27.450  28.838  23.014  1.00  0.00     0.001 A 
ATOM     17  C   UNL A   1      29.152  30.475  23.480  1.00  0.00     0.047 A 
ATOM     18  C   UNL A   1      27.819  30.164  23.217  1.00  0.00     0.004 A 
BRANCH   6  19
ATOM     19  C   UNL A   1      32.627  24.780  21.733  1.00  0.00     0.319 C 
BRANCH  19  20
ATOM     20  C   UNL A   1      33.086  23.859  22.810  1.00  0.00     0.090 A 
ATOM     21  C   UNL A   1      34.384  22.819  24.293  1.00  0.00     0.106 A 
ATOM     22  N   UNL A   1      33.179  22.313  24.460  1.00  0.00    -0.241 NA
ATOM     23  N   UNL A   1      34.380  23.723  23.253  1.00  0.00    -0.341 N 
ATOM     24  C   UNL A   1      32.375  22.943  23.556  1.00  0.00     0.140 A 
ATOM     25  H   UNL A   1      35.168  24.190  22.891  1.00  0.00     0.168 HD
BRANCH  21  26
ATOM     26  C   UNL A   1      35.583  22.432  25.106  1.00  0.00     0.075 C 
BRANCH  26  27
ATOM     27  C   UNL A   1      36.911  23.084  24.724  1.00  0.00     0.008 C 
BRANCH  27  28
ATOM     28  C   UNL A   1      37.710  23.667  25.885  1.00  0.00    -0.003 C 
ATOM     29  C   UNL A   1      38.850  22.798  26.388  1.00  0.00     0.004 C 
ENDBRANCH  27  28
ENDBRANCH  26  27
ENDBRANCH  21  26
ENDBRANCH  19  20
ENDBRANCH   6  19
ENDBRANCH   3   5
ENDBRANCH   2   3
ENDBRANCH   1   2
BRANCH   1  30
ATOM     30  C   UNL A   1      32.386  29.624  27.373  1.00  0.00     0.275 C 
BRANCH  30  31
ATOM     31  O   UNL A   1      33.811  29.477  27.432  1.00  0.00    -0.458 OA
BRANCH  31  32
ATOM     32  C   UNL A   1      34.504  30.449  28.069  1.00  0.00     0.338 C 
ATOM     33  O   UNL A   1      34.082  31.544  28.401  1.00  0.00    -0.246 OA
BRANCH  32  34
ATOM     34  C   UNL A   1      35.889  29.971  28.254  1.00  0.00     0.060 A 
ATOM     35  C   UNL A   1      36.267  29.440  29.485  1.00  0.00     0.016 A 
ATOM     36  C   UNL A   1      36.828  30.070  27.222  1.00  0.00     0.016 A 
ATOM     37  C   UNL A   1      37.608  29.117  29.704  1.00  0.00     0.010 A 
ATOM     38  C   UNL A   1      38.148  29.679  27.416  1.00  0.00     0.010 A 
ATOM     39  C   UNL A   1      38.564  29.258  28.680  1.00  0.00    -0.014 A 
BRANCH  39  40
ATOM     40  C   UNL A   1      40.001  29.014  28.955  1.00  0.00     0.031 A 
ATOM     41  C   UNL A   1      40.623  27.682  28.619  1.00  0.00     0.074 A 
ATOM     42  C   UNL A   1      40.746  30.010  29.467  1.00  0.00     0.049 A 
ATOM     43  N   UNL A   1      41.883  27.329  28.660  1.00  0.00    -0.248 NA
ATOM     44  C   UNL A   1      39.718  26.601  28.196  1.00  0.00     0.031 C 
ATOM     45  C   UNL A   1      40.229  31.314  29.889  1.00  0.00     0.029 A 
ATOM     46  N   UNL A   1      42.096  30.099  29.687  1.00  0.00    -0.354 N 
ATOM     47  C   UNL A   1      41.920  25.996  28.262  1.00  0.00     0.074 A 
ATOM     48  C   UNL A   1      40.551  25.580  28.054  1.00  0.00     0.031 C 
ATOM     49  C   UNL A   1      41.258  32.097  30.248  1.00  0.00     0.029 A 
ATOM     50  C   UNL A   1      42.499  31.343  30.111  1.00  0.00     0.049 A 
ATOM     51  H   UNL A   1      42.715  29.346  29.555  1.00  0.00     0.167 HD
ATOM     52  C   UNL A   1      42.997  25.203  28.054  1.00  0.00     0.037 A 
ATOM     53  C   UNL A   1      43.736  31.826  30.337  1.00  0.00     0.037 A 
ATOM     54  C   UNL A   1      44.356  25.637  28.250  1.00  0.00     0.049 A 
ATOM     55  C   UNL A   1      44.918  30.930  30.089  1.00  0.00     0.074 A 
ATOM     56  C   UNL A   1      45.527  24.932  28.033  1.00  0.00     0.029 A 
ATOM     57  N   UNL A   1      44.724  26.895  28.707  1.00  0.00    -0.354 N 
ATOM     58  N   UNL A   1      44.938  29.692  29.651  1.00  0.00    -0.248 NA
ATOM     59  C   UNL A   1      46.246  31.496  30.359  1.00  0.00     0.031 C 
ATOM     60  C   UNL A   1      46.601  25.752  28.397  1.00  0.00     0.029 A 
ATOM     61  C   UNL A   1      46.103  26.982  28.797  1.00  0.00     0.049 A 
ATOM     62  H   UNL A   1      44.096  27.618  28.936  1.00  0.00     0.167 HD
ATOM     63  C   UNL A   1      46.280  29.333  29.586  1.00  0.00     0.074 A 
ATOM     64  C   UNL A   1      47.040  30.497  30.000  1.00  0.00     0.031 C 
ATOM     65  C   UNL A   1      46.834  28.149  29.227  1.00  0.00     0.037 A 
BRANCH  52  66
ATOM     66  C   UNL A   1      42.753  23.798  27.568  1.00  0.00     0.058 A 
ATOM     67  C   UNL A   1      42.587  22.730  28.467  1.00  0.00     0.135 A 
ATOM     68  C   UNL A   1      42.640  23.516  26.197  1.00  0.00     0.135 A 
ATOM     69  F   UNL A   1      42.698  22.935  29.789  1.00  0.00    -0.206 F 
ATOM     70  C   UNL A   1      42.346  21.433  28.025  1.00  0.00     0.059 A 
ATOM     71  C   UNL A   1      42.371  22.230  25.732  1.00  0.00     0.059 A 
ATOM     72  F   UNL A   1      42.787  24.495  25.291  1.00  0.00    -0.206 F 
ATOM     73  C   UNL A   1      42.237  21.192  26.654  1.00  0.00     0.060 A 
BRANCH  73  74
ATOM     74  S   UNL A   1      41.913  19.503  26.103  1.00  0.00     0.124 S 
ATOM     75  O   UNL A   1      42.842  19.378  24.984  1.00  0.00    -0.237 OA
ATOM     76  O   UNL A   1      42.244  18.722  27.290  1.00  0.00    -0.237 OA
ATOM     77  O   UNL A   1      40.499  19.526  25.743  1.00  0.00    -0.744 OA
ENDBRANCH  73  74
ENDBRANCH  52  66
BRANCH  53  78
ATOM     78  C   UNL A   1      43.910  33.237  30.774  1.00  0.00     0.058 A 
ATOM     79  C   UNL A   1      43.992  34.278  29.838  1.00  0.00     0.135 A 
ATOM     80  C   UNL A   1      43.958  33.578  32.135  1.00  0.00     0.135 A 
ATOM     81  F   UNL A   1      43.954  34.005  28.524  1.00  0.00    -0.206 F 
ATOM     82  C   UNL A   1      44.123  35.606  30.234  1.00  0.00     0.059 A 
ATOM     83  C   UNL A   1      44.062  34.900  32.556  1.00  0.00     0.059 A 
ATOM     84  F   UNL A   1      43.865  32.621  33.071  1.00  0.00    -0.206 F 
ATOM     85  C   UNL A   1      44.151  35.907  31.596  1.00  0.00     0.060 A 
BRANCH  85  86
ATOM     86  S   UNL A   1      44.262  37.639  32.096  1.00  0.00     0.124 S 
ATOM     87  O   UNL A   1      45.686  37.772  32.384  1.00  0.00    -0.237 OA
ATOM     88  O   UNL A   1      43.784  38.331  30.904  1.00  0.00    -0.237 OA
ATOM     89  O   UNL A   1      43.375  37.713  33.254  1.00  0.00    -0.744 OA
ENDBRANCH  85  86
ENDBRANCH  53  78
BRANCH  65  90
ATOM     90  C   UNL A   1      48.334  28.052  29.275  1.00  0.00     0.058 A 
ATOM     91  C   UNL A   1      49.125  28.438  28.181  1.00  0.00     0.135 A 
ATOM     92  C   UNL A   1      48.987  27.614  30.437  1.00  0.00     0.135 A 
ATOM     93  F   UNL A   1      48.548  28.860  27.045  1.00  0.00    -0.206 F 
ATOM     94  C   UNL A   1      50.512  28.361  28.228  1.00  0.00     0.059 A 
ATOM     95  C   UNL A   1      50.374  27.559  30.516  1.00  0.00     0.059 A 
ATOM     96  F   UNL A   1      48.276  27.247  31.516  1.00  0.00    -0.206 F 
ATOM     97  C   UNL A   1      51.128  27.921  29.401  1.00  0.00     0.060 A 
BRANCH  97  98
ATOM     98  S   UNL A   1      52.930  27.845  29.449  1.00  0.00     0.124 S 
ATOM     99  O   UNL A   1      53.254  27.652  28.039  1.00  0.00    -0.237 OA
ATOM    100  O   UNL A   1      53.282  29.146  30.010  1.00  0.00    -0.237 OA
ATOM    101  O   UNL A   1      53.199  26.701  30.316  1.00  0.00    -0.744 OA
ENDBRANCH  97  98
ENDBRANCH  65  90
ENDBRANCH  39  40
ENDBRANCH  32  34
ENDBRANCH  31  32
ENDBRANCH  30  31
ENDBRANCH   1  30
TORSDOF 19
ENDMDL
