MODEL 1
REMARK VINA RESULT:     -12.5      0.000      0.000
REMARK SMILES CS(=O)(=O)c1ccc(C2=NN(c3ccc(C(=O)OCCOC(=O)c4ccc(-c5c6nc(c(-c7c(F)cc(S(=O)(=O)[O-])cc7F)c7ccc([nH]7)c(-c7c(F)cc(S(=O)(=O)[O-])cc7F)c7nc(c(-c8c(F)cc(S(=O)(=O)[O-])cc8F)c8ccc5[nH]8)C=C7)C=C6)cc4)cc3)[C@H](c3cccs3)C2)cc1
REMARK SMILES IDX 19 1 18 2 16 3 17 4 15 5 12 6 13 7 91 8 14 9 90 10 11 11
REMARK SMILES IDX 9 12 10 13 98 14 92 15 8 16 5 17 6 18 100 19 7 20 99 21 2 22
REMARK SMILES IDX 1 23 3 24 4 25 93 26 94 27 97 28 95 29 96 30 20 31 21 32
REMARK SMILES IDX 22 33 23 34 24 35 25 36 89 37 26 38 88 39 27 40 28 41 29 42
REMARK SMILES IDX 82 43 30 44 87 45 81 46 83 47 31 48 86 49 80 50 79 51 32 53
REMARK SMILES IDX 66 54 45 55 65 56 46 57 49 58 64 59 84 60 47 61 48 62 63 64
REMARK SMILES IDX 85 65 50 66 33 67 34 68 43 69 35 70 36 71 42 72 44 73 37 74
REMARK SMILES IDX 38 75 39 76 40 77 41 78 67 79 68 80 77 81 69 82 70 83 76 84
REMARK SMILES IDX 78 85 71 86 72 87 73 88 74 89 75 90 51 91 52 92 61 93 53 94
REMARK SMILES IDX 54 95 60 96 62 97 55 98 56 99 57 100 58 101 59 102
REMARK H PARENT 83 52 49 63
REMARK Flexibility Score: inf
ROOT
ATOM      1  C   UNL A   1      41.621  22.612  27.092  1.00  0.00     0.275 C 
ENDROOT
BRANCH   1   2
ATOM      2  O   UNL A   1      40.180  22.593  27.099  1.00  0.00    -0.458 OA
BRANCH   2   3
ATOM      3  C   UNL A   1      39.607  21.647  26.313  1.00  0.00     0.338 C 
ATOM      4  O   UNL A   1      40.037  20.525  26.102  1.00  0.00    -0.246 OA
BRANCH   3   5
ATOM      5  C   UNL A   1      38.321  22.128  25.752  1.00  0.00     0.060 A 
ATOM      6  C   UNL A   1      35.828  23.075  24.868  1.00  0.00     0.060 A 
ATOM      7  C   UNL A   1      36.631  23.870  25.689  1.00  0.00     0.029 A 
ATOM      8  C   UNL A   1      36.310  21.826  24.453  1.00  0.00     0.029 A 
ATOM      9  C   UNL A   1      37.855  23.388  26.153  1.00  0.00     0.018 A 
ATOM     10  C   UNL A   1      37.552  21.353  24.882  1.00  0.00     0.018 A 
BRANCH   6  11
ATOM     11  N   UNL A   1      34.512  23.433  24.594  1.00  0.00    -0.257 N 
ATOM     12  C   UNL A   1      32.953  24.868  24.455  1.00  0.00     0.071 C 
ATOM     13  N   UNL A   1      34.198  24.671  24.144  1.00  0.00    -0.176 NA
ATOM     14  C   UNL A   1      32.313  23.798  25.302  1.00  0.00     0.091 C 
ATOM     15  C   UNL A   1      33.430  22.752  25.308  1.00  0.00     0.154 C 
BRANCH  12  16
ATOM     16  C   UNL A   1      32.190  26.047  24.001  1.00  0.00    -0.002 A 
ATOM     17  C   UNL A   1      30.634  28.237  23.249  1.00  0.00     0.067 A 
ATOM     18  C   UNL A   1      30.091  26.948  23.205  1.00  0.00     0.021 A 
ATOM     19  C   UNL A   1      31.961  28.434  23.641  1.00  0.00     0.021 A 
ATOM     20  C   UNL A   1      30.872  25.854  23.575  1.00  0.00     0.011 A 
ATOM     21  C   UNL A   1      32.738  27.334  24.027  1.00  0.00     0.011 A 
BRANCH  17  22
ATOM     22  S   UNL A   1      29.556  29.580  22.808  1.00  0.00     0.175 S 
ATOM     23  C   UNL A   1      27.900  28.960  22.804  1.00  0.00     0.163 C 
ATOM     24  O   UNL A   1      29.889  29.930  21.440  1.00  0.00    -0.224 OA
ATOM     25  O   UNL A   1      29.648  30.557  23.876  1.00  0.00    -0.224 OA
ENDBRANCH  17  22
ENDBRANCH  12  16
BRANCH  15  26
ATOM     26  C   UNL A   1      33.107  21.397  24.714  1.00  0.00     0.030 A 
ATOM     27  C   UNL A   1      32.554  21.169  23.463  1.00  0.00     0.017 A 
ATOM     28  S   UNL A   1      33.225  19.937  25.605  1.00  0.00    -0.147 S 
ATOM     29  C   UNL A   1      32.205  19.805  23.256  1.00  0.00     0.012 A 
ATOM     30  C   UNL A   1      32.530  19.024  24.340  1.00  0.00     0.065 A 
ENDBRANCH  15  26
ENDBRANCH   6  11
ENDBRANCH   3   5
ENDBRANCH   2   3
ENDBRANCH   1   2
BRANCH   1  31
ATOM     31  C   UNL A   1      42.139  23.773  26.246  1.00  0.00     0.275 C 
BRANCH  31  32
ATOM     32  O   UNL A   1      41.108  24.765  26.096  1.00  0.00    -0.458 OA
BRANCH  32  33
ATOM     33  C   UNL A   1      41.533  26.044  25.979  1.00  0.00     0.338 C 
ATOM     34  O   UNL A   1      41.931  26.605  24.974  1.00  0.00    -0.246 OA
BRANCH  33  35
ATOM     35  C   UNL A   1      41.451  26.703  27.293  1.00  0.00     0.060 A 
ATOM     36  C   UNL A   1      40.510  26.267  28.222  1.00  0.00     0.016 A 
ATOM     37  C   UNL A   1      42.234  27.825  27.560  1.00  0.00     0.016 A 
ATOM     38  C   UNL A   1      40.299  26.983  29.399  1.00  0.00     0.010 A 
ATOM     39  C   UNL A   1      42.073  28.501  28.775  1.00  0.00     0.010 A 
ATOM     40  C   UNL A   1      41.083  28.108  29.695  1.00  0.00    -0.014 A 
BRANCH  40  41
ATOM     41  C   UNL A   1      40.830  28.906  30.929  1.00  0.00     0.031 A 
ATOM     42  C   UNL A   1      39.698  29.900  30.961  1.00  0.00     0.074 A 
ATOM     43  C   UNL A   1      41.598  28.742  32.025  1.00  0.00     0.049 A 
ATOM     44  N   UNL A   1      39.423  30.813  31.858  1.00  0.00    -0.248 NA
ATOM     45  C   UNL A   1      38.761  29.874  29.826  1.00  0.00     0.031 C 
ATOM     46  C   UNL A   1      42.701  27.788  32.153  1.00  0.00     0.029 A 
ATOM     47  N   UNL A   1      41.566  29.376  33.243  1.00  0.00    -0.354 N 
ATOM     48  C   UNL A   1      38.324  31.509  31.367  1.00  0.00     0.074 A 
ATOM     49  C   UNL A   1      37.980  30.911  30.095  1.00  0.00     0.031 C 
ATOM     50  C   UNL A   1      43.218  27.877  33.388  1.00  0.00     0.029 A 
ATOM     51  C   UNL A   1      42.538  28.945  34.115  1.00  0.00     0.049 A 
ATOM     52  H   UNL A   1      40.909  30.072  33.471  1.00  0.00     0.167 HD
ATOM     53  C   UNL A   1      37.666  32.555  31.924  1.00  0.00     0.037 A 
ATOM     54  C   UNL A   1      42.873  29.380  35.346  1.00  0.00     0.037 A 
ATOM     55  C   UNL A   1      37.967  33.106  33.220  1.00  0.00     0.049 A 
ATOM     56  C   UNL A   1      42.127  30.537  35.948  1.00  0.00     0.074 A 
ATOM     57  C   UNL A   1      37.344  34.154  33.877  1.00  0.00     0.029 A 
ATOM     58  N   UNL A   1      38.964  32.642  34.065  1.00  0.00    -0.354 N 
ATOM     59  N   UNL A   1      41.130  31.226  35.444  1.00  0.00    -0.248 NA
ATOM     60  C   UNL A   1      42.561  30.990  37.277  1.00  0.00     0.031 C 
ATOM     61  C   UNL A   1      37.980  34.338  35.110  1.00  0.00     0.029 A 
ATOM     62  C   UNL A   1      38.977  33.384  35.235  1.00  0.00     0.049 A 
ATOM     63  H   UNL A   1      39.573  31.895  33.862  1.00  0.00     0.167 HD
ATOM     64  C   UNL A   1      40.817  32.191  36.393  1.00  0.00     0.074 A 
ATOM     65  C   UNL A   1      41.716  31.985  37.511  1.00  0.00     0.031 C 
ATOM     66  C   UNL A   1      39.876  33.164  36.340  1.00  0.00     0.037 A 
BRANCH  53  67
ATOM     67  C   UNL A   1      36.574  33.199  31.115  1.00  0.00     0.058 A 
ATOM     68  C   UNL A   1      35.219  33.071  31.454  1.00  0.00     0.135 A 
ATOM     69  C   UNL A   1      36.897  33.973  29.989  1.00  0.00     0.135 A 
ATOM     70  F   UNL A   1      34.854  32.328  32.512  1.00  0.00    -0.206 F 
ATOM     71  C   UNL A   1      34.219  33.666  30.689  1.00  0.00     0.059 A 
ATOM     72  C   UNL A   1      35.916  34.597  29.223  1.00  0.00     0.059 A 
ATOM     73  F   UNL A   1      38.179  34.129  29.621  1.00  0.00    -0.206 F 
ATOM     74  C   UNL A   1      34.577  34.423  29.572  1.00  0.00     0.060 A 
BRANCH  74  75
ATOM     75  S   UNL A   1      33.276  35.188  28.582  1.00  0.00     0.124 S 
ATOM     76  O   UNL A   1      34.057  35.996  27.651  1.00  0.00    -0.237 OA
ATOM     77  O   UNL A   1      32.599  34.032  28.002  1.00  0.00    -0.237 OA
ATOM     78  O   UNL A   1      32.499  35.937  29.564  1.00  0.00    -0.744 OA
ENDBRANCH  74  75
ENDBRANCH  53  67
BRANCH  54  79
ATOM     79  C   UNL A   1      43.995  28.732  36.075  1.00  0.00     0.058 A 
ATOM     80  C   UNL A   1      43.779  27.596  36.869  1.00  0.00     0.135 A 
ATOM     81  C   UNL A   1      45.309  29.212  35.961  1.00  0.00     0.135 A 
ATOM     82  F   UNL A   1      42.538  27.109  37.019  1.00  0.00    -0.206 F 
ATOM     83  C   UNL A   1      44.827  26.955  37.521  1.00  0.00     0.059 A 
ATOM     84  C   UNL A   1      46.377  28.573  36.583  1.00  0.00     0.059 A 
ATOM     85  F   UNL A   1      45.567  30.291  35.205  1.00  0.00    -0.206 F 
ATOM     86  C   UNL A   1      46.125  27.447  37.366  1.00  0.00     0.060 A 
BRANCH  86  87
ATOM     87  S   UNL A   1      47.492  26.559  38.143  1.00  0.00     0.124 S 
ATOM     88  O   UNL A   1      48.589  26.851  37.226  1.00  0.00    -0.237 OA
ATOM     89  O   UNL A   1      47.572  27.195  39.454  1.00  0.00    -0.237 OA
ATOM     90  O   UNL A   1      47.027  25.176  38.155  1.00  0.00    -0.744 OA
ENDBRANCH  86  87
ENDBRANCH  54  79
BRANCH  66  91
ATOM     91  C   UNL A   1      39.753  34.069  37.532  1.00  0.00     0.058 A 
ATOM     92  C   UNL A   1      38.973  33.714  38.644  1.00  0.00     0.135 A 
ATOM     93  C   UNL A   1      40.455  35.283  37.581  1.00  0.00     0.135 A 
ATOM     94  F   UNL A   1      38.277  32.565  38.641  1.00  0.00    -0.206 F 
ATOM     95  C   UNL A   1      38.878  34.542  39.757  1.00  0.00     0.059 A 
ATOM     96  C   UNL A   1      40.390  36.117  38.693  1.00  0.00     0.059 A 
ATOM     97  F   UNL A   1      41.220  35.664  36.546  1.00  0.00    -0.206 F 
ATOM     98  C   UNL A   1      39.590  35.743  39.771  1.00  0.00     0.060 A 
BRANCH  98  99
ATOM     99  S   UNL A   1      39.483  36.801  41.231  1.00  0.00     0.124 S 
ATOM    100  O   UNL A   1      40.882  36.885  41.636  1.00  0.00    -0.237 OA
ATOM    101  O   UNL A   1      38.904  38.028  40.691  1.00  0.00    -0.237 OA
ATOM    102  O   UNL A   1      38.612  36.050  42.130  1.00  0.00    -0.744 OA
ENDBRANCH  98  99
ENDBRANCH  66  91
ENDBRANCH  40  41
ENDBRANCH  33  35
ENDBRANCH  32  33
ENDBRANCH  31  32
ENDBRANCH   1  31
TORSDOF 18
ENDMDL
MODEL 2
REMARK VINA RESULT:     -12.3      6.305     12.264
REMARK SMILES CS(=O)(=O)c1ccc(C2=NN(c3ccc(C(=O)OCCOC(=O)c4ccc(-c5c6nc(c(-c7c(F)cc(S(=O)(=O)[O-])cc7F)c7ccc([nH]7)c(-c7c(F)cc(S(=O)(=O)[O-])cc7F)c7nc(c(-c8c(F)cc(S(=O)(=O)[O-])cc8F)c8ccc5[nH]8)C=C7)C=C6)cc4)cc3)[C@H](c3cccs3)C2)cc1
REMARK SMILES IDX 19 1 18 2 16 3 17 4 15 5 12 6 13 7 91 8 14 9 90 10 11 11
REMARK SMILES IDX 9 12 10 13 98 14 92 15 8 16 5 17 6 18 100 19 7 20 99 21 2 22
REMARK SMILES IDX 1 23 3 24 4 25 93 26 94 27 97 28 95 29 96 30 20 31 21 32
REMARK SMILES IDX 22 33 23 34 24 35 25 36 89 37 26 38 88 39 27 40 28 41 29 42
REMARK SMILES IDX 82 43 30 44 87 45 81 46 83 47 31 48 86 49 80 50 79 51 32 53
REMARK SMILES IDX 66 54 45 55 65 56 46 57 49 58 64 59 84 60 47 61 48 62 63 64
REMARK SMILES IDX 85 65 50 66 33 67 34 68 43 69 35 70 36 71 42 72 44 73 37 74
REMARK SMILES IDX 38 75 39 76 40 77 41 78 67 79 68 80 77 81 69 82 70 83 76 84
REMARK SMILES IDX 78 85 71 86 72 87 73 88 74 89 75 90 51 91 52 92 61 93 53 94
REMARK SMILES IDX 54 95 60 96 62 97 55 98 56 99 57 100 58 101 59 102
REMARK H PARENT 83 52 49 63
REMARK Flexibility Score: inf
ROOT
ATOM      1  C   UNL A   1      35.072  32.302  29.974  1.00  0.00     0.275 C 
ENDROOT
BRANCH   1   2
ATOM      2  O   UNL A   1      35.008  31.446  28.816  1.00  0.00    -0.458 OA
BRANCH   2   3
ATOM      3  C   UNL A   1      33.978  31.690  27.967  1.00  0.00     0.338 C 
ATOM      4  O   UNL A   1      33.528  32.785  27.673  1.00  0.00    -0.246 OA
BRANCH   3   5
ATOM      5  C   UNL A   1      33.468  30.431  27.374  1.00  0.00     0.060 A 
ATOM      6  C   UNL A   1      32.636  28.060  26.116  1.00  0.00     0.060 A 
ATOM      7  C   UNL A   1      33.965  28.215  26.514  1.00  0.00     0.029 A 
ATOM      8  C   UNL A   1      31.719  29.081  26.402  1.00  0.00     0.029 A 
ATOM      9  C   UNL A   1      34.386  29.404  27.111  1.00  0.00     0.018 A 
ATOM     10  C   UNL A   1      32.125  30.258  27.035  1.00  0.00     0.018 A 
BRANCH   6  11
ATOM     11  N   UNL A   1      32.252  26.994  25.311  1.00  0.00    -0.257 N 
ATOM     12  C   UNL A   1      32.501  25.015  24.580  1.00  0.00     0.071 C 
ATOM     13  N   UNL A   1      32.494  25.712  25.675  1.00  0.00    -0.176 NA
ATOM     14  C   UNL A   1      32.397  25.806  23.301  1.00  0.00     0.091 C 
ATOM     15  C   UNL A   1      32.135  27.203  23.866  1.00  0.00     0.154 C 
BRANCH  12  16
ATOM     16  C   UNL A   1      32.582  23.542  24.567  1.00  0.00    -0.002 A 
ATOM     17  C   UNL A   1      32.880  20.768  24.616  1.00  0.00     0.067 A 
ATOM     18  C   UNL A   1      33.857  21.564  24.007  1.00  0.00     0.021 A 
ATOM     19  C   UNL A   1      31.740  21.351  25.177  1.00  0.00     0.021 A 
ATOM     20  C   UNL A   1      33.704  22.949  23.978  1.00  0.00     0.011 A 
ATOM     21  C   UNL A   1      31.597  22.744  25.160  1.00  0.00     0.011 A 
BRANCH  17  22
ATOM     22  S   UNL A   1      33.177  19.016  24.652  1.00  0.00     0.175 S 
ATOM     23  C   UNL A   1      32.461  18.320  23.193  1.00  0.00     0.163 C 
ATOM     24  O   UNL A   1      32.429  18.505  25.786  1.00  0.00    -0.224 OA
ATOM     25  O   UNL A   1      34.612  18.833  24.557  1.00  0.00    -0.224 OA
ENDBRANCH  17  22
ENDBRANCH  12  16
BRANCH  15  26
ATOM     26  C   UNL A   1      30.830  27.869  23.481  1.00  0.00     0.030 A 
ATOM     27  C   UNL A   1      29.561  27.366  23.719  1.00  0.00     0.017 A 
ATOM     28  S   UNL A   1      30.756  29.286  22.519  1.00  0.00    -0.147 S 
ATOM     29  C   UNL A   1      28.538  28.128  23.087  1.00  0.00     0.012 A 
ATOM     30  C   UNL A   1      29.052  29.210  22.411  1.00  0.00     0.065 A 
ENDBRANCH  15  26
ENDBRANCH   6  11
ENDBRANCH   3   5
ENDBRANCH   2   3
ENDBRANCH   1   2
BRANCH   1  31
ATOM     31  C   UNL A   1      36.519  32.500  30.418  1.00  0.00     0.275 C 
BRANCH  31  32
ATOM     32  O   UNL A   1      36.820  31.609  31.507  1.00  0.00    -0.458 OA
BRANCH  32  33
ATOM     33  C   UNL A   1      37.060  30.321  31.167  1.00  0.00     0.338 C 
ATOM     34  O   UNL A   1      36.315  29.368  31.298  1.00  0.00    -0.246 OA
BRANCH  33  35
ATOM     35  C   UNL A   1      38.412  30.217  30.592  1.00  0.00     0.060 A 
ATOM     36  C   UNL A   1      38.575  30.261  29.210  1.00  0.00     0.016 A 
ATOM     37  C   UNL A   1      39.504  29.964  31.419  1.00  0.00     0.016 A 
ATOM     38  C   UNL A   1      39.818  29.992  28.639  1.00  0.00     0.010 A 
ATOM     39  C   UNL A   1      40.767  29.767  30.850  1.00  0.00     0.010 A 
ATOM     40  C   UNL A   1      40.933  29.747  29.452  1.00  0.00    -0.014 A 
BRANCH  40  41
ATOM     41  C   UNL A   1      42.254  29.412  28.847  1.00  0.00     0.031 A 
ATOM     42  C   UNL A   1      42.499  28.030  28.298  1.00  0.00     0.074 A 
ATOM     43  C   UNL A   1      43.234  30.335  28.776  1.00  0.00     0.049 A 
ATOM     44  N   UNL A   1      43.620  27.484  27.900  1.00  0.00    -0.248 NA
ATOM     45  C   UNL A   1      41.331  27.140  28.198  1.00  0.00     0.031 C 
ATOM     46  C   UNL A   1      43.126  31.724  29.227  1.00  0.00     0.029 A 
ATOM     47  N   UNL A   1      44.517  30.244  28.293  1.00  0.00    -0.354 N 
ATOM     48  C   UNL A   1      43.306  26.171  27.564  1.00  0.00     0.074 A 
ATOM     49  C   UNL A   1      41.888  26.004  27.801  1.00  0.00     0.031 C 
ATOM     50  C   UNL A   1      44.279  32.360  28.972  1.00  0.00     0.029 A 
ATOM     51  C   UNL A   1      45.235  31.411  28.411  1.00  0.00     0.049 A 
ATOM     52  H   UNL A   1      44.887  29.421  27.899  1.00  0.00     0.167 HD
ATOM     53  C   UNL A   1      44.126  25.194  27.106  1.00  0.00     0.037 A 
ATOM     54  C   UNL A   1      46.526  31.682  28.136  1.00  0.00     0.037 A 
ATOM     55  C   UNL A   1      45.522  25.380  26.808  1.00  0.00     0.049 A 
ATOM     56  C   UNL A   1      47.417  30.586  27.622  1.00  0.00     0.074 A 
ATOM     57  C   UNL A   1      46.431  24.455  26.321  1.00  0.00     0.029 A 
ATOM     58  N   UNL A   1      46.209  26.578  26.948  1.00  0.00    -0.354 N 
ATOM     59  N   UNL A   1      47.119  29.333  27.369  1.00  0.00    -0.248 NA
ATOM     60  C   UNL A   1      48.824  30.932  27.374  1.00  0.00     0.031 C 
ATOM     61  C   UNL A   1      47.672  25.088  26.190  1.00  0.00     0.029 A 
ATOM     62  C   UNL A   1      47.530  26.415  26.563  1.00  0.00     0.049 A 
ATOM     63  H   UNL A   1      45.815  27.419  27.274  1.00  0.00     0.167 HD
ATOM     64  C   UNL A   1      48.299  28.743  26.931  1.00  0.00     0.074 A 
ATOM     65  C   UNL A   1      49.311  29.780  26.933  1.00  0.00     0.031 C 
ATOM     66  C   UNL A   1      48.524  27.457  26.568  1.00  0.00     0.037 A 
BRANCH  53  67
ATOM     67  C   UNL A   1      43.539  23.820  26.933  1.00  0.00     0.058 A 
ATOM     68  C   UNL A   1      43.116  23.341  25.684  1.00  0.00     0.135 A 
ATOM     69  C   UNL A   1      43.418  22.963  28.039  1.00  0.00     0.135 A 
ATOM     70  F   UNL A   1      43.195  24.125  24.597  1.00  0.00    -0.206 F 
ATOM     71  C   UNL A   1      42.567  22.069  25.542  1.00  0.00     0.059 A 
ATOM     72  C   UNL A   1      42.894  21.680  27.917  1.00  0.00     0.059 A 
ATOM     73  F   UNL A   1      43.810  23.372  29.256  1.00  0.00    -0.206 F 
ATOM     74  C   UNL A   1      42.456  21.247  26.666  1.00  0.00     0.060 A 
BRANCH  74  75
ATOM     75  S   UNL A   1      41.739  19.601  26.476  1.00  0.00     0.124 S 
ATOM     76  O   UNL A   1      40.317  19.915  26.372  1.00  0.00    -0.237 OA
ATOM     77  O   UNL A   1      42.373  19.120  25.252  1.00  0.00    -0.237 OA
ATOM     78  O   UNL A   1      42.141  18.913  27.699  1.00  0.00    -0.744 OA
ENDBRANCH  74  75
ENDBRANCH  53  67
BRANCH  54  79
ATOM     79  C   UNL A   1      47.058  33.049  28.374  1.00  0.00     0.058 A 
ATOM     80  C   UNL A   1      47.615  33.402  29.611  1.00  0.00     0.135 A 
ATOM     81  C   UNL A   1      47.053  34.017  27.357  1.00  0.00     0.135 A 
ATOM     82  F   UNL A   1      47.630  32.515  30.617  1.00  0.00    -0.206 F 
ATOM     83  C   UNL A   1      48.155  34.664  29.832  1.00  0.00     0.059 A 
ATOM     84  C   UNL A   1      47.608  35.278  27.546  1.00  0.00     0.059 A 
ATOM     85  F   UNL A   1      46.538  33.724  26.152  1.00  0.00    -0.206 F 
ATOM     86  C   UNL A   1      48.153  35.595  28.790  1.00  0.00     0.060 A 
BRANCH  86  87
ATOM     87  S   UNL A   1      48.934  37.202  29.055  1.00  0.00     0.124 S 
ATOM     88  O   UNL A   1      49.943  36.876  30.056  1.00  0.00    -0.237 OA
ATOM     89  O   UNL A   1      49.437  37.526  27.723  1.00  0.00    -0.237 OA
ATOM     90  O   UNL A   1      47.829  38.037  29.516  1.00  0.00    -0.744 OA
ENDBRANCH  86  87
ENDBRANCH  54  79
BRANCH  66  91
ATOM     91  C   UNL A   1      49.913  27.102  26.121  1.00  0.00     0.058 A 
ATOM     92  C   UNL A   1      50.886  26.662  27.033  1.00  0.00     0.135 A 
ATOM     93  C   UNL A   1      50.262  27.162  24.763  1.00  0.00     0.135 A 
ATOM     94  F   UNL A   1      50.602  26.594  28.343  1.00  0.00    -0.206 F 
ATOM     95  C   UNL A   1      52.165  26.311  26.614  1.00  0.00     0.059 A 
ATOM     96  C   UNL A   1      51.530  26.797  24.321  1.00  0.00     0.059 A 
ATOM     97  F   UNL A   1      49.365  27.570  23.852  1.00  0.00    -0.206 F 
ATOM     98  C   UNL A   1      52.478  26.384  25.255  1.00  0.00     0.060 A 
BRANCH  98  99
ATOM     99  S   UNL A   1      54.132  25.901  24.716  1.00  0.00     0.124 S 
ATOM    100  O   UNL A   1      54.074  24.449  24.852  1.00  0.00    -0.237 OA
ATOM    101  O   UNL A   1      54.179  26.408  23.347  1.00  0.00    -0.237 OA
ATOM    102  O   UNL A   1      55.010  26.587  25.660  1.00  0.00    -0.744 OA
ENDBRANCH  98  99
ENDBRANCH  66  91
ENDBRANCH  40  41
ENDBRANCH  33  35
ENDBRANCH  32  33
ENDBRANCH  31  32
ENDBRANCH   1  31
TORSDOF 18
ENDMDL
MODEL 3
REMARK VINA RESULT:     -12.2      0.704      7.888
REMARK SMILES CS(=O)(=O)c1ccc(C2=NN(c3ccc(C(=O)OCCOC(=O)c4ccc(-c5c6nc(c(-c7c(F)cc(S(=O)(=O)[O-])cc7F)c7ccc([nH]7)c(-c7c(F)cc(S(=O)(=O)[O-])cc7F)c7nc(c(-c8c(F)cc(S(=O)(=O)[O-])cc8F)c8ccc5[nH]8)C=C7)C=C6)cc4)cc3)[C@H](c3cccs3)C2)cc1
REMARK SMILES IDX 19 1 18 2 16 3 17 4 15 5 12 6 13 7 91 8 14 9 90 10 11 11
REMARK SMILES IDX 9 12 10 13 98 14 92 15 8 16 5 17 6 18 100 19 7 20 99 21 2 22
REMARK SMILES IDX 1 23 3 24 4 25 93 26 94 27 97 28 95 29 96 30 20 31 21 32
REMARK SMILES IDX 22 33 23 34 24 35 25 36 89 37 26 38 88 39 27 40 28 41 29 42
REMARK SMILES IDX 82 43 30 44 87 45 81 46 83 47 31 48 86 49 80 50 79 51 32 53
REMARK SMILES IDX 66 54 45 55 65 56 46 57 49 58 64 59 84 60 47 61 48 62 63 64
REMARK SMILES IDX 85 65 50 66 33 67 34 68 43 69 35 70 36 71 42 72 44 73 37 74
REMARK SMILES IDX 38 75 39 76 40 77 41 78 67 79 68 80 77 81 69 82 70 83 76 84
REMARK SMILES IDX 78 85 71 86 72 87 73 88 74 89 75 90 51 91 52 92 61 93 53 94
REMARK SMILES IDX 54 95 60 96 62 97 55 98 56 99 57 100 58 101 59 102
REMARK H PARENT 83 52 49 63
REMARK Flexibility Score: inf
ROOT
ATOM      1  C   UNL A   1      42.172  21.669  25.893  1.00  0.00     0.275 C 
ENDROOT
BRANCH   1   2
ATOM      2  O   UNL A   1      40.805  21.558  25.452  1.00  0.00    -0.458 OA
BRANCH   2   3
ATOM      3  C   UNL A   1      39.869  21.663  26.428  1.00  0.00     0.338 C 
ATOM      4  O   UNL A   1      40.045  21.480  27.622  1.00  0.00    -0.246 OA
BRANCH   3   5
ATOM      5  C   UNL A   1      38.563  22.088  25.869  1.00  0.00     0.060 A 
ATOM      6  C   UNL A   1      36.037  22.946  24.987  1.00  0.00     0.060 A 
ATOM      7  C   UNL A   1      36.865  23.815  25.700  1.00  0.00     0.029 A 
ATOM      8  C   UNL A   1      36.509  21.664  24.675  1.00  0.00     0.029 A 
ATOM      9  C   UNL A   1      38.106  23.381  26.165  1.00  0.00     0.018 A 
ATOM     10  C   UNL A   1      37.766  21.234  25.104  1.00  0.00     0.018 A 
BRANCH   6  11
ATOM     11  N   UNL A   1      34.711  23.276  24.725  1.00  0.00    -0.257 N 
ATOM     12  C   UNL A   1      33.132  24.685  24.553  1.00  0.00     0.071 C 
ATOM     13  N   UNL A   1      34.372  24.487  24.224  1.00  0.00    -0.176 NA
ATOM     14  C   UNL A   1      32.524  23.651  25.464  1.00  0.00     0.091 C 
ATOM     15  C   UNL A   1      33.654  22.619  25.495  1.00  0.00     0.154 C 
BRANCH  12  16
ATOM     16  C   UNL A   1      32.345  25.833  24.060  1.00  0.00    -0.002 A 
ATOM     17  C   UNL A   1      30.809  28.026  23.280  1.00  0.00     0.067 A 
ATOM     18  C   UNL A   1      30.210  26.965  23.969  1.00  0.00     0.021 A 
ATOM     19  C   UNL A   1      32.167  27.983  22.955  1.00  0.00     0.021 A 
ATOM     20  C   UNL A   1      30.978  25.867  24.352  1.00  0.00     0.011 A 
ATOM     21  C   UNL A   1      32.939  26.885  23.355  1.00  0.00     0.011 A 
BRANCH  17  22
ATOM     22  S   UNL A   1      29.769  29.409  22.871  1.00  0.00     0.175 S 
ATOM     23  C   UNL A   1      28.095  28.839  22.864  1.00  0.00     0.163 C 
ATOM     24  O   UNL A   1      30.106  29.776  21.508  1.00  0.00    -0.224 OA
ATOM     25  O   UNL A   1      29.895  30.362  23.957  1.00  0.00    -0.224 OA
ENDBRANCH  17  22
ENDBRANCH  12  16
BRANCH  15  26
ATOM     26  C   UNL A   1      33.334  21.233  24.974  1.00  0.00     0.030 A 
ATOM     27  C   UNL A   1      32.848  20.931  23.711  1.00  0.00     0.017 A 
ATOM     28  S   UNL A   1      33.368  19.834  25.965  1.00  0.00    -0.147 S 
ATOM     29  C   UNL A   1      32.480  19.564  23.574  1.00  0.00     0.012 A 
ATOM     30  C   UNL A   1      32.725  18.851  24.725  1.00  0.00     0.065 A 
ENDBRANCH  15  26
ENDBRANCH   6  11
ENDBRANCH   3   5
ENDBRANCH   2   3
ENDBRANCH   1   2
BRANCH   1  31
ATOM     31  C   UNL A   1      42.683  23.096  25.707  1.00  0.00     0.275 C 
BRANCH  31  32
ATOM     32  O   UNL A   1      41.832  24.014  26.416  1.00  0.00    -0.458 OA
BRANCH  32  33
ATOM     33  C   UNL A   1      41.937  25.314  26.055  1.00  0.00     0.338 C 
ATOM     34  O   UNL A   1      42.063  25.765  24.931  1.00  0.00    -0.246 OA
BRANCH  33  35
ATOM     35  C   UNL A   1      41.880  26.157  27.261  1.00  0.00     0.060 A 
ATOM     36  C   UNL A   1      40.902  25.914  28.222  1.00  0.00     0.016 A 
ATOM     37  C   UNL A   1      42.726  27.257  27.384  1.00  0.00     0.016 A 
ATOM     38  C   UNL A   1      40.721  26.802  29.282  1.00  0.00     0.010 A 
ATOM     39  C   UNL A   1      42.593  28.108  28.487  1.00  0.00     0.010 A 
ATOM     40  C   UNL A   1      41.569  27.909  29.432  1.00  0.00    -0.014 A 
BRANCH  40  41
ATOM     41  C   UNL A   1      41.351  28.888  30.536  1.00  0.00     0.031 A 
ATOM     42  C   UNL A   1      42.277  28.898  31.724  1.00  0.00     0.074 A 
ATOM     43  C   UNL A   1      40.337  29.774  30.480  1.00  0.00     0.049 A 
ATOM     44  N   UNL A   1      42.160  29.535  32.861  1.00  0.00    -0.248 NA
ATOM     45  C   UNL A   1      43.489  28.068  31.626  1.00  0.00     0.031 C 
ATOM     46  C   UNL A   1      39.387  29.909  29.374  1.00  0.00     0.029 A 
ATOM     47  N   UNL A   1      39.936  30.733  31.378  1.00  0.00    -0.354 N 
ATOM     48  C   UNL A   1      43.243  29.136  33.636  1.00  0.00     0.074 A 
ATOM     49  C   UNL A   1      44.011  28.204  32.837  1.00  0.00     0.031 C 
ATOM     50  C   UNL A   1      38.537  30.912  29.644  1.00  0.00     0.029 A 
ATOM     51  C   UNL A   1      38.829  31.441  30.973  1.00  0.00     0.049 A 
ATOM     52  H   UNL A   1      40.399  30.900  32.231  1.00  0.00     0.167 HD
ATOM     53  C   UNL A   1      43.566  29.508  34.898  1.00  0.00     0.037 A 
ATOM     54  C   UNL A   1      38.104  32.383  31.609  1.00  0.00     0.037 A 
ATOM     55  C   UNL A   1      42.839  30.485  35.666  1.00  0.00     0.049 A 
ATOM     56  C   UNL A   1      38.482  32.787  33.006  1.00  0.00     0.074 A 
ATOM     57  C   UNL A   1      43.098  30.943  36.947  1.00  0.00     0.029 A 
ATOM     58  N   UNL A   1      41.719  31.172  35.218  1.00  0.00    -0.354 N 
ATOM     59  N   UNL A   1      39.474  32.353  33.749  1.00  0.00    -0.248 NA
ATOM     60  C   UNL A   1      37.633  33.792  33.661  1.00  0.00     0.031 C 
ATOM     61  C   UNL A   1      42.123  31.889  37.282  1.00  0.00     0.029 A 
ATOM     62  C   UNL A   1      41.275  32.045  36.197  1.00  0.00     0.049 A 
ATOM     63  H   UNL A   1      41.303  31.055  34.333  1.00  0.00     0.167 HD
ATOM     64  C   UNL A   1      39.369  33.033  34.956  1.00  0.00     0.074 A 
ATOM     65  C   UNL A   1      38.231  33.922  34.838  1.00  0.00     0.031 C 
ATOM     66  C   UNL A   1      40.141  32.925  36.064  1.00  0.00     0.037 A 
BRANCH  53  67
ATOM     67  C   UNL A   1      44.740  28.827  35.545  1.00  0.00     0.058 A 
ATOM     68  C   UNL A   1      46.041  29.345  35.466  1.00  0.00     0.135 A 
ATOM     69  C   UNL A   1      44.550  27.641  36.273  1.00  0.00     0.135 A 
ATOM     70  F   UNL A   1      46.279  30.468  34.768  1.00  0.00    -0.206 F 
ATOM     71  C   UNL A   1      47.118  28.697  36.063  1.00  0.00     0.059 A 
ATOM     72  C   UNL A   1      45.609  26.989  36.898  1.00  0.00     0.059 A 
ATOM     73  F   UNL A   1      43.325  27.103  36.382  1.00  0.00    -0.206 F 
ATOM     74  C   UNL A   1      46.893  27.516  36.773  1.00  0.00     0.060 A 
BRANCH  74  75
ATOM     75  S   UNL A   1      48.296  26.678  37.541  1.00  0.00     0.124 S 
ATOM     76  O   UNL A   1      48.204  27.160  38.916  1.00  0.00    -0.237 OA
ATOM     77  O   UNL A   1      47.971  25.269  37.341  1.00  0.00    -0.237 OA
ATOM     78  O   UNL A   1      49.441  27.167  36.780  1.00  0.00    -0.744 OA
ENDBRANCH  74  75
ENDBRANCH  53  67
BRANCH  54  79
ATOM     79  C   UNL A   1      36.925  32.985  30.932  1.00  0.00     0.058 A 
ATOM     80  C   UNL A   1      35.622  32.593  31.270  1.00  0.00     0.135 A 
ATOM     81  C   UNL A   1      37.078  33.989  29.964  1.00  0.00     0.135 A 
ATOM     82  F   UNL A   1      35.426  31.627  32.179  1.00  0.00    -0.206 F 
ATOM     83  C   UNL A   1      34.509  33.180  30.675  1.00  0.00     0.059 A 
ATOM     84  C   UNL A   1      35.981  34.608  29.373  1.00  0.00     0.059 A 
ATOM     85  F   UNL A   1      38.306  34.404  29.613  1.00  0.00    -0.206 F 
ATOM     86  C   UNL A   1      34.699  34.192  29.732  1.00  0.00     0.060 A 
BRANCH  86  87
ATOM     87  S   UNL A   1      33.252  35.011  29.028  1.00  0.00     0.124 S 
ATOM     88  O   UNL A   1      32.413  35.188  30.208  1.00  0.00    -0.237 OA
ATOM     89  O   UNL A   1      33.826  36.229  28.466  1.00  0.00    -0.237 OA
ATOM     90  O   UNL A   1      32.768  34.046  28.045  1.00  0.00    -0.744 OA
ENDBRANCH  86  87
ENDBRANCH  54  79
BRANCH  66  91
ATOM     91  C   UNL A   1      39.797  33.804  37.231  1.00  0.00     0.058 A 
ATOM     92  C   UNL A   1      38.810  33.436  38.160  1.00  0.00     0.135 A 
ATOM     93  C   UNL A   1      40.489  35.006  37.447  1.00  0.00     0.135 A 
ATOM     94  F   UNL A   1      38.117  32.299  37.992  1.00  0.00    -0.206 F 
ATOM     95  C   UNL A   1      38.508  34.241  39.253  1.00  0.00     0.059 A 
ATOM     96  C   UNL A   1      40.215  35.816  38.545  1.00  0.00     0.059 A 
ATOM     97  F   UNL A   1      41.445  35.399  36.591  1.00  0.00    -0.206 F 
ATOM     98  C   UNL A   1      39.216  35.430  39.437  1.00  0.00     0.060 A 
BRANCH  98  99
ATOM     99  S   UNL A   1      38.836  36.456  40.873  1.00  0.00     0.124 S 
ATOM    100  O   UNL A   1      40.150  36.586  41.496  1.00  0.00    -0.237 OA
ATOM    101  O   UNL A   1      38.301  37.670  40.263  1.00  0.00    -0.237 OA
ATOM    102  O   UNL A   1      37.865  35.656  41.614  1.00  0.00    -0.744 OA
ENDBRANCH  98  99
ENDBRANCH  66  91
ENDBRANCH  40  41
ENDBRANCH  33  35
ENDBRANCH  32  33
ENDBRANCH  31  32
ENDBRANCH   1  31
TORSDOF 18
ENDMDL
