MODEL 1
REMARK VINA RESULT:     -12.0      0.000      0.000
REMARK SMILES O=C(OCCOC(=O)[C@H]1CC=CC[C@@H]1C(=O)N[C@@H]1CCCN(c2ccccc2F)C1=O)c1ccc(-c2c3nc(c(-c4c(F)cc(S(=O)(=O)[O-])cc4F)c4ccc([nH]4)c(-c4c(F)cc(S(=O)(=O)[O-])cc4F)c4nc(c(-c5c(F)cc(S(=O)(=O)[O-])cc5F)c5ccc2[nH]5)C=C4)C=C3)cc1
REMARK SMILES IDX 4 1 3 2 2 3 1 4 32 5 33 6 97 7 34 8 96 9 35 10 36 11 37 12
REMARK SMILES IDX 90 13 38 14 95 15 89 16 91 17 39 18 94 19 88 20 87 21 40 23
REMARK SMILES IDX 74 24 53 25 73 26 54 27 57 28 72 29 92 30 55 31 56 32 71 34
REMARK SMILES IDX 93 35 58 36 41 37 42 38 51 39 43 40 44 41 50 42 52 43 45 44
REMARK SMILES IDX 46 45 47 46 48 47 49 48 75 49 76 50 85 51 77 52 78 53 84 54
REMARK SMILES IDX 86 55 79 56 80 57 81 58 82 59 83 60 59 61 60 62 69 63 61 64
REMARK SMILES IDX 62 65 68 66 70 67 63 68 64 69 65 70 66 71 67 72 5 73 6 74
REMARK SMILES IDX 7 75 8 76 9 77 10 78 14 79 11 80 13 81 12 82 15 83 16 84
REMARK SMILES IDX 17 85 18 87 19 88 30 89 20 90 22 91 31 92 21 93 23 94 24 95
REMARK SMILES IDX 28 96 25 97 27 98 29 99 26 100
REMARK H PARENT 91 22 57 33 17 86
REMARK Flexibility Score: inf
ROOT
ATOM      1  C   UNL A   1      32.358  30.886  26.717  1.00  0.00     0.275 C 
ENDROOT
BRANCH   1   2
ATOM      2  O   UNL A   1      33.568  30.356  27.297  1.00  0.00    -0.458 OA
BRANCH   2   3
ATOM      3  C   UNL A   1      34.432  30.868  28.208  1.00  0.00     0.338 C 
ATOM      4  O   UNL A   1      34.097  31.884  28.817  1.00  0.00    -0.246 OA
BRANCH   3   5
ATOM      5  C   UNL A   1      35.808  30.334  28.474  1.00  0.00     0.060 A 
ATOM      6  C   UNL A   1      36.288  29.897  29.709  1.00  0.00     0.016 A 
ATOM      7  C   UNL A   1      36.699  30.306  27.382  1.00  0.00     0.016 A 
ATOM      8  C   UNL A   1      37.585  29.373  29.838  1.00  0.00     0.010 A 
ATOM      9  C   UNL A   1      37.993  29.775  27.502  1.00  0.00     0.010 A 
ATOM     10  C   UNL A   1      38.446  29.303  28.738  1.00  0.00    -0.014 A 
BRANCH  10  11
ATOM     11  C   UNL A   1      39.864  28.907  28.939  1.00  0.00     0.031 A 
ATOM     12  C   UNL A   1      40.792  29.924  29.535  1.00  0.00     0.074 A 
ATOM     13  C   UNL A   1      40.310  27.659  28.687  1.00  0.00     0.049 A 
ATOM     14  N   UNL A   1      42.010  29.757  29.973  1.00  0.00    -0.248 NA
ATOM     15  C   UNL A   1      40.262  31.287  29.725  1.00  0.00     0.031 C 
ATOM     16  C   UNL A   1      39.489  26.545  28.231  1.00  0.00     0.029 A 
ATOM     17  N   UNL A   1      41.561  27.102  28.784  1.00  0.00    -0.354 N 
ATOM     18  C   UNL A   1      42.354  30.958  30.575  1.00  0.00     0.074 A 
ATOM     19  C   UNL A   1      41.261  31.878  30.362  1.00  0.00     0.031 C 
ATOM     20  C   UNL A   1      40.256  25.470  27.991  1.00  0.00     0.029 A 
ATOM     21  C   UNL A   1      41.624  25.793  28.356  1.00  0.00     0.049 A 
ATOM     22  H   UNL A   1      42.342  27.593  29.130  1.00  0.00     0.167 HD
ATOM     23  C   UNL A   1      43.464  31.242  31.290  1.00  0.00     0.037 A 
ATOM     24  C   UNL A   1      42.659  24.934  28.307  1.00  0.00     0.037 A 
ATOM     25  C   UNL A   1      44.569  30.337  31.445  1.00  0.00     0.049 A 
ATOM     26  C   UNL A   1      43.952  25.345  28.934  1.00  0.00     0.074 A 
ATOM     27  C   UNL A   1      45.755  30.535  32.127  1.00  0.00     0.029 A 
ATOM     28  N   UNL A   1      44.633  29.067  30.888  1.00  0.00    -0.354 N 
ATOM     29  N   UNL A   1      44.239  26.468  29.545  1.00  0.00    -0.248 NA
ATOM     30  C   UNL A   1      45.035  24.355  28.926  1.00  0.00     0.031 C 
ATOM     31  C   UNL A   1      46.560  29.408  31.935  1.00  0.00     0.029 A 
ATOM     32  C   UNL A   1      45.856  28.487  31.178  1.00  0.00     0.049 A 
ATOM     33  H   UNL A   1      43.916  28.642  30.365  1.00  0.00     0.167 HD
ATOM     34  C   UNL A   1      45.527  26.307  30.031  1.00  0.00     0.074 A 
ATOM     35  C   UNL A   1      45.960  24.979  29.642  1.00  0.00     0.031 C 
ATOM     36  C   UNL A   1      46.275  27.176  30.752  1.00  0.00     0.037 A 
BRANCH  23  37
ATOM     37  C   UNL A   1      43.523  32.576  31.970  1.00  0.00     0.058 A 
ATOM     38  C   UNL A   1      43.025  32.744  33.269  1.00  0.00     0.135 A 
ATOM     39  C   UNL A   1      44.032  33.704  31.304  1.00  0.00     0.135 A 
ATOM     40  F   UNL A   1      42.550  31.692  33.953  1.00  0.00    -0.206 F 
ATOM     41  C   UNL A   1      43.003  33.994  33.877  1.00  0.00     0.059 A 
ATOM     42  C   UNL A   1      44.035  34.960  31.901  1.00  0.00     0.059 A 
ATOM     43  F   UNL A   1      44.549  33.585  30.071  1.00  0.00    -0.206 F 
ATOM     44  C   UNL A   1      43.502  35.098  33.181  1.00  0.00     0.060 A 
BRANCH  44  45
ATOM     45  S   UNL A   1      43.451  36.713  33.984  1.00  0.00     0.124 S 
ATOM     46  O   UNL A   1      44.585  36.630  34.896  1.00  0.00    -0.237 OA
ATOM     47  O   UNL A   1      43.609  37.620  32.850  1.00  0.00    -0.237 OA
ATOM     48  O   UNL A   1      42.135  36.736  34.615  1.00  0.00    -0.744 OA
ENDBRANCH  44  45
ENDBRANCH  23  37
BRANCH  24  49
ATOM     49  C   UNL A   1      42.515  23.589  27.696  1.00  0.00     0.058 A 
ATOM     50  C   UNL A   1      42.285  22.470  28.506  1.00  0.00     0.135 A 
ATOM     51  C   UNL A   1      42.571  23.395  26.308  1.00  0.00     0.135 A 
ATOM     52  F   UNL A   1      42.231  22.601  29.839  1.00  0.00    -0.206 F 
ATOM     53  C   UNL A   1      42.139  21.198  27.963  1.00  0.00     0.059 A 
ATOM     54  C   UNL A   1      42.432  22.130  25.742  1.00  0.00     0.059 A 
ATOM     55  F   UNL A   1      42.757  24.445  25.494  1.00  0.00    -0.206 F 
ATOM     56  C   UNL A   1      42.244  21.034  26.583  1.00  0.00     0.060 A 
BRANCH  56  57
ATOM     57  S   UNL A   1      42.185  19.358  25.913  1.00  0.00     0.124 S 
ATOM     58  O   UNL A   1      43.041  19.503  24.739  1.00  0.00    -0.237 OA
ATOM     59  O   UNL A   1      42.737  18.565  27.007  1.00  0.00    -0.237 OA
ATOM     60  O   UNL A   1      40.767  19.155  25.643  1.00  0.00    -0.744 OA
ENDBRANCH  56  57
ENDBRANCH  24  49
BRANCH  36  61
ATOM     61  C   UNL A   1      47.640  26.714  31.156  1.00  0.00     0.058 A 
ATOM     62  C   UNL A   1      48.757  27.021  30.365  1.00  0.00     0.135 A 
ATOM     63  C   UNL A   1      47.834  25.937  32.308  1.00  0.00     0.135 A 
ATOM     64  F   UNL A   1      48.620  27.763  29.255  1.00  0.00    -0.206 F 
ATOM     65  C   UNL A   1      50.022  26.559  30.696  1.00  0.00     0.059 A 
ATOM     66  C   UNL A   1      49.097  25.491  32.675  1.00  0.00     0.059 A 
ATOM     67  F   UNL A   1      46.796  25.639  33.106  1.00  0.00    -0.206 F 
ATOM     68  C   UNL A   1      50.182  25.795  31.853  1.00  0.00     0.060 A 
BRANCH  68  69
ATOM     69  S   UNL A   1      51.839  25.231  32.287  1.00  0.00     0.124 S 
ATOM     70  O   UNL A   1      51.640  23.790  32.405  1.00  0.00    -0.237 OA
ATOM     71  O   UNL A   1      52.625  25.672  31.140  1.00  0.00    -0.237 OA
ATOM     72  O   UNL A   1      52.118  25.932  33.536  1.00  0.00    -0.744 OA
ENDBRANCH  68  69
ENDBRANCH  36  61
ENDBRANCH  10  11
ENDBRANCH   3   5
ENDBRANCH   2   3
ENDBRANCH   1   2
BRANCH   1  73
ATOM     73  C   UNL A   1      31.690  29.964  25.707  1.00  0.00     0.274 C 
BRANCH  73  74
ATOM     74  O   UNL A   1      32.619  29.550  24.708  1.00  0.00    -0.462 OA
BRANCH  74  75
ATOM     75  C   UNL A   1      32.173  28.715  23.727  1.00  0.00     0.310 C 
ATOM     76  O   UNL A   1      32.257  28.950  22.524  1.00  0.00    -0.252 OA
BRANCH  75  77
ATOM     77  C   UNL A   1      31.612  27.432  24.331  1.00  0.00     0.115 C 
ATOM     78  C   UNL A   1      31.162  26.470  23.235  1.00  0.00     0.043 C 
ATOM     79  C   UNL A   1      32.617  26.721  25.244  1.00  0.00     0.097 C 
ATOM     80  C   UNL A   1      32.321  25.896  22.474  1.00  0.00    -0.030 C 
ATOM     81  C   UNL A   1      33.840  26.271  24.431  1.00  0.00     0.041 C 
ATOM     82  C   UNL A   1      33.547  25.839  23.014  1.00  0.00    -0.030 C 
BRANCH  79  83
ATOM     83  C   UNL A   1      31.831  25.772  26.192  1.00  0.00     0.224 C 
ATOM     84  O   UNL A   1      31.121  26.287  27.068  1.00  0.00    -0.275 OA
ATOM     85  N   UNL A   1      31.728  24.420  26.079  1.00  0.00    -0.344 N 
ATOM     86  H   UNL A   1      31.036  24.001  26.639  1.00  0.00     0.164 HD
BRANCH  85  87
ATOM     87  C   UNL A   1      32.492  23.507  25.251  1.00  0.00     0.172 C 
ATOM     88  C   UNL A   1      31.721  22.365  24.616  1.00  0.00     0.037 C 
ATOM     89  C   UNL A   1      33.674  22.908  26.021  1.00  0.00     0.249 C 
ATOM     90  C   UNL A   1      32.650  21.751  23.566  1.00  0.00     0.025 C 
ATOM     91  N   UNL A   1      34.571  22.276  25.147  1.00  0.00    -0.308 N 
ATOM     92  O   UNL A   1      33.845  23.173  27.207  1.00  0.00    -0.272 OA
ATOM     93  C   UNL A   1      34.039  21.385  24.106  1.00  0.00     0.126 C 
BRANCH  91  94
ATOM     94  C   UNL A   1      35.986  22.457  25.296  1.00  0.00     0.080 A 
ATOM     95  C   UNL A   1      36.491  23.748  25.534  1.00  0.00     0.029 A 
ATOM     96  C   UNL A   1      36.894  21.389  25.396  1.00  0.00     0.146 A 
ATOM     97  C   UNL A   1      37.822  23.944  25.929  1.00  0.00     0.002 A 
ATOM     98  C   UNL A   1      38.217  21.582  25.793  1.00  0.00     0.041 A 
ATOM     99  F   UNL A   1      36.558  20.142  25.039  1.00  0.00    -0.205 F 
ATOM    100  C   UNL A   1      38.681  22.860  26.076  1.00  0.00     0.003 A 
ENDBRANCH  91  94
ENDBRANCH  85  87
ENDBRANCH  79  83
ENDBRANCH  75  77
ENDBRANCH  74  75
ENDBRANCH  73  74
ENDBRANCH   1  73
TORSDOF 17
ENDMDL
MODEL 2
REMARK VINA RESULT:     -12.0      2.356      3.122
REMARK SMILES O=C(OCCOC(=O)[C@H]1CC=CC[C@@H]1C(=O)N[C@@H]1CCCN(c2ccccc2F)C1=O)c1ccc(-c2c3nc(c(-c4c(F)cc(S(=O)(=O)[O-])cc4F)c4ccc([nH]4)c(-c4c(F)cc(S(=O)(=O)[O-])cc4F)c4nc(c(-c5c(F)cc(S(=O)(=O)[O-])cc5F)c5ccc2[nH]5)C=C4)C=C3)cc1
REMARK SMILES IDX 4 1 3 2 2 3 1 4 32 5 33 6 97 7 34 8 96 9 35 10 36 11 37 12
REMARK SMILES IDX 90 13 38 14 95 15 89 16 91 17 39 18 94 19 88 20 87 21 40 23
REMARK SMILES IDX 74 24 53 25 73 26 54 27 57 28 72 29 92 30 55 31 56 32 71 34
REMARK SMILES IDX 93 35 58 36 41 37 42 38 51 39 43 40 44 41 50 42 52 43 45 44
REMARK SMILES IDX 46 45 47 46 48 47 49 48 75 49 76 50 85 51 77 52 78 53 84 54
REMARK SMILES IDX 86 55 79 56 80 57 81 58 82 59 83 60 59 61 60 62 69 63 61 64
REMARK SMILES IDX 62 65 68 66 70 67 63 68 64 69 65 70 66 71 67 72 5 73 6 74
REMARK SMILES IDX 7 75 8 76 9 77 10 78 14 79 11 80 13 81 12 82 15 83 16 84
REMARK SMILES IDX 17 85 18 87 19 88 30 89 20 90 22 91 31 92 21 93 23 94 24 95
REMARK SMILES IDX 28 96 25 97 27 98 29 99 26 100
REMARK H PARENT 91 22 57 33 17 86
REMARK Flexibility Score: inf
ROOT
ATOM      1  C   UNL A   1      32.956  29.729  25.246  1.00  0.00     0.275 C 
ENDROOT
BRANCH   1   2
ATOM      2  O   UNL A   1      33.775  29.443  26.398  1.00  0.00    -0.458 OA
BRANCH   2   3
ATOM      3  C   UNL A   1      34.382  30.256  27.297  1.00  0.00     0.338 C 
ATOM      4  O   UNL A   1      33.805  31.293  27.625  1.00  0.00    -0.246 OA
BRANCH   3   5
ATOM      5  C   UNL A   1      35.752  30.027  27.865  1.00  0.00     0.060 A 
ATOM      6  C   UNL A   1      36.955  30.152  27.170  1.00  0.00     0.016 A 
ATOM      7  C   UNL A   1      35.818  29.615  29.213  1.00  0.00     0.016 A 
ATOM      8  C   UNL A   1      38.188  29.954  27.812  1.00  0.00     0.010 A 
ATOM      9  C   UNL A   1      37.047  29.425  29.863  1.00  0.00     0.010 A 
ATOM     10  C   UNL A   1      38.247  29.595  29.163  1.00  0.00    -0.014 A 
BRANCH  10  11
ATOM     11  C   UNL A   1      39.551  29.225  29.769  1.00  0.00     0.031 A 
ATOM     12  C   UNL A   1      40.036  30.043  30.929  1.00  0.00     0.074 A 
ATOM     13  C   UNL A   1      40.254  28.144  29.370  1.00  0.00     0.049 A 
ATOM     14  N   UNL A   1      41.037  29.804  31.733  1.00  0.00    -0.248 NA
ATOM     15  C   UNL A   1      39.258  31.247  31.272  1.00  0.00     0.031 C 
ATOM     16  C   UNL A   1      39.835  27.195  28.348  1.00  0.00     0.029 A 
ATOM     17  N   UNL A   1      41.467  27.645  29.778  1.00  0.00    -0.354 N 
ATOM     18  C   UNL A   1      40.950  30.767  32.727  1.00  0.00     0.074 A 
ATOM     19  C   UNL A   1      39.864  31.653  32.379  1.00  0.00     0.031 C 
ATOM     20  C   UNL A   1      40.802  26.290  28.130  1.00  0.00     0.029 A 
ATOM     21  C   UNL A   1      41.887  26.545  29.062  1.00  0.00     0.049 A 
ATOM     22  H   UNL A   1      41.988  28.038  30.515  1.00  0.00     0.167 HD
ATOM     23  C   UNL A   1      41.681  30.861  33.859  1.00  0.00     0.037 A 
ATOM     24  C   UNL A   1      43.000  25.797  29.174  1.00  0.00     0.037 A 
ATOM     25  C   UNL A   1      42.796  30.008  34.164  1.00  0.00     0.049 A 
ATOM     26  C   UNL A   1      43.910  26.049  30.332  1.00  0.00     0.074 A 
ATOM     27  C   UNL A   1      43.623  30.036  35.272  1.00  0.00     0.029 A 
ATOM     28  N   UNL A   1      43.255  28.985  33.346  1.00  0.00    -0.354 N 
ATOM     29  N   UNL A   1      43.781  26.932  31.291  1.00  0.00    -0.248 NA
ATOM     30  C   UNL A   1      45.075  25.166  30.463  1.00  0.00     0.031 C 
ATOM     31  C   UNL A   1      44.617  29.069  35.097  1.00  0.00     0.029 A 
ATOM     32  C   UNL A   1      44.379  28.403  33.906  1.00  0.00     0.049 A 
ATOM     33  H   UNL A   1      42.843  28.715  32.494  1.00  0.00     0.167 HD
ATOM     34  C   UNL A   1      44.828  26.688  32.165  1.00  0.00     0.074 A 
ATOM     35  C   UNL A   1      45.579  25.574  31.618  1.00  0.00     0.031 C 
ATOM     36  C   UNL A   1      45.127  27.317  33.327  1.00  0.00     0.037 A 
BRANCH  23  37
ATOM     37  C   UNL A   1      41.282  31.911  34.850  1.00  0.00     0.058 A 
ATOM     38  C   UNL A   1      40.232  31.689  35.752  1.00  0.00     0.135 A 
ATOM     39  C   UNL A   1      41.916  33.165  34.869  1.00  0.00     0.135 A 
ATOM     40  F   UNL A   1      39.612  30.500  35.786  1.00  0.00    -0.206 F 
ATOM     41  C   UNL A   1      39.804  32.685  36.621  1.00  0.00     0.059 A 
ATOM     42  C   UNL A   1      41.514  34.170  35.742  1.00  0.00     0.059 A 
ATOM     43  F   UNL A   1      42.949  33.413  34.047  1.00  0.00    -0.206 F 
ATOM     44  C   UNL A   1      40.445  33.926  36.602  1.00  0.00     0.060 A 
BRANCH  44  45
ATOM     45  S   UNL A   1      39.864  35.210  37.729  1.00  0.00     0.124 S 
ATOM     46  O   UNL A   1      39.621  36.322  36.817  1.00  0.00    -0.237 OA
ATOM     47  O   UNL A   1      38.676  34.589  38.308  1.00  0.00    -0.237 OA
ATOM     48  O   UNL A   1      40.983  35.384  38.650  1.00  0.00    -0.744 OA
ENDBRANCH  44  45
ENDBRANCH  23  37
BRANCH  24  49
ATOM     49  C   UNL A   1      43.299  24.711  28.207  1.00  0.00     0.058 A 
ATOM     50  C   UNL A   1      43.953  25.001  27.003  1.00  0.00     0.135 A 
ATOM     51  C   UNL A   1      42.973  23.372  28.471  1.00  0.00     0.135 A 
ATOM     52  F   UNL A   1      44.279  26.266  26.701  1.00  0.00    -0.206 F 
ATOM     53  C   UNL A   1      44.254  24.005  26.081  1.00  0.00     0.059 A 
ATOM     54  C   UNL A   1      43.260  22.358  27.560  1.00  0.00     0.059 A 
ATOM     55  F   UNL A   1      42.376  23.046  29.627  1.00  0.00    -0.206 F 
ATOM     56  C   UNL A   1      43.876  22.692  26.354  1.00  0.00     0.060 A 
BRANCH  56  57
ATOM     57  S   UNL A   1      44.156  21.439  25.085  1.00  0.00     0.124 S 
ATOM     58  O   UNL A   1      44.133  22.263  23.879  1.00  0.00    -0.237 OA
ATOM     59  O   UNL A   1      45.459  20.900  25.460  1.00  0.00    -0.237 OA
ATOM     60  O   UNL A   1      43.028  20.532  25.256  1.00  0.00    -0.744 OA
ENDBRANCH  56  57
ENDBRANCH  24  49
BRANCH  36  61
ATOM     61  C   UNL A   1      46.324  26.816  34.073  1.00  0.00     0.058 A 
ATOM     62  C   UNL A   1      46.189  25.800  35.031  1.00  0.00     0.135 A 
ATOM     63  C   UNL A   1      47.596  27.368  33.864  1.00  0.00     0.135 A 
ATOM     64  F   UNL A   1      44.992  25.240  35.263  1.00  0.00    -0.206 F 
ATOM     65  C   UNL A   1      47.278  25.357  35.768  1.00  0.00     0.059 A 
ATOM     66  C   UNL A   1      48.704  26.918  34.569  1.00  0.00     0.059 A 
ATOM     67  F   UNL A   1      47.773  28.328  32.941  1.00  0.00    -0.206 F 
ATOM     68  C   UNL A   1      48.531  25.922  35.530  1.00  0.00     0.060 A 
BRANCH  68  69
ATOM     69  S   UNL A   1      49.941  25.312  36.474  1.00  0.00     0.124 S 
ATOM     70  O   UNL A   1      49.821  23.870  36.287  1.00  0.00    -0.237 OA
ATOM     71  O   UNL A   1      51.065  25.950  35.796  1.00  0.00    -0.237 OA
ATOM     72  O   UNL A   1      49.677  25.796  37.825  1.00  0.00    -0.744 OA
ENDBRANCH  68  69
ENDBRANCH  36  61
ENDBRANCH  10  11
ENDBRANCH   3   5
ENDBRANCH   2   3
ENDBRANCH   1   2
BRANCH   1  73
ATOM     73  C   UNL A   1      31.459  29.590  25.488  1.00  0.00     0.274 C 
BRANCH  73  74
ATOM     74  O   UNL A   1      31.055  28.227  25.389  1.00  0.00    -0.462 OA
BRANCH  74  75
ATOM     75  C   UNL A   1      31.134  27.453  26.508  1.00  0.00     0.310 C 
ATOM     76  O   UNL A   1      31.110  27.889  27.656  1.00  0.00    -0.252 OA
BRANCH  75  77
ATOM     77  C   UNL A   1      31.195  25.976  26.134  1.00  0.00     0.115 C 
ATOM     78  C   UNL A   1      31.185  25.802  24.617  1.00  0.00     0.043 C 
ATOM     79  C   UNL A   1      32.425  25.270  26.714  1.00  0.00     0.097 C 
ATOM     80  C   UNL A   1      32.465  26.268  23.986  1.00  0.00    -0.030 C 
ATOM     81  C   UNL A   1      33.707  25.878  26.126  1.00  0.00     0.041 C 
ATOM     82  C   UNL A   1      33.604  26.332  24.689  1.00  0.00    -0.030 C 
BRANCH  79  83
ATOM     83  C   UNL A   1      32.145  23.741  26.741  1.00  0.00     0.224 C 
ATOM     84  O   UNL A   1      31.285  23.324  27.532  1.00  0.00    -0.275 OA
ATOM     85  N   UNL A   1      32.648  22.811  25.883  1.00  0.00    -0.344 N 
ATOM     86  H   UNL A   1      32.215  21.929  25.917  1.00  0.00     0.164 HD
BRANCH  85  87
ATOM     87  C   UNL A   1      33.731  22.935  24.927  1.00  0.00     0.172 C 
ATOM     88  C   UNL A   1      33.403  22.588  23.488  1.00  0.00     0.037 C 
ATOM     89  C   UNL A   1      34.947  22.105  25.348  1.00  0.00     0.249 C 
ATOM     90  C   UNL A   1      34.578  23.092  22.646  1.00  0.00     0.025 C 
ATOM     91  N   UNL A   1      36.079  22.459  24.599  1.00  0.00    -0.308 N 
ATOM     92  O   UNL A   1      34.905  21.399  26.352  1.00  0.00    -0.272 OA
ATOM     93  C   UNL A   1      35.947  22.608  23.142  1.00  0.00     0.126 C 
BRANCH  91  94
ATOM     94  C   UNL A   1      37.354  22.628  25.235  1.00  0.00     0.080 A 
ATOM     95  C   UNL A   1      37.660  23.859  25.840  1.00  0.00     0.029 A 
ATOM     96  C   UNL A   1      38.255  21.571  25.448  1.00  0.00     0.146 A 
ATOM     97  C   UNL A   1      38.775  23.997  26.679  1.00  0.00     0.002 A 
ATOM     98  C   UNL A   1      39.361  21.703  26.286  1.00  0.00     0.041 A 
ATOM     99  F   UNL A   1      38.142  20.406  24.796  1.00  0.00    -0.205 F 
ATOM    100  C   UNL A   1      39.616  22.914  26.918  1.00  0.00     0.003 A 
ENDBRANCH  91  94
ENDBRANCH  85  87
ENDBRANCH  79  83
ENDBRANCH  75  77
ENDBRANCH  74  75
ENDBRANCH  73  74
ENDBRANCH   1  73
TORSDOF 17
ENDMDL
MODEL 3
REMARK VINA RESULT:     -11.8      2.709      9.374
REMARK SMILES O=C(OCCOC(=O)[C@H]1CC=CC[C@@H]1C(=O)N[C@@H]1CCCN(c2ccccc2F)C1=O)c1ccc(-c2c3nc(c(-c4c(F)cc(S(=O)(=O)[O-])cc4F)c4ccc([nH]4)c(-c4c(F)cc(S(=O)(=O)[O-])cc4F)c4nc(c(-c5c(F)cc(S(=O)(=O)[O-])cc5F)c5ccc2[nH]5)C=C4)C=C3)cc1
REMARK SMILES IDX 4 1 3 2 2 3 1 4 32 5 33 6 97 7 34 8 96 9 35 10 36 11 37 12
REMARK SMILES IDX 90 13 38 14 95 15 89 16 91 17 39 18 94 19 88 20 87 21 40 23
REMARK SMILES IDX 74 24 53 25 73 26 54 27 57 28 72 29 92 30 55 31 56 32 71 34
REMARK SMILES IDX 93 35 58 36 41 37 42 38 51 39 43 40 44 41 50 42 52 43 45 44
REMARK SMILES IDX 46 45 47 46 48 47 49 48 75 49 76 50 85 51 77 52 78 53 84 54
REMARK SMILES IDX 86 55 79 56 80 57 81 58 82 59 83 60 59 61 60 62 69 63 61 64
REMARK SMILES IDX 62 65 68 66 70 67 63 68 64 69 65 70 66 71 67 72 5 73 6 74
REMARK SMILES IDX 7 75 8 76 9 77 10 78 14 79 11 80 13 81 12 82 15 83 16 84
REMARK SMILES IDX 17 85 18 87 19 88 30 89 20 90 22 91 31 92 21 93 23 94 24 95
REMARK SMILES IDX 28 96 25 97 27 98 29 99 26 100
REMARK H PARENT 91 22 57 33 17 86
REMARK Flexibility Score: inf
ROOT
ATOM      1  C   UNL A   1      37.367  21.500  24.485  1.00  0.00     0.275 C 
ENDROOT
BRANCH   1   2
ATOM      2  O   UNL A   1      37.784  22.533  25.401  1.00  0.00    -0.458 OA
BRANCH   2   3
ATOM      3  C   UNL A   1      38.981  22.795  25.981  1.00  0.00     0.338 C 
ATOM      4  O   UNL A   1      39.819  21.893  26.015  1.00  0.00    -0.246 OA
BRANCH   3   5
ATOM      5  C   UNL A   1      39.336  24.083  26.662  1.00  0.00     0.060 A 
ATOM      6  C   UNL A   1      40.137  25.094  26.128  1.00  0.00     0.016 A 
ATOM      7  C   UNL A   1      38.840  24.267  27.969  1.00  0.00     0.016 A 
ATOM      8  C   UNL A   1      40.370  26.284  26.837  1.00  0.00     0.010 A 
ATOM      9  C   UNL A   1      39.063  25.457  28.680  1.00  0.00     0.010 A 
ATOM     10  C   UNL A   1      39.834  26.479  28.114  1.00  0.00    -0.014 A 
BRANCH  10  11
ATOM     11  C   UNL A   1      40.238  27.667  28.908  1.00  0.00     0.031 A 
ATOM     12  C   UNL A   1      41.600  27.653  29.536  1.00  0.00     0.074 A 
ATOM     13  C   UNL A   1      39.466  28.770  29.005  1.00  0.00     0.049 A 
ATOM     14  N   UNL A   1      42.243  28.635  30.109  1.00  0.00    -0.248 NA
ATOM     15  C   UNL A   1      42.366  26.397  29.450  1.00  0.00     0.031 C 
ATOM     16  C   UNL A   1      38.184  28.964  28.341  1.00  0.00     0.029 A 
ATOM     17  N   UNL A   1      39.641  29.947  29.690  1.00  0.00    -0.354 N 
ATOM     18  C   UNL A   1      43.515  28.145  30.363  1.00  0.00     0.074 A 
ATOM     19  C   UNL A   1      43.529  26.753  29.974  1.00  0.00     0.031 C 
ATOM     20  C   UNL A   1      37.637  30.130  28.718  1.00  0.00     0.029 A 
ATOM     21  C   UNL A   1      38.572  30.812  29.596  1.00  0.00     0.049 A 
ATOM     22  H   UNL A   1      40.457  30.154  30.202  1.00  0.00     0.167 HD
ATOM     23  C   UNL A   1      44.589  28.820  30.826  1.00  0.00     0.037 A 
ATOM     24  C   UNL A   1      38.385  32.038  30.120  1.00  0.00     0.037 A 
ATOM     25  C   UNL A   1      44.546  30.188  31.262  1.00  0.00     0.049 A 
ATOM     26  C   UNL A   1      39.536  32.697  30.810  1.00  0.00     0.074 A 
ATOM     27  C   UNL A   1      45.572  30.960  31.776  1.00  0.00     0.029 A 
ATOM     28  N   UNL A   1      43.409  30.983  31.259  1.00  0.00    -0.354 N 
ATOM     29  N   UNL A   1      40.748  32.234  30.992  1.00  0.00    -0.248 NA
ATOM     30  C   UNL A   1      39.318  34.061  31.303  1.00  0.00     0.031 C 
ATOM     31  C   UNL A   1      45.042  32.203  32.136  1.00  0.00     0.029 A 
ATOM     32  C   UNL A   1      43.699  32.223  31.800  1.00  0.00     0.049 A 
ATOM     33  H   UNL A   1      42.526  30.705  30.923  1.00  0.00     0.167 HD
ATOM     34  C   UNL A   1      41.453  33.267  31.589  1.00  0.00     0.074 A 
ATOM     35  C   UNL A   1      40.530  34.376  31.736  1.00  0.00     0.031 C 
ATOM     36  C   UNL A   1      42.755  33.299  31.964  1.00  0.00     0.037 A 
BRANCH  23  37
ATOM     37  C   UNL A   1      45.898  28.091  30.864  1.00  0.00     0.058 A 
ATOM     38  C   UNL A   1      46.291  27.377  32.004  1.00  0.00     0.135 A 
ATOM     39  C   UNL A   1      46.786  28.144  29.777  1.00  0.00     0.135 A 
ATOM     40  F   UNL A   1      45.467  27.280  33.058  1.00  0.00    -0.206 F 
ATOM     41  C   UNL A   1      47.536  26.764  32.078  1.00  0.00     0.059 A 
ATOM     42  C   UNL A   1      48.030  27.523  29.823  1.00  0.00     0.059 A 
ATOM     43  F   UNL A   1      46.439  28.787  28.650  1.00  0.00    -0.206 F 
ATOM     44  C   UNL A   1      48.403  26.850  30.986  1.00  0.00     0.060 A 
BRANCH  44  45
ATOM     45  S   UNL A   1      50.019  26.059  31.108  1.00  0.00     0.124 S 
ATOM     46  O   UNL A   1      50.899  27.204  31.308  1.00  0.00    -0.237 OA
ATOM     47  O   UNL A   1      49.841  25.182  32.261  1.00  0.00    -0.237 OA
ATOM     48  O   UNL A   1      50.159  25.374  29.826  1.00  0.00    -0.744 OA
ENDBRANCH  44  45
ENDBRANCH  23  37
BRANCH  24  49
ATOM     49  C   UNL A   1      37.090  32.748  29.975  1.00  0.00     0.058 A 
ATOM     50  C   UNL A   1      36.902  33.660  28.929  1.00  0.00     0.135 A 
ATOM     51  C   UNL A   1      36.014  32.514  30.843  1.00  0.00     0.135 A 
ATOM     52  F   UNL A   1      37.903  33.924  28.076  1.00  0.00    -0.206 F 
ATOM     53  C   UNL A   1      35.698  34.336  28.762  1.00  0.00     0.059 A 
ATOM     54  C   UNL A   1      34.801  33.182  30.699  1.00  0.00     0.059 A 
ATOM     55  F   UNL A   1      36.141  31.624  31.839  1.00  0.00    -0.206 F 
ATOM     56  C   UNL A   1      34.664  34.113  29.669  1.00  0.00     0.060 A 
BRANCH  56  57
ATOM     57  S   UNL A   1      33.160  35.100  29.512  1.00  0.00     0.124 S 
ATOM     58  O   UNL A   1      32.465  34.370  28.455  1.00  0.00    -0.237 OA
ATOM     59  O   UNL A   1      32.577  34.994  30.845  1.00  0.00    -0.237 OA
ATOM     60  O   UNL A   1      33.662  36.419  29.148  1.00  0.00    -0.744 OA
ENDBRANCH  56  57
ENDBRANCH  24  49
BRANCH  36  61
ATOM     61  C   UNL A   1      43.247  34.573  32.574  1.00  0.00     0.058 A 
ATOM     62  C   UNL A   1      43.228  34.748  33.966  1.00  0.00     0.135 A 
ATOM     63  C   UNL A   1      43.705  35.634  31.778  1.00  0.00     0.135 A 
ATOM     64  F   UNL A   1      42.802  33.760  34.769  1.00  0.00    -0.206 F 
ATOM     65  C   UNL A   1      43.634  35.940  34.548  1.00  0.00     0.059 A 
ATOM     66  C   UNL A   1      44.144  36.824  32.341  1.00  0.00     0.059 A 
ATOM     67  F   UNL A   1      43.760  35.500  30.443  1.00  0.00    -0.206 F 
ATOM     68  C   UNL A   1      44.090  36.972  33.727  1.00  0.00     0.060 A 
BRANCH  68  69
ATOM     69  S   UNL A   1      44.645  38.503  34.501  1.00  0.00     0.124 S 
ATOM     70  O   UNL A   1      46.094  38.385  34.386  1.00  0.00    -0.237 OA
ATOM     71  O   UNL A   1      44.021  39.518  33.659  1.00  0.00    -0.237 OA
ATOM     72  O   UNL A   1      44.111  38.408  35.857  1.00  0.00    -0.744 OA
ENDBRANCH  68  69
ENDBRANCH  36  61
ENDBRANCH  10  11
ENDBRANCH   3   5
ENDBRANCH   2   3
ENDBRANCH   1   2
BRANCH   1  73
ATOM     73  C   UNL A   1      36.410  20.479  25.083  1.00  0.00     0.274 C 
BRANCH  73  74
ATOM     74  O   UNL A   1      35.458  21.115  25.933  1.00  0.00    -0.462 OA
BRANCH  74  75
ATOM     75  C   UNL A   1      34.135  20.918  25.672  1.00  0.00     0.310 C 
ATOM     76  O   UNL A   1      33.409  20.154  26.302  1.00  0.00    -0.252 OA
BRANCH  75  77
ATOM     77  C   UNL A   1      33.676  21.822  24.532  1.00  0.00     0.115 C 
ATOM     78  C   UNL A   1      32.155  21.803  24.406  1.00  0.00     0.043 C 
ATOM     79  C   UNL A   1      34.150  23.271  24.699  1.00  0.00     0.097 C 
ATOM     80  C   UNL A   1      31.483  22.498  25.554  1.00  0.00    -0.030 C 
ATOM     81  C   UNL A   1      33.529  23.885  25.962  1.00  0.00     0.041 C 
ATOM     82  C   UNL A   1      32.127  23.422  26.281  1.00  0.00    -0.030 C 
BRANCH  79  83
ATOM     83  C   UNL A   1      34.107  23.963  23.308  1.00  0.00     0.224 C 
ATOM     84  O   UNL A   1      34.865  23.535  22.424  1.00  0.00    -0.275 OA
ATOM     85  N   UNL A   1      33.219  24.912  22.904  1.00  0.00    -0.344 N 
ATOM     86  H   UNL A   1      33.209  25.095  21.938  1.00  0.00     0.164 HD
BRANCH  85  87
ATOM     87  C   UNL A   1      32.287  25.693  23.695  1.00  0.00     0.172 C 
ATOM     88  C   UNL A   1      30.825  25.594  23.306  1.00  0.00     0.037 C 
ATOM     89  C   UNL A   1      32.673  27.176  23.712  1.00  0.00     0.249 C 
ATOM     90  C   UNL A   1      30.032  26.230  24.450  1.00  0.00     0.025 C 
ATOM     91  N   UNL A   1      31.962  27.866  24.705  1.00  0.00    -0.308 N 
ATOM     92  O   UNL A   1      33.630  27.580  23.059  1.00  0.00    -0.272 OA
ATOM     93  C   UNL A   1      30.516  27.635  24.833  1.00  0.00     0.126 C 
BRANCH  91  94
ATOM     94  C   UNL A   1      32.625  28.816  25.551  1.00  0.00     0.080 A 
ATOM     95  C   UNL A   1      32.085  30.107  25.687  1.00  0.00     0.029 A 
ATOM     96  C   UNL A   1      33.693  28.479  26.400  1.00  0.00     0.146 A 
ATOM     97  C   UNL A   1      32.545  30.984  26.679  1.00  0.00     0.002 A 
ATOM     98  C   UNL A   1      34.149  29.348  27.391  1.00  0.00     0.041 A 
ATOM     99  F   UNL A   1      34.379  27.338  26.251  1.00  0.00    -0.205 F 
ATOM    100  C   UNL A   1      33.565  30.599  27.544  1.00  0.00     0.003 A 
ENDBRANCH  91  94
ENDBRANCH  85  87
ENDBRANCH  79  83
ENDBRANCH  75  77
ENDBRANCH  74  75
ENDBRANCH  73  74
ENDBRANCH   1  73
TORSDOF 17
ENDMDL
