MODEL 1
REMARK VINA RESULT:     -10.0      0.000      0.000
REMARK SMILES CC(C)[C@H]1CC[C@@H](C)C/C1=C(\F)C(=O)OCCOC(=O)c1ccc(-c2c3nc(c(-c4c(F)cc(S(=O)(=O)[O-])cc4F)c4ccc([nH]4)c(-c4c(F)cc(S(=O)(=O)[O-])cc4F)c4nc(c(-c5c(F)cc(S(=O)(=O)[O-])cc5F)c5ccc2[nH]5)C=C4)C=C3)cc1
REMARK SMILES IDX 17 1 16 2 15 3 13 4 14 5 11 6 4 7 5 8 10 9 6 10 9 11 7 12
REMARK SMILES IDX 12 13 8 14 2 15 1 16 3 17 18 18 19 19 20 20 21 21 22 22
REMARK SMILES IDX 86 23 23 24 85 25 24 26 25 27 26 28 79 29 27 30 84 31 78 32
REMARK SMILES IDX 80 33 28 34 83 35 77 36 76 37 29 39 63 40 42 41 62 42 43 43
REMARK SMILES IDX 46 44 61 45 81 46 44 47 45 48 60 50 82 51 47 52 30 53 31 54
REMARK SMILES IDX 40 55 32 56 33 57 39 58 41 59 34 60 35 61 36 62 37 63 38 64
REMARK SMILES IDX 64 65 65 66 74 67 66 68 67 69 73 70 75 71 68 72 69 73 70 74
REMARK SMILES IDX 71 75 72 76 48 77 49 78 58 79 50 80 51 81 57 82 59 83 52 84
REMARK SMILES IDX 53 85 54 86 55 87 56 88
REMARK H PARENT 80 38 46 49
REMARK Flexibility Score: inf
ROOT
ATOM      1  C   UNL A   1      34.401  32.965  29.307  1.00  0.00     0.275 C 
ENDROOT
BRANCH   1   2
ATOM      2  C   UNL A   1      34.338  33.842  30.562  1.00  0.00     0.275 C 
BRANCH   2   3
ATOM      3  O   UNL A   1      35.655  34.318  30.899  1.00  0.00    -0.457 OA
BRANCH   3   4
ATOM      4  C   UNL A   1      35.893  34.387  32.238  1.00  0.00     0.367 C 
ATOM      5  O   UNL A   1      35.880  35.397  32.924  1.00  0.00    -0.243 OA
BRANCH   4   6
ATOM      6  C   UNL A   1      36.132  33.027  32.775  1.00  0.00     0.207 C 
ATOM      7  C   UNL A   1      38.437  32.288  31.680  1.00  0.00     0.021 C 
ATOM      8  C   UNL A   1      39.623  31.806  32.547  1.00  0.00     0.009 C 
ATOM      9  C   UNL A   1      37.139  32.152  32.540  1.00  0.00    -0.023 C 
ATOM     10  C   UNL A   1      39.457  30.493  33.347  1.00  0.00     0.004 C 
ATOM     11  C   UNL A   1      37.009  30.777  33.186  1.00  0.00     0.038 C 
ATOM     12  C   UNL A   1      38.152  30.455  34.147  1.00  0.00    -0.010 C 
ATOM     13  F   UNL A   1      35.116  32.652  33.589  1.00  0.00    -0.199 F 
ATOM     14  C   UNL A   1      38.164  31.365  35.384  1.00  0.00     0.008 C 
BRANCH   7  15
ATOM     15  C   UNL A   1      38.489  33.635  30.814  1.00  0.00    -0.010 C 
ATOM     16  C   UNL A   1      39.481  34.792  30.695  1.00  0.00     0.008 C 
ATOM     17  C   UNL A   1      38.240  33.242  29.350  1.00  0.00     0.008 C 
ENDBRANCH   7  15
ENDBRANCH   4   6
ENDBRANCH   3   4
ENDBRANCH   2   3
ENDBRANCH   1   2
BRANCH   1  18
ATOM     18  O   UNL A   1      34.990  31.682  29.623  1.00  0.00    -0.458 OA
BRANCH  18  19
ATOM     19  C   UNL A   1      35.086  30.778  28.606  1.00  0.00     0.338 C 
ATOM     20  O   UNL A   1      34.328  30.637  27.675  1.00  0.00    -0.246 OA
BRANCH  19  21
ATOM     21  C   UNL A   1      36.418  30.130  28.705  1.00  0.00     0.060 A 
ATOM     22  C   UNL A   1      37.181  30.151  27.555  1.00  0.00     0.016 A 
ATOM     23  C   UNL A   1      36.955  29.538  29.849  1.00  0.00     0.016 A 
ATOM     24  C   UNL A   1      38.515  29.710  27.584  1.00  0.00     0.010 A 
ATOM     25  C   UNL A   1      38.311  29.098  29.861  1.00  0.00     0.010 A 
ATOM     26  C   UNL A   1      39.138  29.255  28.737  1.00  0.00    -0.014 A 
BRANCH  26  27
ATOM     27  C   UNL A   1      40.573  28.814  28.590  1.00  0.00     0.031 A 
ATOM     28  C   UNL A   1      41.638  29.782  28.996  1.00  0.00     0.074 A 
ATOM     29  C   UNL A   1      40.992  27.531  28.437  1.00  0.00     0.049 A 
ATOM     30  N   UNL A   1      42.932  29.686  28.863  1.00  0.00    -0.248 NA
ATOM     31  C   UNL A   1      41.182  30.975  29.723  1.00  0.00     0.031 C 
ATOM     32  C   UNL A   1      40.130  26.367  28.486  1.00  0.00     0.029 A 
ATOM     33  N   UNL A   1      42.241  26.966  28.264  1.00  0.00    -0.354 N 
ATOM     34  C   UNL A   1      43.446  30.833  29.442  1.00  0.00     0.074 A 
ATOM     35  C   UNL A   1      42.330  31.586  29.972  1.00  0.00     0.031 C 
ATOM     36  C   UNL A   1      40.829  25.240  28.283  1.00  0.00     0.029 A 
ATOM     37  C   UNL A   1      42.215  25.600  28.030  1.00  0.00     0.049 A 
ATOM     38  H   UNL A   1      43.076  27.486  28.303  1.00  0.00     0.167 HD
ATOM     39  C   UNL A   1      44.735  31.231  29.496  1.00  0.00     0.037 A 
ATOM     40  C   UNL A   1      43.173  24.741  27.614  1.00  0.00     0.037 A 
ATOM     41  C   UNL A   1      45.843  30.463  28.999  1.00  0.00     0.049 A 
ATOM     42  C   UNL A   1      44.568  25.276  27.431  1.00  0.00     0.074 A 
ATOM     43  C   UNL A   1      47.169  30.845  28.893  1.00  0.00     0.029 A 
ATOM     44  N   UNL A   1      45.765  29.159  28.538  1.00  0.00    -0.354 N 
ATOM     45  N   UNL A   1      45.037  26.452  27.768  1.00  0.00    -0.248 NA
ATOM     46  C   UNL A   1      45.564  24.389  26.808  1.00  0.00     0.031 C 
ATOM     47  C   UNL A   1      47.881  29.794  28.309  1.00  0.00     0.029 A 
ATOM     48  C   UNL A   1      47.012  28.733  28.109  1.00  0.00     0.049 A 
ATOM     49  H   UNL A   1      44.945  28.615  28.520  1.00  0.00     0.167 HD
ATOM     50  C   UNL A   1      46.382  26.440  27.424  1.00  0.00     0.074 A 
ATOM     51  C   UNL A   1      46.661  25.132  26.867  1.00  0.00     0.031 C 
ATOM     52  C   UNL A   1      47.296  27.431  27.557  1.00  0.00     0.037 A 
BRANCH  39  53
ATOM     53  C   UNL A   1      44.977  32.631  29.966  1.00  0.00     0.058 A 
ATOM     54  C   UNL A   1      45.279  32.948  31.297  1.00  0.00     0.135 A 
ATOM     55  C   UNL A   1      44.871  33.681  29.039  1.00  0.00     0.135 A 
ATOM     56  F   UNL A   1      45.341  31.982  32.227  1.00  0.00    -0.206 F 
ATOM     57  C   UNL A   1      45.454  34.268  31.697  1.00  0.00     0.059 A 
ATOM     58  C   UNL A   1      45.071  35.002  29.411  1.00  0.00     0.059 A 
ATOM     59  F   UNL A   1      44.557  33.424  27.759  1.00  0.00    -0.206 F 
ATOM     60  C   UNL A   1      45.350  35.286  30.745  1.00  0.00     0.060 A 
BRANCH  60  61
ATOM     61  S   UNL A   1      45.584  36.994  31.276  1.00  0.00     0.124 S 
ATOM     62  O   UNL A   1      45.671  37.687  29.995  1.00  0.00    -0.237 OA
ATOM     63  O   UNL A   1      44.374  37.244  32.052  1.00  0.00    -0.237 OA
ATOM     64  O   UNL A   1      46.822  36.944  32.047  1.00  0.00    -0.744 OA
ENDBRANCH  60  61
ENDBRANCH  39  53
BRANCH  40  65
ATOM     65  C   UNL A   1      42.853  23.327  27.228  1.00  0.00     0.058 A 
ATOM     66  C   UNL A   1      42.715  22.303  28.179  1.00  0.00     0.135 A 
ATOM     67  C   UNL A   1      42.782  22.952  25.874  1.00  0.00     0.135 A 
ATOM     68  F   UNL A   1      42.802  22.588  29.487  1.00  0.00    -0.206 F 
ATOM     69  C   UNL A   1      42.539  20.968  27.807  1.00  0.00     0.059 A 
ATOM     70  C   UNL A   1      42.578  21.631  25.477  1.00  0.00     0.059 A 
ATOM     71  F   UNL A   1      42.923  23.876  24.911  1.00  0.00    -0.206 F 
ATOM     72  C   UNL A   1      42.474  20.641  26.452  1.00  0.00     0.060 A 
BRANCH  72  73
ATOM     73  S   UNL A   1      42.240  18.912  25.976  1.00  0.00     0.124 S 
ATOM     74  O   UNL A   1      40.810  18.871  25.695  1.00  0.00    -0.237 OA
ATOM     75  O   UNL A   1      43.121  18.792  24.819  1.00  0.00    -0.237 OA
ATOM     76  O   UNL A   1      42.671  18.175  27.161  1.00  0.00    -0.744 OA
ENDBRANCH  72  73
ENDBRANCH  40  65
BRANCH  52  77
ATOM     77  C   UNL A   1      48.702  27.151  27.110  1.00  0.00     0.058 A 
ATOM     78  C   UNL A   1      49.660  26.618  27.986  1.00  0.00     0.135 A 
ATOM     79  C   UNL A   1      49.074  27.342  25.768  1.00  0.00     0.135 A 
ATOM     80  F   UNL A   1      49.360  26.426  29.281  1.00  0.00    -0.206 F 
ATOM     81  C   UNL A   1      50.941  26.295  27.551  1.00  0.00     0.059 A 
ATOM     82  C   UNL A   1      50.340  26.996  25.306  1.00  0.00     0.059 A 
ATOM     83  F   UNL A   1      48.194  27.842  24.887  1.00  0.00    -0.206 F 
ATOM     84  C   UNL A   1      51.269  26.479  26.207  1.00  0.00     0.060 A 
BRANCH  84  85
ATOM     85  S   UNL A   1      52.914  25.995  25.647  1.00  0.00     0.124 S 
ATOM     86  O   UNL A   1      52.887  26.422  24.252  1.00  0.00    -0.237 OA
ATOM     87  O   UNL A   1      53.782  26.768  26.530  1.00  0.00    -0.237 OA
ATOM     88  O   UNL A   1      52.937  24.552  25.861  1.00  0.00    -0.744 OA
ENDBRANCH  84  85
ENDBRANCH  52  77
ENDBRANCH  26  27
ENDBRANCH  19  21
ENDBRANCH  18  19
ENDBRANCH   1  18
TORSDOF 15
ENDMDL
MODEL 2
REMARK VINA RESULT:      -9.8      3.385      5.607
REMARK SMILES CC(C)[C@H]1CC[C@@H](C)C/C1=C(\F)C(=O)OCCOC(=O)c1ccc(-c2c3nc(c(-c4c(F)cc(S(=O)(=O)[O-])cc4F)c4ccc([nH]4)c(-c4c(F)cc(S(=O)(=O)[O-])cc4F)c4nc(c(-c5c(F)cc(S(=O)(=O)[O-])cc5F)c5ccc2[nH]5)C=C4)C=C3)cc1
REMARK SMILES IDX 17 1 16 2 15 3 13 4 14 5 11 6 4 7 5 8 10 9 6 10 9 11 7 12
REMARK SMILES IDX 12 13 8 14 2 15 1 16 3 17 18 18 19 19 20 20 21 21 22 22
REMARK SMILES IDX 86 23 23 24 85 25 24 26 25 27 26 28 79 29 27 30 84 31 78 32
REMARK SMILES IDX 80 33 28 34 83 35 77 36 76 37 29 39 63 40 42 41 62 42 43 43
REMARK SMILES IDX 46 44 61 45 81 46 44 47 45 48 60 50 82 51 47 52 30 53 31 54
REMARK SMILES IDX 40 55 32 56 33 57 39 58 41 59 34 60 35 61 36 62 37 63 38 64
REMARK SMILES IDX 64 65 65 66 74 67 66 68 67 69 73 70 75 71 68 72 69 73 70 74
REMARK SMILES IDX 71 75 72 76 48 77 49 78 58 79 50 80 51 81 57 82 59 83 52 84
REMARK SMILES IDX 53 85 54 86 55 87 56 88
REMARK H PARENT 80 38 46 49
REMARK Flexibility Score: inf
ROOT
ATOM      1  C   UNL A   1      33.085  29.553  27.248  1.00  0.00     0.275 C 
ENDROOT
BRANCH   1   2
ATOM      2  C   UNL A   1      33.610  28.189  26.788  1.00  0.00     0.275 C 
BRANCH   2   3
ATOM      3  O   UNL A   1      32.647  27.554  25.925  1.00  0.00    -0.457 OA
BRANCH   3   4
ATOM      4  C   UNL A   1      33.080  27.381  24.646  1.00  0.00     0.367 C 
ATOM      5  O   UNL A   1      33.949  26.607  24.274  1.00  0.00    -0.243 OA
BRANCH   4   6
ATOM      6  C   UNL A   1      32.303  28.250  23.732  1.00  0.00     0.207 C 
ATOM      7  C   UNL A   1      30.027  26.933  23.355  1.00  0.00     0.021 C 
ATOM      8  C   UNL A   1      28.657  27.600  23.617  1.00  0.00     0.009 C 
ATOM      9  C   UNL A   1      31.081  28.074  23.176  1.00  0.00    -0.023 C 
ATOM     10  C   UNL A   1      28.242  28.792  22.723  1.00  0.00     0.004 C 
ATOM     11  C   UNL A   1      30.627  29.135  22.180  1.00  0.00     0.038 C 
ATOM     12  C   UNL A   1      29.344  29.848  22.604  1.00  0.00    -0.010 C 
ATOM     13  F   UNL A   1      33.014  29.358  23.410  1.00  0.00    -0.199 F 
ATOM     14  C   UNL A   1      29.524  30.692  23.876  1.00  0.00     0.008 C 
BRANCH   7  15
ATOM     15  C   UNL A   1      30.567  25.697  24.220  1.00  0.00    -0.010 C 
ATOM     16  C   UNL A   1      30.164  25.069  25.554  1.00  0.00     0.008 C 
ATOM     17  C   UNL A   1      30.650  24.487  23.279  1.00  0.00     0.008 C 
ENDBRANCH   7  15
ENDBRANCH   4   6
ENDBRANCH   3   4
ENDBRANCH   2   3
ENDBRANCH   1   2
BRANCH   1  18
ATOM     18  O   UNL A   1      34.105  30.564  27.075  1.00  0.00    -0.458 OA
BRANCH  18  19
ATOM     19  C   UNL A   1      34.629  31.115  28.208  1.00  0.00     0.338 C 
ATOM     20  O   UNL A   1      34.073  31.845  28.994  1.00  0.00    -0.246 OA
BRANCH  19  21
ATOM     21  C   UNL A   1      35.950  30.479  28.447  1.00  0.00     0.060 A 
ATOM     22  C   UNL A   1      36.776  30.385  27.346  1.00  0.00     0.016 A 
ATOM     23  C   UNL A   1      36.417  30.004  29.672  1.00  0.00     0.016 A 
ATOM     24  C   UNL A   1      38.104  29.948  27.494  1.00  0.00     0.010 A 
ATOM     25  C   UNL A   1      37.768  29.566  29.806  1.00  0.00     0.010 A 
ATOM     26  C   UNL A   1      38.658  29.610  28.721  1.00  0.00    -0.014 A 
BRANCH  26  27
ATOM     27  C   UNL A   1      40.096  29.156  28.700  1.00  0.00     0.031 A 
ATOM     28  C   UNL A   1      41.129  30.110  29.207  1.00  0.00     0.074 A 
ATOM     29  C   UNL A   1      40.515  27.870  28.579  1.00  0.00     0.049 A 
ATOM     30  N   UNL A   1      42.429  30.003  29.190  1.00  0.00    -0.248 NA
ATOM     31  C   UNL A   1      40.621  31.305  29.897  1.00  0.00     0.031 C 
ATOM     32  C   UNL A   1      39.641  26.714  28.543  1.00  0.00     0.029 A 
ATOM     33  N   UNL A   1      41.769  27.293  28.515  1.00  0.00    -0.354 N 
ATOM     34  C   UNL A   1      42.900  31.141  29.820  1.00  0.00     0.074 A 
ATOM     35  C   UNL A   1      41.747  31.902  30.252  1.00  0.00     0.031 C 
ATOM     36  C   UNL A   1      40.345  25.581  28.397  1.00  0.00     0.029 A 
ATOM     37  C   UNL A   1      41.751  25.928  28.271  1.00  0.00     0.049 A 
ATOM     38  H   UNL A   1      42.602  27.804  28.632  1.00  0.00     0.167 HD
ATOM     39  C   UNL A   1      44.182  31.526  29.991  1.00  0.00     0.037 A 
ATOM     40  C   UNL A   1      42.735  25.062  27.938  1.00  0.00     0.037 A 
ATOM     41  C   UNL A   1      45.324  30.750  29.592  1.00  0.00     0.049 A 
ATOM     42  C   UNL A   1      44.146  25.583  27.884  1.00  0.00     0.074 A 
ATOM     43  C   UNL A   1      46.657  31.119  29.608  1.00  0.00     0.029 A 
ATOM     44  N   UNL A   1      45.275  29.449  29.118  1.00  0.00    -0.354 N 
ATOM     45  N   UNL A   1      44.593  26.753  28.269  1.00  0.00    -0.248 NA
ATOM     46  C   UNL A   1      45.185  24.690  27.348  1.00  0.00     0.031 C 
ATOM     47  C   UNL A   1      47.408  30.064  29.084  1.00  0.00     0.029 A 
ATOM     48  C   UNL A   1      46.551  29.013  28.800  1.00  0.00     0.049 A 
ATOM     49  H   UNL A   1      44.454  28.913  29.022  1.00  0.00     0.167 HD
ATOM     50  C   UNL A   1      45.964  26.729  28.047  1.00  0.00     0.074 A 
ATOM     51  C   UNL A   1      46.279  25.421  27.510  1.00  0.00     0.031 C 
ATOM     52  C   UNL A   1      46.871  27.710  28.268  1.00  0.00     0.037 A 
BRANCH  39  53
ATOM     53  C   UNL A   1      44.394  32.921  30.490  1.00  0.00     0.058 A 
ATOM     54  C   UNL A   1      44.403  34.040  29.646  1.00  0.00     0.135 A 
ATOM     55  C   UNL A   1      44.623  33.120  31.862  1.00  0.00     0.135 A 
ATOM     56  F   UNL A   1      44.239  33.892  28.322  1.00  0.00    -0.206 F 
ATOM     57  C   UNL A   1      44.647  35.313  30.147  1.00  0.00     0.059 A 
ATOM     58  C   UNL A   1      44.838  34.385  32.386  1.00  0.00     0.059 A 
ATOM     59  F   UNL A   1      44.649  32.073  32.701  1.00  0.00    -0.206 F 
ATOM     60  C   UNL A   1      44.861  35.474  31.519  1.00  0.00     0.060 A 
BRANCH  60  61
ATOM     61  S   UNL A   1      45.171  37.132  32.158  1.00  0.00     0.124 S 
ATOM     62  O   UNL A   1      45.043  36.918  33.596  1.00  0.00    -0.237 OA
ATOM     63  O   UNL A   1      46.521  37.401  31.675  1.00  0.00    -0.237 OA
ATOM     64  O   UNL A   1      44.117  37.935  31.548  1.00  0.00    -0.744 OA
ENDBRANCH  60  61
ENDBRANCH  39  53
BRANCH  40  65
ATOM     65  C   UNL A   1      42.437  23.653  27.516  1.00  0.00     0.058 A 
ATOM     66  C   UNL A   1      42.407  22.587  28.430  1.00  0.00     0.135 A 
ATOM     67  C   UNL A   1      42.277  23.330  26.156  1.00  0.00     0.135 A 
ATOM     68  F   UNL A   1      42.582  22.822  29.740  1.00  0.00    -0.206 F 
ATOM     69  C   UNL A   1      42.252  21.262  28.016  1.00  0.00     0.059 A 
ATOM     70  C   UNL A   1      42.092  22.019  25.719  1.00  0.00     0.059 A 
ATOM     71  F   UNL A   1      42.313  24.297  25.226  1.00  0.00    -0.206 F 
ATOM     72  C   UNL A   1      42.097  20.988  26.656  1.00  0.00     0.060 A 
BRANCH  72  73
ATOM     73  S   UNL A   1      41.890  19.271  26.125  1.00  0.00     0.124 S 
ATOM     74  O   UNL A   1      40.472  19.233  25.787  1.00  0.00    -0.237 OA
ATOM     75  O   UNL A   1      42.816  19.186  25.000  1.00  0.00    -0.237 OA
ATOM     76  O   UNL A   1      42.277  18.503  27.305  1.00  0.00    -0.744 OA
ENDBRANCH  72  73
ENDBRANCH  40  65
BRANCH  52  77
ATOM     77  C   UNL A   1      48.309  27.419  27.947  1.00  0.00     0.058 A 
ATOM     78  C   UNL A   1      49.144  26.748  28.854  1.00  0.00     0.135 A 
ATOM     79  C   UNL A   1      48.837  27.742  26.686  1.00  0.00     0.135 A 
ATOM     80  F   UNL A   1      48.692  26.425  30.077  1.00  0.00    -0.206 F 
ATOM     81  C   UNL A   1      50.454  26.418  28.527  1.00  0.00     0.059 A 
ATOM     82  C   UNL A   1      50.135  27.394  26.327  1.00  0.00     0.059 A 
ATOM     83  F   UNL A   1      48.079  28.378  25.778  1.00  0.00    -0.206 F 
ATOM     84  C   UNL A   1      50.938  26.736  27.258  1.00  0.00     0.060 A 
BRANCH  84  85
ATOM     85  S   UNL A   1      52.620  26.244  26.827  1.00  0.00     0.124 S 
ATOM     86  O   UNL A   1      52.935  27.180  25.753  1.00  0.00    -0.237 OA
ATOM     87  O   UNL A   1      53.335  26.455  28.082  1.00  0.00    -0.237 OA
ATOM     88  O   UNL A   1      52.475  24.850  26.423  1.00  0.00    -0.744 OA
ENDBRANCH  84  85
ENDBRANCH  52  77
ENDBRANCH  26  27
ENDBRANCH  19  21
ENDBRANCH  18  19
ENDBRANCH   1  18
TORSDOF 15
ENDMDL
MODEL 3
REMARK VINA RESULT:      -9.7      3.421      5.379
REMARK SMILES CC(C)[C@H]1CC[C@@H](C)C/C1=C(\F)C(=O)OCCOC(=O)c1ccc(-c2c3nc(c(-c4c(F)cc(S(=O)(=O)[O-])cc4F)c4ccc([nH]4)c(-c4c(F)cc(S(=O)(=O)[O-])cc4F)c4nc(c(-c5c(F)cc(S(=O)(=O)[O-])cc5F)c5ccc2[nH]5)C=C4)C=C3)cc1
REMARK SMILES IDX 17 1 16 2 15 3 13 4 14 5 11 6 4 7 5 8 10 9 6 10 9 11 7 12
REMARK SMILES IDX 12 13 8 14 2 15 1 16 3 17 18 18 19 19 20 20 21 21 22 22
REMARK SMILES IDX 86 23 23 24 85 25 24 26 25 27 26 28 79 29 27 30 84 31 78 32
REMARK SMILES IDX 80 33 28 34 83 35 77 36 76 37 29 39 63 40 42 41 62 42 43 43
REMARK SMILES IDX 46 44 61 45 81 46 44 47 45 48 60 50 82 51 47 52 30 53 31 54
REMARK SMILES IDX 40 55 32 56 33 57 39 58 41 59 34 60 35 61 36 62 37 63 38 64
REMARK SMILES IDX 64 65 65 66 74 67 66 68 67 69 73 70 75 71 68 72 69 73 70 74
REMARK SMILES IDX 71 75 72 76 48 77 49 78 58 79 50 80 51 81 57 82 59 83 52 84
REMARK SMILES IDX 53 85 54 86 55 87 56 88
REMARK H PARENT 80 38 46 49
REMARK Flexibility Score: inf
ROOT
ATOM      1  C   UNL A   1      32.748  30.353  26.475  1.00  0.00     0.275 C 
ENDROOT
BRANCH   1   2
ATOM      2  C   UNL A   1      32.026  29.213  25.751  1.00  0.00     0.275 C 
BRANCH   2   3
ATOM      3  O   UNL A   1      32.640  27.951  26.079  1.00  0.00    -0.457 OA
BRANCH   3   4
ATOM      4  C   UNL A   1      31.750  26.959  26.356  1.00  0.00     0.367 C 
ATOM      5  O   UNL A   1      30.662  27.092  26.896  1.00  0.00    -0.243 OA
BRANCH   4   6
ATOM      6  C   UNL A   1      32.272  25.664  25.861  1.00  0.00     0.207 C 
ATOM      7  C   UNL A   1      31.245  25.436  23.421  1.00  0.00     0.021 C 
ATOM      8  C   UNL A   1      32.145  25.184  22.189  1.00  0.00     0.009 C 
ATOM      9  C   UNL A   1      32.058  25.018  24.690  1.00  0.00    -0.023 C 
ATOM     10  C   UNL A   1      32.916  23.847  22.108  1.00  0.00     0.004 C 
ATOM     11  C   UNL A   1      32.675  23.630  24.557  1.00  0.00     0.038 C 
ATOM     12  C   UNL A   1      33.669  23.524  23.401  1.00  0.00    -0.010 C 
ATOM     13  F   UNL A   1      33.044  25.070  26.804  1.00  0.00    -0.199 F 
ATOM     14  C   UNL A   1      34.922  24.388  23.613  1.00  0.00     0.008 C 
BRANCH   7  15
ATOM     15  C   UNL A   1      30.405  26.785  23.619  1.00  0.00    -0.010 C 
ATOM     16  C   UNL A   1      30.225  28.062  22.799  1.00  0.00     0.008 C 
ATOM     17  C   UNL A   1      28.960  26.376  23.942  1.00  0.00     0.008 C 
ENDBRANCH   7  15
ENDBRANCH   4   6
ENDBRANCH   3   4
ENDBRANCH   2   3
ENDBRANCH   1   2
BRANCH   1  18
ATOM     18  O   UNL A   1      33.782  29.822  27.337  1.00  0.00    -0.458 OA
BRANCH  18  19
ATOM     19  C   UNL A   1      34.491  30.721  28.079  1.00  0.00     0.338 C 
ATOM     20  O   UNL A   1      34.080  31.733  28.596  1.00  0.00    -0.246 OA
BRANCH  19  21
ATOM     21  C   UNL A   1      35.826  30.128  28.347  1.00  0.00     0.060 A 
ATOM     22  C   UNL A   1      36.688  30.085  27.270  1.00  0.00     0.016 A 
ATOM     23  C   UNL A   1      36.273  29.646  29.577  1.00  0.00     0.016 A 
ATOM     24  C   UNL A   1      38.026  29.692  27.452  1.00  0.00     0.010 A 
ATOM     25  C   UNL A   1      37.634  29.253  29.744  1.00  0.00     0.010 A 
ATOM     26  C   UNL A   1      38.554  29.350  28.689  1.00  0.00    -0.014 A 
BRANCH  26  27
ATOM     27  C   UNL A   1      40.007  28.948  28.704  1.00  0.00     0.031 A 
ATOM     28  C   UNL A   1      40.990  29.926  29.264  1.00  0.00     0.074 A 
ATOM     29  C   UNL A   1      40.476  27.680  28.568  1.00  0.00     0.049 A 
ATOM     30  N   UNL A   1      42.292  29.865  29.286  1.00  0.00    -0.248 NA
ATOM     31  C   UNL A   1      40.418  31.086  29.963  1.00  0.00     0.031 C 
ATOM     32  C   UNL A   1      39.646  26.495  28.480  1.00  0.00     0.029 A 
ATOM     33  N   UNL A   1      41.752  27.150  28.532  1.00  0.00    -0.354 N 
ATOM     34  C   UNL A   1      42.702  31.005  29.955  1.00  0.00     0.074 A 
ATOM     35  C   UNL A   1      41.510  31.715  30.365  1.00  0.00     0.031 C 
ATOM     36  C   UNL A   1      40.395  25.391  28.332  1.00  0.00     0.029 A 
ATOM     37  C   UNL A   1      41.791  25.791  28.259  1.00  0.00     0.049 A 
ATOM     38  H   UNL A   1      42.562  27.688  28.687  1.00  0.00     0.167 HD
ATOM     39  C   UNL A   1      43.964  31.432  30.175  1.00  0.00     0.037 A 
ATOM     40  C   UNL A   1      42.815  24.968  27.939  1.00  0.00     0.037 A 
ATOM     41  C   UNL A   1      45.144  30.706  29.795  1.00  0.00     0.049 A 
ATOM     42  C   UNL A   1      44.207  25.540  27.941  1.00  0.00     0.074 A 
ATOM     43  C   UNL A   1      46.462  31.121  29.861  1.00  0.00     0.029 A 
ATOM     44  N   UNL A   1      45.157  29.414  29.293  1.00  0.00    -0.354 N 
ATOM     45  N   UNL A   1      44.600  26.716  28.365  1.00  0.00    -0.248 NA
ATOM     46  C   UNL A   1      45.294  24.696  27.419  1.00  0.00     0.031 C 
ATOM     47  C   UNL A   1      47.267  30.105  29.339  1.00  0.00     0.029 A 
ATOM     48  C   UNL A   1      46.457  29.031  29.005  1.00  0.00     0.049 A 
ATOM     49  H   UNL A   1      44.360  28.852  29.159  1.00  0.00     0.167 HD
ATOM     50  C   UNL A   1      45.976  26.746  28.186  1.00  0.00     0.074 A 
ATOM     51  C   UNL A   1      46.355  25.462  27.632  1.00  0.00     0.031 C 
ATOM     52  C   UNL A   1      46.840  27.753  28.457  1.00  0.00     0.037 A 
BRANCH  39  53
ATOM     53  C   UNL A   1      44.110  32.822  30.709  1.00  0.00     0.058 A 
ATOM     54  C   UNL A   1      44.205  33.107  32.077  1.00  0.00     0.135 A 
ATOM     55  C   UNL A   1      44.126  33.895  29.802  1.00  0.00     0.135 A 
ATOM     56  F   UNL A   1      44.144  32.118  32.983  1.00  0.00    -0.206 F 
ATOM     57  C   UNL A   1      44.296  34.418  32.531  1.00  0.00     0.059 A 
ATOM     58  C   UNL A   1      44.246  35.208  30.232  1.00  0.00     0.059 A 
ATOM     59  F   UNL A   1      44.010  33.667  28.484  1.00  0.00    -0.206 F 
ATOM     60  C   UNL A   1      44.318  35.460  31.599  1.00  0.00     0.060 A 
BRANCH  60  61
ATOM     61  S   UNL A   1      44.442  37.156  32.200  1.00  0.00     0.124 S 
ATOM     62  O   UNL A   1      45.888  37.345  32.240  1.00  0.00    -0.237 OA
ATOM     63  O   UNL A   1      43.733  37.902  31.165  1.00  0.00    -0.237 OA
ATOM     64  O   UNL A   1      43.779  37.106  33.499  1.00  0.00    -0.744 OA
ENDBRANCH  60  61
ENDBRANCH  39  53
BRANCH  40  65
ATOM     65  C   UNL A   1      42.582  23.559  27.478  1.00  0.00     0.058 A 
ATOM     66  C   UNL A   1      42.544  22.475  28.370  1.00  0.00     0.135 A 
ATOM     67  C   UNL A   1      42.494  23.259  26.106  1.00  0.00     0.135 A 
ATOM     68  F   UNL A   1      42.652  22.689  29.690  1.00  0.00    -0.206 F 
ATOM     69  C   UNL A   1      42.450  21.154  27.924  1.00  0.00     0.059 A 
ATOM     70  C   UNL A   1      42.370  21.952  25.637  1.00  0.00     0.059 A 
ATOM     71  F   UNL A   1      42.541  24.245  25.197  1.00  0.00    -0.206 F 
ATOM     72  C   UNL A   1      42.365  20.902  26.554  1.00  0.00     0.060 A 
BRANCH  72  73
ATOM     73  S   UNL A   1      42.237  19.191  25.982  1.00  0.00     0.124 S 
ATOM     74  O   UNL A   1      43.141  19.191  24.838  1.00  0.00    -0.237 OA
ATOM     75  O   UNL A   1      42.689  18.444  27.152  1.00  0.00    -0.237 OA
ATOM     76  O   UNL A   1      40.819  19.046  25.665  1.00  0.00    -0.744 OA
ENDBRANCH  72  73
ENDBRANCH  40  65
BRANCH  52  77
ATOM     77  C   UNL A   1      48.297  27.520  28.175  1.00  0.00     0.058 A 
ATOM     78  C   UNL A   1      49.148  26.942  29.131  1.00  0.00     0.135 A 
ATOM     79  C   UNL A   1      48.833  27.803  26.907  1.00  0.00     0.135 A 
ATOM     80  F   UNL A   1      48.689  26.661  30.362  1.00  0.00    -0.206 F 
ATOM     81  C   UNL A   1      50.479  26.664  28.844  1.00  0.00     0.059 A 
ATOM     82  C   UNL A   1      50.153  27.504  26.589  1.00  0.00     0.059 A 
ATOM     83  F   UNL A   1      48.061  28.349  25.955  1.00  0.00    -0.206 F 
ATOM     84  C   UNL A   1      50.970  26.939  27.567  1.00  0.00     0.060 A 
BRANCH  84  85
ATOM     85  S   UNL A   1      52.683  26.513  27.192  1.00  0.00     0.124 S 
ATOM     86  O   UNL A   1      53.057  27.580  26.269  1.00  0.00    -0.237 OA
ATOM     87  O   UNL A   1      53.311  26.564  28.508  1.00  0.00    -0.237 OA
ATOM     88  O   UNL A   1      52.583  25.182  26.603  1.00  0.00    -0.744 OA
ENDBRANCH  84  85
ENDBRANCH  52  77
ENDBRANCH  26  27
ENDBRANCH  19  21
ENDBRANCH  18  19
ENDBRANCH   1  18
TORSDOF 15
ENDMDL
