MODEL 1
REMARK VINA RESULT:     -10.4      0.000      0.000
REMARK SMILES COc1cc(C)cc2c1O[C@H](C(F)(F)F)C(C(=O)OCCOC(=O)c1ccc(-c3c4nc(c(-c5c(F)cc(S(=O)(=O)[O-])cc5F)c5ccc([nH]5)c(-c5c(F)cc(S(=O)(=O)[O-])cc5F)c5nc(c(-c6c(F)cc(S(=O)(=O)[O-])cc6F)c6ccc3[nH]6)C=C5)C=C4)cc1)=C2
REMARK SMILES IDX 21 1 20 2 19 3 17 4 18 5 16 6 3 7 4 8 9 9 5 10 8 11 10 12
REMARK SMILES IDX 6 13 7 14 91 15 11 16 2 17 1 18 12 19 13 20 14 21 15 22
REMARK SMILES IDX 22 23 23 24 24 25 25 26 26 27 90 28 27 29 89 30 28 31 29 32
REMARK SMILES IDX 30 33 83 34 31 35 88 36 82 37 84 38 32 39 87 40 81 41 80 42
REMARK SMILES IDX 33 44 67 45 46 46 66 47 47 48 50 49 65 50 85 51 48 52 49 53
REMARK SMILES IDX 64 55 86 56 51 57 34 58 35 59 44 60 36 61 37 62 43 63 45 64
REMARK SMILES IDX 38 65 39 66 40 67 41 68 42 69 68 70 69 71 78 72 70 73 71 74
REMARK SMILES IDX 77 75 79 76 72 77 73 78 74 79 75 80 76 81 52 82 53 83 62 84
REMARK SMILES IDX 54 85 55 86 61 87 63 88 56 89 57 90 58 91 59 92 60 93
REMARK H PARENT 84 43 50 54
REMARK Flexibility Score: inf
ROOT
ATOM      1  C   UNL A   1      33.232  33.515  27.857  1.00  0.00     0.275 C 
ENDROOT
BRANCH   1   2
ATOM      2  C   UNL A   1      33.363  34.498  29.022  1.00  0.00     0.275 C 
BRANCH   2   3
ATOM      3  O   UNL A   1      34.693  34.485  29.588  1.00  0.00    -0.459 OA
BRANCH   3   4
ATOM      4  C   UNL A   1      34.862  33.676  30.660  1.00  0.00     0.338 C 
ATOM      5  O   UNL A   1      34.193  32.692  30.938  1.00  0.00    -0.246 OA
BRANCH   4   6
ATOM      6  C   UNL A   1      36.018  34.111  31.468  1.00  0.00     0.087 C 
ATOM      7  C   UNL A   1      39.384  35.017  33.786  1.00  0.00     0.161 A 
ATOM      8  C   UNL A   1      40.663  34.803  33.247  1.00  0.00     0.054 A 
ATOM      9  C   UNL A   1      38.240  34.750  33.026  1.00  0.00     0.169 A 
ATOM     10  C   UNL A   1      40.815  34.374  31.923  1.00  0.00    -0.047 A 
ATOM     11  C   UNL A   1      38.395  34.302  31.717  1.00  0.00     0.021 A 
ATOM     12  O   UNL A   1      37.013  34.974  33.593  1.00  0.00    -0.471 OA
ATOM     13  C   UNL A   1      42.166  34.152  31.313  1.00  0.00     0.044 C 
ATOM     14  C   UNL A   1      39.670  34.137  31.161  1.00  0.00     0.015 A 
ATOM     15  C   UNL A   1      37.232  33.975  30.925  1.00  0.00     0.027 C 
ATOM     16  C   UNL A   1      35.812  34.548  32.889  1.00  0.00     0.316 C 
BRANCH   7  17
ATOM     17  O   UNL A   1      39.212  35.416  35.089  1.00  0.00    -0.493 OA
ATOM     18  C   UNL A   1      40.290  36.221  35.559  1.00  0.00     0.278 C 
ENDBRANCH   7  17
BRANCH  16  19
ATOM     19  C   UNL A   1      35.123  33.443  33.707  1.00  0.00     0.430 C 
ATOM     20  F   UNL A   1      35.563  32.212  33.351  1.00  0.00    -0.167 F 
ATOM     21  F   UNL A   1      35.384  33.570  35.032  1.00  0.00    -0.167 F 
ATOM     22  F   UNL A   1      33.779  33.453  33.560  1.00  0.00    -0.167 F 
ENDBRANCH  16  19
ENDBRANCH   4   6
ENDBRANCH   3   4
ENDBRANCH   2   3
ENDBRANCH   1   2
BRANCH   1  23
ATOM     23  O   UNL A   1      34.495  32.884  27.581  1.00  0.00    -0.458 OA
BRANCH  23  24
ATOM     24  C   UNL A   1      34.479  31.532  27.598  1.00  0.00     0.338 C 
ATOM     25  O   UNL A   1      33.602  30.795  27.182  1.00  0.00    -0.246 OA
BRANCH  24  26
ATOM     26  C   UNL A   1      35.764  31.033  28.108  1.00  0.00     0.060 A 
ATOM     27  C   UNL A   1      36.908  31.821  28.110  1.00  0.00     0.016 A 
ATOM     28  C   UNL A   1      35.770  29.798  28.741  1.00  0.00     0.016 A 
ATOM     29  C   UNL A   1      38.059  31.341  28.751  1.00  0.00     0.010 A 
ATOM     30  C   UNL A   1      36.858  29.398  29.509  1.00  0.00     0.010 A 
ATOM     31  C   UNL A   1      38.038  30.144  29.497  1.00  0.00    -0.014 A 
BRANCH  31  32
ATOM     32  C   UNL A   1      39.239  29.673  30.252  1.00  0.00     0.031 A 
ATOM     33  C   UNL A   1      39.484  30.103  31.682  1.00  0.00     0.074 A 
ATOM     34  C   UNL A   1      40.135  28.870  29.639  1.00  0.00     0.049 A 
ATOM     35  N   UNL A   1      40.454  29.755  32.493  1.00  0.00    -0.248 NA
ATOM     36  C   UNL A   1      38.553  31.082  32.271  1.00  0.00     0.031 C 
ATOM     37  C   UNL A   1      40.088  28.470  28.229  1.00  0.00     0.029 A 
ATOM     38  N   UNL A   1      41.244  28.221  30.124  1.00  0.00    -0.354 N 
ATOM     39  C   UNL A   1      40.253  30.479  33.665  1.00  0.00     0.074 A 
ATOM     40  C   UNL A   1      39.127  31.351  33.434  1.00  0.00     0.031 C 
ATOM     41  C   UNL A   1      41.059  27.577  27.989  1.00  0.00     0.029 A 
ATOM     42  C   UNL A   1      41.827  27.369  29.212  1.00  0.00     0.049 A 
ATOM     43  H   UNL A   1      41.590  28.353  31.036  1.00  0.00     0.167 HD
ATOM     44  C   UNL A   1      40.911  30.392  34.846  1.00  0.00     0.037 A 
ATOM     45  C   UNL A   1      42.847  26.499  29.350  1.00  0.00     0.037 A 
ATOM     46  C   UNL A   1      41.989  29.473  35.098  1.00  0.00     0.049 A 
ATOM     47  C   UNL A   1      43.521  26.367  30.688  1.00  0.00     0.074 A 
ATOM     48  C   UNL A   1      42.669  29.248  36.282  1.00  0.00     0.029 A 
ATOM     49  N   UNL A   1      42.529  28.613  34.155  1.00  0.00    -0.354 N 
ATOM     50  N   UNL A   1      43.264  27.007  31.804  1.00  0.00    -0.248 NA
ATOM     51  C   UNL A   1      44.619  25.396  30.788  1.00  0.00     0.031 C 
ATOM     52  C   UNL A   1      43.642  28.273  36.047  1.00  0.00     0.029 A 
ATOM     53  C   UNL A   1      43.541  27.862  34.727  1.00  0.00     0.049 A 
ATOM     54  H   UNL A   1      42.238  28.547  33.217  1.00  0.00     0.167 HD
ATOM     55  C   UNL A   1      44.157  26.506  32.742  1.00  0.00     0.074 A 
ATOM     56  C   UNL A   1      44.949  25.496  32.070  1.00  0.00     0.031 C 
ATOM     57  C   UNL A   1      44.313  26.856  34.043  1.00  0.00     0.037 A 
BRANCH  44  58
ATOM     58  C   UNL A   1      40.449  31.273  35.979  1.00  0.00     0.058 A 
ATOM     59  C   UNL A   1      41.228  32.351  36.429  1.00  0.00     0.135 A 
ATOM     60  C   UNL A   1      39.194  31.079  36.579  1.00  0.00     0.135 A 
ATOM     61  F   UNL A   1      42.442  32.575  35.901  1.00  0.00    -0.206 F 
ATOM     62  C   UNL A   1      40.793  33.190  37.450  1.00  0.00     0.059 A 
ATOM     63  C   UNL A   1      38.725  31.925  37.582  1.00  0.00     0.059 A 
ATOM     64  F   UNL A   1      38.406  30.067  36.187  1.00  0.00    -0.206 F 
ATOM     65  C   UNL A   1      39.537  32.972  38.017  1.00  0.00     0.060 A 
BRANCH  65  66
ATOM     66  S   UNL A   1      38.979  34.092  39.319  1.00  0.00     0.124 S 
ATOM     67  O   UNL A   1      38.852  35.349  38.588  1.00  0.00    -0.237 OA
ATOM     68  O   UNL A   1      37.724  33.476  39.740  1.00  0.00    -0.237 OA
ATOM     69  O   UNL A   1      40.059  34.042  40.299  1.00  0.00    -0.744 OA
ENDBRANCH  65  66
ENDBRANCH  44  58
BRANCH  45  70
ATOM     70  C   UNL A   1      43.239  25.632  28.205  1.00  0.00     0.058 A 
ATOM     71  C   UNL A   1      44.216  26.054  27.289  1.00  0.00     0.135 A 
ATOM     72  C   UNL A   1      42.680  24.359  28.022  1.00  0.00     0.135 A 
ATOM     73  F   UNL A   1      44.778  27.265  27.418  1.00  0.00    -0.206 F 
ATOM     74  C   UNL A   1      44.620  25.247  26.230  1.00  0.00     0.059 A 
ATOM     75  C   UNL A   1      43.085  23.524  26.985  1.00  0.00     0.059 A 
ATOM     76  F   UNL A   1      41.755  23.901  28.880  1.00  0.00    -0.206 F 
ATOM     77  C   UNL A   1      44.052  23.979  26.089  1.00  0.00     0.060 A 
BRANCH  77  78
ATOM     78  S   UNL A   1      44.630  22.919  24.747  1.00  0.00     0.124 S 
ATOM     79  O   UNL A   1      45.091  21.744  25.477  1.00  0.00    -0.237 OA
ATOM     80  O   UNL A   1      43.417  22.743  23.954  1.00  0.00    -0.237 OA
ATOM     81  O   UNL A   1      45.674  23.719  24.113  1.00  0.00    -0.744 OA
ENDBRANCH  77  78
ENDBRANCH  45  70
BRANCH  57  82
ATOM     82  C   UNL A   1      45.368  26.140  34.836  1.00  0.00     0.058 A 
ATOM     83  C   UNL A   1      46.677  26.636  34.923  1.00  0.00     0.135 A 
ATOM     84  C   UNL A   1      45.044  24.998  35.586  1.00  0.00     0.135 A 
ATOM     85  F   UNL A   1      47.037  27.722  34.220  1.00  0.00    -0.206 F 
ATOM     86  C   UNL A   1      47.634  26.018  35.720  1.00  0.00     0.059 A 
ATOM     87  C   UNL A   1      45.979  24.378  36.409  1.00  0.00     0.059 A 
ATOM     88  F   UNL A   1      43.801  24.491  35.544  1.00  0.00    -0.206 F 
ATOM     89  C   UNL A   1      47.273  24.894  36.466  1.00  0.00     0.060 A 
BRANCH  89  90
ATOM     90  S   UNL A   1      48.512  24.137  37.538  1.00  0.00     0.124 S 
ATOM     91  O   UNL A   1      49.244  25.307  38.012  1.00  0.00    -0.237 OA
ATOM     92  O   UNL A   1      47.689  23.458  38.533  1.00  0.00    -0.237 OA
ATOM     93  O   UNL A   1      49.250  23.257  36.637  1.00  0.00    -0.744 OA
ENDBRANCH  89  90
ENDBRANCH  57  82
ENDBRANCH  31  32
ENDBRANCH  24  26
ENDBRANCH  23  24
ENDBRANCH   1  23
TORSDOF 16
ENDMDL
MODEL 2
REMARK VINA RESULT:     -10.3      4.265     11.253
REMARK SMILES COc1cc(C)cc2c1O[C@H](C(F)(F)F)C(C(=O)OCCOC(=O)c1ccc(-c3c4nc(c(-c5c(F)cc(S(=O)(=O)[O-])cc5F)c5ccc([nH]5)c(-c5c(F)cc(S(=O)(=O)[O-])cc5F)c5nc(c(-c6c(F)cc(S(=O)(=O)[O-])cc6F)c6ccc3[nH]6)C=C5)C=C4)cc1)=C2
REMARK SMILES IDX 21 1 20 2 19 3 17 4 18 5 16 6 3 7 4 8 9 9 5 10 8 11 10 12
REMARK SMILES IDX 6 13 7 14 91 15 11 16 2 17 1 18 12 19 13 20 14 21 15 22
REMARK SMILES IDX 22 23 23 24 24 25 25 26 26 27 90 28 27 29 89 30 28 31 29 32
REMARK SMILES IDX 30 33 83 34 31 35 88 36 82 37 84 38 32 39 87 40 81 41 80 42
REMARK SMILES IDX 33 44 67 45 46 46 66 47 47 48 50 49 65 50 85 51 48 52 49 53
REMARK SMILES IDX 64 55 86 56 51 57 34 58 35 59 44 60 36 61 37 62 43 63 45 64
REMARK SMILES IDX 38 65 39 66 40 67 41 68 42 69 68 70 69 71 78 72 70 73 71 74
REMARK SMILES IDX 77 75 79 76 72 77 73 78 74 79 75 80 76 81 52 82 53 83 62 84
REMARK SMILES IDX 54 85 55 86 61 87 63 88 56 89 57 90 58 91 59 92 60 93
REMARK H PARENT 84 43 50 54
REMARK Flexibility Score: inf
ROOT
ATOM      1  C   UNL A   1      39.753  23.183  26.319  1.00  0.00     0.275 C 
ENDROOT
BRANCH   1   2
ATOM      2  C   UNL A   1      38.515  22.415  25.850  1.00  0.00     0.275 C 
BRANCH   2   3
ATOM      3  O   UNL A   1      37.396  23.298  25.612  1.00  0.00    -0.459 OA
BRANCH   3   4
ATOM      4  C   UNL A   1      36.641  23.003  24.527  1.00  0.00     0.338 C 
ATOM      5  O   UNL A   1      37.042  22.534  23.472  1.00  0.00    -0.246 OA
BRANCH   4   6
ATOM      6  C   UNL A   1      35.216  23.283  24.787  1.00  0.00     0.087 C 
ATOM      7  C   UNL A   1      31.251  24.103  25.854  1.00  0.00     0.161 A 
ATOM      8  C   UNL A   1      30.926  25.377  26.346  1.00  0.00     0.054 A 
ATOM      9  C   UNL A   1      32.562  23.807  25.463  1.00  0.00     0.169 A 
ATOM     10  C   UNL A   1      31.892  26.388  26.399  1.00  0.00    -0.047 A 
ATOM     11  C   UNL A   1      33.526  24.808  25.539  1.00  0.00     0.021 A 
ATOM     12  O   UNL A   1      32.834  22.551  24.988  1.00  0.00    -0.471 OA
ATOM     13  C   UNL A   1      31.572  27.763  26.904  1.00  0.00     0.044 C 
ATOM     14  C   UNL A   1      33.191  26.095  25.981  1.00  0.00     0.015 A 
ATOM     15  C   UNL A   1      34.897  24.518  25.185  1.00  0.00     0.027 C 
ATOM     16  C   UNL A   1      34.215  22.166  24.735  1.00  0.00     0.316 C 
BRANCH   7  17
ATOM     17  O   UNL A   1      30.324  23.090  25.814  1.00  0.00    -0.493 OA
ATOM     18  C   UNL A   1      29.724  22.850  27.084  1.00  0.00     0.278 C 
ENDBRANCH   7  17
BRANCH  16  19
ATOM     19  C   UNL A   1      34.602  21.038  25.706  1.00  0.00     0.430 C 
ATOM     20  F   UNL A   1      35.537  20.217  25.169  1.00  0.00    -0.167 F 
ATOM     21  F   UNL A   1      35.143  21.531  26.849  1.00  0.00    -0.167 F 
ATOM     22  F   UNL A   1      33.544  20.275  26.060  1.00  0.00    -0.167 F 
ENDBRANCH  16  19
ENDBRANCH   4   6
ENDBRANCH   3   4
ENDBRANCH   2   3
ENDBRANCH   1   2
BRANCH   1  23
ATOM     23  O   UNL A   1      39.492  24.597  26.350  1.00  0.00    -0.458 OA
BRANCH  23  24
ATOM     24  C   UNL A   1      40.590  25.386  26.333  1.00  0.00     0.338 C 
ATOM     25  O   UNL A   1      41.383  25.535  25.419  1.00  0.00    -0.246 OA
BRANCH  24  26
ATOM     26  C   UNL A   1      40.653  26.165  27.578  1.00  0.00     0.060 A 
ATOM     27  C   UNL A   1      41.480  27.272  27.709  1.00  0.00     0.016 A 
ATOM     28  C   UNL A   1      39.738  25.859  28.577  1.00  0.00     0.016 A 
ATOM     29  C   UNL A   1      41.378  28.061  28.864  1.00  0.00     0.010 A 
ATOM     30  C   UNL A   1      39.529  26.729  29.641  1.00  0.00     0.010 A 
ATOM     31  C   UNL A   1      40.372  27.827  29.826  1.00  0.00    -0.014 A 
BRANCH  31  32
ATOM     32  C   UNL A   1      40.206  28.716  31.015  1.00  0.00     0.031 A 
ATOM     33  C   UNL A   1      41.110  28.586  32.222  1.00  0.00     0.074 A 
ATOM     34  C   UNL A   1      39.217  29.635  31.023  1.00  0.00     0.049 A 
ATOM     35  N   UNL A   1      41.128  29.304  33.320  1.00  0.00    -0.248 NA
ATOM     36  C   UNL A   1      42.092  27.487  32.227  1.00  0.00     0.031 C 
ATOM     37  C   UNL A   1      38.199  29.793  29.980  1.00  0.00     0.029 A 
ATOM     38  N   UNL A   1      38.917  30.628  31.923  1.00  0.00    -0.354 N 
ATOM     39  C   UNL A   1      42.101  28.735  34.135  1.00  0.00     0.074 A 
ATOM     40  C   UNL A   1      42.591  27.563  33.452  1.00  0.00     0.031 C 
ATOM     41  C   UNL A   1      37.452  30.873  30.250  1.00  0.00     0.029 A 
ATOM     42  C   UNL A   1      37.904  31.463  31.505  1.00  0.00     0.049 A 
ATOM     43  H   UNL A   1      39.381  30.733  32.786  1.00  0.00     0.167 HD
ATOM     44  C   UNL A   1      42.585  29.173  35.323  1.00  0.00     0.037 A 
ATOM     45  C   UNL A   1      37.412  32.591  32.055  1.00  0.00     0.037 A 
ATOM     46  C   UNL A   1      42.145  30.380  35.970  1.00  0.00     0.049 A 
ATOM     47  C   UNL A   1      38.007  33.100  33.339  1.00  0.00     0.074 A 
ATOM     48  C   UNL A   1      42.626  30.957  37.133  1.00  0.00     0.029 A 
ATOM     49  N   UNL A   1      41.137  31.206  35.500  1.00  0.00    -0.354 N 
ATOM     50  N   UNL A   1      38.980  32.587  34.054  1.00  0.00    -0.248 NA
ATOM     51  C   UNL A   1      37.443  34.339  33.890  1.00  0.00     0.031 C 
ATOM     52  C   UNL A   1      41.886  32.117  37.382  1.00  0.00     0.029 A 
ATOM     53  C   UNL A   1      40.974  32.284  36.353  1.00  0.00     0.049 A 
ATOM     54  H   UNL A   1      40.614  31.051  34.681  1.00  0.00     0.167 HD
ATOM     55  C   UNL A   1      39.155  33.447  35.130  1.00  0.00     0.074 A 
ATOM     56  C   UNL A   1      38.202  34.525  34.964  1.00  0.00     0.031 C 
ATOM     57  C   UNL A   1      40.023  33.351  36.167  1.00  0.00     0.037 A 
BRANCH  44  58
ATOM     58  C   UNL A   1      43.686  28.377  35.975  1.00  0.00     0.058 A 
ATOM     59  C   UNL A   1      43.401  27.275  36.797  1.00  0.00     0.135 A 
ATOM     60  C   UNL A   1      45.036  28.677  35.730  1.00  0.00     0.135 A 
ATOM     61  F   UNL A   1      42.129  26.951  37.077  1.00  0.00    -0.206 F 
ATOM     62  C   UNL A   1      44.412  26.514  37.374  1.00  0.00     0.059 A 
ATOM     63  C   UNL A   1      46.065  27.910  36.273  1.00  0.00     0.059 A 
ATOM     64  F   UNL A   1      45.367  29.717  34.950  1.00  0.00    -0.206 F 
ATOM     65  C   UNL A   1      45.742  26.836  37.102  1.00  0.00     0.060 A 
BRANCH  65  66
ATOM     66  S   UNL A   1      47.038  25.816  37.836  1.00  0.00     0.124 S 
ATOM     67  O   UNL A   1      47.195  26.441  39.146  1.00  0.00    -0.237 OA
ATOM     68  O   UNL A   1      46.427  24.490  37.836  1.00  0.00    -0.237 OA
ATOM     69  O   UNL A   1      48.164  25.983  36.922  1.00  0.00    -0.744 OA
ENDBRANCH  65  66
ENDBRANCH  44  58
BRANCH  45  70
ATOM     70  C   UNL A   1      36.345  33.353  31.349  1.00  0.00     0.058 A 
ATOM     71  C   UNL A   1      36.626  34.051  30.165  1.00  0.00     0.135 A 
ATOM     72  C   UNL A   1      35.023  33.368  31.818  1.00  0.00     0.135 A 
ATOM     73  F   UNL A   1      37.876  34.069  29.678  1.00  0.00    -0.206 F 
ATOM     74  C   UNL A   1      35.636  34.742  29.473  1.00  0.00     0.059 A 
ATOM     75  C   UNL A   1      34.011  34.032  31.131  1.00  0.00     0.059 A 
ATOM     76  F   UNL A   1      34.698  32.702  32.937  1.00  0.00    -0.206 F 
ATOM     77  C   UNL A   1      34.329  34.723  29.961  1.00  0.00     0.060 A 
BRANCH  77  78
ATOM     78  S   UNL A   1      33.044  35.573  29.021  1.00  0.00     0.124 S 
ATOM     79  O   UNL A   1      32.489  34.483  28.227  1.00  0.00    -0.237 OA
ATOM     80  O   UNL A   1      32.185  36.094  30.079  1.00  0.00    -0.237 OA
ATOM     81  O   UNL A   1      33.788  36.583  28.273  1.00  0.00    -0.744 OA
ENDBRANCH  77  78
ENDBRANCH  45  70
BRANCH  57  82
ATOM     82  C   UNL A   1      39.997  34.439  37.201  1.00  0.00     0.058 A 
ATOM     83  C   UNL A   1      40.686  35.645  37.006  1.00  0.00     0.135 A 
ATOM     84  C   UNL A   1      39.208  34.309  38.354  1.00  0.00     0.135 A 
ATOM     85  F   UNL A   1      41.458  35.816  35.922  1.00  0.00    -0.206 F 
ATOM     86  C   UNL A   1      40.600  36.685  37.926  1.00  0.00     0.059 A 
ATOM     87  C   UNL A   1      39.088  35.344  39.275  1.00  0.00     0.059 A 
ATOM     88  F   UNL A   1      38.522  33.177  38.580  1.00  0.00    -0.206 F 
ATOM     89  C   UNL A   1      39.792  36.527  39.054  1.00  0.00     0.060 A 
BRANCH  89  90
ATOM     90  S   UNL A   1      39.648  37.907  40.209  1.00  0.00     0.124 S 
ATOM     91  O   UNL A   1      40.984  38.489  40.138  1.00  0.00    -0.237 OA
ATOM     92  O   UNL A   1      38.577  38.700  39.614  1.00  0.00    -0.237 OA
ATOM     93  O   UNL A   1      39.311  37.259  41.473  1.00  0.00    -0.744 OA
ENDBRANCH  89  90
ENDBRANCH  57  82
ENDBRANCH  31  32
ENDBRANCH  24  26
ENDBRANCH  23  24
ENDBRANCH   1  23
TORSDOF 16
ENDMDL
MODEL 3
REMARK VINA RESULT:     -10.3      4.425     12.710
REMARK SMILES COc1cc(C)cc2c1O[C@H](C(F)(F)F)C(C(=O)OCCOC(=O)c1ccc(-c3c4nc(c(-c5c(F)cc(S(=O)(=O)[O-])cc5F)c5ccc([nH]5)c(-c5c(F)cc(S(=O)(=O)[O-])cc5F)c5nc(c(-c6c(F)cc(S(=O)(=O)[O-])cc6F)c6ccc3[nH]6)C=C5)C=C4)cc1)=C2
REMARK SMILES IDX 21 1 20 2 19 3 17 4 18 5 16 6 3 7 4 8 9 9 5 10 8 11 10 12
REMARK SMILES IDX 6 13 7 14 91 15 11 16 2 17 1 18 12 19 13 20 14 21 15 22
REMARK SMILES IDX 22 23 23 24 24 25 25 26 26 27 90 28 27 29 89 30 28 31 29 32
REMARK SMILES IDX 30 33 83 34 31 35 88 36 82 37 84 38 32 39 87 40 81 41 80 42
REMARK SMILES IDX 33 44 67 45 46 46 66 47 47 48 50 49 65 50 85 51 48 52 49 53
REMARK SMILES IDX 64 55 86 56 51 57 34 58 35 59 44 60 36 61 37 62 43 63 45 64
REMARK SMILES IDX 38 65 39 66 40 67 41 68 42 69 68 70 69 71 78 72 70 73 71 74
REMARK SMILES IDX 77 75 79 76 72 77 73 78 74 79 75 80 76 81 52 82 53 83 62 84
REMARK SMILES IDX 54 85 55 86 61 87 63 88 56 89 57 90 58 91 59 92 60 93
REMARK H PARENT 84 43 50 54
REMARK Flexibility Score: inf
ROOT
ATOM      1  C   UNL A   1      40.426  20.286  26.124  1.00  0.00     0.275 C 
ENDROOT
BRANCH   1   2
ATOM      2  C   UNL A   1      41.953  20.233  26.200  1.00  0.00     0.275 C 
BRANCH   2   3
ATOM      3  O   UNL A   1      42.551  21.503  25.856  1.00  0.00    -0.459 OA
BRANCH   3   4
ATOM      4  C   UNL A   1      43.858  21.456  25.505  1.00  0.00     0.338 C 
ATOM      5  O   UNL A   1      44.334  20.832  24.568  1.00  0.00    -0.246 OA
BRANCH   4   6
ATOM      6  C   UNL A   1      44.670  22.310  26.393  1.00  0.00     0.087 C 
ATOM      7  C   UNL A   1      46.749  24.980  28.858  1.00  0.00     0.161 A 
ATOM      8  C   UNL A   1      46.169  25.382  30.072  1.00  0.00     0.054 A 
ATOM      9  C   UNL A   1      46.091  24.067  28.026  1.00  0.00     0.169 A 
ATOM     10  C   UNL A   1      44.953  24.834  30.496  1.00  0.00    -0.047 A 
ATOM     11  C   UNL A   1      44.871  23.541  28.440  1.00  0.00     0.021 A 
ATOM     12  O   UNL A   1      46.695  23.703  26.851  1.00  0.00    -0.471 OA
ATOM     13  C   UNL A   1      44.315  25.230  31.794  1.00  0.00     0.044 C 
ATOM     14  C   UNL A   1      44.316  23.902  29.674  1.00  0.00     0.015 A 
ATOM     15  C   UNL A   1      44.148  22.633  27.580  1.00  0.00     0.027 C 
ATOM     16  C   UNL A   1      45.961  22.890  25.892  1.00  0.00     0.316 C 
BRANCH   7  17
ATOM     17  O   UNL A   1      47.930  25.521  28.413  1.00  0.00    -0.493 OA
ATOM     18  C   UNL A   1      48.838  25.798  29.476  1.00  0.00     0.278 C 
ENDBRANCH   7  17
BRANCH  16  19
ATOM     19  C   UNL A   1      45.731  23.715  24.615  1.00  0.00     0.430 C 
ATOM     20  F   UNL A   1      46.631  24.722  24.503  1.00  0.00    -0.167 F 
ATOM     21  F   UNL A   1      45.873  22.955  23.501  1.00  0.00    -0.167 F 
ATOM     22  F   UNL A   1      44.497  24.265  24.570  1.00  0.00    -0.167 F 
ENDBRANCH  16  19
ENDBRANCH   4   6
ENDBRANCH   3   4
ENDBRANCH   2   3
ENDBRANCH   1   2
BRANCH   1  23
ATOM     23  O   UNL A   1      39.903  21.229  27.076  1.00  0.00    -0.458 OA
BRANCH  23  24
ATOM     24  C   UNL A   1      39.211  22.262  26.544  1.00  0.00     0.338 C 
ATOM     25  O   UNL A   1      38.255  22.205  25.790  1.00  0.00    -0.246 OA
BRANCH  24  26
ATOM     26  C   UNL A   1      39.714  23.526  27.099  1.00  0.00     0.060 A 
ATOM     27  C   UNL A   1      40.691  23.557  28.085  1.00  0.00     0.016 A 
ATOM     28  C   UNL A   1      39.299  24.706  26.496  1.00  0.00     0.016 A 
ATOM     29  C   UNL A   1      41.237  24.793  28.460  1.00  0.00     0.010 A 
ATOM     30  C   UNL A   1      39.952  25.906  26.755  1.00  0.00     0.010 A 
ATOM     31  C   UNL A   1      40.908  25.980  27.770  1.00  0.00    -0.014 A 
BRANCH  31  32
ATOM     32  C   UNL A   1      41.551  27.285  28.111  1.00  0.00     0.031 A 
ATOM     33  C   UNL A   1      42.957  27.608  27.655  1.00  0.00     0.074 A 
ATOM     34  C   UNL A   1      40.874  28.182  28.860  1.00  0.00     0.049 A 
ATOM     35  N   UNL A   1      43.648  28.708  27.830  1.00  0.00    -0.248 NA
ATOM     36  C   UNL A   1      43.708  26.552  26.953  1.00  0.00     0.031 C 
ATOM     37  C   UNL A   1      39.558  27.958  29.466  1.00  0.00     0.029 A 
ATOM     38  N   UNL A   1      41.182  29.471  29.219  1.00  0.00    -0.354 N 
ATOM     39  C   UNL A   1      44.902  28.467  27.277  1.00  0.00     0.074 A 
ATOM     40  C   UNL A   1      44.912  27.092  26.841  1.00  0.00     0.031 C 
ATOM     41  C   UNL A   1      39.134  29.095  30.036  1.00  0.00     0.029 A 
ATOM     42  C   UNL A   1      40.161  30.119  29.878  1.00  0.00     0.049 A 
ATOM     43  H   UNL A   1      42.051  29.892  29.025  1.00  0.00     0.167 HD
ATOM     44  C   UNL A   1      45.937  29.323  27.099  1.00  0.00     0.037 A 
ATOM     45  C   UNL A   1      40.050  31.399  30.285  1.00  0.00     0.037 A 
ATOM     46  C   UNL A   1      45.901  30.713  27.471  1.00  0.00     0.049 A 
ATOM     47  C   UNL A   1      41.181  32.353  30.017  1.00  0.00     0.074 A 
ATOM     48  C   UNL A   1      46.863  31.685  27.261  1.00  0.00     0.029 A 
ATOM     49  N   UNL A   1      44.839  31.331  28.111  1.00  0.00    -0.354 N 
ATOM     50  N   UNL A   1      42.328  32.121  29.423  1.00  0.00    -0.248 NA
ATOM     51  C   UNL A   1      41.007  33.739  30.471  1.00  0.00     0.031 C 
ATOM     52  C   UNL A   1      46.394  32.885  27.802  1.00  0.00     0.029 A 
ATOM     53  C   UNL A   1      45.125  32.670  28.313  1.00  0.00     0.049 A 
ATOM     54  H   UNL A   1      44.005  30.885  28.383  1.00  0.00     0.167 HD
ATOM     55  C   UNL A   1      43.004  33.334  29.418  1.00  0.00     0.074 A 
ATOM     56  C   UNL A   1      42.132  34.303  30.050  1.00  0.00     0.031 C 
ATOM     57  C   UNL A   1      44.240  33.620  28.938  1.00  0.00     0.037 A 
BRANCH  44  58
ATOM     58  C   UNL A   1      47.178  28.802  26.420  1.00  0.00     0.058 A 
ATOM     59  C   UNL A   1      48.392  28.678  27.115  1.00  0.00     0.135 A 
ATOM     60  C   UNL A   1      47.142  28.363  25.086  1.00  0.00     0.135 A 
ATOM     61  F   UNL A   1      48.488  29.094  28.388  1.00  0.00    -0.206 F 
ATOM     62  C   UNL A   1      49.532  28.164  26.507  1.00  0.00     0.059 A 
ATOM     63  C   UNL A   1      48.263  27.817  24.465  1.00  0.00     0.059 A 
ATOM     64  F   UNL A   1      46.008  28.454  24.375  1.00  0.00    -0.206 F 
ATOM     65  C   UNL A   1      49.457  27.731  25.182  1.00  0.00     0.060 A 
BRANCH  65  66
ATOM     66  S   UNL A   1      50.940  27.039  24.422  1.00  0.00     0.124 S 
ATOM     67  O   UNL A   1      50.586  27.074  23.006  1.00  0.00    -0.237 OA
ATOM     68  O   UNL A   1      51.973  27.983  24.839  1.00  0.00    -0.237 OA
ATOM     69  O   UNL A   1      51.038  25.707  25.011  1.00  0.00    -0.744 OA
ENDBRANCH  65  66
ENDBRANCH  44  58
BRANCH  45  70
ATOM     70  C   UNL A   1      38.788  31.866  30.922  1.00  0.00     0.058 A 
ATOM     71  C   UNL A   1      38.631  31.825  32.316  1.00  0.00     0.135 A 
ATOM     72  C   UNL A   1      37.734  32.394  30.162  1.00  0.00     0.135 A 
ATOM     73  F   UNL A   1      39.609  31.325  33.086  1.00  0.00    -0.206 F 
ATOM     74  C   UNL A   1      37.473  32.285  32.934  1.00  0.00     0.059 A 
ATOM     75  C   UNL A   1      36.575  32.883  30.758  1.00  0.00     0.059 A 
ATOM     76  F   UNL A   1      37.841  32.472  28.826  1.00  0.00    -0.206 F 
ATOM     77  C   UNL A   1      36.451  32.819  32.146  1.00  0.00     0.060 A 
BRANCH  77  78
ATOM     78  S   UNL A   1      34.979  33.468  32.965  1.00  0.00     0.124 S 
ATOM     79  O   UNL A   1      33.920  32.697  32.324  1.00  0.00    -0.237 OA
ATOM     80  O   UNL A   1      35.243  33.150  34.365  1.00  0.00    -0.237 OA
ATOM     81  O   UNL A   1      35.012  34.891  32.636  1.00  0.00    -0.744 OA
ENDBRANCH  77  78
ENDBRANCH  45  70
BRANCH  57  82
ATOM     82  C   UNL A   1      44.726  35.035  29.063  1.00  0.00     0.058 A 
ATOM     83  C   UNL A   1      45.491  35.448  30.164  1.00  0.00     0.135 A 
ATOM     84  C   UNL A   1      44.501  35.960  28.032  1.00  0.00     0.135 A 
ATOM     85  F   UNL A   1      45.729  34.602  31.178  1.00  0.00    -0.206 F 
ATOM     86  C   UNL A   1      46.009  36.737  30.243  1.00  0.00     0.059 A 
ATOM     87  C   UNL A   1      45.031  37.246  28.079  1.00  0.00     0.059 A 
ATOM     88  F   UNL A   1      43.784  35.609  26.952  1.00  0.00    -0.206 F 
ATOM     89  C   UNL A   1      45.780  37.626  29.192  1.00  0.00     0.060 A 
BRANCH  89  90
ATOM     90  S   UNL A   1      46.506  39.275  29.286  1.00  0.00     0.124 S 
ATOM     91  O   UNL A   1      45.808  39.966  28.206  1.00  0.00    -0.237 OA
ATOM     92  O   UNL A   1      46.153  39.694  30.639  1.00  0.00    -0.237 OA
ATOM     93  O   UNL A   1      47.928  39.034  29.062  1.00  0.00    -0.744 OA
ENDBRANCH  89  90
ENDBRANCH  57  82
ENDBRANCH  31  32
ENDBRANCH  24  26
ENDBRANCH  23  24
ENDBRANCH   1  23
TORSDOF 16
ENDMDL
