MODEL 1
REMARK VINA RESULT:     -11.8      0.000      0.000
REMARK SMILES Nn1c(S[C@@H](C(=O)OCCOC(=O)c2ccc(-c3c4nc(c(-c5c(F)cc(S(=O)(=O)[O-])cc5F)c5ccc([nH]5)c(-c5c(F)cc(S(=O)(=O)[O-])cc5F)c5nc(c(-c6c(F)cc(S(=O)(=O)[O-])cc6F)c6ccc3[nH]6)C=C5)C=C4)cc2)c2ccccc2)nc2ccc(Br)cc2c1=O
REMARK SMILES IDX 9 1 8 2 6 3 7 4 5 5 4 6 3 7 2 8 94 9 86 10 93 11 95 12 87 13
REMARK SMILES IDX 92 14 88 15 90 16 89 17 91 18 1 19 80 22 81 23 85 24 82 25
REMARK SMILES IDX 84 26 83 27 10 28 11 29 12 30 13 31 14 32 15 33 79 34 16 35
REMARK SMILES IDX 78 36 17 37 18 38 19 39 72 40 20 41 77 42 71 43 73 44 21 45
REMARK SMILES IDX 76 46 70 47 69 48 22 50 56 51 35 52 55 53 36 54 39 55 54 56
REMARK SMILES IDX 74 57 37 58 38 59 53 61 75 62 40 63 23 64 24 65 33 66 25 67
REMARK SMILES IDX 26 68 32 69 34 70 27 71 28 72 29 73 30 74 31 75 57 76 58 77
REMARK SMILES IDX 67 78 59 79 60 80 66 81 68 82 61 83 62 84 63 85 64 86 65 87
REMARK SMILES IDX 41 88 42 89 51 90 43 91 44 92 50 93 52 94 45 95 46 96 47 97
REMARK SMILES IDX 48 98 49 99
REMARK H PARENT 1 20 1 21 73 49 39 60
REMARK Flexibility Score: inf
ROOT
ATOM      1  C   UNL A   1      32.524  28.489  25.840  1.00  0.00     0.274 C 
ENDROOT
BRANCH   1   2
ATOM      2  O   UNL A   1      32.428  29.329  24.665  1.00  0.00    -0.461 OA
BRANCH   2   3
ATOM      3  C   UNL A   1      31.801  28.753  23.594  1.00  0.00     0.324 C 
ATOM      4  O   UNL A   1      32.419  28.496  22.564  1.00  0.00    -0.251 OA
BRANCH   3   5
ATOM      5  C   UNL A   1      30.263  28.653  23.720  1.00  0.00     0.194 C 
BRANCH   5   6
ATOM      6  S   UNL A   1      29.596  26.967  23.542  1.00  0.00    -0.066 SA
BRANCH   6   7
ATOM      7  C   UNL A   1      30.647  25.735  24.221  1.00  0.00     0.191 A 
ATOM      8  N   UNL A   1      30.667  25.354  25.557  1.00  0.00    -0.202 N 
ATOM      9  C   UNL A   1      31.540  24.377  26.054  1.00  0.00     0.280 A 
ATOM     10  N   UNL A   1      31.484  25.239  23.359  1.00  0.00    -0.222 NA
ATOM     11  C   UNL A   1      32.510  23.840  25.099  1.00  0.00     0.069 A 
ATOM     12  O   UNL A   1      31.545  24.004  27.227  1.00  0.00    -0.267 OA
ATOM     13  C   UNL A   1      32.451  24.320  23.792  1.00  0.00     0.079 A 
ATOM     14  C   UNL A   1      33.495  22.935  25.513  1.00  0.00     0.031 A 
ATOM     15  C   UNL A   1      33.431  23.899  22.890  1.00  0.00     0.030 A 
ATOM     16  C   UNL A   1      34.459  22.529  24.599  1.00  0.00     0.018 A 
ATOM     17  C   UNL A   1      34.437  23.012  23.291  1.00  0.00     0.018 A 
ATOM     18  Br  UNL A   1      35.821  21.334  25.135  1.00  0.00    -0.051 Br
BRANCH   8  19
ATOM     19  N   UNL A   1      29.840  25.933  26.517  1.00  0.00    -0.334 N 
ATOM     20  H   UNL A   1      29.324  25.363  27.132  1.00  0.00     0.178 HD
ATOM     21  H   UNL A   1      29.770  26.913  26.580  1.00  0.00     0.178 HD
ENDBRANCH   8  19
ENDBRANCH   6   7
ENDBRANCH   5   6
BRANCH   5  22
ATOM     22  C   UNL A   1      29.434  29.824  23.136  1.00  0.00    -0.023 A 
ATOM     23  C   UNL A   1      29.248  31.022  23.859  1.00  0.00     0.005 A 
ATOM     24  C   UNL A   1      28.817  29.759  21.871  1.00  0.00     0.005 A 
ATOM     25  C   UNL A   1      28.608  32.132  23.300  1.00  0.00     0.000 A 
ATOM     26  C   UNL A   1      28.175  30.869  21.308  1.00  0.00     0.000 A 
ATOM     27  C   UNL A   1      28.091  32.063  22.014  1.00  0.00     0.000 A 
ENDBRANCH   5  22
ENDBRANCH   3   5
ENDBRANCH   2   3
ENDBRANCH   1   2
BRANCH   1  28
ATOM     28  C   UNL A   1      33.965  28.319  26.318  1.00  0.00     0.275 C 
BRANCH  28  29
ATOM     29  O   UNL A   1      34.095  28.753  27.681  1.00  0.00    -0.458 OA
BRANCH  29  30
ATOM     30  C   UNL A   1      34.610  29.989  27.859  1.00  0.00     0.338 C 
ATOM     31  O   UNL A   1      33.990  31.046  27.807  1.00  0.00    -0.246 OA
BRANCH  30  32
ATOM     32  C   UNL A   1      36.046  29.922  28.220  1.00  0.00     0.060 A 
ATOM     33  C   UNL A   1      36.403  29.427  29.474  1.00  0.00     0.016 A 
ATOM     34  C   UNL A   1      37.040  30.147  27.262  1.00  0.00     0.016 A 
ATOM     35  C   UNL A   1      37.747  29.167  29.766  1.00  0.00     0.010 A 
ATOM     36  C   UNL A   1      38.351  29.732  27.507  1.00  0.00     0.010 A 
ATOM     37  C   UNL A   1      38.738  29.283  28.776  1.00  0.00    -0.014 A 
BRANCH  37  38
ATOM     38  C   UNL A   1      40.169  28.987  29.086  1.00  0.00     0.031 A 
ATOM     39  C   UNL A   1      40.771  27.651  28.712  1.00  0.00     0.074 A 
ATOM     40  C   UNL A   1      40.945  29.909  29.696  1.00  0.00     0.049 A 
ATOM     41  N   UNL A   1      42.013  27.246  28.818  1.00  0.00    -0.248 NA
ATOM     42  C   UNL A   1      39.861  26.618  28.192  1.00  0.00     0.031 C 
ATOM     43  C   UNL A   1      40.489  31.202  30.216  1.00  0.00     0.029 A 
ATOM     44  N   UNL A   1      42.294  29.908  29.961  1.00  0.00    -0.354 N 
ATOM     45  C   UNL A   1      42.019  25.922  28.393  1.00  0.00     0.074 A 
ATOM     46  C   UNL A   1      40.649  25.558  28.121  1.00  0.00     0.031 C 
ATOM     47  C   UNL A   1      41.549  31.893  30.669  1.00  0.00     0.029 A 
ATOM     48  C   UNL A   1      42.757  31.094  30.486  1.00  0.00     0.049 A 
ATOM     49  H   UNL A   1      42.876  29.132  29.792  1.00  0.00     0.167 HD
ATOM     50  C   UNL A   1      43.068  25.093  28.183  1.00  0.00     0.037 A 
ATOM     51  C   UNL A   1      44.012  31.506  30.752  1.00  0.00     0.037 A 
ATOM     52  C   UNL A   1      44.441  25.464  28.372  1.00  0.00     0.049 A 
ATOM     53  C   UNL A   1      45.175  30.601  30.442  1.00  0.00     0.074 A 
ATOM     54  C   UNL A   1      45.579  24.727  28.099  1.00  0.00     0.029 A 
ATOM     55  N   UNL A   1      44.863  26.688  28.867  1.00  0.00    -0.354 N 
ATOM     56  N   UNL A   1      45.164  29.388  29.945  1.00  0.00    -0.248 NA
ATOM     57  C   UNL A   1      46.521  31.128  30.715  1.00  0.00     0.031 C 
ATOM     58  C   UNL A   1      46.692  25.502  28.440  1.00  0.00     0.029 A 
ATOM     59  C   UNL A   1      46.245  26.728  28.907  1.00  0.00     0.049 A 
ATOM     60  H   UNL A   1      44.267  27.419  29.148  1.00  0.00     0.167 HD
ATOM     61  C   UNL A   1      46.500  29.017  29.821  1.00  0.00     0.074 A 
ATOM     62  C   UNL A   1      47.291  30.134  30.289  1.00  0.00     0.031 C 
ATOM     63  C   UNL A   1      47.020  27.854  29.359  1.00  0.00     0.037 A 
BRANCH  50  64
ATOM     64  C   UNL A   1      42.760  23.718  27.659  1.00  0.00     0.058 A 
ATOM     65  C   UNL A   1      42.565  22.637  28.535  1.00  0.00     0.135 A 
ATOM     66  C   UNL A   1      42.665  23.473  26.282  1.00  0.00     0.135 A 
ATOM     67  F   UNL A   1      42.665  22.816  29.862  1.00  0.00    -0.206 F 
ATOM     68  C   UNL A   1      42.328  21.352  28.063  1.00  0.00     0.059 A 
ATOM     69  C   UNL A   1      42.402  22.198  25.787  1.00  0.00     0.059 A 
ATOM     70  F   UNL A   1      42.843  24.471  25.402  1.00  0.00    -0.206 F 
ATOM     71  C   UNL A   1      42.255  21.141  26.686  1.00  0.00     0.060 A 
BRANCH  71  72
ATOM     72  S   UNL A   1      41.967  19.464  26.087  1.00  0.00     0.124 S 
ATOM     73  O   UNL A   1      40.528  19.487  25.843  1.00  0.00    -0.237 OA
ATOM     74  O   UNL A   1      42.810  19.405  24.898  1.00  0.00    -0.237 OA
ATOM     75  O   UNL A   1      42.402  18.626  27.202  1.00  0.00    -0.744 OA
ENDBRANCH  71  72
ENDBRANCH  50  64
BRANCH  51  76
ATOM     76  C   UNL A   1      44.249  32.883  31.262  1.00  0.00     0.058 A 
ATOM     77  C   UNL A   1      44.393  33.958  30.372  1.00  0.00     0.135 A 
ATOM     78  C   UNL A   1      44.329  33.152  32.635  1.00  0.00     0.135 A 
ATOM     79  F   UNL A   1      44.330  33.746  29.049  1.00  0.00    -0.206 F 
ATOM     80  C   UNL A   1      44.622  35.253  30.824  1.00  0.00     0.059 A 
ATOM     81  C   UNL A   1      44.543  34.443  33.113  1.00  0.00     0.059 A 
ATOM     82  F   UNL A   1      44.188  32.158  33.525  1.00  0.00    -0.206 F 
ATOM     83  C   UNL A   1      44.696  35.485  32.199  1.00  0.00     0.060 A 
BRANCH  83  84
ATOM     84  S   UNL A   1      44.952  37.179  32.776  1.00  0.00     0.124 S 
ATOM     85  O   UNL A   1      44.914  37.005  34.223  1.00  0.00    -0.237 OA
ATOM     86  O   UNL A   1      46.256  37.504  32.206  1.00  0.00    -0.237 OA
ATOM     87  O   UNL A   1      43.825  37.903  32.196  1.00  0.00    -0.744 OA
ENDBRANCH  83  84
ENDBRANCH  51  76
BRANCH  63  88
ATOM     88  C   UNL A   1      48.514  27.725  29.311  1.00  0.00     0.058 A 
ATOM     89  C   UNL A   1      49.235  27.203  30.395  1.00  0.00     0.135 A 
ATOM     90  C   UNL A   1      49.217  28.032  28.135  1.00  0.00     0.135 A 
ATOM     91  F   UNL A   1      48.605  26.898  31.541  1.00  0.00    -0.206 F 
ATOM     92  C   UNL A   1      50.606  26.991  30.316  1.00  0.00     0.059 A 
ATOM     93  C   UNL A   1      50.586  27.811  28.029  1.00  0.00     0.059 A 
ATOM     94  F   UNL A   1      48.569  28.524  27.068  1.00  0.00    -0.206 F 
ATOM     95  C   UNL A   1      51.274  27.293  29.127  1.00  0.00     0.060 A 
BRANCH  95  96
ATOM     96  S   UNL A   1      53.041  26.947  29.014  1.00  0.00     0.124 S 
ATOM     97  O   UNL A   1      53.263  26.151  30.217  1.00  0.00    -0.237 OA
ATOM     98  O   UNL A   1      53.140  26.224  27.749  1.00  0.00    -0.237 OA
ATOM     99  O   UNL A   1      53.648  28.274  29.017  1.00  0.00    -0.744 OA
ENDBRANCH  95  96
ENDBRANCH  63  88
ENDBRANCH  37  38
ENDBRANCH  30  32
ENDBRANCH  29  30
ENDBRANCH  28  29
ENDBRANCH   1  28
TORSDOF 18
ENDMDL
MODEL 2
REMARK VINA RESULT:     -11.8      4.254      8.733
REMARK SMILES Nn1c(S[C@@H](C(=O)OCCOC(=O)c2ccc(-c3c4nc(c(-c5c(F)cc(S(=O)(=O)[O-])cc5F)c5ccc([nH]5)c(-c5c(F)cc(S(=O)(=O)[O-])cc5F)c5nc(c(-c6c(F)cc(S(=O)(=O)[O-])cc6F)c6ccc3[nH]6)C=C5)C=C4)cc2)c2ccccc2)nc2ccc(Br)cc2c1=O
REMARK SMILES IDX 9 1 8 2 6 3 7 4 5 5 4 6 3 7 2 8 94 9 86 10 93 11 95 12 87 13
REMARK SMILES IDX 92 14 88 15 90 16 89 17 91 18 1 19 80 22 81 23 85 24 82 25
REMARK SMILES IDX 84 26 83 27 10 28 11 29 12 30 13 31 14 32 15 33 79 34 16 35
REMARK SMILES IDX 78 36 17 37 18 38 19 39 72 40 20 41 77 42 71 43 73 44 21 45
REMARK SMILES IDX 76 46 70 47 69 48 22 50 56 51 35 52 55 53 36 54 39 55 54 56
REMARK SMILES IDX 74 57 37 58 38 59 53 61 75 62 40 63 23 64 24 65 33 66 25 67
REMARK SMILES IDX 26 68 32 69 34 70 27 71 28 72 29 73 30 74 31 75 57 76 58 77
REMARK SMILES IDX 67 78 59 79 60 80 66 81 68 82 61 83 62 84 63 85 64 86 65 87
REMARK SMILES IDX 41 88 42 89 51 90 43 91 44 92 50 93 52 94 45 95 46 96 47 97
REMARK SMILES IDX 48 98 49 99
REMARK H PARENT 1 20 1 21 73 49 39 60
REMARK Flexibility Score: inf
ROOT
ATOM      1  C   UNL A   1      33.188  29.463  25.561  1.00  0.00     0.274 C 
ENDROOT
BRANCH   1   2
ATOM      2  O   UNL A   1      32.222  28.475  25.129  1.00  0.00    -0.461 OA
BRANCH   2   3
ATOM      3  C   UNL A   1      31.741  28.655  23.860  1.00  0.00     0.324 C 
ATOM      4  O   UNL A   1      32.493  28.952  22.936  1.00  0.00    -0.251 OA
BRANCH   3   5
ATOM      5  C   UNL A   1      30.198  28.654  23.746  1.00  0.00     0.194 C 
BRANCH   5   6
ATOM      6  S   UNL A   1      29.469  27.034  23.342  1.00  0.00    -0.066 SA
BRANCH   6   7
ATOM      7  C   UNL A   1      30.645  25.730  23.339  1.00  0.00     0.191 A 
ATOM      8  N   UNL A   1      31.611  25.531  22.361  1.00  0.00    -0.202 N 
ATOM      9  C   UNL A   1      32.515  24.460  22.395  1.00  0.00     0.280 A 
ATOM     10  N   UNL A   1      30.488  24.893  24.322  1.00  0.00    -0.222 NA
ATOM     11  C   UNL A   1      32.323  23.494  23.477  1.00  0.00     0.069 A 
ATOM     12  O   UNL A   1      33.399  24.292  21.555  1.00  0.00    -0.267 OA
ATOM     13  C   UNL A   1      31.294  23.746  24.381  1.00  0.00     0.079 A 
ATOM     14  C   UNL A   1      33.104  22.334  23.545  1.00  0.00     0.031 A 
ATOM     15  C   UNL A   1      31.027  22.787  25.361  1.00  0.00     0.030 A 
ATOM     16  C   UNL A   1      32.822  21.393  24.528  1.00  0.00     0.018 A 
ATOM     17  C   UNL A   1      31.782  21.609  25.432  1.00  0.00     0.018 A 
ATOM     18  Br  UNL A   1      33.835  19.802  24.627  1.00  0.00    -0.051 Br
BRANCH   8  19
ATOM     19  N   UNL A   1      31.742  26.364  21.252  1.00  0.00    -0.334 N 
ATOM     20  H   UNL A   1      31.183  27.171  21.174  1.00  0.00     0.178 HD
ATOM     21  H   UNL A   1      32.392  26.147  20.546  1.00  0.00     0.178 HD
ENDBRANCH   8  19
ENDBRANCH   6   7
ENDBRANCH   5   6
BRANCH   5  22
ATOM     22  C   UNL A   1      29.539  29.916  23.137  1.00  0.00    -0.023 A 
ATOM     23  C   UNL A   1      29.091  29.934  21.799  1.00  0.00     0.005 A 
ATOM     24  C   UNL A   1      29.361  31.106  23.870  1.00  0.00     0.005 A 
ATOM     25  C   UNL A   1      28.386  31.020  21.270  1.00  0.00     0.000 A 
ATOM     26  C   UNL A   1      28.655  32.194  23.343  1.00  0.00     0.000 A 
ATOM     27  C   UNL A   1      28.147  32.142  22.050  1.00  0.00     0.000 A 
ENDBRANCH   5  22
ENDBRANCH   3   5
ENDBRANCH   2   3
ENDBRANCH   1   2
BRANCH   1  28
ATOM     28  C   UNL A   1      32.567  30.535  26.454  1.00  0.00     0.275 C 
BRANCH  28  29
ATOM     29  O   UNL A   1      33.339  30.695  27.655  1.00  0.00    -0.458 OA
BRANCH  29  30
ATOM     30  C   UNL A   1      34.279  31.665  27.626  1.00  0.00     0.338 C 
ATOM     31  O   UNL A   1      34.101  32.835  27.305  1.00  0.00    -0.246 OA
BRANCH  30  32
ATOM     32  C   UNL A   1      35.582  31.161  28.121  1.00  0.00     0.060 A 
ATOM     33  C   UNL A   1      36.621  32.069  28.327  1.00  0.00     0.016 A 
ATOM     34  C   UNL A   1      35.719  29.846  28.577  1.00  0.00     0.016 A 
ATOM     35  C   UNL A   1      37.789  31.658  28.978  1.00  0.00     0.010 A 
ATOM     36  C   UNL A   1      36.816  29.492  29.365  1.00  0.00     0.010 A 
ATOM     37  C   UNL A   1      37.891  30.373  29.538  1.00  0.00    -0.014 A 
BRANCH  37  38
ATOM     38  C   UNL A   1      39.134  29.943  30.248  1.00  0.00     0.031 A 
ATOM     39  C   UNL A   1      39.418  30.429  31.652  1.00  0.00     0.074 A 
ATOM     40  C   UNL A   1      40.015  29.112  29.650  1.00  0.00     0.049 A 
ATOM     41  N   UNL A   1      40.394  30.093  32.459  1.00  0.00    -0.248 NA
ATOM     42  C   UNL A   1      38.519  31.451  32.211  1.00  0.00     0.031 C 
ATOM     43  C   UNL A   1      39.940  28.640  28.264  1.00  0.00     0.029 A 
ATOM     44  N   UNL A   1      41.138  28.492  30.146  1.00  0.00    -0.354 N 
ATOM     45  C   UNL A   1      40.228  30.872  33.600  1.00  0.00     0.074 A 
ATOM     46  C   UNL A   1      39.121  31.763  33.347  1.00  0.00     0.031 C 
ATOM     47  C   UNL A   1      40.929  27.756  28.045  1.00  0.00     0.029 A 
ATOM     48  C   UNL A   1      41.714  27.604  29.267  1.00  0.00     0.049 A 
ATOM     49  H   UNL A   1      41.498  28.669  31.045  1.00  0.00     0.167 HD
ATOM     50  C   UNL A   1      40.887  30.816  34.781  1.00  0.00     0.037 A 
ATOM     51  C   UNL A   1      42.732  26.736  29.436  1.00  0.00     0.037 A 
ATOM     52  C   UNL A   1      41.935  29.882  35.077  1.00  0.00     0.049 A 
ATOM     53  C   UNL A   1      43.407  26.632  30.778  1.00  0.00     0.074 A 
ATOM     54  C   UNL A   1      42.602  29.684  36.272  1.00  0.00     0.029 A 
ATOM     55  N   UNL A   1      42.458  28.975  34.169  1.00  0.00    -0.354 N 
ATOM     56  N   UNL A   1      43.166  27.307  31.875  1.00  0.00    -0.248 NA
ATOM     57  C   UNL A   1      44.481  25.635  30.909  1.00  0.00     0.031 C 
ATOM     58  C   UNL A   1      43.539  28.663  36.085  1.00  0.00     0.029 A 
ATOM     59  C   UNL A   1      43.440  28.213  34.777  1.00  0.00     0.049 A 
ATOM     60  H   UNL A   1      42.173  28.886  33.231  1.00  0.00     0.167 HD
ATOM     61  C   UNL A   1      44.039  26.801  32.832  1.00  0.00     0.074 A 
ATOM     62  C   UNL A   1      44.810  25.759  32.188  1.00  0.00     0.031 C 
ATOM     63  C   UNL A   1      44.186  27.167  34.129  1.00  0.00     0.037 A 
BRANCH  50  64
ATOM     64  C   UNL A   1      40.437  31.759  35.862  1.00  0.00     0.058 A 
ATOM     65  C   UNL A   1      41.192  32.899  36.187  1.00  0.00     0.135 A 
ATOM     66  C   UNL A   1      39.255  31.527  36.580  1.00  0.00     0.135 A 
ATOM     67  F   UNL A   1      42.342  33.155  35.543  1.00  0.00    -0.206 F 
ATOM     68  C   UNL A   1      40.813  33.751  37.216  1.00  0.00     0.059 A 
ATOM     69  C   UNL A   1      38.842  32.383  37.597  1.00  0.00     0.059 A 
ATOM     70  F   UNL A   1      38.498  30.452  36.308  1.00  0.00    -0.206 F 
ATOM     71  C   UNL A   1      39.640  33.482  37.921  1.00  0.00     0.060 A 
BRANCH  71  72
ATOM     72  S   UNL A   1      39.172  34.587  39.267  1.00  0.00     0.124 S 
ATOM     73  O   UNL A   1      38.002  33.904  39.809  1.00  0.00    -0.237 OA
ATOM     74  O   UNL A   1      40.360  34.574  40.113  1.00  0.00    -0.237 OA
ATOM     75  O   UNL A   1      38.903  35.853  38.590  1.00  0.00    -0.744 OA
ENDBRANCH  71  72
ENDBRANCH  50  64
BRANCH  51  76
ATOM     76  C   UNL A   1      43.123  25.825  28.328  1.00  0.00     0.058 A 
ATOM     77  C   UNL A   1      44.132  26.193  27.424  1.00  0.00     0.135 A 
ATOM     78  C   UNL A   1      42.509  24.577  28.154  1.00  0.00     0.135 A 
ATOM     79  F   UNL A   1      44.742  27.381  27.548  1.00  0.00    -0.206 F 
ATOM     80  C   UNL A   1      44.510  25.361  26.376  1.00  0.00     0.059 A 
ATOM     81  C   UNL A   1      42.881  23.720  27.121  1.00  0.00     0.059 A 
ATOM     82  F   UNL A   1      41.547  24.177  28.999  1.00  0.00    -0.206 F 
ATOM     83  C   UNL A   1      43.877  24.124  26.232  1.00  0.00     0.060 A 
BRANCH  83  84
ATOM     84  S   UNL A   1      44.407  23.034  24.892  1.00  0.00     0.124 S 
ATOM     85  O   UNL A   1      45.442  23.837  24.251  1.00  0.00    -0.237 OA
ATOM     86  O   UNL A   1      44.870  21.856  25.617  1.00  0.00    -0.237 OA
ATOM     87  O   UNL A   1      43.185  22.843  24.115  1.00  0.00    -0.744 OA
ENDBRANCH  83  84
ENDBRANCH  51  76
BRANCH  63  88
ATOM     88  C   UNL A   1      45.199  26.431  34.955  1.00  0.00     0.058 A 
ATOM     89  C   UNL A   1      46.509  26.911  35.098  1.00  0.00     0.135 A 
ATOM     90  C   UNL A   1      44.827  25.293  35.688  1.00  0.00     0.135 A 
ATOM     91  F   UNL A   1      46.910  27.994  34.414  1.00  0.00    -0.206 F 
ATOM     92  C   UNL A   1      47.420  26.285  35.941  1.00  0.00     0.059 A 
ATOM     93  C   UNL A   1      45.718  24.661  36.550  1.00  0.00     0.059 A 
ATOM     94  F   UNL A   1      43.582  24.802  35.591  1.00  0.00    -0.206 F 
ATOM     95  C   UNL A   1      47.014  25.163  36.668  1.00  0.00     0.060 A 
BRANCH  95  96
ATOM     96  S   UNL A   1      48.184  24.402  37.811  1.00  0.00     0.124 S 
ATOM     97  O   UNL A   1      47.495  23.162  38.156  1.00  0.00    -0.237 OA
ATOM     98  O   UNL A   1      49.380  24.253  36.986  1.00  0.00    -0.237 OA
ATOM     99  O   UNL A   1      48.294  25.381  38.888  1.00  0.00    -0.744 OA
ENDBRANCH  95  96
ENDBRANCH  63  88
ENDBRANCH  37  38
ENDBRANCH  30  32
ENDBRANCH  29  30
ENDBRANCH  28  29
ENDBRANCH   1  28
TORSDOF 18
ENDMDL
MODEL 3
REMARK VINA RESULT:     -11.8      3.389      8.432
REMARK SMILES Nn1c(S[C@@H](C(=O)OCCOC(=O)c2ccc(-c3c4nc(c(-c5c(F)cc(S(=O)(=O)[O-])cc5F)c5ccc([nH]5)c(-c5c(F)cc(S(=O)(=O)[O-])cc5F)c5nc(c(-c6c(F)cc(S(=O)(=O)[O-])cc6F)c6ccc3[nH]6)C=C5)C=C4)cc2)c2ccccc2)nc2ccc(Br)cc2c1=O
REMARK SMILES IDX 9 1 8 2 6 3 7 4 5 5 4 6 3 7 2 8 94 9 86 10 93 11 95 12 87 13
REMARK SMILES IDX 92 14 88 15 90 16 89 17 91 18 1 19 80 22 81 23 85 24 82 25
REMARK SMILES IDX 84 26 83 27 10 28 11 29 12 30 13 31 14 32 15 33 79 34 16 35
REMARK SMILES IDX 78 36 17 37 18 38 19 39 72 40 20 41 77 42 71 43 73 44 21 45
REMARK SMILES IDX 76 46 70 47 69 48 22 50 56 51 35 52 55 53 36 54 39 55 54 56
REMARK SMILES IDX 74 57 37 58 38 59 53 61 75 62 40 63 23 64 24 65 33 66 25 67
REMARK SMILES IDX 26 68 32 69 34 70 27 71 28 72 29 73 30 74 31 75 57 76 58 77
REMARK SMILES IDX 67 78 59 79 60 80 66 81 68 82 61 83 62 84 63 85 64 86 65 87
REMARK SMILES IDX 41 88 42 89 51 90 43 91 44 92 50 93 52 94 45 95 46 96 47 97
REMARK SMILES IDX 48 98 49 99
REMARK H PARENT 1 20 1 21 73 49 39 60
REMARK Flexibility Score: inf
ROOT
ATOM      1  C   UNL A   1      36.237  21.419  24.841  1.00  0.00     0.274 C 
ENDROOT
BRANCH   1   2
ATOM      2  O   UNL A   1      35.533  21.519  26.102  1.00  0.00    -0.461 OA
BRANCH   2   3
ATOM      3  C   UNL A   1      34.243  21.063  26.081  1.00  0.00     0.324 C 
ATOM      4  O   UNL A   1      33.558  21.059  27.101  1.00  0.00    -0.251 OA
BRANCH   3   5
ATOM      5  C   UNL A   1      33.817  20.386  24.757  1.00  0.00     0.194 C 
BRANCH   5   6
ATOM      6  S   UNL A   1      32.609  21.334  23.777  1.00  0.00    -0.066 SA
BRANCH   6   7
ATOM      7  C   UNL A   1      32.248  22.909  24.462  1.00  0.00     0.191 A 
ATOM      8  N   UNL A   1      31.325  23.145  25.474  1.00  0.00    -0.202 N 
ATOM      9  C   UNL A   1      31.058  24.426  25.973  1.00  0.00     0.280 A 
ATOM     10  N   UNL A   1      32.882  23.883  23.880  1.00  0.00    -0.222 NA
ATOM     11  C   UNL A   1      31.741  25.531  25.299  1.00  0.00     0.069 A 
ATOM     12  O   UNL A   1      30.270  24.646  26.893  1.00  0.00    -0.267 OA
ATOM     13  C   UNL A   1      32.608  25.205  24.259  1.00  0.00     0.079 A 
ATOM     14  C   UNL A   1      31.469  26.859  25.650  1.00  0.00     0.031 A 
ATOM     15  C   UNL A   1      33.191  26.248  23.535  1.00  0.00     0.030 A 
ATOM     16  C   UNL A   1      32.060  27.881  24.917  1.00  0.00     0.018 A 
ATOM     17  C   UNL A   1      32.914  27.582  23.856  1.00  0.00     0.018 A 
ATOM     18  Br  UNL A   1      31.688  29.683  25.343  1.00  0.00    -0.051 Br
BRANCH   8  19
ATOM     19  N   UNL A   1      30.569  22.128  26.054  1.00  0.00    -0.334 N 
ATOM     20  H   UNL A   1      30.632  21.209  25.707  1.00  0.00     0.178 HD
ATOM     21  H   UNL A   1      29.971  22.328  26.810  1.00  0.00     0.178 HD
ENDBRANCH   8  19
ENDBRANCH   6   7
ENDBRANCH   5   6
BRANCH   5  22
ATOM     22  C   UNL A   1      33.688  18.842  24.769  1.00  0.00    -0.023 A 
ATOM     23  C   UNL A   1      34.711  18.019  24.252  1.00  0.00     0.005 A 
ATOM     24  C   UNL A   1      32.553  18.181  25.279  1.00  0.00     0.005 A 
ATOM     25  C   UNL A   1      34.666  16.625  24.364  1.00  0.00     0.000 A 
ATOM     26  C   UNL A   1      32.506  16.786  25.392  1.00  0.00     0.000 A 
ATOM     27  C   UNL A   1      33.573  16.010  24.956  1.00  0.00     0.000 A 
ENDBRANCH   5  22
ENDBRANCH   3   5
ENDBRANCH   2   3
ENDBRANCH   1   2
BRANCH   1  28
ATOM     28  C   UNL A   1      37.755  21.429  25.018  1.00  0.00     0.275 C 
BRANCH  28  29
ATOM     29  O   UNL A   1      38.123  22.255  26.134  1.00  0.00    -0.458 OA
BRANCH  29  30
ATOM     30  C   UNL A   1      39.419  22.197  26.507  1.00  0.00     0.338 C 
ATOM     31  O   UNL A   1      40.180  21.250  26.337  1.00  0.00    -0.246 OA
BRANCH  30  32
ATOM     32  C   UNL A   1      39.864  23.483  27.094  1.00  0.00     0.060 A 
ATOM     33  C   UNL A   1      40.875  23.472  28.056  1.00  0.00     0.016 A 
ATOM     34  C   UNL A   1      39.444  24.704  26.556  1.00  0.00     0.016 A 
ATOM     35  C   UNL A   1      41.451  24.674  28.479  1.00  0.00     0.010 A 
ATOM     36  C   UNL A   1      40.134  25.877  26.864  1.00  0.00     0.010 A 
ATOM     37  C   UNL A   1      41.114  25.893  27.865  1.00  0.00    -0.014 A 
BRANCH  37  38
ATOM     38  C   UNL A   1      41.744  27.174  28.306  1.00  0.00     0.031 A 
ATOM     39  C   UNL A   1      43.186  27.474  27.962  1.00  0.00     0.074 A 
ATOM     40  C   UNL A   1      41.035  28.081  29.012  1.00  0.00     0.049 A 
ATOM     41  N   UNL A   1      43.876  28.567  28.179  1.00  0.00    -0.248 NA
ATOM     42  C   UNL A   1      43.970  26.401  27.330  1.00  0.00     0.031 C 
ATOM     43  C   UNL A   1      39.670  27.897  29.515  1.00  0.00     0.029 A 
ATOM     44  N   UNL A   1      41.359  29.358  29.407  1.00  0.00    -0.354 N 
ATOM     45  C   UNL A   1      45.164  28.300  27.726  1.00  0.00     0.074 A 
ATOM     46  C   UNL A   1      45.188  26.918  27.312  1.00  0.00     0.031 C 
ATOM     47  C   UNL A   1      39.253  29.040  30.087  1.00  0.00     0.029 A 
ATOM     48  C   UNL A   1      40.318  30.034  30.003  1.00  0.00     0.049 A 
ATOM     49  H   UNL A   1      42.252  29.752  29.278  1.00  0.00     0.167 HD
ATOM     50  C   UNL A   1      46.219  29.137  27.599  1.00  0.00     0.037 A 
ATOM     51  C   UNL A   1      40.219  31.318  30.401  1.00  0.00     0.037 A 
ATOM     52  C   UNL A   1      46.188  30.533  27.932  1.00  0.00     0.049 A 
ATOM     53  C   UNL A   1      41.376  32.257  30.185  1.00  0.00     0.074 A 
ATOM     54  C   UNL A   1      47.176  31.483  27.753  1.00  0.00     0.029 A 
ATOM     55  N   UNL A   1      45.101  31.181  28.494  1.00  0.00    -0.354 N 
ATOM     56  N   UNL A   1      42.551  32.008  29.660  1.00  0.00    -0.248 NA
ATOM     57  C   UNL A   1      41.187  33.655  30.601  1.00  0.00     0.031 C 
ATOM     58  C   UNL A   1      46.691  32.709  28.221  1.00  0.00     0.029 A 
ATOM     59  C   UNL A   1      45.393  32.522  28.671  1.00  0.00     0.049 A 
ATOM     60  H   UNL A   1      44.248  30.752  28.733  1.00  0.00     0.167 HD
ATOM     61  C   UNL A   1      43.231  33.221  29.660  1.00  0.00     0.074 A 
ATOM     62  C   UNL A   1      42.336  34.205  30.230  1.00  0.00     0.031 C 
ATOM     63  C   UNL A   1      44.485  33.493  29.223  1.00  0.00     0.037 A 
BRANCH  50  64
ATOM     64  C   UNL A   1      47.481  28.564  27.015  1.00  0.00     0.058 A 
ATOM     65  C   UNL A   1      47.580  28.282  25.642  1.00  0.00     0.135 A 
ATOM     66  C   UNL A   1      48.593  28.290  27.824  1.00  0.00     0.135 A 
ATOM     67  F   UNL A   1      46.535  28.508  24.829  1.00  0.00    -0.206 F 
ATOM     68  C   UNL A   1      48.721  27.707  25.099  1.00  0.00     0.059 A 
ATOM     69  C   UNL A   1      49.758  27.739  27.296  1.00  0.00     0.059 A 
ATOM     70  F   UNL A   1      48.551  28.541  29.142  1.00  0.00    -0.206 F 
ATOM     71  C   UNL A   1      49.804  27.433  25.935  1.00  0.00     0.060 A 
BRANCH  71  72
ATOM     72  S   UNL A   1      51.272  26.668  25.218  1.00  0.00     0.124 S 
ATOM     73  O   UNL A   1      50.982  26.765  23.792  1.00  0.00    -0.237 OA
ATOM     74  O   UNL A   1      52.345  27.529  25.705  1.00  0.00    -0.237 OA
ATOM     75  O   UNL A   1      51.257  25.317  25.773  1.00  0.00    -0.744 OA
ENDBRANCH  71  72
ENDBRANCH  50  64
BRANCH  51  76
ATOM     76  C   UNL A   1      38.939  31.824  30.965  1.00  0.00     0.058 A 
ATOM     77  C   UNL A   1      38.703  31.781  32.348  1.00  0.00     0.135 A 
ATOM     78  C   UNL A   1      37.938  32.362  30.145  1.00  0.00     0.135 A 
ATOM     79  F   UNL A   1      39.629  31.267  33.170  1.00  0.00    -0.206 F 
ATOM     80  C   UNL A   1      37.512  32.241  32.898  1.00  0.00     0.059 A 
ATOM     81  C   UNL A   1      36.743  32.844  30.674  1.00  0.00     0.059 A 
ATOM     82  F   UNL A   1      38.123  32.435  28.818  1.00  0.00    -0.206 F 
ATOM     83  C   UNL A   1      36.536  32.771  32.052  1.00  0.00     0.060 A 
BRANCH  83  84
ATOM     84  S   UNL A   1      35.010  33.405  32.783  1.00  0.00     0.124 S 
ATOM     85  O   UNL A   1      33.998  32.663  32.040  1.00  0.00    -0.237 OA
ATOM     86  O   UNL A   1      35.166  33.039  34.188  1.00  0.00    -0.237 OA
ATOM     87  O   UNL A   1      35.075  34.837  32.505  1.00  0.00    -0.744 OA
ENDBRANCH  83  84
ENDBRANCH  51  76
BRANCH  63  88
ATOM     88  C   UNL A   1      44.969  34.910  29.319  1.00  0.00     0.058 A 
ATOM     89  C   UNL A   1      44.686  35.846  28.314  1.00  0.00     0.135 A 
ATOM     90  C   UNL A   1      45.635  35.358  30.471  1.00  0.00     0.135 A 
ATOM     91  F   UNL A   1      44.054  35.463  27.193  1.00  0.00    -0.206 F 
ATOM     92  C   UNL A   1      45.048  37.182  28.446  1.00  0.00     0.059 A 
ATOM     93  C   UNL A   1      45.991  36.693  30.632  1.00  0.00     0.059 A 
ATOM     94  F   UNL A   1      45.919  34.501  31.465  1.00  0.00    -0.206 F 
ATOM     95  C   UNL A   1      45.696  37.598  29.612  1.00  0.00     0.060 A 
BRANCH  95  96
ATOM     96  S   UNL A   1      46.098  39.347  29.802  1.00  0.00     0.124 S 
ATOM     97  O   UNL A   1      44.988  39.816  30.625  1.00  0.00    -0.237 OA
ATOM     98  O   UNL A   1      47.400  39.301  30.460  1.00  0.00    -0.237 OA
ATOM     99  O   UNL A   1      46.116  39.843  28.429  1.00  0.00    -0.744 OA
ENDBRANCH  95  96
ENDBRANCH  63  88
ENDBRANCH  37  38
ENDBRANCH  30  32
ENDBRANCH  29  30
ENDBRANCH  28  29
ENDBRANCH   1  28
TORSDOF 18
ENDMDL
