MODEL 1
REMARK VINA RESULT:     -12.5      0.000      0.000
REMARK SMILES C[C@@H](C(=O)OCCOC(=O)c1ccc(-c2c3nc(c(-c4c(F)cc(S(=O)(=O)[O-])cc4F)c4ccc([nH]4)c(-c4c(F)cc(S(=O)(=O)[O-])cc4F)c4nc(c(-c5c(F)cc(S(=O)(=O)[O-])cc5F)c5ccc2[nH]5)C=C4)C=C3)cc1)c1ccc(-c2cccc(OC(=O)Nc3ccccc3)c2)c(F)c1
REMARK SMILES IDX 6 1 5 2 3 3 4 4 2 5 1 6 77 7 78 8 99 9 79 10 97 11 80 12
REMARK SMILES IDX 98 13 81 14 82 15 96 16 83 17 85 18 84 19 86 20 87 21 88 22
REMARK SMILES IDX 89 23 90 25 91 26 95 27 92 28 94 29 93 30 7 31 8 32 9 33
REMARK SMILES IDX 10 34 11 35 12 36 76 37 13 38 75 39 14 40 15 41 16 42 69 43
REMARK SMILES IDX 17 44 74 45 68 46 70 47 18 48 73 49 67 50 66 51 19 53 53 54
REMARK SMILES IDX 32 55 52 56 33 57 36 58 51 59 71 60 34 61 35 62 50 64 72 65
REMARK SMILES IDX 37 66 20 67 21 68 30 69 22 70 23 71 29 72 31 73 24 74 25 75
REMARK SMILES IDX 26 76 27 77 28 78 54 79 55 80 64 81 56 82 57 83 63 84 65 85
REMARK SMILES IDX 58 86 59 87 60 88 61 89 62 90 38 91 39 92 48 93 40 94 41 95
REMARK SMILES IDX 47 96 49 97 42 98 43 99 44 100 45 101 46 102
REMARK H PARENT 89 24 70 52 36 63
REMARK Flexibility Score: inf
ROOT
ATOM      1  C   UNL A   1      43.992  22.881  25.306  1.00  0.00     0.274 C 
ENDROOT
BRANCH   1   2
ATOM      2  O   UNL A   1      42.667  22.343  25.075  1.00  0.00    -0.462 OA
BRANCH   2   3
ATOM      3  C   UNL A   1      42.081  21.646  26.097  1.00  0.00     0.313 C 
ATOM      4  O   UNL A   1      42.353  20.477  26.342  1.00  0.00    -0.252 OA
BRANCH   3   5
ATOM      5  C   UNL A   1      40.953  22.450  26.809  1.00  0.00     0.126 C 
ATOM      6  C   UNL A   1      40.985  22.212  28.331  1.00  0.00     0.025 C 
BRANCH   5   7
ATOM      7  C   UNL A   1      39.547  22.290  26.180  1.00  0.00    -0.031 A 
ATOM      8  C   UNL A   1      38.613  23.343  26.092  1.00  0.00     0.005 A 
ATOM      9  C   UNL A   1      39.142  21.069  25.616  1.00  0.00     0.044 A 
ATOM     10  C   UNL A   1      37.307  23.151  25.579  1.00  0.00     0.012 A 
ATOM     11  C   UNL A   1      37.840  20.882  25.112  1.00  0.00     0.131 A 
ATOM     12  C   UNL A   1      36.875  21.899  25.123  1.00  0.00     0.018 A 
ATOM     13  F   UNL A   1      37.530  19.666  24.637  1.00  0.00    -0.206 F 
BRANCH  12  14
ATOM     14  C   UNL A   1      35.461  21.635  24.752  1.00  0.00    -0.012 A 
ATOM     15  C   UNL A   1      34.703  20.650  25.401  1.00  0.00     0.009 A 
ATOM     16  C   UNL A   1      34.791  22.456  23.815  1.00  0.00     0.056 A 
ATOM     17  C   UNL A   1      33.332  20.491  25.128  1.00  0.00     0.004 A 
ATOM     18  C   UNL A   1      33.399  22.351  23.633  1.00  0.00     0.133 A 
ATOM     19  C   UNL A   1      32.663  21.349  24.248  1.00  0.00     0.047 A 
BRANCH  18  20
ATOM     20  O   UNL A   1      32.559  23.704  23.067  1.00  0.00    -0.410 OA
BRANCH  20  21
ATOM     21  C   UNL A   1      31.955  25.209  22.688  1.00  0.00     0.417 C 
ATOM     22  O   UNL A   1      32.422  25.874  21.762  1.00  0.00    -0.224 OA
ATOM     23  N   UNL A   1      30.863  25.629  23.387  1.00  0.00    -0.291 N 
ATOM     24  H   UNL A   1      30.210  24.943  23.655  1.00  0.00     0.173 HD
BRANCH  23  25
ATOM     25  C   UNL A   1      30.591  26.955  23.756  1.00  0.00     0.044 A 
ATOM     26  C   UNL A   1      31.360  27.513  24.774  1.00  0.00     0.026 A 
ATOM     27  C   UNL A   1      29.733  27.779  23.029  1.00  0.00     0.026 A 
ATOM     28  C   UNL A   1      31.396  28.896  24.962  1.00  0.00     0.002 A 
ATOM     29  C   UNL A   1      29.747  29.159  23.232  1.00  0.00     0.002 A 
ATOM     30  C   UNL A   1      30.608  29.722  24.168  1.00  0.00     0.000 A 
ENDBRANCH  23  25
ENDBRANCH  20  21
ENDBRANCH  18  20
ENDBRANCH  12  14
ENDBRANCH   5   7
ENDBRANCH   3   5
ENDBRANCH   2   3
ENDBRANCH   1   2
BRANCH   1  31
ATOM     31  C   UNL A   1      44.015  23.860  26.483  1.00  0.00     0.275 C 
BRANCH  31  32
ATOM     32  O   UNL A   1      44.095  25.209  25.999  1.00  0.00    -0.458 OA
BRANCH  32  33
ATOM     33  C   UNL A   1      42.905  25.787  25.727  1.00  0.00     0.338 C 
ATOM     34  O   UNL A   1      42.219  25.642  24.723  1.00  0.00    -0.246 OA
BRANCH  33  35
ATOM     35  C   UNL A   1      42.411  26.406  26.960  1.00  0.00     0.060 A 
ATOM     36  C   UNL A   1      43.048  27.581  27.344  1.00  0.00     0.016 A 
ATOM     37  C   UNL A   1      41.349  25.891  27.710  1.00  0.00     0.016 A 
ATOM     38  C   UNL A   1      42.599  28.268  28.457  1.00  0.00     0.010 A 
ATOM     39  C   UNL A   1      40.913  26.579  28.851  1.00  0.00     0.010 A 
ATOM     40  C   UNL A   1      41.531  27.780  29.218  1.00  0.00    -0.014 A 
BRANCH  40  41
ATOM     41  C   UNL A   1      41.164  28.552  30.429  1.00  0.00     0.031 A 
ATOM     42  C   UNL A   1      42.215  28.387  31.633  1.00  0.00     0.074 A 
ATOM     43  C   UNL A   1      40.125  29.446  30.269  1.00  0.00     0.049 A 
ATOM     44  N   UNL A   1      42.399  29.118  32.702  1.00  0.00    -0.248 NA
ATOM     45  C   UNL A   1      43.251  27.333  31.596  1.00  0.00     0.031 C 
ATOM     46  C   UNL A   1      39.232  29.699  29.117  1.00  0.00     0.029 A 
ATOM     47  N   UNL A   1      39.666  30.429  31.094  1.00  0.00    -0.354 N 
ATOM     48  C   UNL A   1      43.484  28.715  33.450  1.00  0.00     0.074 A 
ATOM     49  C   UNL A   1      43.989  27.580  32.691  1.00  0.00     0.031 C 
ATOM     50  C   UNL A   1      38.383  30.735  29.392  1.00  0.00     0.029 A 
ATOM     51  C   UNL A   1      38.627  31.245  30.744  1.00  0.00     0.049 A 
ATOM     52  H   UNL A   1      40.095  30.555  31.970  1.00  0.00     0.167 HD
ATOM     53  C   UNL A   1      43.887  29.205  34.677  1.00  0.00     0.037 A 
ATOM     54  C   UNL A   1      38.037  32.233  31.498  1.00  0.00     0.037 A 
ATOM     55  C   UNL A   1      43.210  30.264  35.502  1.00  0.00     0.049 A 
ATOM     56  C   UNL A   1      38.422  32.613  33.005  1.00  0.00     0.074 A 
ATOM     57  C   UNL A   1      43.335  30.548  36.858  1.00  0.00     0.029 A 
ATOM     58  N   UNL A   1      42.264  31.222  35.095  1.00  0.00    -0.354 N 
ATOM     59  N   UNL A   1      39.537  32.434  33.678  1.00  0.00    -0.248 NA
ATOM     60  C   UNL A   1      37.438  33.300  33.860  1.00  0.00     0.031 C 
ATOM     61  C   UNL A   1      42.282  31.418  37.253  1.00  0.00     0.029 A 
ATOM     62  C   UNL A   1      41.524  31.785  36.143  1.00  0.00     0.049 A 
ATOM     63  H   UNL A   1      42.133  31.474  34.152  1.00  0.00     0.167 HD
ATOM     64  C   UNL A   1      39.403  32.807  35.005  1.00  0.00     0.074 A 
ATOM     65  C   UNL A   1      38.095  33.454  35.017  1.00  0.00     0.031 C 
ATOM     66  C   UNL A   1      40.237  32.571  36.082  1.00  0.00     0.037 A 
BRANCH  53  67
ATOM     67  C   UNL A   1      44.985  28.406  35.355  1.00  0.00     0.058 A 
ATOM     68  C   UNL A   1      46.333  28.784  35.327  1.00  0.00     0.135 A 
ATOM     69  C   UNL A   1      44.676  27.223  36.056  1.00  0.00     0.135 A 
ATOM     70  F   UNL A   1      46.707  29.896  34.674  1.00  0.00    -0.206 F 
ATOM     71  C   UNL A   1      47.324  28.013  35.942  1.00  0.00     0.059 A 
ATOM     72  C   UNL A   1      45.640  26.442  36.683  1.00  0.00     0.059 A 
ATOM     73  F   UNL A   1      43.412  26.806  36.158  1.00  0.00    -0.206 F 
ATOM     74  C   UNL A   1      46.967  26.839  36.612  1.00  0.00     0.060 A 
BRANCH  74  75
ATOM     75  S   UNL A   1      48.255  25.818  37.359  1.00  0.00     0.124 S 
ATOM     76  O   UNL A   1      49.255  26.820  37.716  1.00  0.00    -0.237 OA
ATOM     77  O   UNL A   1      47.545  25.202  38.475  1.00  0.00    -0.237 OA
ATOM     78  O   UNL A   1      48.642  24.910  36.284  1.00  0.00    -0.744 OA
ENDBRANCH  74  75
ENDBRANCH  53  67
BRANCH  54  79
ATOM     79  C   UNL A   1      36.883  32.993  30.932  1.00  0.00     0.058 A 
ATOM     80  C   UNL A   1      35.567  32.620  31.255  1.00  0.00     0.135 A 
ATOM     81  C   UNL A   1      37.050  34.015  29.985  1.00  0.00     0.135 A 
ATOM     82  F   UNL A   1      35.346  31.623  32.126  1.00  0.00    -0.206 F 
ATOM     83  C   UNL A   1      34.464  33.224  30.659  1.00  0.00     0.059 A 
ATOM     84  C   UNL A   1      35.961  34.652  29.393  1.00  0.00     0.059 A 
ATOM     85  F   UNL A   1      38.278  34.395  29.604  1.00  0.00    -0.206 F 
ATOM     86  C   UNL A   1      34.671  34.243  29.729  1.00  0.00     0.060 A 
BRANCH  86  87
ATOM     87  S   UNL A   1      33.233  35.051  28.992  1.00  0.00     0.124 S 
ATOM     88  O   UNL A   1      32.754  34.027  28.071  1.00  0.00    -0.237 OA
ATOM     89  O   UNL A   1      32.390  35.307  30.155  1.00  0.00    -0.237 OA
ATOM     90  O   UNL A   1      33.802  36.244  28.368  1.00  0.00    -0.744 OA
ENDBRANCH  86  87
ENDBRANCH  54  79
BRANCH  66  91
ATOM     91  C   UNL A   1      39.749  33.129  37.420  1.00  0.00     0.058 A 
ATOM     92  C   UNL A   1      40.265  34.304  38.001  1.00  0.00     0.135 A 
ATOM     93  C   UNL A   1      38.695  32.502  38.108  1.00  0.00     0.135 A 
ATOM     94  F   UNL A   1      41.299  34.946  37.438  1.00  0.00    -0.206 F 
ATOM     95  C   UNL A   1      39.776  34.821  39.201  1.00  0.00     0.059 A 
ATOM     96  C   UNL A   1      38.170  33.015  39.297  1.00  0.00     0.059 A 
ATOM     97  F   UNL A   1      38.146  31.378  37.620  1.00  0.00    -0.206 F 
ATOM     98  C   UNL A   1      38.725  34.171  39.843  1.00  0.00     0.060 A 
BRANCH  98  99
ATOM     99  S   UNL A   1      38.092  34.859  41.389  1.00  0.00     0.124 S 
ATOM    100  O   UNL A   1      36.688  34.466  41.338  1.00  0.00    -0.237 OA
ATOM    101  O   UNL A   1      38.903  34.176  42.391  1.00  0.00    -0.237 OA
ATOM    102  O   UNL A   1      38.346  36.290  41.255  1.00  0.00    -0.744 OA
ENDBRANCH  98  99
ENDBRANCH  66  91
ENDBRANCH  40  41
ENDBRANCH  33  35
ENDBRANCH  32  33
ENDBRANCH  31  32
ENDBRANCH   1  31
TORSDOF 19
ENDMDL
MODEL 2
REMARK VINA RESULT:     -12.5      5.775     12.458
REMARK SMILES C[C@@H](C(=O)OCCOC(=O)c1ccc(-c2c3nc(c(-c4c(F)cc(S(=O)(=O)[O-])cc4F)c4ccc([nH]4)c(-c4c(F)cc(S(=O)(=O)[O-])cc4F)c4nc(c(-c5c(F)cc(S(=O)(=O)[O-])cc5F)c5ccc2[nH]5)C=C4)C=C3)cc1)c1ccc(-c2cccc(OC(=O)Nc3ccccc3)c2)c(F)c1
REMARK SMILES IDX 6 1 5 2 3 3 4 4 2 5 1 6 77 7 78 8 99 9 79 10 97 11 80 12
REMARK SMILES IDX 98 13 81 14 82 15 96 16 83 17 85 18 84 19 86 20 87 21 88 22
REMARK SMILES IDX 89 23 90 25 91 26 95 27 92 28 94 29 93 30 7 31 8 32 9 33
REMARK SMILES IDX 10 34 11 35 12 36 76 37 13 38 75 39 14 40 15 41 16 42 69 43
REMARK SMILES IDX 17 44 74 45 68 46 70 47 18 48 73 49 67 50 66 51 19 53 53 54
REMARK SMILES IDX 32 55 52 56 33 57 36 58 51 59 71 60 34 61 35 62 50 64 72 65
REMARK SMILES IDX 37 66 20 67 21 68 30 69 22 70 23 71 29 72 31 73 24 74 25 75
REMARK SMILES IDX 26 76 27 77 28 78 54 79 55 80 64 81 56 82 57 83 63 84 65 85
REMARK SMILES IDX 58 86 59 87 60 88 61 89 62 90 38 91 39 92 48 93 40 94 41 95
REMARK SMILES IDX 47 96 49 97 42 98 43 99 44 100 45 101 46 102
REMARK H PARENT 89 24 70 52 36 63
REMARK Flexibility Score: inf
ROOT
ATOM      1  C   UNL A   1      35.771  33.734  32.918  1.00  0.00     0.274 C 
ENDROOT
BRANCH   1   2
ATOM      2  O   UNL A   1      36.041  33.713  31.496  1.00  0.00    -0.462 OA
BRANCH   2   3
ATOM      3  C   UNL A   1      35.171  33.020  30.698  1.00  0.00     0.313 C 
ATOM      4  O   UNL A   1      34.053  32.685  31.073  1.00  0.00    -0.252 OA
BRANCH   3   5
ATOM      5  C   UNL A   1      35.801  32.597  29.339  1.00  0.00     0.126 C 
ATOM      6  C   UNL A   1      36.444  33.804  28.630  1.00  0.00     0.025 C 
BRANCH   5   7
ATOM      7  C   UNL A   1      34.873  31.757  28.427  1.00  0.00    -0.031 A 
ATOM      8  C   UNL A   1      33.640  32.229  27.930  1.00  0.00     0.005 A 
ATOM      9  C   UNL A   1      35.245  30.470  28.006  1.00  0.00     0.044 A 
ATOM     10  C   UNL A   1      32.776  31.414  27.159  1.00  0.00     0.012 A 
ATOM     11  C   UNL A   1      34.380  29.661  27.243  1.00  0.00     0.131 A 
ATOM     12  C   UNL A   1      33.108  30.090  26.840  1.00  0.00     0.018 A 
ATOM     13  F   UNL A   1      34.804  28.427  26.929  1.00  0.00    -0.206 F 
BRANCH  12  14
ATOM     14  C   UNL A   1      32.144  29.166  26.190  1.00  0.00    -0.012 A 
ATOM     15  C   UNL A   1      31.590  29.447  24.933  1.00  0.00     0.009 A 
ATOM     16  C   UNL A   1      31.847  27.907  26.762  1.00  0.00     0.056 A 
ATOM     17  C   UNL A   1      30.775  28.510  24.272  1.00  0.00     0.004 A 
ATOM     18  C   UNL A   1      31.117  26.943  26.041  1.00  0.00     0.133 A 
ATOM     19  C   UNL A   1      30.539  27.242  24.815  1.00  0.00     0.047 A 
BRANCH  18  20
ATOM     20  O   UNL A   1      31.345  25.313  26.422  1.00  0.00    -0.410 OA
BRANCH  20  21
ATOM     21  C   UNL A   1      31.711  23.690  26.496  1.00  0.00     0.417 C 
ATOM     22  O   UNL A   1      31.879  23.118  27.574  1.00  0.00    -0.224 OA
ATOM     23  N   UNL A   1      31.723  23.006  25.317  1.00  0.00    -0.291 N 
ATOM     24  H   UNL A   1      31.076  23.285  24.629  1.00  0.00     0.173 HD
BRANCH  23  25
ATOM     25  C   UNL A   1      32.579  21.940  25.000  1.00  0.00     0.044 A 
ATOM     26  C   UNL A   1      33.934  22.223  24.848  1.00  0.00     0.026 A 
ATOM     27  C   UNL A   1      32.165  20.609  25.024  1.00  0.00     0.026 A 
ATOM     28  C   UNL A   1      34.882  21.199  24.879  1.00  0.00     0.002 A 
ATOM     29  C   UNL A   1      33.108  19.581  25.028  1.00  0.00     0.002 A 
ATOM     30  C   UNL A   1      34.467  19.877  24.999  1.00  0.00     0.000 A 
ENDBRANCH  23  25
ENDBRANCH  20  21
ENDBRANCH  18  20
ENDBRANCH  12  14
ENDBRANCH   5   7
ENDBRANCH   3   5
ENDBRANCH   2   3
ENDBRANCH   1   2
BRANCH   1  31
ATOM     31  C   UNL A   1      36.396  32.536  33.638  1.00  0.00     0.275 C 
BRANCH  31  32
ATOM     32  O   UNL A   1      37.481  32.008  32.861  1.00  0.00    -0.458 OA
BRANCH  32  33
ATOM     33  C   UNL A   1      37.288  30.756  32.392  1.00  0.00     0.338 C 
ATOM     34  O   UNL A   1      36.275  30.074  32.487  1.00  0.00    -0.246 OA
BRANCH  33  35
ATOM     35  C   UNL A   1      38.396  30.435  31.488  1.00  0.00     0.060 A 
ATOM     36  C   UNL A   1      39.522  29.879  32.085  1.00  0.00     0.016 A 
ATOM     37  C   UNL A   1      38.345  30.635  30.105  1.00  0.00     0.016 A 
ATOM     38  C   UNL A   1      40.586  29.482  31.297  1.00  0.00     0.010 A 
ATOM     39  C   UNL A   1      39.437  30.253  29.313  1.00  0.00     0.010 A 
ATOM     40  C   UNL A   1      40.557  29.661  29.910  1.00  0.00    -0.014 A 
BRANCH  40  41
ATOM     41  C   UNL A   1      41.770  29.263  29.157  1.00  0.00     0.031 A 
ATOM     42  C   UNL A   1      42.936  30.370  29.197  1.00  0.00     0.074 A 
ATOM     43  C   UNL A   1      41.802  27.950  28.734  1.00  0.00     0.049 A 
ATOM     44  N   UNL A   1      44.211  30.264  28.931  1.00  0.00    -0.248 NA
ATOM     45  C   UNL A   1      42.665  31.739  29.684  1.00  0.00     0.031 C 
ATOM     46  C   UNL A   1      40.781  26.883  28.810  1.00  0.00     0.029 A 
ATOM     47  N   UNL A   1      42.817  27.214  28.201  1.00  0.00    -0.354 N 
ATOM     48  C   UNL A   1      44.914  31.421  29.192  1.00  0.00     0.074 A 
ATOM     49  C   UNL A   1      43.876  32.320  29.676  1.00  0.00     0.031 C 
ATOM     50  C   UNL A   1      41.282  25.709  28.319  1.00  0.00     0.029 A 
ATOM     51  C   UNL A   1      42.664  25.898  27.867  1.00  0.00     0.049 A 
ATOM     52  H   UNL A   1      43.689  27.644  28.052  1.00  0.00     0.167 HD
ATOM     53  C   UNL A   1      46.246  31.673  28.927  1.00  0.00     0.037 A 
ATOM     54  C   UNL A   1      43.584  25.062  27.278  1.00  0.00     0.037 A 
ATOM     55  C   UNL A   1      47.229  30.758  28.251  1.00  0.00     0.049 A 
ATOM     56  C   UNL A   1      45.055  25.480  26.803  1.00  0.00     0.074 A 
ATOM     57  C   UNL A   1      48.443  31.055  27.640  1.00  0.00     0.029 A 
ATOM     58  N   UNL A   1      47.146  29.366  28.063  1.00  0.00    -0.354 N 
ATOM     59  N   UNL A   1      45.839  26.458  27.196  1.00  0.00    -0.248 NA
ATOM     60  C   UNL A   1      45.741  24.688  25.766  1.00  0.00     0.031 C 
ATOM     61  C   UNL A   1      48.868  29.933  26.875  1.00  0.00     0.029 A 
ATOM     62  C   UNL A   1      47.990  28.867  27.062  1.00  0.00     0.049 A 
ATOM     63  H   UNL A   1      46.545  28.792  28.590  1.00  0.00     0.167 HD
ATOM     64  C   UNL A   1      46.992  26.533  26.433  1.00  0.00     0.074 A 
ATOM     65  C   UNL A   1      46.917  25.315  25.634  1.00  0.00     0.031 C 
ATOM     66  C   UNL A   1      47.948  27.531  26.362  1.00  0.00     0.037 A 
BRANCH  53  67
ATOM     67  C   UNL A   1      46.673  33.116  29.119  1.00  0.00     0.058 A 
ATOM     68  C   UNL A   1      47.282  33.582  30.292  1.00  0.00     0.135 A 
ATOM     69  C   UNL A   1      46.469  34.063  28.096  1.00  0.00     0.135 A 
ATOM     70  F   UNL A   1      47.506  32.742  31.314  1.00  0.00    -0.206 F 
ATOM     71  C   UNL A   1      47.643  34.924  30.447  1.00  0.00     0.059 A 
ATOM     72  C   UNL A   1      46.825  35.401  28.221  1.00  0.00     0.059 A 
ATOM     73  F   UNL A   1      45.923  33.697  26.934  1.00  0.00    -0.206 F 
ATOM     74  C   UNL A   1      47.403  35.827  29.407  1.00  0.00     0.060 A 
BRANCH  74  75
ATOM     75  S   UNL A   1      47.822  37.569  29.631  1.00  0.00     0.124 S 
ATOM     76  O   UNL A   1      46.624  38.077  30.292  1.00  0.00    -0.237 OA
ATOM     77  O   UNL A   1      49.020  37.490  30.459  1.00  0.00    -0.237 OA
ATOM     78  O   UNL A   1      48.031  38.050  28.269  1.00  0.00    -0.744 OA
ENDBRANCH  74  75
ENDBRANCH  53  67
BRANCH  54  79
ATOM     79  C   UNL A   1      43.197  23.654  26.965  1.00  0.00     0.058 A 
ATOM     80  C   UNL A   1      43.170  22.688  27.985  1.00  0.00     0.135 A 
ATOM     81  C   UNL A   1      42.964  23.214  25.653  1.00  0.00     0.135 A 
ATOM     82  F   UNL A   1      43.424  23.044  29.254  1.00  0.00    -0.206 F 
ATOM     83  C   UNL A   1      42.930  21.344  27.718  1.00  0.00     0.059 A 
ATOM     84  C   UNL A   1      42.697  21.877  25.364  1.00  0.00     0.059 A 
ATOM     85  F   UNL A   1      43.012  24.078  24.627  1.00  0.00    -0.206 F 
ATOM     86  C   UNL A   1      42.692  20.946  26.402  1.00  0.00     0.060 A 
BRANCH  86  87
ATOM     87  S   UNL A   1      42.340  19.206  26.070  1.00  0.00     0.124 S 
ATOM     88  O   UNL A   1      40.897  19.227  25.866  1.00  0.00    -0.237 OA
ATOM     89  O   UNL A   1      43.147  18.947  24.881  1.00  0.00    -0.237 OA
ATOM     90  O   UNL A   1      42.797  18.534  27.284  1.00  0.00    -0.744 OA
ENDBRANCH  86  87
ENDBRANCH  54  79
BRANCH  66  91
ATOM     91  C   UNL A   1      49.091  27.271  25.380  1.00  0.00     0.058 A 
ATOM     92  C   UNL A   1      48.976  27.468  23.990  1.00  0.00     0.135 A 
ATOM     93  C   UNL A   1      50.354  26.873  25.853  1.00  0.00     0.135 A 
ATOM     94  F   UNL A   1      47.798  27.808  23.446  1.00  0.00    -0.206 F 
ATOM     95  C   UNL A   1      50.044  27.268  23.116  1.00  0.00     0.059 A 
ATOM     96  C   UNL A   1      51.447  26.692  25.000  1.00  0.00     0.059 A 
ATOM     97  F   UNL A   1      50.549  26.667  27.164  1.00  0.00    -0.206 F 
ATOM     98  C   UNL A   1      51.279  26.881  23.630  1.00  0.00     0.060 A 
BRANCH  98  99
ATOM     99  S   UNL A   1      52.657  26.639  22.486  1.00  0.00     0.124 S 
ATOM    100  O   UNL A   1      53.281  27.959  22.488  1.00  0.00    -0.237 OA
ATOM    101  O   UNL A   1      53.421  25.579  23.137  1.00  0.00    -0.237 OA
ATOM    102  O   UNL A   1      52.003  26.258  21.239  1.00  0.00    -0.744 OA
ENDBRANCH  98  99
ENDBRANCH  66  91
ENDBRANCH  40  41
ENDBRANCH  33  35
ENDBRANCH  32  33
ENDBRANCH  31  32
ENDBRANCH   1  31
TORSDOF 19
ENDMDL
MODEL 3
REMARK VINA RESULT:     -12.4      5.902     12.211
REMARK SMILES C[C@@H](C(=O)OCCOC(=O)c1ccc(-c2c3nc(c(-c4c(F)cc(S(=O)(=O)[O-])cc4F)c4ccc([nH]4)c(-c4c(F)cc(S(=O)(=O)[O-])cc4F)c4nc(c(-c5c(F)cc(S(=O)(=O)[O-])cc5F)c5ccc2[nH]5)C=C4)C=C3)cc1)c1ccc(-c2cccc(OC(=O)Nc3ccccc3)c2)c(F)c1
REMARK SMILES IDX 6 1 5 2 3 3 4 4 2 5 1 6 77 7 78 8 99 9 79 10 97 11 80 12
REMARK SMILES IDX 98 13 81 14 82 15 96 16 83 17 85 18 84 19 86 20 87 21 88 22
REMARK SMILES IDX 89 23 90 25 91 26 95 27 92 28 94 29 93 30 7 31 8 32 9 33
REMARK SMILES IDX 10 34 11 35 12 36 76 37 13 38 75 39 14 40 15 41 16 42 69 43
REMARK SMILES IDX 17 44 74 45 68 46 70 47 18 48 73 49 67 50 66 51 19 53 53 54
REMARK SMILES IDX 32 55 52 56 33 57 36 58 51 59 71 60 34 61 35 62 50 64 72 65
REMARK SMILES IDX 37 66 20 67 21 68 30 69 22 70 23 71 29 72 31 73 24 74 25 75
REMARK SMILES IDX 26 76 27 77 28 78 54 79 55 80 64 81 56 82 57 83 63 84 65 85
REMARK SMILES IDX 58 86 59 87 60 88 61 89 62 90 38 91 39 92 48 93 40 94 41 95
REMARK SMILES IDX 47 96 49 97 42 98 43 99 44 100 45 101 46 102
REMARK H PARENT 89 24 70 52 36 63
REMARK Flexibility Score: inf
ROOT
ATOM      1  C   UNL A   1      35.718  33.725  32.236  1.00  0.00     0.274 C 
ENDROOT
BRANCH   1   2
ATOM      2  O   UNL A   1      35.803  33.903  30.802  1.00  0.00    -0.462 OA
BRANCH   2   3
ATOM      3  C   UNL A   1      34.917  33.205  30.025  1.00  0.00     0.313 C 
ATOM      4  O   UNL A   1      33.706  33.239  30.209  1.00  0.00    -0.252 OA
BRANCH   3   5
ATOM      5  C   UNL A   1      35.619  32.274  28.993  1.00  0.00     0.126 C 
ATOM      6  C   UNL A   1      36.680  33.048  28.188  1.00  0.00     0.025 C 
BRANCH   5   7
ATOM      7  C   UNL A   1      34.656  31.436  28.116  1.00  0.00    -0.031 A 
ATOM      8  C   UNL A   1      33.395  31.899  27.688  1.00  0.00     0.005 A 
ATOM      9  C   UNL A   1      35.022  30.159  27.659  1.00  0.00     0.044 A 
ATOM     10  C   UNL A   1      32.504  31.083  26.949  1.00  0.00     0.012 A 
ATOM     11  C   UNL A   1      34.131  29.350  26.928  1.00  0.00     0.131 A 
ATOM     12  C   UNL A   1      32.835  29.769  26.594  1.00  0.00     0.018 A 
ATOM     13  F   UNL A   1      34.554  28.126  26.576  1.00  0.00    -0.206 F 
BRANCH  12  14
ATOM     14  C   UNL A   1      31.851  28.842  25.980  1.00  0.00    -0.012 A 
ATOM     15  C   UNL A   1      31.296  29.091  24.717  1.00  0.00     0.009 A 
ATOM     16  C   UNL A   1      31.534  27.608  26.595  1.00  0.00     0.056 A 
ATOM     17  C   UNL A   1      30.461  28.148  24.091  1.00  0.00     0.004 A 
ATOM     18  C   UNL A   1      30.784  26.635  25.909  1.00  0.00     0.133 A 
ATOM     19  C   UNL A   1      30.204  26.903  24.677  1.00  0.00     0.047 A 
BRANCH  18  20
ATOM     20  O   UNL A   1      30.984  25.014  26.343  1.00  0.00    -0.410 OA
BRANCH  20  21
ATOM     21  C   UNL A   1      31.475  23.447  26.617  1.00  0.00     0.417 C 
ATOM     22  O   UNL A   1      31.386  22.932  27.733  1.00  0.00    -0.224 OA
ATOM     23  N   UNL A   1      31.892  22.732  25.535  1.00  0.00    -0.291 N 
ATOM     24  H   UNL A   1      31.443  22.913  24.677  1.00  0.00     0.173 HD
BRANCH  23  25
ATOM     25  C   UNL A   1      32.906  21.762  25.537  1.00  0.00     0.044 A 
ATOM     26  C   UNL A   1      32.549  20.455  25.215  1.00  0.00     0.026 A 
ATOM     27  C   UNL A   1      34.257  22.083  25.656  1.00  0.00     0.026 A 
ATOM     28  C   UNL A   1      33.521  19.519  24.858  1.00  0.00     0.002 A 
ATOM     29  C   UNL A   1      35.233  21.142  25.327  1.00  0.00     0.002 A 
ATOM     30  C   UNL A   1      34.866  19.875  24.887  1.00  0.00     0.000 A 
ENDBRANCH  23  25
ENDBRANCH  20  21
ENDBRANCH  18  20
ENDBRANCH  12  14
ENDBRANCH   5   7
ENDBRANCH   3   5
ENDBRANCH   2   3
ENDBRANCH   1   2
BRANCH   1  31
ATOM     31  C   UNL A   1      35.984  32.275  32.650  1.00  0.00     0.275 C 
BRANCH  31  32
ATOM     32  O   UNL A   1      37.229  31.826  32.095  1.00  0.00    -0.458 OA
BRANCH  32  33
ATOM     33  C   UNL A   1      37.263  30.517  31.761  1.00  0.00     0.338 C 
ATOM     34  O   UNL A   1      36.332  29.722  31.771  1.00  0.00    -0.246 OA
BRANCH  33  35
ATOM     35  C   UNL A   1      38.544  30.253  31.100  1.00  0.00     0.060 A 
ATOM     36  C   UNL A   1      39.585  29.858  31.933  1.00  0.00     0.016 A 
ATOM     37  C   UNL A   1      38.733  30.351  29.717  1.00  0.00     0.016 A 
ATOM     38  C   UNL A   1      40.808  29.521  31.384  1.00  0.00     0.010 A 
ATOM     39  C   UNL A   1      39.983  30.032  29.169  1.00  0.00     0.010 A 
ATOM     40  C   UNL A   1      41.021  29.601  30.003  1.00  0.00    -0.014 A 
BRANCH  40  41
ATOM     41  C   UNL A   1      42.383  29.282  29.516  1.00  0.00     0.031 A 
ATOM     42  C   UNL A   1      42.510  27.802  28.901  1.00  0.00     0.074 A 
ATOM     43  C   UNL A   1      43.258  30.348  29.460  1.00  0.00     0.049 A 
ATOM     44  N   UNL A   1      43.423  27.285  28.122  1.00  0.00    -0.248 NA
ATOM     45  C   UNL A   1      41.438  26.804  29.102  1.00  0.00     0.031 C 
ATOM     46  C   UNL A   1      43.106  31.750  29.904  1.00  0.00     0.029 A 
ATOM     47  N   UNL A   1      44.494  30.452  28.896  1.00  0.00    -0.354 N 
ATOM     48  C   UNL A   1      43.121  26.004  27.713  1.00  0.00     0.074 A 
ATOM     49  C   UNL A   1      41.842  25.757  28.363  1.00  0.00     0.031 C 
ATOM     50  C   UNL A   1      44.221  32.475  29.583  1.00  0.00     0.029 A 
ATOM     51  C   UNL A   1      45.206  31.618  28.916  1.00  0.00     0.049 A 
ATOM     52  H   UNL A   1      44.887  29.663  28.459  1.00  0.00     0.167 HD
ATOM     53  C   UNL A   1      43.915  25.148  26.976  1.00  0.00     0.037 A 
ATOM     54  C   UNL A   1      46.475  31.843  28.434  1.00  0.00     0.037 A 
ATOM     55  C   UNL A   1      45.314  25.399  26.485  1.00  0.00     0.049 A 
ATOM     56  C   UNL A   1      47.430  30.742  27.771  1.00  0.00     0.074 A 
ATOM     57  C   UNL A   1      46.285  24.493  26.068  1.00  0.00     0.029 A 
ATOM     58  N   UNL A   1      45.987  26.626  26.343  1.00  0.00    -0.354 N 
ATOM     59  N   UNL A   1      47.146  29.606  27.174  1.00  0.00    -0.248 NA
ATOM     60  C   UNL A   1      48.889  30.952  27.758  1.00  0.00     0.031 C 
ATOM     61  C   UNL A   1      47.541  25.156  25.992  1.00  0.00     0.029 A 
ATOM     62  C   UNL A   1      47.381  26.515  26.261  1.00  0.00     0.049 A 
ATOM     63  H   UNL A   1      45.517  27.490  26.305  1.00  0.00     0.167 HD
ATOM     64  C   UNL A   1      48.289  28.895  26.848  1.00  0.00     0.074 A 
ATOM     65  C   UNL A   1      49.347  29.858  27.135  1.00  0.00     0.031 C 
ATOM     66  C   UNL A   1      48.432  27.584  26.432  1.00  0.00     0.037 A 
BRANCH  53  67
ATOM     67  C   UNL A   1      43.400  23.724  26.877  1.00  0.00     0.058 A 
ATOM     68  C   UNL A   1      43.451  22.817  27.944  1.00  0.00     0.135 A 
ATOM     69  C   UNL A   1      42.834  23.253  25.676  1.00  0.00     0.135 A 
ATOM     70  F   UNL A   1      43.980  23.191  29.119  1.00  0.00    -0.206 F 
ATOM     71  C   UNL A   1      42.988  21.504  27.813  1.00  0.00     0.059 A 
ATOM     72  C   UNL A   1      42.360  21.955  25.521  1.00  0.00     0.059 A 
ATOM     73  F   UNL A   1      42.718  24.060  24.619  1.00  0.00    -0.206 F 
ATOM     74  C   UNL A   1      42.451  21.081  26.594  1.00  0.00     0.060 A 
BRANCH  74  75
ATOM     75  S   UNL A   1      41.903  19.370  26.413  1.00  0.00     0.124 S 
ATOM     76  O   UNL A   1      42.184  18.829  27.739  1.00  0.00    -0.237 OA
ATOM     77  O   UNL A   1      40.492  19.537  26.079  1.00  0.00    -0.237 OA
ATOM     78  O   UNL A   1      42.745  18.852  25.340  1.00  0.00    -0.744 OA
ENDBRANCH  74  75
ENDBRANCH  53  67
BRANCH  54  79
ATOM     79  C   UNL A   1      47.087  33.196  28.589  1.00  0.00     0.058 A 
ATOM     80  C   UNL A   1      47.141  34.075  27.493  1.00  0.00     0.135 A 
ATOM     81  C   UNL A   1      47.725  33.600  29.772  1.00  0.00     0.135 A 
ATOM     82  F   UNL A   1      46.581  33.725  26.324  1.00  0.00    -0.206 F 
ATOM     83  C   UNL A   1      47.805  35.295  27.562  1.00  0.00     0.059 A 
ATOM     84  C   UNL A   1      48.375  34.829  29.872  1.00  0.00     0.059 A 
ATOM     85  F   UNL A   1      47.744  32.794  30.844  1.00  0.00    -0.206 F 
ATOM     86  C   UNL A   1      48.419  35.666  28.758  1.00  0.00     0.060 A 
BRANCH  86  87
ATOM     87  S   UNL A   1      49.242  37.271  28.851  1.00  0.00     0.124 S 
ATOM     88  O   UNL A   1      48.534  37.906  29.956  1.00  0.00    -0.237 OA
ATOM     89  O   UNL A   1      50.628  36.895  29.115  1.00  0.00    -0.237 OA
ATOM     90  O   UNL A   1      49.000  37.849  27.531  1.00  0.00    -0.744 OA
ENDBRANCH  86  87
ENDBRANCH  54  79
BRANCH  66  91
ATOM     91  C   UNL A   1      49.871  27.133  26.176  1.00  0.00     0.058 A 
ATOM     92  C   UNL A   1      50.712  26.624  27.185  1.00  0.00     0.135 A 
ATOM     93  C   UNL A   1      50.399  27.155  24.873  1.00  0.00     0.135 A 
ATOM     94  F   UNL A   1      50.308  26.604  28.463  1.00  0.00    -0.206 F 
ATOM     95  C   UNL A   1      52.007  26.178  26.922  1.00  0.00     0.059 A 
ATOM     96  C   UNL A   1      51.683  26.688  24.581  1.00  0.00     0.059 A 
ATOM     97  F   UNL A   1      49.661  27.623  23.854  1.00  0.00    -0.206 F 
ATOM     98  C   UNL A   1      52.485  26.210  25.615  1.00  0.00     0.060 A 
BRANCH  98  99
ATOM     99  S   UNL A   1      54.160  25.615  25.288  1.00  0.00     0.124 S 
ATOM    100  O   UNL A   1      54.930  26.318  26.309  1.00  0.00    -0.237 OA
ATOM    101  O   UNL A   1      54.023  24.175  25.479  1.00  0.00    -0.237 OA
ATOM    102  O   UNL A   1      54.411  26.039  23.914  1.00  0.00    -0.744 OA
ENDBRANCH  98  99
ENDBRANCH  66  91
ENDBRANCH  40  41
ENDBRANCH  33  35
ENDBRANCH  32  33
ENDBRANCH  31  32
ENDBRANCH   1  31
TORSDOF 19
ENDMDL
