MODEL 1
REMARK VINA RESULT:     -11.5      0.000      0.000
REMARK SMILES Cc1cc(C(=O)OCCOC(=O)c2ccc(-c3c4nc(c(-c5c(F)cc(S(=O)(=O)[O-])cc5F)c5ccc([nH]5)c(-c5c(F)cc(S(=O)(=O)[O-])cc5F)c5nc(c(-c6c(F)cc(S(=O)(=O)[O-])cc6F)c6ccc3[nH]6)C=C5)C=C4)cc2)c2c(C)nn(-c3ccccc3)c2n1
REMARK SMILES IDX 9 1 8 2 7 3 5 4 6 5 4 6 1 7 2 8 3 9 91 10 90 11 79 12 83 13
REMARK SMILES IDX 80 14 82 15 81 16 84 17 85 18 89 19 86 20 88 21 87 22 10 23
REMARK SMILES IDX 11 24 12 25 13 26 14 27 78 28 15 29 77 30 16 31 17 32 18 33
REMARK SMILES IDX 71 34 19 35 76 36 70 37 72 38 20 39 75 40 69 41 68 42 21 44
REMARK SMILES IDX 55 45 34 46 54 47 35 48 38 49 53 50 73 51 36 52 37 53 52 55
REMARK SMILES IDX 74 56 39 57 22 58 23 59 32 60 24 61 25 62 31 63 33 64 26 65
REMARK SMILES IDX 27 66 28 67 29 68 30 69 56 70 57 71 66 72 58 73 59 74 65 75
REMARK SMILES IDX 67 76 60 77 61 78 62 79 63 80 64 81 40 82 41 83 50 84 42 85
REMARK SMILES IDX 43 86 49 87 51 88 44 89 45 90 46 91 47 92 48 93
REMARK H PARENT 72 43 38 54
REMARK Flexibility Score: inf
ROOT
ATOM      1  C   UNL A   1      34.263  33.565  27.690  1.00  0.00     0.275 C 
ENDROOT
BRANCH   1   2
ATOM      2  C   UNL A   1      34.399  34.821  28.542  1.00  0.00     0.275 C 
BRANCH   2   3
ATOM      3  O   UNL A   1      35.088  34.542  29.774  1.00  0.00    -0.458 OA
BRANCH   3   4
ATOM      4  C   UNL A   1      34.305  34.226  30.840  1.00  0.00     0.339 C 
ATOM      5  O   UNL A   1      33.125  34.515  30.968  1.00  0.00    -0.246 OA
BRANCH   4   6
ATOM      6  C   UNL A   1      35.068  33.428  31.825  1.00  0.00     0.074 A 
ATOM      7  C   UNL A   1      36.675  30.004  32.080  1.00  0.00     0.067 C 
ATOM      8  C   UNL A   1      36.244  31.404  32.417  1.00  0.00     0.041 A 
ATOM      9  C   UNL A   1      35.492  32.130  31.503  1.00  0.00     0.040 A 
ATOM     10  N   UNL A   1      36.664  31.890  33.602  1.00  0.00    -0.233 NA
ATOM     11  C   UNL A   1      36.169  33.110  33.916  1.00  0.00     0.164 A 
ATOM     12  C   UNL A   1      35.359  33.916  33.118  1.00  0.00     0.057 A 
ATOM     13  N   UNL A   1      36.325  33.775  35.117  1.00  0.00    -0.214 N 
ATOM     14  C   UNL A   1      35.056  35.034  33.953  1.00  0.00     0.070 A 
ATOM     15  N   UNL A   1      35.571  34.897  35.183  1.00  0.00    -0.171 NA
ATOM     16  C   UNL A   1      34.261  36.259  33.686  1.00  0.00     0.069 C 
BRANCH  13  17
ATOM     17  C   UNL A   1      37.221  33.486  36.167  1.00  0.00     0.067 A 
ATOM     18  C   UNL A   1      38.599  33.524  35.931  1.00  0.00     0.028 A 
ATOM     19  C   UNL A   1      36.720  33.274  37.457  1.00  0.00     0.028 A 
ATOM     20  C   UNL A   1      39.479  33.386  37.006  1.00  0.00     0.002 A 
ATOM     21  C   UNL A   1      37.609  33.073  38.513  1.00  0.00     0.002 A 
ATOM     22  C   UNL A   1      38.985  33.149  38.292  1.00  0.00     0.000 A 
ENDBRANCH  13  17
ENDBRANCH   4   6
ENDBRANCH   3   4
ENDBRANCH   2   3
ENDBRANCH   1   2
BRANCH   1  23
ATOM     23  O   UNL A   1      35.485  32.832  27.633  1.00  0.00    -0.458 OA
BRANCH  23  24
ATOM     24  C   UNL A   1      35.328  31.488  27.620  1.00  0.00     0.338 C 
ATOM     25  O   UNL A   1      34.371  30.865  27.192  1.00  0.00    -0.246 OA
BRANCH  24  26
ATOM     26  C   UNL A   1      36.405  30.864  28.390  1.00  0.00     0.060 A 
ATOM     27  C   UNL A   1      37.446  31.691  28.827  1.00  0.00     0.016 A 
ATOM     28  C   UNL A   1      36.506  29.467  28.408  1.00  0.00     0.016 A 
ATOM     29  C   UNL A   1      38.661  31.113  29.126  1.00  0.00     0.010 A 
ATOM     30  C   UNL A   1      37.727  28.897  28.670  1.00  0.00     0.010 A 
ATOM     31  C   UNL A   1      38.802  29.732  28.963  1.00  0.00    -0.014 A 
BRANCH  31  32
ATOM     32  C   UNL A   1      40.106  29.148  29.171  1.00  0.00     0.031 A 
ATOM     33  C   UNL A   1      40.496  29.072  30.596  1.00  0.00     0.074 A 
ATOM     34  C   UNL A   1      40.825  28.637  28.156  1.00  0.00     0.049 A 
ATOM     35  N   UNL A   1      41.376  29.791  31.209  1.00  0.00    -0.248 NA
ATOM     36  C   UNL A   1      39.681  28.232  31.488  1.00  0.00     0.031 C 
ATOM     37  C   UNL A   1      40.420  28.403  26.768  1.00  0.00     0.029 A 
ATOM     38  N   UNL A   1      42.086  28.140  28.192  1.00  0.00    -0.354 N 
ATOM     39  C   UNL A   1      41.380  29.332  32.522  1.00  0.00     0.074 A 
ATOM     40  C   UNL A   1      40.183  28.552  32.680  1.00  0.00     0.031 C 
ATOM     41  C   UNL A   1      41.342  27.620  26.161  1.00  0.00     0.029 A 
ATOM     42  C   UNL A   1      42.456  27.409  27.071  1.00  0.00     0.049 A 
ATOM     43  H   UNL A   1      42.693  28.287  28.954  1.00  0.00     0.167 HD
ATOM     44  C   UNL A   1      42.498  29.413  33.294  1.00  0.00     0.037 A 
ATOM     45  C   UNL A   1      43.571  26.641  26.958  1.00  0.00     0.037 A 
ATOM     46  C   UNL A   1      43.440  30.355  32.740  1.00  0.00     0.049 A 
ATOM     47  C   UNL A   1      44.528  27.112  27.999  1.00  0.00     0.074 A 
ATOM     48  C   UNL A   1      43.395  31.705  32.452  1.00  0.00     0.029 A 
ATOM     49  N   UNL A   1      44.506  29.855  32.030  1.00  0.00    -0.354 N 
ATOM     50  N   UNL A   1      45.095  28.290  27.977  1.00  0.00    -0.248 NA
ATOM     51  C   UNL A   1      44.466  26.482  29.312  1.00  0.00     0.031 C 
ATOM     52  C   UNL A   1      44.113  31.847  31.229  1.00  0.00     0.029 A 
ATOM     53  C   UNL A   1      44.610  30.590  30.876  1.00  0.00     0.049 A 
ATOM     54  H   UNL A   1      45.087  29.107  32.298  1.00  0.00     0.167 HD
ATOM     55  C   UNL A   1      45.084  28.723  29.297  1.00  0.00     0.074 A 
ATOM     56  C   UNL A   1      44.749  27.537  30.083  1.00  0.00     0.031 C 
ATOM     57  C   UNL A   1      45.063  30.053  29.610  1.00  0.00     0.037 A 
BRANCH  44  58
ATOM     58  C   UNL A   1      42.895  28.375  34.320  1.00  0.00     0.058 A 
ATOM     59  C   UNL A   1      43.086  28.776  35.658  1.00  0.00     0.135 A 
ATOM     60  C   UNL A   1      43.367  27.081  34.003  1.00  0.00     0.135 A 
ATOM     61  F   UNL A   1      42.671  29.982  36.078  1.00  0.00    -0.206 F 
ATOM     62  C   UNL A   1      43.780  27.993  36.580  1.00  0.00     0.059 A 
ATOM     63  C   UNL A   1      44.010  26.262  34.922  1.00  0.00     0.059 A 
ATOM     64  F   UNL A   1      43.328  26.575  32.766  1.00  0.00    -0.206 F 
ATOM     65  C   UNL A   1      44.257  26.745  36.193  1.00  0.00     0.060 A 
BRANCH  65  66
ATOM     66  S   UNL A   1      45.274  25.790  37.331  1.00  0.00     0.124 S 
ATOM     67  O   UNL A   1      46.537  26.517  37.269  1.00  0.00    -0.237 OA
ATOM     68  O   UNL A   1      44.524  25.910  38.577  1.00  0.00    -0.237 OA
ATOM     69  O   UNL A   1      45.283  24.457  36.736  1.00  0.00    -0.744 OA
ENDBRANCH  65  66
ENDBRANCH  44  58
BRANCH  45  70
ATOM     70  C   UNL A   1      43.707  25.334  26.259  1.00  0.00     0.058 A 
ATOM     71  C   UNL A   1      44.689  25.118  25.275  1.00  0.00     0.135 A 
ATOM     72  C   UNL A   1      43.042  24.183  26.730  1.00  0.00     0.135 A 
ATOM     73  F   UNL A   1      45.396  26.151  24.791  1.00  0.00    -0.206 F 
ATOM     74  C   UNL A   1      45.013  23.836  24.809  1.00  0.00     0.059 A 
ATOM     75  C   UNL A   1      43.341  22.898  26.275  1.00  0.00     0.059 A 
ATOM     76  F   UNL A   1      42.137  24.262  27.716  1.00  0.00    -0.206 F 
ATOM     77  C   UNL A   1      44.342  22.729  25.328  1.00  0.00     0.060 A 
BRANCH  77  78
ATOM     78  S   UNL A   1      44.850  21.062  24.838  1.00  0.00     0.124 S 
ATOM     79  O   UNL A   1      46.249  21.037  25.248  1.00  0.00    -0.237 OA
ATOM     80  O   UNL A   1      43.943  20.224  25.614  1.00  0.00    -0.237 OA
ATOM     81  O   UNL A   1      44.624  21.049  23.394  1.00  0.00    -0.744 OA
ENDBRANCH  77  78
ENDBRANCH  45  70
BRANCH  57  82
ATOM     82  C   UNL A   1      45.299  31.053  28.507  1.00  0.00     0.058 A 
ATOM     83  C   UNL A   1      44.304  31.491  27.614  1.00  0.00     0.135 A 
ATOM     84  C   UNL A   1      46.528  31.729  28.474  1.00  0.00     0.135 A 
ATOM     85  F   UNL A   1      43.070  30.971  27.650  1.00  0.00    -0.206 F 
ATOM     86  C   UNL A   1      44.532  32.530  26.710  1.00  0.00     0.059 A 
ATOM     87  C   UNL A   1      46.768  32.787  27.602  1.00  0.00     0.059 A 
ATOM     88  F   UNL A   1      47.497  31.402  29.346  1.00  0.00    -0.206 F 
ATOM     89  C   UNL A   1      45.767  33.177  26.714  1.00  0.00     0.060 A 
BRANCH  89  90
ATOM     90  S   UNL A   1      46.032  34.575  25.603  1.00  0.00     0.124 S 
ATOM     91  O   UNL A   1      47.458  34.471  25.310  1.00  0.00    -0.237 OA
ATOM     92  O   UNL A   1      45.132  34.274  24.493  1.00  0.00    -0.237 OA
ATOM     93  O   UNL A   1      45.646  35.732  26.409  1.00  0.00    -0.744 OA
ENDBRANCH  89  90
ENDBRANCH  57  82
ENDBRANCH  31  32
ENDBRANCH  24  26
ENDBRANCH  23  24
ENDBRANCH   1  23
TORSDOF 15
ENDMDL
MODEL 2
REMARK VINA RESULT:     -11.5      3.768      6.321
REMARK SMILES Cc1cc(C(=O)OCCOC(=O)c2ccc(-c3c4nc(c(-c5c(F)cc(S(=O)(=O)[O-])cc5F)c5ccc([nH]5)c(-c5c(F)cc(S(=O)(=O)[O-])cc5F)c5nc(c(-c6c(F)cc(S(=O)(=O)[O-])cc6F)c6ccc3[nH]6)C=C5)C=C4)cc2)c2c(C)nn(-c3ccccc3)c2n1
REMARK SMILES IDX 9 1 8 2 7 3 5 4 6 5 4 6 1 7 2 8 3 9 91 10 90 11 79 12 83 13
REMARK SMILES IDX 80 14 82 15 81 16 84 17 85 18 89 19 86 20 88 21 87 22 10 23
REMARK SMILES IDX 11 24 12 25 13 26 14 27 78 28 15 29 77 30 16 31 17 32 18 33
REMARK SMILES IDX 71 34 19 35 76 36 70 37 72 38 20 39 75 40 69 41 68 42 21 44
REMARK SMILES IDX 55 45 34 46 54 47 35 48 38 49 53 50 73 51 36 52 37 53 52 55
REMARK SMILES IDX 74 56 39 57 22 58 23 59 32 60 24 61 25 62 31 63 33 64 26 65
REMARK SMILES IDX 27 66 28 67 29 68 30 69 56 70 57 71 66 72 58 73 59 74 65 75
REMARK SMILES IDX 67 76 60 77 61 78 62 79 63 80 64 81 40 82 41 83 50 84 42 85
REMARK SMILES IDX 43 86 49 87 51 88 44 89 45 90 46 91 47 92 48 93
REMARK H PARENT 72 43 38 54
REMARK Flexibility Score: inf
ROOT
ATOM      1  C   UNL A   1      33.132  30.697  27.391  1.00  0.00     0.275 C 
ENDROOT
BRANCH   1   2
ATOM      2  C   UNL A   1      32.267  30.767  26.138  1.00  0.00     0.275 C 
BRANCH   2   3
ATOM      3  O   UNL A   1      32.599  29.712  25.217  1.00  0.00    -0.458 OA
BRANCH   3   4
ATOM      4  C   UNL A   1      31.571  29.215  24.479  1.00  0.00     0.339 C 
ATOM      5  O   UNL A   1      30.579  29.837  24.128  1.00  0.00    -0.246 OA
BRANCH   4   6
ATOM      6  C   UNL A   1      31.834  27.808  24.104  1.00  0.00     0.074 A 
ATOM      7  C   UNL A   1      32.566  25.784  20.984  1.00  0.00     0.067 C 
ATOM      8  C   UNL A   1      32.350  26.151  22.425  1.00  0.00     0.041 A 
ATOM      9  C   UNL A   1      32.061  27.467  22.762  1.00  0.00     0.040 A 
ATOM     10  N   UNL A   1      32.496  25.158  23.325  1.00  0.00    -0.233 NA
ATOM     11  C   UNL A   1      32.190  25.503  24.597  1.00  0.00     0.164 A 
ATOM     12  C   UNL A   1      31.829  26.767  25.058  1.00  0.00     0.057 A 
ATOM     13  N   UNL A   1      32.121  24.652  25.684  1.00  0.00    -0.214 N 
ATOM     14  C   UNL A   1      31.530  26.557  26.439  1.00  0.00     0.070 A 
ATOM     15  N   UNL A   1      31.626  25.266  26.784  1.00  0.00    -0.171 NA
ATOM     16  C   UNL A   1      31.114  27.511  27.498  1.00  0.00     0.069 C 
BRANCH  13  17
ATOM     17  C   UNL A   1      32.594  23.327  25.789  1.00  0.00     0.067 A 
ATOM     18  C   UNL A   1      31.778  22.268  25.378  1.00  0.00     0.028 A 
ATOM     19  C   UNL A   1      33.912  23.100  26.198  1.00  0.00     0.028 A 
ATOM     20  C   UNL A   1      32.305  20.976  25.343  1.00  0.00     0.002 A 
ATOM     21  C   UNL A   1      34.408  21.796  26.221  1.00  0.00     0.002 A 
ATOM     22  C   UNL A   1      33.613  20.739  25.774  1.00  0.00     0.000 A 
ENDBRANCH  13  17
ENDBRANCH   4   6
ENDBRANCH   3   4
ENDBRANCH   2   3
ENDBRANCH   1   2
BRANCH   1  23
ATOM     23  O   UNL A   1      34.522  30.693  27.072  1.00  0.00    -0.458 OA
BRANCH  23  24
ATOM     24  C   UNL A   1      35.247  31.624  27.735  1.00  0.00     0.338 C 
ATOM     25  O   UNL A   1      35.168  32.835  27.620  1.00  0.00    -0.246 OA
BRANCH  24  26
ATOM     26  C   UNL A   1      36.311  30.962  28.492  1.00  0.00     0.060 A 
ATOM     27  C   UNL A   1      37.332  31.769  29.006  1.00  0.00     0.016 A 
ATOM     28  C   UNL A   1      36.425  29.567  28.427  1.00  0.00     0.016 A 
ATOM     29  C   UNL A   1      38.545  31.183  29.300  1.00  0.00     0.010 A 
ATOM     30  C   UNL A   1      37.644  28.993  28.685  1.00  0.00     0.010 A 
ATOM     31  C   UNL A   1      38.703  29.817  29.056  1.00  0.00    -0.014 A 
BRANCH  31  32
ATOM     32  C   UNL A   1      40.007  29.231  29.261  1.00  0.00     0.031 A 
ATOM     33  C   UNL A   1      40.409  29.174  30.683  1.00  0.00     0.074 A 
ATOM     34  C   UNL A   1      40.716  28.704  28.247  1.00  0.00     0.049 A 
ATOM     35  N   UNL A   1      41.296  29.899  31.279  1.00  0.00    -0.248 NA
ATOM     36  C   UNL A   1      39.599  28.349  31.594  1.00  0.00     0.031 C 
ATOM     37  C   UNL A   1      40.298  28.451  26.866  1.00  0.00     0.029 A 
ATOM     38  N   UNL A   1      41.976  28.203  28.280  1.00  0.00    -0.354 N 
ATOM     39  C   UNL A   1      41.311  29.459  32.598  1.00  0.00     0.074 A 
ATOM     40  C   UNL A   1      40.112  28.685  32.777  1.00  0.00     0.031 C 
ATOM     41  C   UNL A   1      41.213  27.657  26.262  1.00  0.00     0.029 A 
ATOM     42  C   UNL A   1      42.334  27.456  27.166  1.00  0.00     0.049 A 
ATOM     43  H   UNL A   1      42.589  28.359  29.034  1.00  0.00     0.167 HD
ATOM     44  C   UNL A   1      42.436  29.547  33.360  1.00  0.00     0.037 A 
ATOM     45  C   UNL A   1      43.445  26.682  27.054  1.00  0.00     0.037 A 
ATOM     46  C   UNL A   1      43.375  30.478  32.784  1.00  0.00     0.049 A 
ATOM     47  C   UNL A   1      44.412  27.165  28.080  1.00  0.00     0.074 A 
ATOM     48  C   UNL A   1      43.332  31.825  32.477  1.00  0.00     0.029 A 
ATOM     49  N   UNL A   1      44.434  29.965  32.072  1.00  0.00    -0.354 N 
ATOM     50  N   UNL A   1      44.983  28.340  28.037  1.00  0.00    -0.248 NA
ATOM     51  C   UNL A   1      44.360  26.554  29.402  1.00  0.00     0.031 C 
ATOM     52  C   UNL A   1      44.040  31.946  31.246  1.00  0.00     0.029 A 
ATOM     53  C   UNL A   1      44.530  30.683  30.906  1.00  0.00     0.049 A 
ATOM     54  H   UNL A   1      45.015  29.219  32.346  1.00  0.00     0.167 HD
ATOM     55  C   UNL A   1      44.985  28.793  29.350  1.00  0.00     0.074 A 
ATOM     56  C   UNL A   1      44.652  27.619  30.156  1.00  0.00     0.031 C 
ATOM     57  C   UNL A   1      44.971  30.127  29.645  1.00  0.00     0.037 A 
BRANCH  44  58
ATOM     58  C   UNL A   1      42.838  28.523  34.396  1.00  0.00     0.058 A 
ATOM     59  C   UNL A   1      43.080  28.948  35.718  1.00  0.00     0.135 A 
ATOM     60  C   UNL A   1      43.269  27.210  34.095  1.00  0.00     0.135 A 
ATOM     61  F   UNL A   1      42.707  30.173  36.123  1.00  0.00    -0.206 F 
ATOM     62  C   UNL A   1      43.782  28.168  36.637  1.00  0.00     0.059 A 
ATOM     63  C   UNL A   1      43.919  26.396  35.013  1.00  0.00     0.059 A 
ATOM     64  F   UNL A   1      43.179  26.678  32.871  1.00  0.00    -0.206 F 
ATOM     65  C   UNL A   1      44.216  26.901  36.265  1.00  0.00     0.060 A 
BRANCH  65  66
ATOM     66  S   UNL A   1      45.244  25.946  37.393  1.00  0.00     0.124 S 
ATOM     67  O   UNL A   1      44.242  25.387  38.294  1.00  0.00    -0.237 OA
ATOM     68  O   UNL A   1      45.889  25.002  36.485  1.00  0.00    -0.237 OA
ATOM     69  O   UNL A   1      46.127  26.952  37.976  1.00  0.00    -0.744 OA
ENDBRANCH  65  66
ENDBRANCH  44  58
BRANCH  45  70
ATOM     70  C   UNL A   1      43.571  25.365  26.372  1.00  0.00     0.058 A 
ATOM     71  C   UNL A   1      44.488  25.157  25.327  1.00  0.00     0.135 A 
ATOM     72  C   UNL A   1      42.976  24.206  26.911  1.00  0.00     0.135 A 
ATOM     73  F   UNL A   1      45.128  26.199  24.773  1.00  0.00    -0.206 F 
ATOM     74  C   UNL A   1      44.817  23.875  24.864  1.00  0.00     0.059 A 
ATOM     75  C   UNL A   1      43.280  22.921  26.462  1.00  0.00     0.059 A 
ATOM     76  F   UNL A   1      42.140  24.280  27.957  1.00  0.00    -0.206 F 
ATOM     77  C   UNL A   1      44.218  22.760  25.450  1.00  0.00     0.060 A 
BRANCH  77  78
ATOM     78  S   UNL A   1      44.740  21.099  24.957  1.00  0.00     0.124 S 
ATOM     79  O   UNL A   1      43.733  20.260  25.598  1.00  0.00    -0.237 OA
ATOM     80  O   UNL A   1      44.672  21.174  23.502  1.00  0.00    -0.237 OA
ATOM     81  O   UNL A   1      46.087  20.986  25.511  1.00  0.00    -0.744 OA
ENDBRANCH  77  78
ENDBRANCH  45  70
BRANCH  57  82
ATOM     82  C   UNL A   1      45.200  31.110  28.526  1.00  0.00     0.058 A 
ATOM     83  C   UNL A   1      44.198  31.542  27.637  1.00  0.00     0.135 A 
ATOM     84  C   UNL A   1      46.432  31.778  28.470  1.00  0.00     0.135 A 
ATOM     85  F   UNL A   1      42.961  31.030  27.695  1.00  0.00    -0.206 F 
ATOM     86  C   UNL A   1      44.421  32.568  26.717  1.00  0.00     0.059 A 
ATOM     87  C   UNL A   1      46.669  32.823  27.581  1.00  0.00     0.059 A 
ATOM     88  F   UNL A   1      47.409  31.458  29.336  1.00  0.00    -0.206 F 
ATOM     89  C   UNL A   1      45.661  33.207  26.699  1.00  0.00     0.060 A 
BRANCH  89  90
ATOM     90  S   UNL A   1      45.922  34.589  25.566  1.00  0.00     0.124 S 
ATOM     91  O   UNL A   1      45.042  34.246  24.454  1.00  0.00    -0.237 OA
ATOM     92  O   UNL A   1      45.512  35.738  26.369  1.00  0.00    -0.237 OA
ATOM     93  O   UNL A   1      47.352  34.526  25.272  1.00  0.00    -0.744 OA
ENDBRANCH  89  90
ENDBRANCH  57  82
ENDBRANCH  31  32
ENDBRANCH  24  26
ENDBRANCH  23  24
ENDBRANCH   1  23
TORSDOF 15
ENDMDL
MODEL 3
REMARK VINA RESULT:     -11.5      4.720     11.442
REMARK SMILES Cc1cc(C(=O)OCCOC(=O)c2ccc(-c3c4nc(c(-c5c(F)cc(S(=O)(=O)[O-])cc5F)c5ccc([nH]5)c(-c5c(F)cc(S(=O)(=O)[O-])cc5F)c5nc(c(-c6c(F)cc(S(=O)(=O)[O-])cc6F)c6ccc3[nH]6)C=C5)C=C4)cc2)c2c(C)nn(-c3ccccc3)c2n1
REMARK SMILES IDX 9 1 8 2 7 3 5 4 6 5 4 6 1 7 2 8 3 9 91 10 90 11 79 12 83 13
REMARK SMILES IDX 80 14 82 15 81 16 84 17 85 18 89 19 86 20 88 21 87 22 10 23
REMARK SMILES IDX 11 24 12 25 13 26 14 27 78 28 15 29 77 30 16 31 17 32 18 33
REMARK SMILES IDX 71 34 19 35 76 36 70 37 72 38 20 39 75 40 69 41 68 42 21 44
REMARK SMILES IDX 55 45 34 46 54 47 35 48 38 49 53 50 73 51 36 52 37 53 52 55
REMARK SMILES IDX 74 56 39 57 22 58 23 59 32 60 24 61 25 62 31 63 33 64 26 65
REMARK SMILES IDX 27 66 28 67 29 68 30 69 56 70 57 71 66 72 58 73 59 74 65 75
REMARK SMILES IDX 67 76 60 77 61 78 62 79 63 80 64 81 40 82 41 83 50 84 42 85
REMARK SMILES IDX 43 86 49 87 51 88 44 89 45 90 46 91 47 92 48 93
REMARK H PARENT 72 43 38 54
REMARK Flexibility Score: inf
ROOT
ATOM      1  C   UNL A   1      38.201  21.892  25.407  1.00  0.00     0.275 C 
ENDROOT
BRANCH   1   2
ATOM      2  C   UNL A   1      37.064  20.929  25.726  1.00  0.00     0.275 C 
BRANCH   2   3
ATOM      3  O   UNL A   1      35.830  21.635  25.948  1.00  0.00    -0.458 OA
BRANCH   3   4
ATOM      4  C   UNL A   1      34.718  21.092  25.385  1.00  0.00     0.339 C 
ATOM      5  O   UNL A   1      34.587  19.923  25.050  1.00  0.00    -0.246 OA
BRANCH   4   6
ATOM      6  C   UNL A   1      33.646  22.105  25.272  1.00  0.00     0.074 A 
ATOM      7  C   UNL A   1      30.224  22.802  26.745  1.00  0.00     0.067 C 
ATOM      8  C   UNL A   1      31.490  22.955  25.952  1.00  0.00     0.041 A 
ATOM      9  C   UNL A   1      32.473  21.976  26.031  1.00  0.00     0.040 A 
ATOM     10  N   UNL A   1      31.609  24.085  25.225  1.00  0.00    -0.233 NA
ATOM     11  C   UNL A   1      32.713  24.137  24.444  1.00  0.00     0.164 A 
ATOM     12  C   UNL A   1      33.742  23.198  24.384  1.00  0.00     0.057 A 
ATOM     13  N   UNL A   1      33.009  25.107  23.506  1.00  0.00    -0.214 N 
ATOM     14  C   UNL A   1      34.593  23.688  23.348  1.00  0.00     0.070 A 
ATOM     15  N   UNL A   1      34.099  24.790  22.768  1.00  0.00    -0.171 NA
ATOM     16  C   UNL A   1      35.877  23.163  22.816  1.00  0.00     0.069 C 
BRANCH  13  17
ATOM     17  C   UNL A   1      32.401  26.367  23.329  1.00  0.00     0.067 A 
ATOM     18  C   UNL A   1      31.307  26.492  22.467  1.00  0.00     0.028 A 
ATOM     19  C   UNL A   1      32.831  27.451  24.103  1.00  0.00     0.028 A 
ATOM     20  C   UNL A   1      30.617  27.705  22.412  1.00  0.00     0.002 A 
ATOM     21  C   UNL A   1      32.175  28.676  23.992  1.00  0.00     0.002 A 
ATOM     22  C   UNL A   1      31.057  28.797  23.164  1.00  0.00     0.000 A 
ENDBRANCH  13  17
ENDBRANCH   4   6
ENDBRANCH   3   4
ENDBRANCH   2   3
ENDBRANCH   1   2
BRANCH   1  23
ATOM     23  O   UNL A   1      38.647  22.583  26.572  1.00  0.00    -0.458 OA
BRANCH  23  24
ATOM     24  C   UNL A   1      39.979  22.496  26.795  1.00  0.00     0.338 C 
ATOM     25  O   UNL A   1      40.630  21.478  26.959  1.00  0.00    -0.246 OA
BRANCH  24  26
ATOM     26  C   UNL A   1      40.524  23.836  27.015  1.00  0.00     0.060 A 
ATOM     27  C   UNL A   1      41.527  23.972  27.982  1.00  0.00     0.016 A 
ATOM     28  C   UNL A   1      39.846  24.941  26.485  1.00  0.00     0.016 A 
ATOM     29  C   UNL A   1      41.731  25.214  28.544  1.00  0.00     0.010 A 
ATOM     30  C   UNL A   1      40.025  26.169  27.073  1.00  0.00     0.010 A 
ATOM     31  C   UNL A   1      40.918  26.274  28.135  1.00  0.00    -0.014 A 
BRANCH  31  32
ATOM     32  C   UNL A   1      41.062  27.545  28.805  1.00  0.00     0.031 A 
ATOM     33  C   UNL A   1      42.180  28.361  28.284  1.00  0.00     0.074 A 
ATOM     34  C   UNL A   1      40.185  27.960  29.737  1.00  0.00     0.049 A 
ATOM     35  N   UNL A   1      43.311  28.603  28.859  1.00  0.00    -0.248 NA
ATOM     36  C   UNL A   1      42.113  28.804  26.882  1.00  0.00     0.031 C 
ATOM     37  C   UNL A   1      38.900  27.369  30.118  1.00  0.00     0.029 A 
ATOM     38  N   UNL A   1      40.243  29.079  30.500  1.00  0.00    -0.354 N 
ATOM     39  C   UNL A   1      44.009  29.420  27.976  1.00  0.00     0.074 A 
ATOM     40  C   UNL A   1      43.330  29.319  26.712  1.00  0.00     0.031 C 
ATOM     41  C   UNL A   1      38.214  28.250  30.883  1.00  0.00     0.029 A 
ATOM     42  C   UNL A   1      39.059  29.403  31.149  1.00  0.00     0.049 A 
ATOM     43  H   UNL A   1      41.061  29.620  30.587  1.00  0.00     0.167 HD
ATOM     44  C   UNL A   1      44.931  30.317  28.422  1.00  0.00     0.037 A 
ATOM     45  C   UNL A   1      38.801  30.573  31.790  1.00  0.00     0.037 A 
ATOM     46  C   UNL A   1      45.345  30.003  29.768  1.00  0.00     0.049 A 
ATOM     47  C   UNL A   1      40.119  31.195  32.100  1.00  0.00     0.074 A 
ATOM     48  C   UNL A   1      45.946  28.908  30.360  1.00  0.00     0.029 A 
ATOM     49  N   UNL A   1      44.794  30.730  30.796  1.00  0.00    -0.354 N 
ATOM     50  N   UNL A   1      40.974  30.688  32.948  1.00  0.00    -0.248 NA
ATOM     51  C   UNL A   1      40.694  32.095  31.108  1.00  0.00     0.031 C 
ATOM     52  C   UNL A   1      45.313  28.782  31.630  1.00  0.00     0.029 A 
ATOM     53  C   UNL A   1      44.412  29.840  31.768  1.00  0.00     0.049 A 
ATOM     54  H   UNL A   1      44.690  31.709  30.829  1.00  0.00     0.167 HD
ATOM     55  C   UNL A   1      42.219  30.864  32.358  1.00  0.00     0.074 A 
ATOM     56  C   UNL A   1      41.990  31.799  31.259  1.00  0.00     0.031 C 
ATOM     57  C   UNL A   1      43.262  30.022  32.628  1.00  0.00     0.037 A 
BRANCH  44  58
ATOM     58  C   UNL A   1      45.164  31.673  27.796  1.00  0.00     0.058 A 
ATOM     59  C   UNL A   1      46.432  31.965  27.252  1.00  0.00     0.135 A 
ATOM     60  C   UNL A   1      44.304  32.784  27.955  1.00  0.00     0.135 A 
ATOM     61  F   UNL A   1      47.330  30.988  27.047  1.00  0.00    -0.206 F 
ATOM     62  C   UNL A   1      46.847  33.269  26.983  1.00  0.00     0.059 A 
ATOM     63  C   UNL A   1      44.678  34.084  27.640  1.00  0.00     0.059 A 
ATOM     64  F   UNL A   1      43.096  32.693  28.520  1.00  0.00    -0.206 F 
ATOM     65  C   UNL A   1      45.967  34.323  27.203  1.00  0.00     0.060 A 
BRANCH  65  66
ATOM     66  S   UNL A   1      46.541  36.017  26.994  1.00  0.00     0.124 S 
ATOM     67  O   UNL A   1      47.250  35.928  25.723  1.00  0.00    -0.237 OA
ATOM     68  O   UNL A   1      45.284  36.759  26.978  1.00  0.00    -0.237 OA
ATOM     69  O   UNL A   1      47.377  36.236  28.171  1.00  0.00    -0.744 OA
ENDBRANCH  65  66
ENDBRANCH  44  58
BRANCH  45  70
ATOM     70  C   UNL A   1      37.516  31.323  31.830  1.00  0.00     0.058 A 
ATOM     71  C   UNL A   1      36.873  31.629  33.043  1.00  0.00     0.135 A 
ATOM     72  C   UNL A   1      37.025  31.987  30.687  1.00  0.00     0.135 A 
ATOM     73  F   UNL A   1      37.294  31.070  34.188  1.00  0.00    -0.206 F 
ATOM     74  C   UNL A   1      35.827  32.559  33.122  1.00  0.00     0.059 A 
ATOM     75  C   UNL A   1      35.979  32.909  30.739  1.00  0.00     0.059 A 
ATOM     76  F   UNL A   1      37.606  31.824  29.489  1.00  0.00    -0.206 F 
ATOM     77  C   UNL A   1      35.397  33.207  31.964  1.00  0.00     0.060 A 
BRANCH  77  78
ATOM     78  S   UNL A   1      34.145  34.509  32.077  1.00  0.00     0.124 S 
ATOM     79  O   UNL A   1      34.933  35.650  32.530  1.00  0.00    -0.237 OA
ATOM     80  O   UNL A   1      33.650  34.580  30.707  1.00  0.00    -0.237 OA
ATOM     81  O   UNL A   1      33.194  33.983  33.054  1.00  0.00    -0.744 OA
ENDBRANCH  77  78
ENDBRANCH  45  70
BRANCH  57  82
ATOM     82  C   UNL A   1      43.115  29.041  33.763  1.00  0.00     0.058 A 
ATOM     83  C   UNL A   1      43.292  29.372  35.119  1.00  0.00     0.135 A 
ATOM     84  C   UNL A   1      42.597  27.770  33.479  1.00  0.00     0.135 A 
ATOM     85  F   UNL A   1      43.684  30.601  35.482  1.00  0.00    -0.206 F 
ATOM     86  C   UNL A   1      42.996  28.469  36.142  1.00  0.00     0.059 A 
ATOM     87  C   UNL A   1      42.266  26.863  34.484  1.00  0.00     0.059 A 
ATOM     88  F   UNL A   1      42.343  27.416  32.208  1.00  0.00    -0.206 F 
ATOM     89  C   UNL A   1      42.478  27.216  35.814  1.00  0.00     0.060 A 
BRANCH  89  90
ATOM     90  S   UNL A   1      42.017  26.081  37.141  1.00  0.00     0.124 S 
ATOM     91  O   UNL A   1      42.174  24.780  36.501  1.00  0.00    -0.237 OA
ATOM     92  O   UNL A   1      42.990  26.398  38.183  1.00  0.00    -0.237 OA
ATOM     93  O   UNL A   1      40.640  26.459  37.452  1.00  0.00    -0.744 OA
ENDBRANCH  89  90
ENDBRANCH  57  82
ENDBRANCH  31  32
ENDBRANCH  24  26
ENDBRANCH  23  24
ENDBRANCH   1  23
TORSDOF 15
ENDMDL
