MODEL 1
REMARK VINA RESULT:     -12.3      0.000      0.000
REMARK SMILES Cc1cc(=O)oc2cc(NC(=O)CC3(CC(=O)OCCOC(=O)c4ccc(-c5c6nc(c(-c7c(F)cc(S(=O)(=O)[O-])cc7F)c7ccc([nH]7)c(-c7c(F)cc(S(=O)(=O)[O-])cc7F)c7nc(c(-c8c(F)cc(S(=O)(=O)[O-])cc8F)c8ccc5[nH]8)C=C7)C=C6)cc4)CCCC3)ccc12
REMARK SMILES IDX 19 1 18 2 16 3 17 4 15 5 14 6 90 7 93 8 91 9 92 10 13 11
REMARK SMILES IDX 11 12 10 13 12 15 9 16 1 17 2 18 3 19 96 20 4 21 7 22 95 23
REMARK SMILES IDX 5 24 6 25 8 26 94 27 20 28 21 29 22 30 23 31 24 32 25 33
REMARK SMILES IDX 89 34 26 35 88 36 27 37 28 38 29 39 82 40 30 41 87 42 81 43
REMARK SMILES IDX 83 44 31 45 86 46 80 47 79 48 32 50 66 51 45 52 65 53 46 54
REMARK SMILES IDX 49 55 64 56 84 57 47 58 48 59 63 61 85 62 50 63 33 64 34 65
REMARK SMILES IDX 43 66 35 67 36 68 42 69 44 70 37 71 38 72 39 73 40 74 41 75
REMARK SMILES IDX 67 76 68 77 77 78 69 79 70 80 76 81 78 82 71 83 72 84 73 85
REMARK SMILES IDX 74 86 75 87 51 88 52 89 61 90 53 91 54 92 60 93 62 94 55 95
REMARK SMILES IDX 56 96 57 97 58 98 59 99
REMARK H PARENT 10 14 83 49 49 60
REMARK Flexibility Score: inf
ROOT
ATOM      1  C   UNL A   1      33.078  29.799  26.958  1.00  0.00     0.274 C 
ENDROOT
BRANCH   1   2
ATOM      2  O   UNL A   1      32.610  30.084  25.625  1.00  0.00    -0.462 OA
BRANCH   2   3
ATOM      3  C   UNL A   1      31.627  29.269  25.178  1.00  0.00     0.306 C 
ATOM      4  O   UNL A   1      30.723  29.623  24.427  1.00  0.00    -0.252 OA
BRANCH   3   5
ATOM      5  C   UNL A   1      31.660  27.862  25.735  1.00  0.00     0.130 C 
BRANCH   5   6
ATOM      6  C   UNL A   1      31.884  26.600  24.853  1.00  0.00    -0.011 C 
ATOM      7  C   UNL A   1      30.511  25.890  24.764  1.00  0.00     0.008 C 
ATOM      8  C   UNL A   1      32.696  25.478  25.536  1.00  0.00     0.008 C 
ATOM      9  C   UNL A   1      30.354  25.109  26.069  1.00  0.00     0.001 C 
ATOM     10  C   UNL A   1      31.770  24.873  26.584  1.00  0.00     0.001 C 
BRANCH   6  11
ATOM     11  C   UNL A   1      32.527  26.961  23.484  1.00  0.00     0.108 C 
BRANCH  11  12
ATOM     12  C   UNL A   1      31.934  26.328  22.230  1.00  0.00     0.224 C 
ATOM     13  N   UNL A   1      32.221  25.072  21.783  1.00  0.00    -0.326 N 
ATOM     14  H   UNL A   1      31.809  24.856  20.917  1.00  0.00     0.169 HD
ATOM     15  O   UNL A   1      31.080  26.948  21.593  1.00  0.00    -0.275 OA
BRANCH  13  16
ATOM     16  C   UNL A   1      32.989  24.030  22.319  1.00  0.00     0.044 A 
ATOM     17  C   UNL A   1      35.985  21.617  25.790  1.00  0.00     0.045 C 
ATOM     18  C   UNL A   1      34.706  21.278  25.086  1.00  0.00    -0.033 A 
ATOM     19  C   UNL A   1      33.941  20.245  25.469  1.00  0.00     0.098 A 
ATOM     20  C   UNL A   1      34.211  22.144  24.011  1.00  0.00     0.021 A 
ATOM     21  C   UNL A   1      32.627  19.947  24.874  1.00  0.00     0.336 A 
ATOM     22  C   UNL A   1      32.909  21.961  23.550  1.00  0.00     0.140 A 
ATOM     23  C   UNL A   1      34.953  23.194  23.464  1.00  0.00     0.014 A 
ATOM     24  O   UNL A   1      32.005  18.947  25.214  1.00  0.00    -0.246 OA
ATOM     25  O   UNL A   1      32.128  20.868  23.971  1.00  0.00    -0.423 OA
ATOM     26  C   UNL A   1      32.293  22.879  22.699  1.00  0.00     0.074 A 
ATOM     27  C   UNL A   1      34.349  24.118  22.603  1.00  0.00     0.027 A 
ENDBRANCH  13  16
ENDBRANCH  11  12
ENDBRANCH   6  11
ENDBRANCH   5   6
ENDBRANCH   3   5
ENDBRANCH   2   3
ENDBRANCH   1   2
BRANCH   1  28
ATOM     28  C   UNL A   1      34.595  29.653  26.991  1.00  0.00     0.275 C 
BRANCH  28  29
ATOM     29  O   UNL A   1      35.040  29.387  28.330  1.00  0.00    -0.458 OA
BRANCH  29  30
ATOM     30  C   UNL A   1      35.943  30.262  28.829  1.00  0.00     0.338 C 
ATOM     31  O   UNL A   1      35.714  31.369  29.297  1.00  0.00    -0.246 OA
BRANCH  30  32
ATOM     32  C   UNL A   1      37.298  29.699  28.726  1.00  0.00     0.060 A 
ATOM     33  C   UNL A   1      37.938  29.191  29.856  1.00  0.00     0.016 A 
ATOM     34  C   UNL A   1      37.980  29.791  27.514  1.00  0.00     0.016 A 
ATOM     35  C   UNL A   1      39.287  28.846  29.793  1.00  0.00     0.010 A 
ATOM     36  C   UNL A   1      39.307  29.361  27.435  1.00  0.00     0.010 A 
ATOM     37  C   UNL A   1      39.985  28.910  28.580  1.00  0.00    -0.014 A 
BRANCH  37  38
ATOM     38  C   UNL A   1      41.413  28.504  28.492  1.00  0.00     0.031 A 
ATOM     39  C   UNL A   1      42.507  29.532  28.617  1.00  0.00     0.074 A 
ATOM     40  C   UNL A   1      41.730  27.218  28.247  1.00  0.00     0.049 A 
ATOM     41  N   UNL A   1      43.775  29.430  28.315  1.00  0.00    -0.248 NA
ATOM     42  C   UNL A   1      42.118  30.853  29.136  1.00  0.00     0.031 C 
ATOM     43  C   UNL A   1      40.775  26.112  28.147  1.00  0.00     0.029 A 
ATOM     44  N   UNL A   1      42.947  26.624  28.017  1.00  0.00    -0.354 N 
ATOM     45  C   UNL A   1      44.327  30.684  28.552  1.00  0.00     0.074 A 
ATOM     46  C   UNL A   1      43.254  31.531  29.030  1.00  0.00     0.031 C 
ATOM     47  C   UNL A   1      41.438  24.978  27.882  1.00  0.00     0.029 A 
ATOM     48  C   UNL A   1      42.852  25.287  27.709  1.00  0.00     0.049 A 
ATOM     49  H   UNL A   1      43.803  27.109  28.067  1.00  0.00     0.167 HD
ATOM     50  C   UNL A   1      45.609  31.087  28.380  1.00  0.00     0.037 A 
ATOM     51  C   UNL A   1      43.784  24.415  27.280  1.00  0.00     0.037 A 
ATOM     52  C   UNL A   1      46.679  30.221  27.952  1.00  0.00     0.049 A 
ATOM     53  C   UNL A   1      45.192  24.890  27.070  1.00  0.00     0.074 A 
ATOM     54  C   UNL A   1      48.017  30.528  27.767  1.00  0.00     0.029 A 
ATOM     55  N   UNL A   1      46.538  28.872  27.654  1.00  0.00    -0.354 N 
ATOM     56  N   UNL A   1      45.689  26.090  27.244  1.00  0.00    -0.248 NA
ATOM     57  C   UNL A   1      46.162  23.895  26.592  1.00  0.00     0.031 C 
ATOM     58  C   UNL A   1      48.677  29.375  27.331  1.00  0.00     0.029 A 
ATOM     59  C   UNL A   1      47.760  28.338  27.280  1.00  0.00     0.049 A 
ATOM     60  H   UNL A   1      45.692  28.370  27.702  1.00  0.00     0.167 HD
ATOM     61  C   UNL A   1      47.035  25.994  26.910  1.00  0.00     0.074 A 
ATOM     62  C   UNL A   1      47.275  24.615  26.535  1.00  0.00     0.031 C 
ATOM     63  C   UNL A   1      47.984  26.961  26.915  1.00  0.00     0.037 A 
BRANCH  50  64
ATOM     64  C   UNL A   1      45.931  32.537  28.624  1.00  0.00     0.058 A 
ATOM     65  C   UNL A   1      46.368  33.003  29.873  1.00  0.00     0.135 A 
ATOM     66  C   UNL A   1      45.854  33.463  27.570  1.00  0.00     0.135 A 
ATOM     67  F   UNL A   1      46.447  32.163  30.917  1.00  0.00    -0.206 F 
ATOM     68  C   UNL A   1      46.699  34.340  30.075  1.00  0.00     0.059 A 
ATOM     69  C   UNL A   1      46.202  34.800  27.744  1.00  0.00     0.059 A 
ATOM     70  F   UNL A   1      45.445  33.071  26.353  1.00  0.00    -0.206 F 
ATOM     71  C   UNL A   1      46.610  35.232  29.004  1.00  0.00     0.060 A 
BRANCH  71  72
ATOM     72  S   UNL A   1      47.054  36.962  29.276  1.00  0.00     0.124 S 
ATOM     73  O   UNL A   1      46.012  37.386  30.207  1.00  0.00    -0.237 OA
ATOM     74  O   UNL A   1      48.398  36.860  29.834  1.00  0.00    -0.237 OA
ATOM     75  O   UNL A   1      46.977  37.547  27.940  1.00  0.00    -0.744 OA
ENDBRANCH  71  72
ENDBRANCH  50  64
BRANCH  51  76
ATOM     76  C   UNL A   1      43.390  23.014  26.983  1.00  0.00     0.058 A 
ATOM     77  C   UNL A   1      43.342  22.545  25.665  1.00  0.00     0.135 A 
ATOM     78  C   UNL A   1      43.105  22.107  28.017  1.00  0.00     0.135 A 
ATOM     79  F   UNL A   1      43.599  23.379  24.646  1.00  0.00    -0.206 F 
ATOM     80  C   UNL A   1      43.025  21.221  25.376  1.00  0.00     0.059 A 
ATOM     81  C   UNL A   1      42.810  20.774  27.754  1.00  0.00     0.059 A 
ATOM     82  F   UNL A   1      43.153  22.507  29.297  1.00  0.00    -0.206 F 
ATOM     83  C   UNL A   1      42.767  20.342  26.430  1.00  0.00     0.060 A 
BRANCH  83  84
ATOM     84  S   UNL A   1      42.431  18.608  26.053  1.00  0.00     0.124 S 
ATOM     85  O   UNL A   1      41.005  18.643  25.756  1.00  0.00    -0.237 OA
ATOM     86  O   UNL A   1      43.315  18.359  24.917  1.00  0.00    -0.237 OA
ATOM     87  O   UNL A   1      42.805  17.920  27.286  1.00  0.00    -0.744 OA
ENDBRANCH  83  84
ENDBRANCH  51  76
BRANCH  63  88
ATOM     88  C   UNL A   1      49.378  26.553  26.537  1.00  0.00     0.058 A 
ATOM     89  C   UNL A   1      50.230  25.914  27.451  1.00  0.00     0.135 A 
ATOM     90  C   UNL A   1      49.852  26.772  25.234  1.00  0.00     0.135 A 
ATOM     91  F   UNL A   1      49.825  25.691  28.711  1.00  0.00    -0.206 F 
ATOM     92  C   UNL A   1      51.516  25.524  27.090  1.00  0.00     0.059 A 
ATOM     93  C   UNL A   1      51.127  26.371  24.847  1.00  0.00     0.059 A 
ATOM     94  F   UNL A   1      49.071  27.374  24.323  1.00  0.00    -0.206 F 
ATOM     95  C   UNL A   1      51.956  25.758  25.785  1.00  0.00     0.060 A 
BRANCH  95  96
ATOM     96  S   UNL A   1      53.615  25.223  25.318  1.00  0.00     0.124 S 
ATOM     97  O   UNL A   1      53.516  23.777  25.487  1.00  0.00    -0.237 OA
ATOM     98  O   UNL A   1      53.722  25.693  23.940  1.00  0.00    -0.237 OA
ATOM     99  O   UNL A   1      54.476  25.910  26.276  1.00  0.00    -0.744 OA
ENDBRANCH  95  96
ENDBRANCH  63  88
ENDBRANCH  37  38
ENDBRANCH  30  32
ENDBRANCH  29  30
ENDBRANCH  28  29
ENDBRANCH   1  28
TORSDOF 18
ENDMDL
MODEL 2
REMARK VINA RESULT:     -12.3      6.527     11.869
REMARK SMILES Cc1cc(=O)oc2cc(NC(=O)CC3(CC(=O)OCCOC(=O)c4ccc(-c5c6nc(c(-c7c(F)cc(S(=O)(=O)[O-])cc7F)c7ccc([nH]7)c(-c7c(F)cc(S(=O)(=O)[O-])cc7F)c7nc(c(-c8c(F)cc(S(=O)(=O)[O-])cc8F)c8ccc5[nH]8)C=C7)C=C6)cc4)CCCC3)ccc12
REMARK SMILES IDX 19 1 18 2 16 3 17 4 15 5 14 6 90 7 93 8 91 9 92 10 13 11
REMARK SMILES IDX 11 12 10 13 12 15 9 16 1 17 2 18 3 19 96 20 4 21 7 22 95 23
REMARK SMILES IDX 5 24 6 25 8 26 94 27 20 28 21 29 22 30 23 31 24 32 25 33
REMARK SMILES IDX 89 34 26 35 88 36 27 37 28 38 29 39 82 40 30 41 87 42 81 43
REMARK SMILES IDX 83 44 31 45 86 46 80 47 79 48 32 50 66 51 45 52 65 53 46 54
REMARK SMILES IDX 49 55 64 56 84 57 47 58 48 59 63 61 85 62 50 63 33 64 34 65
REMARK SMILES IDX 43 66 35 67 36 68 42 69 44 70 37 71 38 72 39 73 40 74 41 75
REMARK SMILES IDX 67 76 68 77 77 78 69 79 70 80 76 81 78 82 71 83 72 84 73 85
REMARK SMILES IDX 74 86 75 87 51 88 52 89 61 90 53 91 54 92 60 93 62 94 55 95
REMARK SMILES IDX 56 96 57 97 58 98 59 99
REMARK H PARENT 10 14 83 49 49 60
REMARK Flexibility Score: inf
ROOT
ATOM      1  C   UNL A   1      37.139  22.458  25.862  1.00  0.00     0.274 C 
ENDROOT
BRANCH   1   2
ATOM      2  O   UNL A   1      36.541  23.520  25.092  1.00  0.00    -0.462 OA
BRANCH   2   3
ATOM      3  C   UNL A   1      36.168  23.174  23.838  1.00  0.00     0.306 C 
ATOM      4  O   UNL A   1      36.871  23.317  22.843  1.00  0.00    -0.252 OA
BRANCH   3   5
ATOM      5  C   UNL A   1      34.753  22.651  23.714  1.00  0.00     0.130 C 
BRANCH   5   6
ATOM      6  C   UNL A   1      33.503  23.456  24.173  1.00  0.00    -0.011 C 
ATOM      7  C   UNL A   1      32.479  23.356  23.016  1.00  0.00     0.008 C 
ATOM      8  C   UNL A   1      33.700  24.988  24.193  1.00  0.00     0.008 C 
ATOM      9  C   UNL A   1      32.918  24.384  21.973  1.00  0.00     0.001 C 
ATOM     10  C   UNL A   1      33.738  25.422  22.733  1.00  0.00     0.001 C 
BRANCH   6  11
ATOM     11  C   UNL A   1      32.981  22.971  25.556  1.00  0.00     0.108 C 
BRANCH  11  12
ATOM     12  C   UNL A   1      31.495  22.660  25.686  1.00  0.00     0.224 C 
ATOM     13  N   UNL A   1      30.510  23.596  25.790  1.00  0.00    -0.326 N 
ATOM     14  H   UNL A   1      29.615  23.217  25.945  1.00  0.00     0.169 HD
ATOM     15  O   UNL A   1      31.122  21.485  25.628  1.00  0.00    -0.275 OA
BRANCH  13  16
ATOM     16  C   UNL A   1      30.524  24.996  25.719  1.00  0.00     0.044 A 
ATOM     17  C   UNL A   1      32.605  29.725  25.330  1.00  0.00     0.045 C 
ATOM     18  C   UNL A   1      31.537  28.980  24.588  1.00  0.00    -0.033 A 
ATOM     19  C   UNL A   1      31.048  29.422  23.420  1.00  0.00     0.098 A 
ATOM     20  C   UNL A   1      31.071  27.681  25.085  1.00  0.00     0.021 A 
ATOM     21  C   UNL A   1      30.080  28.665  22.609  1.00  0.00     0.336 A 
ATOM     22  C   UNL A   1      30.276  26.892  24.256  1.00  0.00     0.140 A 
ATOM     23  C   UNL A   1      31.436  27.156  26.328  1.00  0.00     0.014 A 
ATOM     24  O   UNL A   1      29.613  29.152  21.586  1.00  0.00    -0.246 OA
ATOM     25  O   UNL A   1      29.777  27.383  23.034  1.00  0.00    -0.423 OA
ATOM     26  C   UNL A   1      29.983  25.564  24.563  1.00  0.00     0.074 A 
ATOM     27  C   UNL A   1      31.142  25.826  26.651  1.00  0.00     0.027 A 
ENDBRANCH  13  16
ENDBRANCH  11  12
ENDBRANCH   6  11
ENDBRANCH   5   6
ENDBRANCH   3   5
ENDBRANCH   2   3
ENDBRANCH   1   2
BRANCH   1  28
ATOM     28  C   UNL A   1      38.632  22.693  26.060  1.00  0.00     0.275 C 
BRANCH  28  29
ATOM     29  O   UNL A   1      38.861  23.991  26.629  1.00  0.00    -0.458 OA
BRANCH  29  30
ATOM     30  C   UNL A   1      40.158  24.335  26.792  1.00  0.00     0.338 C 
ATOM     31  O   UNL A   1      41.121  23.891  26.182  1.00  0.00    -0.246 OA
BRANCH  30  32
ATOM     32  C   UNL A   1      40.279  25.350  27.850  1.00  0.00     0.060 A 
ATOM     33  C   UNL A   1      39.241  25.550  28.758  1.00  0.00     0.016 A 
ATOM     34  C   UNL A   1      41.390  26.192  27.857  1.00  0.00     0.016 A 
ATOM     35  C   UNL A   1      39.276  26.641  29.625  1.00  0.00     0.010 A 
ATOM     36  C   UNL A   1      41.462  27.232  28.788  1.00  0.00     0.010 A 
ATOM     37  C   UNL A   1      40.393  27.486  29.664  1.00  0.00    -0.014 A 
BRANCH  37  38
ATOM     38  C   UNL A   1      40.461  28.628  30.614  1.00  0.00     0.031 A 
ATOM     39  C   UNL A   1      41.440  28.611  31.758  1.00  0.00     0.074 A 
ATOM     40  C   UNL A   1      39.606  29.661  30.481  1.00  0.00     0.049 A 
ATOM     41  N   UNL A   1      41.478  29.368  32.825  1.00  0.00    -0.248 NA
ATOM     42  C   UNL A   1      42.507  27.600  31.702  1.00  0.00     0.031 C 
ATOM     43  C   UNL A   1      38.638  29.828  29.395  1.00  0.00     0.029 A 
ATOM     44  N   UNL A   1      39.401  30.761  31.278  1.00  0.00    -0.354 N 
ATOM     45  C   UNL A   1      42.533  28.892  33.594  1.00  0.00     0.074 A 
ATOM     46  C   UNL A   1      43.115  27.782  32.867  1.00  0.00     0.031 C 
ATOM     47  C   UNL A   1      37.946  30.960  29.590  1.00  0.00     0.029 A 
ATOM     48  C   UNL A   1      38.361  31.555  30.854  1.00  0.00     0.049 A 
ATOM     49  H   UNL A   1      39.943  30.960  32.075  1.00  0.00     0.167 HD
ATOM     50  C   UNL A   1      42.970  29.339  34.797  1.00  0.00     0.037 A 
ATOM     51  C   UNL A   1      37.765  32.611  31.440  1.00  0.00     0.037 A 
ATOM     52  C   UNL A   1      42.414  30.477  35.486  1.00  0.00     0.049 A 
ATOM     53  C   UNL A   1      38.246  33.072  32.784  1.00  0.00     0.074 A 
ATOM     54  C   UNL A   1      42.799  31.023  36.699  1.00  0.00     0.029 A 
ATOM     55  N   UNL A   1      41.364  31.254  35.018  1.00  0.00    -0.354 N 
ATOM     56  N   UNL A   1      39.208  32.580  33.527  1.00  0.00    -0.248 NA
ATOM     57  C   UNL A   1      37.552  34.224  33.377  1.00  0.00     0.031 C 
ATOM     58  C   UNL A   1      41.964  32.110  36.977  1.00  0.00     0.029 A 
ATOM     59  C   UNL A   1      41.083  32.267  35.920  1.00  0.00     0.049 A 
ATOM     60  H   UNL A   1      40.888  31.106  34.168  1.00  0.00     0.167 HD
ATOM     61  C   UNL A   1      39.245  33.369  34.670  1.00  0.00     0.074 A 
ATOM     62  C   UNL A   1      38.216  34.378  34.515  1.00  0.00     0.031 C 
ATOM     63  C   UNL A   1      40.059  33.267  35.748  1.00  0.00     0.037 A 
BRANCH  50  64
ATOM     64  C   UNL A   1      44.085  28.584  35.468  1.00  0.00     0.058 A 
ATOM     65  C   UNL A   1      45.433  28.911  35.265  1.00  0.00     0.135 A 
ATOM     66  C   UNL A   1      43.791  27.550  36.374  1.00  0.00     0.135 A 
ATOM     67  F   UNL A   1      45.770  29.881  34.401  1.00  0.00    -0.206 F 
ATOM     68  C   UNL A   1      46.454  28.228  35.922  1.00  0.00     0.059 A 
ATOM     69  C   UNL A   1      44.794  26.869  37.058  1.00  0.00     0.059 A 
ATOM     70  F   UNL A   1      42.517  27.197  36.607  1.00  0.00    -0.206 F 
ATOM     71  C   UNL A   1      46.124  27.207  36.815  1.00  0.00     0.060 A 
BRANCH  71  72
ATOM     72  S   UNL A   1      47.456  26.337  37.670  1.00  0.00     0.124 S 
ATOM     73  O   UNL A   1      46.961  24.964  37.659  1.00  0.00    -0.237 OA
ATOM     74  O   UNL A   1      48.607  26.602  36.814  1.00  0.00    -0.237 OA
ATOM     75  O   UNL A   1      47.495  26.978  38.981  1.00  0.00    -0.744 OA
ENDBRANCH  71  72
ENDBRANCH  50  64
BRANCH  51  76
ATOM     76  C   UNL A   1      36.619  33.270  30.763  1.00  0.00     0.058 A 
ATOM     77  C   UNL A   1      35.315  33.122  31.250  1.00  0.00     0.135 A 
ATOM     78  C   UNL A   1      36.816  34.100  29.647  1.00  0.00     0.135 A 
ATOM     79  F   UNL A   1      35.079  32.332  32.309  1.00  0.00    -0.206 F 
ATOM     80  C   UNL A   1      34.239  33.776  30.657  1.00  0.00     0.059 A 
ATOM     81  C   UNL A   1      35.761  34.783  29.053  1.00  0.00     0.059 A 
ATOM     82  F   UNL A   1      38.050  34.284  29.154  1.00  0.00    -0.206 F 
ATOM     83  C   UNL A   1      34.474  34.609  29.562  1.00  0.00     0.060 A 
BRANCH  83  84
ATOM     84  S   UNL A   1      33.087  35.514  28.843  1.00  0.00     0.124 S 
ATOM     85  O   UNL A   1      33.775  36.541  28.070  1.00  0.00    -0.237 OA
ATOM     86  O   UNL A   1      32.408  34.479  28.068  1.00  0.00    -0.237 OA
ATOM     87  O   UNL A   1      32.354  35.987  30.014  1.00  0.00    -0.744 OA
ENDBRANCH  83  84
ENDBRANCH  51  76
BRANCH  63  88
ATOM     88  C   UNL A   1      39.893  34.295  36.830  1.00  0.00     0.058 A 
ATOM     89  C   UNL A   1      40.500  35.556  36.745  1.00  0.00     0.135 A 
ATOM     90  C   UNL A   1      39.086  34.024  37.947  1.00  0.00     0.135 A 
ATOM     91  F   UNL A   1      41.287  35.859  35.700  1.00  0.00    -0.206 F 
ATOM     92  C   UNL A   1      40.330  36.511  37.743  1.00  0.00     0.059 A 
ATOM     93  C   UNL A   1      38.886  34.971  38.946  1.00  0.00     0.059 A 
ATOM     94  F   UNL A   1      38.479  32.833  38.070  1.00  0.00    -0.206 F 
ATOM     95  C   UNL A   1      39.522  36.208  38.841  1.00  0.00     0.060 A 
BRANCH  95  96
ATOM     96  S   UNL A   1      39.284  37.462  40.117  1.00  0.00     0.124 S 
ATOM     97  O   UNL A   1      38.938  36.642  41.274  1.00  0.00    -0.237 OA
ATOM     98  O   UNL A   1      40.590  38.112  40.169  1.00  0.00    -0.237 OA
ATOM     99  O   UNL A   1      38.202  38.285  39.586  1.00  0.00    -0.744 OA
ENDBRANCH  95  96
ENDBRANCH  63  88
ENDBRANCH  37  38
ENDBRANCH  30  32
ENDBRANCH  29  30
ENDBRANCH  28  29
ENDBRANCH   1  28
TORSDOF 18
ENDMDL
MODEL 3
REMARK VINA RESULT:     -12.0      6.428     11.834
REMARK SMILES Cc1cc(=O)oc2cc(NC(=O)CC3(CC(=O)OCCOC(=O)c4ccc(-c5c6nc(c(-c7c(F)cc(S(=O)(=O)[O-])cc7F)c7ccc([nH]7)c(-c7c(F)cc(S(=O)(=O)[O-])cc7F)c7nc(c(-c8c(F)cc(S(=O)(=O)[O-])cc8F)c8ccc5[nH]8)C=C7)C=C6)cc4)CCCC3)ccc12
REMARK SMILES IDX 19 1 18 2 16 3 17 4 15 5 14 6 90 7 93 8 91 9 92 10 13 11
REMARK SMILES IDX 11 12 10 13 12 15 9 16 1 17 2 18 3 19 96 20 4 21 7 22 95 23
REMARK SMILES IDX 5 24 6 25 8 26 94 27 20 28 21 29 22 30 23 31 24 32 25 33
REMARK SMILES IDX 89 34 26 35 88 36 27 37 28 38 29 39 82 40 30 41 87 42 81 43
REMARK SMILES IDX 83 44 31 45 86 46 80 47 79 48 32 50 66 51 45 52 65 53 46 54
REMARK SMILES IDX 49 55 64 56 84 57 47 58 48 59 63 61 85 62 50 63 33 64 34 65
REMARK SMILES IDX 43 66 35 67 36 68 42 69 44 70 37 71 38 72 39 73 40 74 41 75
REMARK SMILES IDX 67 76 68 77 77 78 69 79 70 80 76 81 78 82 71 83 72 84 73 85
REMARK SMILES IDX 74 86 75 87 51 88 52 89 61 90 53 91 54 92 60 93 62 94 55 95
REMARK SMILES IDX 56 96 57 97 58 98 59 99
REMARK H PARENT 10 14 83 49 49 60
REMARK Flexibility Score: inf
ROOT
ATOM      1  C   UNL A   1      38.021  21.817  25.535  1.00  0.00     0.274 C 
ENDROOT
BRANCH   1   2
ATOM      2  O   UNL A   1      37.293  22.955  25.034  1.00  0.00    -0.462 OA
BRANCH   2   3
ATOM      3  C   UNL A   1      35.991  23.006  25.398  1.00  0.00     0.306 C 
ATOM      4  O   UNL A   1      35.580  23.542  26.423  1.00  0.00    -0.252 OA
BRANCH   3   5
ATOM      5  C   UNL A   1      35.040  22.273  24.477  1.00  0.00     0.130 C 
BRANCH   5   6
ATOM      6  C   UNL A   1      33.857  22.968  23.744  1.00  0.00    -0.011 C 
ATOM      7  C   UNL A   1      32.733  23.126  24.797  1.00  0.00     0.008 C 
ATOM      8  C   UNL A   1      33.116  22.069  22.729  1.00  0.00     0.008 C 
ATOM      9  C   UNL A   1      32.045  21.764  24.889  1.00  0.00     0.001 C 
ATOM     10  C   UNL A   1      32.324  21.068  23.561  1.00  0.00     0.001 C 
BRANCH   6  11
ATOM     11  C   UNL A   1      34.301  24.290  23.055  1.00  0.00     0.108 C 
BRANCH  11  12
ATOM     12  C   UNL A   1      33.232  25.126  22.363  1.00  0.00     0.224 C 
ATOM     13  N   UNL A   1      32.575  26.175  22.935  1.00  0.00    -0.326 N 
ATOM     14  H   UNL A   1      31.862  26.552  22.371  1.00  0.00     0.169 HD
ATOM     15  O   UNL A   1      32.970  24.903  21.179  1.00  0.00    -0.275 OA
BRANCH  13  16
ATOM     16  C   UNL A   1      32.718  26.823  24.169  1.00  0.00     0.044 A 
ATOM     17  C   UNL A   1      35.100  29.580  27.853  1.00  0.00     0.045 C 
ATOM     18  C   UNL A   1      33.792  29.696  27.130  1.00  0.00    -0.033 A 
ATOM     19  C   UNL A   1      33.043  30.807  27.198  1.00  0.00     0.098 A 
ATOM     20  C   UNL A   1      33.349  28.616  26.242  1.00  0.00     0.021 A 
ATOM     21  C   UNL A   1      31.810  31.000  26.417  1.00  0.00     0.336 A 
ATOM     22  C   UNL A   1      32.272  28.850  25.389  1.00  0.00     0.140 A 
ATOM     23  C   UNL A   1      33.991  27.379  26.153  1.00  0.00     0.014 A 
ATOM     24  O   UNL A   1      31.128  32.006  26.574  1.00  0.00    -0.246 OA
ATOM     25  O   UNL A   1      31.504  30.027  25.482  1.00  0.00    -0.423 OA
ATOM     26  C   UNL A   1      31.937  27.964  24.365  1.00  0.00     0.074 A 
ATOM     27  C   UNL A   1      33.660  26.477  25.135  1.00  0.00     0.027 A 
ENDBRANCH  13  16
ENDBRANCH  11  12
ENDBRANCH   6  11
ENDBRANCH   5   6
ENDBRANCH   3   5
ENDBRANCH   2   3
ENDBRANCH   1   2
BRANCH   1  28
ATOM     28  C   UNL A   1      39.200  22.252  26.399  1.00  0.00     0.275 C 
BRANCH  28  29
ATOM     29  O   UNL A   1      39.280  23.685  26.444  1.00  0.00    -0.458 OA
BRANCH  29  30
ATOM     30  C   UNL A   1      40.523  24.193  26.603  1.00  0.00     0.338 C 
ATOM     31  O   UNL A   1      41.561  23.770  26.112  1.00  0.00    -0.246 OA
BRANCH  30  32
ATOM     32  C   UNL A   1      40.476  25.367  27.488  1.00  0.00     0.060 A 
ATOM     33  C   UNL A   1      41.414  26.390  27.355  1.00  0.00     0.016 A 
ATOM     34  C   UNL A   1      39.560  25.387  28.539  1.00  0.00     0.016 A 
ATOM     35  C   UNL A   1      41.488  27.395  28.318  1.00  0.00     0.010 A 
ATOM     36  C   UNL A   1      39.581  26.444  29.453  1.00  0.00     0.010 A 
ATOM     37  C   UNL A   1      40.563  27.445  29.369  1.00  0.00    -0.014 A 
BRANCH  37  38
ATOM     38  C   UNL A   1      40.605  28.536  30.380  1.00  0.00     0.031 A 
ATOM     39  C   UNL A   1      41.584  28.479  31.523  1.00  0.00     0.074 A 
ATOM     40  C   UNL A   1      39.728  29.556  30.300  1.00  0.00     0.049 A 
ATOM     41  N   UNL A   1      41.604  29.178  32.629  1.00  0.00    -0.248 NA
ATOM     42  C   UNL A   1      42.673  27.496  31.415  1.00  0.00     0.031 C 
ATOM     43  C   UNL A   1      38.757  29.759  29.223  1.00  0.00     0.029 A 
ATOM     44  N   UNL A   1      39.498  30.607  31.155  1.00  0.00    -0.354 N 
ATOM     45  C   UNL A   1      42.669  28.685  33.374  1.00  0.00     0.074 A 
ATOM     46  C   UNL A   1      43.276  27.628  32.589  1.00  0.00     0.031 C 
ATOM     47  C   UNL A   1      38.041  30.864  29.477  1.00  0.00     0.029 A 
ATOM     48  C   UNL A   1      38.442  31.400  30.772  1.00  0.00     0.049 A 
ATOM     49  H   UNL A   1      40.036  30.775  31.963  1.00  0.00     0.167 HD
ATOM     50  C   UNL A   1      43.095  29.077  34.599  1.00  0.00     0.037 A 
ATOM     51  C   UNL A   1      37.822  32.409  31.412  1.00  0.00     0.037 A 
ATOM     52  C   UNL A   1      42.514  30.164  35.347  1.00  0.00     0.049 A 
ATOM     53  C   UNL A   1      38.292  32.809  32.780  1.00  0.00     0.074 A 
ATOM     54  C   UNL A   1      42.885  30.652  36.589  1.00  0.00     0.029 A 
ATOM     55  N   UNL A   1      41.447  30.941  34.919  1.00  0.00    -0.354 N 
ATOM     56  N   UNL A   1      39.264  32.298  33.497  1.00  0.00    -0.248 NA
ATOM     57  C   UNL A   1      37.573  33.911  33.433  1.00  0.00     0.031 C 
ATOM     58  C   UNL A   1      42.027  31.704  36.923  1.00  0.00     0.029 A 
ATOM     59  C   UNL A   1      41.143  31.898  35.874  1.00  0.00     0.049 A 
ATOM     60  H   UNL A   1      40.976  30.829  34.062  1.00  0.00     0.167 HD
ATOM     61  C   UNL A   1      39.283  33.026  34.681  1.00  0.00     0.074 A 
ATOM     62  C   UNL A   1      38.232  34.019  34.578  1.00  0.00     0.031 C 
ATOM     63  C   UNL A   1      40.098  32.883  35.754  1.00  0.00     0.037 A 
BRANCH  50  64
ATOM     64  C   UNL A   1      44.225  28.311  35.231  1.00  0.00     0.058 A 
ATOM     65  C   UNL A   1      45.564  28.697  35.076  1.00  0.00     0.135 A 
ATOM     66  C   UNL A   1      43.954  27.203  36.053  1.00  0.00     0.135 A 
ATOM     67  F   UNL A   1      45.880  29.739  34.291  1.00  0.00    -0.206 F 
ATOM     68  C   UNL A   1      46.599  28.002  35.697  1.00  0.00     0.059 A 
ATOM     69  C   UNL A   1      44.971  26.507  36.702  1.00  0.00     0.059 A 
ATOM     70  F   UNL A   1      42.690  26.792  36.238  1.00  0.00    -0.206 F 
ATOM     71  C   UNL A   1      46.292  26.906  36.507  1.00  0.00     0.060 A 
BRANCH  71  72
ATOM     72  S   UNL A   1      47.641  26.020  37.317  1.00  0.00     0.124 S 
ATOM     73  O   UNL A   1      47.892  26.870  38.477  1.00  0.00    -0.237 OA
ATOM     74  O   UNL A   1      47.039  24.722  37.603  1.00  0.00    -0.237 OA
ATOM     75  O   UNL A   1      48.695  26.009  36.307  1.00  0.00    -0.744 OA
ENDBRANCH  71  72
ENDBRANCH  50  64
BRANCH  51  76
ATOM     76  C   UNL A   1      36.663  33.079  30.769  1.00  0.00     0.058 A 
ATOM     77  C   UNL A   1      35.356  32.832  31.208  1.00  0.00     0.135 A 
ATOM     78  C   UNL A   1      36.846  34.015  29.739  1.00  0.00     0.135 A 
ATOM     79  F   UNL A   1      35.134  31.939  32.185  1.00  0.00    -0.206 F 
ATOM     80  C   UNL A   1      34.265  33.491  30.650  1.00  0.00     0.059 A 
ATOM     81  C   UNL A   1      35.774  34.704  29.182  1.00  0.00     0.059 A 
ATOM     82  F   UNL A   1      38.081  34.295  29.295  1.00  0.00    -0.206 F 
ATOM     83  C   UNL A   1      34.486  34.430  29.641  1.00  0.00     0.060 A 
BRANCH  83  84
ATOM     84  S   UNL A   1      33.075  35.338  28.973  1.00  0.00     0.124 S 
ATOM     85  O   UNL A   1      33.719  36.535  28.448  1.00  0.00    -0.237 OA
ATOM     86  O   UNL A   1      32.550  34.406  27.978  1.00  0.00    -0.237 OA
ATOM     87  O   UNL A   1      32.222  35.536  30.141  1.00  0.00    -0.744 OA
ENDBRANCH  83  84
ENDBRANCH  51  76
BRANCH  63  88
ATOM     88  C   UNL A   1      39.908  33.848  36.889  1.00  0.00     0.058 A 
ATOM     89  C   UNL A   1      40.594  35.071  36.936  1.00  0.00     0.135 A 
ATOM     90  C   UNL A   1      39.003  33.558  37.922  1.00  0.00     0.135 A 
ATOM     91  F   UNL A   1      41.476  35.390  35.976  1.00  0.00    -0.206 F 
ATOM     92  C   UNL A   1      40.402  35.968  37.982  1.00  0.00     0.059 A 
ATOM     93  C   UNL A   1      38.782  34.449  38.966  1.00  0.00     0.059 A 
ATOM     94  F   UNL A   1      38.319  32.403  37.917  1.00  0.00    -0.206 F 
ATOM     95  C   UNL A   1      39.495  35.647  38.994  1.00  0.00     0.060 A 
BRANCH  95  96
ATOM     96  S   UNL A   1      39.232  36.829  40.333  1.00  0.00     0.124 S 
ATOM     97  O   UNL A   1      38.522  37.901  39.644  1.00  0.00    -0.237 OA
ATOM     98  O   UNL A   1      38.441  36.056  41.286  1.00  0.00    -0.237 OA
ATOM     99  O   UNL A   1      40.586  37.153  40.770  1.00  0.00    -0.744 OA
ENDBRANCH  95  96
ENDBRANCH  63  88
ENDBRANCH  37  38
ENDBRANCH  30  32
ENDBRANCH  29  30
ENDBRANCH  28  29
ENDBRANCH   1  28
TORSDOF 18
ENDMDL
