MODEL 1
REMARK VINA RESULT:     -12.1      0.000      0.000
REMARK SMILES O=C(CNC(=O)c1cccs1)N[C@@H]1C=C[C@H](C(=O)OCCOC(=O)c2ccc(-c3c4nc(c(-c5c(F)cc(S(=O)(=O)[O-])cc5F)c5ccc([nH]5)c(-c5c(F)cc(S(=O)(=O)[O-])cc5F)c5nc(c(-c6c(F)cc(S(=O)(=O)[O-])cc6F)c6ccc3[nH]6)C=C5)C=C4)cc2)C1
REMARK SMILES IDX 20 1 19 2 17 3 18 4 16 5 13 6 14 7 91 8 15 9 12 10 1 11 2 12
REMARK SMILES IDX 3 14 4 15 5 16 6 18 7 19 8 20 11 21 9 22 10 23 21 24 22 25
REMARK SMILES IDX 23 26 24 27 25 28 26 29 90 30 27 31 89 32 28 33 29 34 30 35
REMARK SMILES IDX 83 36 31 37 88 38 82 39 84 40 32 41 87 42 81 43 80 44 33 46
REMARK SMILES IDX 67 47 46 48 66 49 47 50 50 51 65 52 85 53 48 54 49 55 64 57
REMARK SMILES IDX 86 58 51 59 34 60 35 61 44 62 36 63 37 64 43 65 45 66 38 67
REMARK SMILES IDX 39 68 40 69 41 70 42 71 68 72 69 73 78 74 70 75 71 76 77 77
REMARK SMILES IDX 79 78 72 79 73 80 74 81 75 82 76 83 52 84 53 85 62 86 54 87
REMARK SMILES IDX 55 88 61 89 63 90 56 91 57 92 58 93 59 94 60 95
REMARK H PARENT 12 13 4 17 84 45 50 56
REMARK Flexibility Score: inf
ROOT
ATOM      1  C   UNL A   1      33.181  29.864  26.205  1.00  0.00     0.274 C 
ENDROOT
BRANCH   1   2
ATOM      2  O   UNL A   1      33.163  28.418  26.227  1.00  0.00    -0.462 OA
BRANCH   2   3
ATOM      3  C   UNL A   1      32.747  27.799  25.079  1.00  0.00     0.312 C 
ATOM      4  O   UNL A   1      33.433  27.687  24.069  1.00  0.00    -0.252 OA
BRANCH   3   5
ATOM      5  C   UNL A   1      31.278  27.389  25.181  1.00  0.00     0.124 C 
ATOM      6  C   UNL A   1      30.586  25.085  25.859  1.00  0.00     0.106 C 
ATOM      7  C   UNL A   1      30.388  25.350  24.390  1.00  0.00    -0.006 C 
ATOM      8  C   UNL A   1      30.937  26.497  26.383  1.00  0.00     0.048 C 
ATOM      9  C   UNL A   1      30.809  26.566  24.020  1.00  0.00    -0.014 C 
BRANCH   6  10
ATOM     10  N   UNL A   1      31.592  24.027  25.887  1.00  0.00    -0.348 N 
ATOM     11  O   UNL A   1      30.769  23.121  27.576  1.00  0.00    -0.273 OA
ATOM     12  C   UNL A   1      31.907  23.118  26.995  1.00  0.00     0.239 C 
ATOM     13  H   UNL A   1      32.122  23.911  25.066  1.00  0.00     0.164 HD
BRANCH  12  14
ATOM     14  C   UNL A   1      33.776  22.124  27.550  1.00  0.00     0.216 C 
BRANCH  14  15
ATOM     15  N   UNL A   1      35.064  21.545  26.744  1.00  0.00    -0.342 N 
ATOM     16  C   UNL A   1      35.222  21.145  25.434  1.00  0.00     0.261 C 
ATOM     17  H   UNL A   1      35.879  21.465  27.290  1.00  0.00     0.164 HD
ATOM     18  O   UNL A   1      36.033  20.235  25.248  1.00  0.00    -0.268 OA
BRANCH  16  19
ATOM     19  C   UNL A   1      34.520  21.830  24.371  1.00  0.00     0.092 A 
ATOM     20  C   UNL A   1      33.305  21.524  23.787  1.00  0.00     0.025 A 
ATOM     21  S   UNL A   1      35.129  23.322  23.785  1.00  0.00    -0.139 S 
ATOM     22  C   UNL A   1      32.905  22.492  22.820  1.00  0.00     0.012 A 
ATOM     23  C   UNL A   1      33.831  23.502  22.687  1.00  0.00     0.065 A 
ENDBRANCH  16  19
ENDBRANCH  14  15
ENDBRANCH  12  14
ENDBRANCH   6  10
ENDBRANCH   3   5
ENDBRANCH   2   3
ENDBRANCH   1   2
BRANCH   1  24
ATOM     24  C   UNL A   1      33.435  30.432  27.601  1.00  0.00     0.275 C 
BRANCH  24  25
ATOM     25  O   UNL A   1      34.707  31.092  27.593  1.00  0.00    -0.458 OA
BRANCH  25  26
ATOM     26  C   UNL A   1      35.241  31.368  28.803  1.00  0.00     0.338 C 
ATOM     27  O   UNL A   1      34.708  31.914  29.749  1.00  0.00    -0.246 OA
BRANCH  26  28
ATOM     28  C   UNL A   1      36.604  30.824  28.801  1.00  0.00     0.060 A 
ATOM     29  C   UNL A   1      37.675  31.112  30.215  1.00  0.00     0.016 A 
ATOM     30  C   UNL A   1      37.251  30.010  27.340  1.00  0.00     0.016 A 
ATOM     31  C   UNL A   1      39.384  30.568  30.197  1.00  0.00     0.010 A 
ATOM     32  C   UNL A   1      39.007  29.538  27.280  1.00  0.00     0.010 A 
ATOM     33  C   UNL A   1      40.103  29.783  28.706  1.00  0.00    -0.014 A 
BRANCH  33  34
ATOM     34  C   UNL A   1      41.510  29.185  28.714  1.00  0.00     0.031 A 
ATOM     35  C   UNL A   1      42.720  30.098  28.859  1.00  0.00     0.074 A 
ATOM     36  C   UNL A   1      41.773  27.880  28.444  1.00  0.00     0.049 A 
ATOM     37  N   UNL A   1      43.923  29.966  28.356  1.00  0.00    -0.248 NA
ATOM     38  C   UNL A   1      42.525  31.365  29.575  1.00  0.00     0.031 C 
ATOM     39  C   UNL A   1      40.807  26.821  28.172  1.00  0.00     0.029 A 
ATOM     40  N   UNL A   1      42.982  27.216  28.294  1.00  0.00    -0.354 N 
ATOM     41  C   UNL A   1      44.540  31.207  28.505  1.00  0.00     0.074 A 
ATOM     42  C   UNL A   1      43.580  32.062  29.170  1.00  0.00     0.031 C 
ATOM     43  C   UNL A   1      41.422  25.649  27.984  1.00  0.00     0.029 A 
ATOM     44  C   UNL A   1      42.848  25.889  27.929  1.00  0.00     0.049 A 
ATOM     45  H   UNL A   1      43.855  27.650  28.434  1.00  0.00     0.167 HD
ATOM     46  C   UNL A   1      45.788  31.593  28.131  1.00  0.00     0.037 A 
ATOM     47  C   UNL A   1      43.722  24.968  27.476  1.00  0.00     0.037 A 
ATOM     48  C   UNL A   1      46.810  30.668  27.699  1.00  0.00     0.049 A 
ATOM     49  C   UNL A   1      45.147  25.362  27.248  1.00  0.00     0.074 A 
ATOM     50  C   UNL A   1      48.156  30.916  27.481  1.00  0.00     0.029 A 
ATOM     51  N   UNL A   1      46.618  29.312  27.484  1.00  0.00    -0.354 N 
ATOM     52  N   UNL A   1      45.686  26.552  27.318  1.00  0.00    -0.248 NA
ATOM     53  C   UNL A   1      46.078  24.296  26.855  1.00  0.00     0.031 C 
ATOM     54  C   UNL A   1      48.778  29.713  27.135  1.00  0.00     0.029 A 
ATOM     55  C   UNL A   1      47.827  28.707  27.176  1.00  0.00     0.049 A 
ATOM     56  H   UNL A   1      45.753  28.848  27.542  1.00  0.00     0.167 HD
ATOM     57  C   UNL A   1      47.029  26.372  27.015  1.00  0.00     0.074 A 
ATOM     58  C   UNL A   1      47.220  24.960  26.761  1.00  0.00     0.031 C 
ATOM     59  C   UNL A   1      48.015  27.298  26.957  1.00  0.00     0.037 A 
BRANCH  46  60
ATOM     60  C   UNL A   1      46.168  33.056  28.207  1.00  0.00     0.058 A 
ATOM     61  C   UNL A   1      45.964  33.949  27.144  1.00  0.00     0.135 A 
ATOM     62  C   UNL A   1      46.656  33.598  29.414  1.00  0.00     0.135 A 
ATOM     63  F   UNL A   1      45.486  33.507  25.970  1.00  0.00    -0.206 F 
ATOM     64  C   UNL A   1      46.266  35.304  27.255  1.00  0.00     0.059 A 
ATOM     65  C   UNL A   1      46.922  34.958  29.562  1.00  0.00     0.059 A 
ATOM     66  F   UNL A   1      46.850  32.807  30.481  1.00  0.00    -0.206 F 
ATOM     67  C   UNL A   1      46.738  35.803  28.470  1.00  0.00     0.060 A 
BRANCH  67  68
ATOM     68  S   UNL A   1      47.062  37.574  28.607  1.00  0.00     0.124 S 
ATOM     69  O   UNL A   1      45.712  38.127  28.522  1.00  0.00    -0.237 OA
ATOM     70  O   UNL A   1      47.702  37.674  29.915  1.00  0.00    -0.237 OA
ATOM     71  O   UNL A   1      47.928  37.855  27.467  1.00  0.00    -0.744 OA
ENDBRANCH  67  68
ENDBRANCH  46  60
BRANCH  47  72
ATOM     72  C   UNL A   1      43.267  23.584  27.150  1.00  0.00     0.058 A 
ATOM     73  C   UNL A   1      43.049  22.646  28.170  1.00  0.00     0.135 A 
ATOM     74  C   UNL A   1      43.038  23.170  25.828  1.00  0.00     0.135 A 
ATOM     75  F   UNL A   1      43.265  22.989  29.449  1.00  0.00    -0.206 F 
ATOM     76  C   UNL A   1      42.644  21.345  27.893  1.00  0.00     0.059 A 
ATOM     77  C   UNL A   1      42.598  21.884  25.527  1.00  0.00     0.059 A 
ATOM     78  F   UNL A   1      43.208  24.030  24.814  1.00  0.00    -0.206 F 
ATOM     79  C   UNL A   1      42.418  20.974  26.567  1.00  0.00     0.060 A 
BRANCH  79  80
ATOM     80  S   UNL A   1      41.852  19.294  26.222  1.00  0.00     0.124 S 
ATOM     81  O   UNL A   1      42.187  18.612  27.466  1.00  0.00    -0.237 OA
ATOM     82  O   UNL A   1      40.430  19.496  25.965  1.00  0.00    -0.237 OA
ATOM     83  O   UNL A   1      42.643  18.908  25.057  1.00  0.00    -0.744 OA
ENDBRANCH  79  80
ENDBRANCH  47  72
BRANCH  59  84
ATOM     84  C   UNL A   1      49.407  26.801  26.702  1.00  0.00     0.058 A 
ATOM     85  C   UNL A   1      49.909  26.614  25.406  1.00  0.00     0.135 A 
ATOM     86  C   UNL A   1      50.260  26.531  27.785  1.00  0.00     0.135 A 
ATOM     87  F   UNL A   1      49.126  26.840  24.340  1.00  0.00    -0.206 F 
ATOM     88  C   UNL A   1      51.204  26.157  25.191  1.00  0.00     0.059 A 
ATOM     89  C   UNL A   1      51.568  26.099  27.593  1.00  0.00     0.059 A 
ATOM     90  F   UNL A   1      49.826  26.694  29.046  1.00  0.00    -0.206 F 
ATOM     91  C   UNL A   1      52.027  25.903  26.292  1.00  0.00     0.060 A 
BRANCH  91  92
ATOM     92  S   UNL A   1      53.715  25.336  26.000  1.00  0.00     0.124 S 
ATOM     93  O   UNL A   1      54.161  26.265  24.966  1.00  0.00    -0.237 OA
ATOM     94  O   UNL A   1      54.332  25.504  27.312  1.00  0.00    -0.237 OA
ATOM     95  O   UNL A   1      53.539  23.953  25.568  1.00  0.00    -0.744 OA
ENDBRANCH  91  92
ENDBRANCH  59  84
ENDBRANCH  33  34
ENDBRANCH  26  28
ENDBRANCH  25  26
ENDBRANCH  24  25
ENDBRANCH   1  24
TORSDOF 18
ENDMDL
MODEL 2
REMARK VINA RESULT:     -11.5      1.587      2.496
REMARK SMILES O=C(CNC(=O)c1cccs1)N[C@@H]1C=C[C@H](C(=O)OCCOC(=O)c2ccc(-c3c4nc(c(-c5c(F)cc(S(=O)(=O)[O-])cc5F)c5ccc([nH]5)c(-c5c(F)cc(S(=O)(=O)[O-])cc5F)c5nc(c(-c6c(F)cc(S(=O)(=O)[O-])cc6F)c6ccc3[nH]6)C=C5)C=C4)cc2)C1
REMARK SMILES IDX 20 1 19 2 17 3 18 4 16 5 13 6 14 7 91 8 15 9 12 10 1 11 2 12
REMARK SMILES IDX 3 14 4 15 5 16 6 18 7 19 8 20 11 21 9 22 10 23 21 24 22 25
REMARK SMILES IDX 23 26 24 27 25 28 26 29 90 30 27 31 89 32 28 33 29 34 30 35
REMARK SMILES IDX 83 36 31 37 88 38 82 39 84 40 32 41 87 42 81 43 80 44 33 46
REMARK SMILES IDX 67 47 46 48 66 49 47 50 50 51 65 52 85 53 48 54 49 55 64 57
REMARK SMILES IDX 86 58 51 59 34 60 35 61 44 62 36 63 37 64 43 65 45 66 38 67
REMARK SMILES IDX 39 68 40 69 41 70 42 71 68 72 69 73 78 74 70 75 71 76 77 77
REMARK SMILES IDX 79 78 72 79 73 80 74 81 75 82 76 83 52 84 53 85 62 86 54 87
REMARK SMILES IDX 55 88 61 89 63 90 56 91 57 92 58 93 59 94 60 95
REMARK H PARENT 12 13 4 17 84 45 50 56
REMARK Flexibility Score: inf
ROOT
ATOM      1  C   UNL A   1      32.240  29.797  25.647  1.00  0.00     0.274 C 
ENDROOT
BRANCH   1   2
ATOM      2  O   UNL A   1      31.043  29.321  24.989  1.00  0.00    -0.462 OA
BRANCH   2   3
ATOM      3  C   UNL A   1      31.090  28.048  24.488  1.00  0.00     0.312 C 
ATOM      4  O   UNL A   1      30.886  27.038  25.151  1.00  0.00    -0.252 OA
BRANCH   3   5
ATOM      5  C   UNL A   1      31.560  28.052  23.034  1.00  0.00     0.124 C 
ATOM      6  C   UNL A   1      32.261  25.959  21.859  1.00  0.00     0.106 C 
ATOM      7  C   UNL A   1      33.421  26.851  22.215  1.00  0.00    -0.006 C 
ATOM      8  C   UNL A   1      31.058  26.873  22.188  1.00  0.00     0.048 C 
ATOM      9  C   UNL A   1      33.049  27.945  22.890  1.00  0.00    -0.014 C 
BRANCH   6  10
ATOM     10  N   UNL A   1      32.497  24.754  22.649  1.00  0.00    -0.348 N 
ATOM     11  O   UNL A   1      33.301  23.706  21.036  1.00  0.00    -0.273 OA
ATOM     12  C   UNL A   1      32.774  23.400  22.158  1.00  0.00     0.239 C 
ATOM     13  H   UNL A   1      32.465  24.864  23.627  1.00  0.00     0.164 HD
BRANCH  12  14
ATOM     14  C   UNL A   1      32.339  21.439  23.030  1.00  0.00     0.216 C 
BRANCH  14  15
ATOM     15  N   UNL A   1      33.120  20.413  24.021  1.00  0.00    -0.342 N 
ATOM     16  C   UNL A   1      34.353  20.491  24.635  1.00  0.00     0.261 C 
ATOM     17  H   UNL A   1      32.623  19.587  24.218  1.00  0.00     0.164 HD
ATOM     18  O   UNL A   1      34.933  19.417  24.802  1.00  0.00    -0.268 OA
BRANCH  16  19
ATOM     19  C   UNL A   1      34.855  21.763  25.107  1.00  0.00     0.092 A 
ATOM     20  C   UNL A   1      34.696  22.361  26.343  1.00  0.00     0.025 A 
ATOM     21  S   UNL A   1      35.926  22.664  24.116  1.00  0.00    -0.139 S 
ATOM     22  C   UNL A   1      35.415  23.586  26.452  1.00  0.00     0.012 A 
ATOM     23  C   UNL A   1      36.092  23.893  25.293  1.00  0.00     0.065 A 
ENDBRANCH  16  19
ENDBRANCH  14  15
ENDBRANCH  12  14
ENDBRANCH   6  10
ENDBRANCH   3   5
ENDBRANCH   2   3
ENDBRANCH   1   2
BRANCH   1  24
ATOM     24  C   UNL A   1      32.113  29.690  27.166  1.00  0.00     0.275 C 
BRANCH  24  25
ATOM     25  O   UNL A   1      33.416  29.448  27.710  1.00  0.00    -0.458 OA
BRANCH  25  26
ATOM     26  C   UNL A   1      34.096  30.536  28.132  1.00  0.00     0.338 C 
ATOM     27  O   UNL A   1      33.660  31.644  28.377  1.00  0.00    -0.246 OA
BRANCH  26  28
ATOM     28  C   UNL A   1      35.494  30.123  28.309  1.00  0.00     0.060 A 
ATOM     29  C   UNL A   1      36.135  29.853  29.965  1.00  0.00     0.016 A 
ATOM     30  C   UNL A   1      36.597  30.038  26.897  1.00  0.00     0.016 A 
ATOM     31  C   UNL A   1      37.867  29.467  30.226  1.00  0.00     0.010 A 
ATOM     32  C   UNL A   1      38.371  29.738  27.163  1.00  0.00     0.010 A 
ATOM     33  C   UNL A   1      39.041  29.425  28.821  1.00  0.00    -0.014 A 
BRANCH  33  34
ATOM     34  C   UNL A   1      40.487  28.962  28.998  1.00  0.00     0.031 A 
ATOM     35  C   UNL A   1      41.571  29.977  29.340  1.00  0.00     0.074 A 
ATOM     36  C   UNL A   1      40.913  27.704  28.717  1.00  0.00     0.049 A 
ATOM     37  N   UNL A   1      42.837  29.983  28.999  1.00  0.00    -0.248 NA
ATOM     38  C   UNL A   1      41.158  31.182  30.069  1.00  0.00     0.031 C 
ATOM     39  C   UNL A   1      40.102  26.572  28.278  1.00  0.00     0.029 A 
ATOM     40  N   UNL A   1      42.192  27.165  28.709  1.00  0.00    -0.354 N 
ATOM     41  C   UNL A   1      43.301  31.269  29.277  1.00  0.00     0.074 A 
ATOM     42  C   UNL A   1      42.182  31.994  29.837  1.00  0.00     0.031 C 
ATOM     43  C   UNL A   1      40.850  25.474  28.132  1.00  0.00     0.029 A 
ATOM     44  C   UNL A   1      42.240  25.850  28.280  1.00  0.00     0.049 A 
ATOM     45  H   UNL A   1      42.991  27.670  28.982  1.00  0.00     0.167 HD
ATOM     46  C   UNL A   1      44.544  31.788  29.091  1.00  0.00     0.037 A 
ATOM     47  C   UNL A   1      43.254  25.040  27.915  1.00  0.00     0.037 A 
ATOM     48  C   UNL A   1      45.700  30.986  28.767  1.00  0.00     0.049 A 
ATOM     49  C   UNL A   1      44.650  25.577  27.898  1.00  0.00     0.074 A 
ATOM     50  C   UNL A   1      47.032  31.371  28.744  1.00  0.00     0.029 A 
ATOM     51  N   UNL A   1      45.675  29.631  28.478  1.00  0.00    -0.354 N 
ATOM     52  N   UNL A   1      45.053  26.807  28.085  1.00  0.00    -0.248 NA
ATOM     53  C   UNL A   1      45.726  24.624  27.596  1.00  0.00     0.031 C 
ATOM     54  C   UNL A   1      47.811  30.250  28.441  1.00  0.00     0.029 A 
ATOM     55  C   UNL A   1      46.968  29.159  28.315  1.00  0.00     0.049 A 
ATOM     56  H   UNL A   1      44.860  29.085  28.401  1.00  0.00     0.167 HD
ATOM     57  C   UNL A   1      46.436  26.770  27.961  1.00  0.00     0.074 A 
ATOM     58  C   UNL A   1      46.798  25.397  27.683  1.00  0.00     0.031 C 
ATOM     59  C   UNL A   1      47.323  27.786  28.071  1.00  0.00     0.037 A 
BRANCH  46  60
ATOM     60  C   UNL A   1      44.762  33.275  29.273  1.00  0.00     0.058 A 
ATOM     61  C   UNL A   1      45.224  33.832  30.475  1.00  0.00     0.135 A 
ATOM     62  C   UNL A   1      44.599  34.152  28.181  1.00  0.00     0.135 A 
ATOM     63  F   UNL A   1      45.418  33.054  31.552  1.00  0.00    -0.206 F 
ATOM     64  C   UNL A   1      45.474  35.196  30.604  1.00  0.00     0.059 A 
ATOM     65  C   UNL A   1      44.887  35.513  28.275  1.00  0.00     0.059 A 
ATOM     66  F   UNL A   1      44.186  33.684  26.993  1.00  0.00    -0.206 F 
ATOM     67  C   UNL A   1      45.311  36.030  29.497  1.00  0.00     0.060 A 
BRANCH  67  68
ATOM     68  S   UNL A   1      45.702  37.783  29.672  1.00  0.00     0.124 S 
ATOM     69  O   UNL A   1      44.475  38.300  30.271  1.00  0.00    -0.237 OA
ATOM     70  O   UNL A   1      46.869  37.756  30.548  1.00  0.00    -0.237 OA
ATOM     71  O   UNL A   1      45.963  38.216  28.302  1.00  0.00    -0.744 OA
ENDBRANCH  67  68
ENDBRANCH  46  60
BRANCH  47  72
ATOM     72  C   UNL A   1      42.986  23.637  27.480  1.00  0.00     0.058 A 
ATOM     73  C   UNL A   1      42.698  23.349  26.138  1.00  0.00     0.135 A 
ATOM     74  C   UNL A   1      43.014  22.562  28.383  1.00  0.00     0.135 A 
ATOM     75  F   UNL A   1      42.649  24.342  25.238  1.00  0.00    -0.206 F 
ATOM     76  C   UNL A   1      42.426  22.054  25.710  1.00  0.00     0.059 A 
ATOM     77  C   UNL A   1      42.780  21.252  27.974  1.00  0.00     0.059 A 
ATOM     78  F   UNL A   1      43.305  22.774  29.675  1.00  0.00    -0.206 F 
ATOM     79  C   UNL A   1      42.471  21.011  26.636  1.00  0.00     0.060 A 
BRANCH  79  80
ATOM     80  S   UNL A   1      42.157  19.328  26.062  1.00  0.00     0.124 S 
ATOM     81  O   UNL A   1      40.759  19.415  25.653  1.00  0.00    -0.237 OA
ATOM     82  O   UNL A   1      43.131  19.185  24.984  1.00  0.00    -0.237 OA
ATOM     83  O   UNL A   1      42.420  18.516  27.246  1.00  0.00    -0.744 OA
ENDBRANCH  79  80
ENDBRANCH  47  72
BRANCH  59  84
ATOM     84  C   UNL A   1      48.779  27.435  27.990  1.00  0.00     0.058 A 
ATOM     85  C   UNL A   1      49.471  27.393  26.771  1.00  0.00     0.135 A 
ATOM     86  C   UNL A   1      49.497  27.160  29.166  1.00  0.00     0.135 A 
ATOM     87  F   UNL A   1      48.825  27.630  25.619  1.00  0.00    -0.206 F 
ATOM     88  C   UNL A   1      50.822  27.071  26.717  1.00  0.00     0.059 A 
ATOM     89  C   UNL A   1      50.855  26.862  29.138  1.00  0.00     0.059 A 
ATOM     90  F   UNL A   1      48.880  27.187  30.358  1.00  0.00    -0.206 F 
ATOM     91  C   UNL A   1      51.506  26.808  27.908  1.00  0.00     0.060 A 
BRANCH  91  92
ATOM     92  S   UNL A   1      53.266  26.417  27.828  1.00  0.00     0.124 S 
ATOM     93  O   UNL A   1      53.282  25.336  26.848  1.00  0.00    -0.237 OA
ATOM     94  O   UNL A   1      53.847  27.682  27.387  1.00  0.00    -0.237 OA
ATOM     95  O   UNL A   1      53.591  26.028  29.197  1.00  0.00    -0.744 OA
ENDBRANCH  91  92
ENDBRANCH  59  84
ENDBRANCH  33  34
ENDBRANCH  26  28
ENDBRANCH  25  26
ENDBRANCH  24  25
ENDBRANCH   1  24
TORSDOF 18
ENDMDL
MODEL 3
REMARK VINA RESULT:     -11.5      6.521     12.002
REMARK SMILES O=C(CNC(=O)c1cccs1)N[C@@H]1C=C[C@H](C(=O)OCCOC(=O)c2ccc(-c3c4nc(c(-c5c(F)cc(S(=O)(=O)[O-])cc5F)c5ccc([nH]5)c(-c5c(F)cc(S(=O)(=O)[O-])cc5F)c5nc(c(-c6c(F)cc(S(=O)(=O)[O-])cc6F)c6ccc3[nH]6)C=C5)C=C4)cc2)C1
REMARK SMILES IDX 20 1 19 2 17 3 18 4 16 5 13 6 14 7 91 8 15 9 12 10 1 11 2 12
REMARK SMILES IDX 3 14 4 15 5 16 6 18 7 19 8 20 11 21 9 22 10 23 21 24 22 25
REMARK SMILES IDX 23 26 24 27 25 28 26 29 90 30 27 31 89 32 28 33 29 34 30 35
REMARK SMILES IDX 83 36 31 37 88 38 82 39 84 40 32 41 87 42 81 43 80 44 33 46
REMARK SMILES IDX 67 47 46 48 66 49 47 50 50 51 65 52 85 53 48 54 49 55 64 57
REMARK SMILES IDX 86 58 51 59 34 60 35 61 44 62 36 63 37 64 43 65 45 66 38 67
REMARK SMILES IDX 39 68 40 69 41 70 42 71 68 72 69 73 78 74 70 75 71 76 77 77
REMARK SMILES IDX 79 78 72 79 73 80 74 81 75 82 76 83 52 84 53 85 62 86 54 87
REMARK SMILES IDX 55 88 61 89 63 90 56 91 57 92 58 93 59 94 60 95
REMARK H PARENT 12 13 4 17 84 45 50 56
REMARK Flexibility Score: inf
ROOT
ATOM      1  C   UNL A   1      37.290  21.560  25.900  1.00  0.00     0.274 C 
ENDROOT
BRANCH   1   2
ATOM      2  O   UNL A   1      36.335  22.645  25.956  1.00  0.00    -0.462 OA
BRANCH   2   3
ATOM      3  C   UNL A   1      35.013  22.293  25.927  1.00  0.00     0.312 C 
ATOM      4  O   UNL A   1      34.272  22.318  26.903  1.00  0.00    -0.252 OA
BRANCH   3   5
ATOM      5  C   UNL A   1      34.625  21.740  24.557  1.00  0.00     0.124 C 
ATOM      6  C   UNL A   1      32.446  22.298  23.467  1.00  0.00     0.106 C 
ATOM      7  C   UNL A   1      32.494  20.890  23.999  1.00  0.00    -0.006 C 
ATOM      8  C   UNL A   1      33.918  22.740  23.632  1.00  0.00     0.048 C 
ATOM      9  C   UNL A   1      33.642  20.610  24.628  1.00  0.00    -0.014 C 
BRANCH   6  10
ATOM     10  N   UNL A   1      31.402  22.934  24.266  1.00  0.00    -0.348 N 
ATOM     11  O   UNL A   1      31.265  24.584  22.998  1.00  0.00    -0.273 OA
ATOM     12  C   UNL A   1      30.956  24.330  24.211  1.00  0.00     0.239 C 
ATOM     13  H   UNL A   1      30.944  22.357  24.919  1.00  0.00     0.164 HD
BRANCH  12  14
ATOM     14  C   UNL A   1      30.101  25.627  25.754  1.00  0.00     0.216 C 
BRANCH  14  15
ATOM     15  N   UNL A   1      30.650  26.853  26.670  1.00  0.00    -0.342 N 
ATOM     16  C   UNL A   1      31.814  27.590  26.614  1.00  0.00     0.261 C 
ATOM     17  H   UNL A   1      30.041  27.117  27.397  1.00  0.00     0.164 HD
ATOM     18  O   UNL A   1      32.243  27.992  27.698  1.00  0.00    -0.268 OA
BRANCH  16  19
ATOM     19  C   UNL A   1      32.414  27.913  25.338  1.00  0.00     0.092 A 
ATOM     20  C   UNL A   1      33.453  27.285  24.678  1.00  0.00     0.025 A 
ATOM     21  S   UNL A   1      31.716  29.142  24.367  1.00  0.00    -0.139 S 
ATOM     22  C   UNL A   1      33.706  27.852  23.395  1.00  0.00     0.012 A 
ATOM     23  C   UNL A   1      32.860  28.903  23.119  1.00  0.00     0.065 A 
ENDBRANCH  16  19
ENDBRANCH  14  15
ENDBRANCH  12  14
ENDBRANCH   6  10
ENDBRANCH   3   5
ENDBRANCH   2   3
ENDBRANCH   1   2
BRANCH   1  24
ATOM     24  C   UNL A   1      38.650  22.048  25.402  1.00  0.00     0.275 C 
BRANCH  24  25
ATOM     25  O   UNL A   1      38.979  23.252  26.105  1.00  0.00    -0.458 OA
BRANCH  25  26
ATOM     26  C   UNL A   1      40.260  23.368  26.519  1.00  0.00     0.338 C 
ATOM     27  O   UNL A   1      41.209  22.670  26.221  1.00  0.00    -0.246 OA
BRANCH  26  28
ATOM     28  C   UNL A   1      40.326  24.561  27.373  1.00  0.00     0.060 A 
ATOM     29  C   UNL A   1      41.839  25.525  27.433  1.00  0.00     0.016 A 
ATOM     30  C   UNL A   1      38.962  24.966  28.466  1.00  0.00     0.016 A 
ATOM     31  C   UNL A   1      41.997  26.915  28.555  1.00  0.00     0.010 A 
ATOM     32  C   UNL A   1      39.150  26.316  29.671  1.00  0.00     0.010 A 
ATOM     33  C   UNL A   1      40.654  27.332  29.728  1.00  0.00    -0.014 A 
BRANCH  33  34
ATOM     34  C   UNL A   1      40.706  28.591  30.593  1.00  0.00     0.031 A 
ATOM     35  C   UNL A   1      41.683  28.670  31.759  1.00  0.00     0.074 A 
ATOM     36  C   UNL A   1      39.817  29.612  30.488  1.00  0.00     0.049 A 
ATOM     37  N   UNL A   1      41.555  29.290  32.907  1.00  0.00    -0.248 NA
ATOM     38  C   UNL A   1      42.910  27.871  31.663  1.00  0.00     0.031 C 
ATOM     39  C   UNL A   1      38.725  29.739  29.527  1.00  0.00     0.029 A 
ATOM     40  N   UNL A   1      39.654  30.751  31.263  1.00  0.00    -0.354 N 
ATOM     41  C   UNL A   1      42.561  28.784  33.730  1.00  0.00     0.074 A 
ATOM     42  C   UNL A   1      43.297  27.828  32.932  1.00  0.00     0.031 C 
ATOM     43  C   UNL A   1      38.074  30.894  29.691  1.00  0.00     0.029 A 
ATOM     44  C   UNL A   1      38.568  31.525  30.897  1.00  0.00     0.049 A 
ATOM     45  H   UNL A   1      40.255  30.986  32.007  1.00  0.00     0.167 HD
ATOM     46  C   UNL A   1      42.845  29.095  35.022  1.00  0.00     0.037 A 
ATOM     47  C   UNL A   1      37.931  32.554  31.491  1.00  0.00     0.037 A 
ATOM     48  C   UNL A   1      42.263  30.219  35.717  1.00  0.00     0.049 A 
ATOM     49  C   UNL A   1      38.381  33.011  32.843  1.00  0.00     0.074 A 
ATOM     50  C   UNL A   1      42.615  30.741  36.951  1.00  0.00     0.029 A 
ATOM     51  N   UNL A   1      41.260  31.033  35.214  1.00  0.00    -0.354 N 
ATOM     52  N   UNL A   1      39.275  32.470  33.630  1.00  0.00    -0.248 NA
ATOM     53  C   UNL A   1      37.722  34.201  33.396  1.00  0.00     0.031 C 
ATOM     54  C   UNL A   1      41.826  31.869  37.196  1.00  0.00     0.029 A 
ATOM     55  C   UNL A   1      41.010  32.073  36.096  1.00  0.00     0.049 A 
ATOM     56  H   UNL A   1      40.794  30.894  34.359  1.00  0.00     0.167 HD
ATOM     57  C   UNL A   1      39.312  33.277  34.760  1.00  0.00     0.074 A 
ATOM     58  C   UNL A   1      38.353  34.340  34.553  1.00  0.00     0.031 C 
ATOM     59  C   UNL A   1      40.078  33.145  35.869  1.00  0.00     0.037 A 
BRANCH  46  60
ATOM     60  C   UNL A   1      43.857  28.262  35.780  1.00  0.00     0.058 A 
ATOM     61  C   UNL A   1      45.233  28.533  35.754  1.00  0.00     0.135 A 
ATOM     62  C   UNL A   1      43.424  27.228  36.635  1.00  0.00     0.135 A 
ATOM     63  F   UNL A   1      45.716  29.514  34.975  1.00  0.00    -0.206 F 
ATOM     64  C   UNL A   1      46.143  27.792  36.505  1.00  0.00     0.059 A 
ATOM     65  C   UNL A   1      44.311  26.503  37.430  1.00  0.00     0.059 A 
ATOM     66  F   UNL A   1      42.118  26.932  36.731  1.00  0.00    -0.206 F 
ATOM     67  C   UNL A   1      45.673  26.783  37.347  1.00  0.00     0.060 A 
BRANCH  67  68
ATOM     68  S   UNL A   1      46.864  25.878  38.358  1.00  0.00     0.124 S 
ATOM     69  O   UNL A   1      47.316  26.918  39.279  1.00  0.00    -0.237 OA
ATOM     70  O   UNL A   1      46.039  24.829  38.948  1.00  0.00    -0.237 OA
ATOM     71  O   UNL A   1      47.857  25.420  37.391  1.00  0.00    -0.744 OA
ENDBRANCH  67  68
ENDBRANCH  46  60
BRANCH  47  72
ATOM     72  C   UNL A   1      36.753  33.198  30.837  1.00  0.00     0.058 A 
ATOM     73  C   UNL A   1      36.922  34.019  29.713  1.00  0.00     0.135 A 
ATOM     74  C   UNL A   1      35.445  33.008  31.312  1.00  0.00     0.135 A 
ATOM     75  F   UNL A   1      38.152  34.241  29.226  1.00  0.00    -0.206 F 
ATOM     76  C   UNL A   1      35.844  34.646  29.097  1.00  0.00     0.059 A 
ATOM     77  C   UNL A   1      34.346  33.596  30.693  1.00  0.00     0.059 A 
ATOM     78  F   UNL A   1      35.221  32.216  32.371  1.00  0.00    -0.206 F 
ATOM     79  C   UNL A   1      34.558  34.426  29.593  1.00  0.00     0.060 A 
BRANCH  79  80
ATOM     80  S   UNL A   1      33.162  35.212  28.761  1.00  0.00     0.124 S 
ATOM     81  O   UNL A   1      32.339  35.620  29.894  1.00  0.00    -0.237 OA
ATOM     82  O   UNL A   1      33.812  36.289  28.022  1.00  0.00    -0.237 OA
ATOM     83  O   UNL A   1      32.616  34.137  27.937  1.00  0.00    -0.744 OA
ENDBRANCH  79  80
ENDBRANCH  47  72
BRANCH  59  84
ATOM     84  C   UNL A   1      39.983  34.231  36.899  1.00  0.00     0.058 A 
ATOM     85  C   UNL A   1      40.708  35.427  36.793  1.00  0.00     0.135 A 
ATOM     86  C   UNL A   1      39.126  34.075  38.001  1.00  0.00     0.135 A 
ATOM     87  F   UNL A   1      41.554  35.616  35.768  1.00  0.00    -0.206 F 
ATOM     88  C   UNL A   1      40.603  36.424  37.756  1.00  0.00     0.059 A 
ATOM     89  C   UNL A   1      38.985  35.070  38.962  1.00  0.00     0.059 A 
ATOM     90  F   UNL A   1      38.411  32.948  38.147  1.00  0.00    -0.206 F 
ATOM     91  C   UNL A   1      39.737  36.236  38.837  1.00  0.00     0.060 A 
BRANCH  91  92
ATOM     92  S   UNL A   1      39.587  37.549  40.066  1.00  0.00     0.124 S 
ATOM     93  O   UNL A   1      40.919  38.144  40.023  1.00  0.00    -0.237 OA
ATOM     94  O   UNL A   1      38.509  38.367  39.520  1.00  0.00    -0.237 OA
ATOM     95  O   UNL A   1      39.261  36.830  41.294  1.00  0.00    -0.744 OA
ENDBRANCH  91  92
ENDBRANCH  59  84
ENDBRANCH  33  34
ENDBRANCH  26  28
ENDBRANCH  25  26
ENDBRANCH  24  25
ENDBRANCH   1  24
TORSDOF 18
ENDMDL
