MODEL 1
REMARK VINA RESULT:     -10.9      0.000      0.000
REMARK SMILES C[C@@H]1CC[N@@H+]1[C@@H]1CCC[C@@H]1C(=O)OCCOC(=O)c1ccc(-c2c3nc(c(-c4c(F)cc(S(=O)(=O)[O-])cc4F)c4ccc([nH]4)c(-c4c(F)cc(S(=O)(=O)[O-])cc4F)c4nc(c(-c5c(F)cc(S(=O)(=O)[O-])cc5F)c5ccc2[nH]5)C=C4)C=C3)cc1
REMARK SMILES IDX 15 1 14 2 13 3 11 4 12 5 10 6 6 7 7 8 8 9 9 10 5 11 1 12
REMARK SMILES IDX 2 13 3 14 4 15 16 17 17 18 18 19 19 20 20 21 84 22 21 23
REMARK SMILES IDX 83 24 22 25 23 26 24 27 77 28 25 29 82 30 76 31 78 32 26 33
REMARK SMILES IDX 81 34 75 35 74 36 27 38 61 39 40 40 60 41 41 42 44 43 59 44
REMARK SMILES IDX 79 45 42 46 43 47 58 49 80 50 45 51 28 52 29 53 38 54 30 55
REMARK SMILES IDX 31 56 37 57 39 58 32 59 33 60 34 61 35 62 36 63 62 64 63 65
REMARK SMILES IDX 72 66 64 67 65 68 71 69 73 70 66 71 67 72 68 73 69 74 70 75
REMARK SMILES IDX 46 76 47 77 56 78 48 79 49 80 55 81 57 82 50 83 51 84 52 85
REMARK SMILES IDX 53 86 54 87
REMARK H PARENT 5 16 78 37 44 48
REMARK Flexibility Score: inf
ROOT
ATOM      1  C   UNL A   1      33.192  30.461  26.340  1.00  0.00     0.275 C 
ENDROOT
BRANCH   1   2
ATOM      2  C   UNL A   1      32.028  29.550  25.914  1.00  0.00     0.274 C 
BRANCH   2   3
ATOM      3  O   UNL A   1      32.466  28.358  25.211  1.00  0.00    -0.462 OA
BRANCH   3   4
ATOM      4  C   UNL A   1      32.588  28.477  23.867  1.00  0.00     0.315 C 
ATOM      5  O   UNL A   1      33.436  29.197  23.342  1.00  0.00    -0.252 OA
BRANCH   4   6
ATOM      6  C   UNL A   1      31.485  27.815  23.044  1.00  0.00     0.157 C 
ATOM      7  C   UNL A   1      29.960  28.044  23.194  1.00  0.00     0.198 C 
ATOM      8  C   UNL A   1      29.377  26.883  24.019  1.00  0.00     0.066 C 
ATOM      9  C   UNL A   1      30.459  25.822  24.072  1.00  0.00     0.007 C 
ATOM     10  C   UNL A   1      31.585  26.274  23.151  1.00  0.00     0.022 C 
BRANCH   7  11
ATOM     11  N   UNL A   1      29.386  29.388  23.268  1.00  0.00    -0.329 N 
ATOM     12  C   UNL A   1      26.909  28.556  23.193  1.00  0.00     0.075 C 
ATOM     13  C   UNL A   1      27.945  29.643  23.088  1.00  0.00     0.186 C 
ATOM     14  C   UNL A   1      28.192  30.131  21.660  1.00  0.00     0.126 C 
ATOM     15  C   UNL A   1      29.676  30.156  22.027  1.00  0.00     0.268 C 
ATOM     16  H   UNL A   1      29.746  29.601  24.199  1.00  0.00     0.348 HD
ENDBRANCH   7  11
ENDBRANCH   4   6
ENDBRANCH   3   4
ENDBRANCH   2   3
ENDBRANCH   1   2
BRANCH   1  17
ATOM     17  O   UNL A   1      33.706  30.022  27.607  1.00  0.00    -0.458 OA
BRANCH  17  18
ATOM     18  C   UNL A   1      34.525  30.854  28.291  1.00  0.00     0.338 C 
ATOM     19  O   UNL A   1      34.242  31.963  28.722  1.00  0.00    -0.246 OA
BRANCH  18  20
ATOM     20  C   UNL A   1      35.851  30.204  28.465  1.00  0.00     0.060 A 
ATOM     21  C   UNL A   1      36.752  30.120  27.403  1.00  0.00     0.016 A 
ATOM     22  C   UNL A   1      36.215  29.665  29.702  1.00  0.00     0.016 A 
ATOM     23  C   UNL A   1      37.996  29.514  27.560  1.00  0.00     0.010 A 
ATOM     24  C   UNL A   1      37.511  29.161  29.890  1.00  0.00     0.010 A 
ATOM     25  C   UNL A   1      38.429  29.118  28.827  1.00  0.00    -0.014 A 
BRANCH  25  26
ATOM     26  C   UNL A   1      39.872  28.828  29.067  1.00  0.00     0.031 A 
ATOM     27  C   UNL A   1      40.824  29.906  29.500  1.00  0.00     0.074 A 
ATOM     28  C   UNL A   1      40.335  27.588  28.797  1.00  0.00     0.049 A 
ATOM     29  N   UNL A   1      42.131  29.900  29.502  1.00  0.00    -0.248 NA
ATOM     30  C   UNL A   1      40.228  31.161  29.982  1.00  0.00     0.031 C 
ATOM     31  C   UNL A   1      39.513  26.440  28.395  1.00  0.00     0.029 A 
ATOM     32  N   UNL A   1      41.612  27.082  28.798  1.00  0.00    -0.354 N 
ATOM     33  C   UNL A   1      42.521  31.162  29.935  1.00  0.00     0.074 A 
ATOM     34  C   UNL A   1      41.304  31.910  30.184  1.00  0.00     0.031 C 
ATOM     35  C   UNL A   1      40.294  25.370  28.214  1.00  0.00     0.029 A 
ATOM     36  C   UNL A   1      41.682  25.776  28.367  1.00  0.00     0.049 A 
ATOM     37  H   UNL A   1      42.400  27.602  29.078  1.00  0.00     0.167 HD
ATOM     38  C   UNL A   1      43.778  31.646  30.098  1.00  0.00     0.037 A 
ATOM     39  C   UNL A   1      42.736  25.000  28.055  1.00  0.00     0.037 A 
ATOM     40  C   UNL A   1      44.973  30.872  29.856  1.00  0.00     0.049 A 
ATOM     41  C   UNL A   1      44.112  25.580  28.164  1.00  0.00     0.074 A 
ATOM     42  C   UNL A   1      46.294  31.251  30.022  1.00  0.00     0.029 A 
ATOM     43  N   UNL A   1      44.993  29.564  29.388  1.00  0.00    -0.354 N 
ATOM     44  N   UNL A   1      44.468  26.778  28.562  1.00  0.00    -0.248 NA
ATOM     45  C   UNL A   1      45.227  24.717  27.761  1.00  0.00     0.031 C 
ATOM     46  C   UNL A   1      47.111  30.198  29.597  1.00  0.00     0.029 A 
ATOM     47  C   UNL A   1      46.302  29.137  29.222  1.00  0.00     0.049 A 
ATOM     48  H   UNL A   1      44.194  29.020  29.201  1.00  0.00     0.167 HD
ATOM     49  C   UNL A   1      45.851  26.812  28.465  1.00  0.00     0.074 A 
ATOM     50  C   UNL A   1      46.268  25.505  27.995  1.00  0.00     0.031 C 
ATOM     51  C   UNL A   1      46.699  27.836  28.738  1.00  0.00     0.037 A 
BRANCH  38  52
ATOM     52  C   UNL A   1      43.928  33.090  30.511  1.00  0.00     0.058 A 
ATOM     53  C   UNL A   1      43.969  33.484  31.858  1.00  0.00     0.135 A 
ATOM     54  C   UNL A   1      44.053  34.097  29.538  1.00  0.00     0.135 A 
ATOM     55  F   UNL A   1      43.848  32.570  32.834  1.00  0.00    -0.206 F 
ATOM     56  C   UNL A   1      44.080  34.823  32.224  1.00  0.00     0.059 A 
ATOM     57  C   UNL A   1      44.198  35.439  29.881  1.00  0.00     0.059 A 
ATOM     58  F   UNL A   1      44.030  33.783  28.233  1.00  0.00    -0.206 F 
ATOM     59  C   UNL A   1      44.187  35.795  31.228  1.00  0.00     0.060 A 
BRANCH  59  60
ATOM     60  S   UNL A   1      44.296  37.529  31.720  1.00  0.00     0.124 S 
ATOM     61  O   UNL A   1      43.542  37.525  32.969  1.00  0.00    -0.237 OA
ATOM     62  O   UNL A   1      45.736  37.726  31.852  1.00  0.00    -0.237 OA
ATOM     63  O   UNL A   1      43.668  38.240  30.611  1.00  0.00    -0.744 OA
ENDBRANCH  59  60
ENDBRANCH  38  52
BRANCH  39  64
ATOM     64  C   UNL A   1      42.506  23.612  27.572  1.00  0.00     0.058 A 
ATOM     65  C   UNL A   1      42.456  23.332  26.200  1.00  0.00     0.135 A 
ATOM     66  C   UNL A   1      42.409  22.530  28.463  1.00  0.00     0.135 A 
ATOM     67  F   UNL A   1      42.534  24.332  25.309  1.00  0.00    -0.206 F 
ATOM     68  C   UNL A   1      42.330  22.031  25.727  1.00  0.00     0.059 A 
ATOM     69  C   UNL A   1      42.313  21.216  28.014  1.00  0.00     0.059 A 
ATOM     70  F   UNL A   1      42.466  22.741  29.788  1.00  0.00    -0.206 F 
ATOM     71  C   UNL A   1      42.272  20.978  26.641  1.00  0.00     0.060 A 
BRANCH  71  72
ATOM     72  S   UNL A   1      42.198  19.288  26.009  1.00  0.00     0.124 S 
ATOM     73  O   UNL A   1      42.703  18.527  27.147  1.00  0.00    -0.237 OA
ATOM     74  O   UNL A   1      40.776  19.133  25.719  1.00  0.00    -0.237 OA
ATOM     75  O   UNL A   1      43.069  19.327  24.839  1.00  0.00    -0.744 OA
ENDBRANCH  71  72
ENDBRANCH  39  64
BRANCH  51  76
ATOM     76  C   UNL A   1      48.165  27.575  28.535  1.00  0.00     0.058 A 
ATOM     77  C   UNL A   1      48.799  27.856  27.315  1.00  0.00     0.135 A 
ATOM     78  C   UNL A   1      48.954  27.077  29.585  1.00  0.00     0.135 A 
ATOM     79  F   UNL A   1      48.087  28.317  26.273  1.00  0.00    -0.206 F 
ATOM     80  C   UNL A   1      50.160  27.637  27.137  1.00  0.00     0.059 A 
ATOM     81  C   UNL A   1      50.322  26.879  29.438  1.00  0.00     0.059 A 
ATOM     82  F   UNL A   1      48.396  26.793  30.774  1.00  0.00    -0.206 F 
ATOM     83  C   UNL A   1      50.915  27.154  28.207  1.00  0.00     0.060 A 
BRANCH  83  84
ATOM     84  S   UNL A   1      52.690  26.922  27.974  1.00  0.00     0.124 S 
ATOM     85  O   UNL A   1      53.109  26.498  29.306  1.00  0.00    -0.237 OA
ATOM     86  O   UNL A   1      52.735  25.896  26.938  1.00  0.00    -0.237 OA
ATOM     87  O   UNL A   1      53.154  28.244  27.562  1.00  0.00    -0.744 OA
ENDBRANCH  83  84
ENDBRANCH  51  76
ENDBRANCH  25  26
ENDBRANCH  18  20
ENDBRANCH  17  18
ENDBRANCH   1  17
TORSDOF 15
ENDMDL
MODEL 2
REMARK VINA RESULT:     -10.8      2.864      5.117
REMARK SMILES C[C@@H]1CC[N@@H+]1[C@@H]1CCC[C@@H]1C(=O)OCCOC(=O)c1ccc(-c2c3nc(c(-c4c(F)cc(S(=O)(=O)[O-])cc4F)c4ccc([nH]4)c(-c4c(F)cc(S(=O)(=O)[O-])cc4F)c4nc(c(-c5c(F)cc(S(=O)(=O)[O-])cc5F)c5ccc2[nH]5)C=C4)C=C3)cc1
REMARK SMILES IDX 15 1 14 2 13 3 11 4 12 5 10 6 6 7 7 8 8 9 9 10 5 11 1 12
REMARK SMILES IDX 2 13 3 14 4 15 16 17 17 18 18 19 19 20 20 21 84 22 21 23
REMARK SMILES IDX 83 24 22 25 23 26 24 27 77 28 25 29 82 30 76 31 78 32 26 33
REMARK SMILES IDX 81 34 75 35 74 36 27 38 61 39 40 40 60 41 41 42 44 43 59 44
REMARK SMILES IDX 79 45 42 46 43 47 58 49 80 50 45 51 28 52 29 53 38 54 30 55
REMARK SMILES IDX 31 56 37 57 39 58 32 59 33 60 34 61 35 62 36 63 62 64 63 65
REMARK SMILES IDX 72 66 64 67 65 68 71 69 73 70 66 71 67 72 68 73 69 74 70 75
REMARK SMILES IDX 46 76 47 77 56 78 48 79 49 80 55 81 57 82 50 83 51 84 52 85
REMARK SMILES IDX 53 86 54 87
REMARK H PARENT 5 16 78 37 44 48
REMARK Flexibility Score: inf
ROOT
ATOM      1  C   UNL A   1      33.292  31.554  27.650  1.00  0.00     0.275 C 
ENDROOT
BRANCH   1   2
ATOM      2  C   UNL A   1      34.041  32.712  28.332  1.00  0.00     0.274 C 
BRANCH   2   3
ATOM      3  O   UNL A   1      34.533  32.369  29.654  1.00  0.00    -0.462 OA
BRANCH   3   4
ATOM      4  C   UNL A   1      35.412  33.244  30.201  1.00  0.00     0.315 C 
ATOM      5  O   UNL A   1      35.090  34.384  30.530  1.00  0.00    -0.252 OA
BRANCH   4   6
ATOM      6  C   UNL A   1      36.871  32.795  30.206  1.00  0.00     0.157 C 
ATOM      7  C   UNL A   1      37.897  33.008  31.348  1.00  0.00     0.198 C 
ATOM      8  C   UNL A   1      38.774  34.220  30.988  1.00  0.00     0.066 C 
ATOM      9  C   UNL A   1      38.502  34.515  29.525  1.00  0.00     0.007 C 
ATOM     10  C   UNL A   1      37.623  33.392  28.992  1.00  0.00     0.022 C 
BRANCH   7  11
ATOM     11  N   UNL A   1      37.578  32.691  32.740  1.00  0.00    -0.329 N 
ATOM     12  C   UNL A   1      39.993  31.880  33.324  1.00  0.00     0.075 C 
ATOM     13  C   UNL A   1      38.523  31.990  33.628  1.00  0.00     0.186 C 
ATOM     14  C   UNL A   1      37.751  30.683  33.447  1.00  0.00     0.126 C 
ATOM     15  C   UNL A   1      36.647  31.533  32.818  1.00  0.00     0.268 C 
ATOM     16  H   UNL A   1      37.362  33.650  33.015  1.00  0.00     0.348 HD
ENDBRANCH   7  11
ENDBRANCH   4   6
ENDBRANCH   3   4
ENDBRANCH   2   3
ENDBRANCH   1   2
BRANCH   1  17
ATOM     17  O   UNL A   1      34.239  30.654  27.054  1.00  0.00    -0.458 OA
BRANCH  17  18
ATOM     18  C   UNL A   1      34.558  29.522  27.722  1.00  0.00     0.338 C 
ATOM     19  O   UNL A   1      33.801  28.603  28.000  1.00  0.00    -0.246 OA
BRANCH  18  20
ATOM     20  C   UNL A   1      36.005  29.545  28.064  1.00  0.00     0.060 A 
ATOM     21  C   UNL A   1      36.449  29.141  29.324  1.00  0.00     0.016 A 
ATOM     22  C   UNL A   1      36.945  29.973  27.124  1.00  0.00     0.016 A 
ATOM     23  C   UNL A   1      37.802  29.159  29.650  1.00  0.00     0.010 A 
ATOM     24  C   UNL A   1      38.315  29.879  27.412  1.00  0.00     0.010 A 
ATOM     25  C   UNL A   1      38.758  29.432  28.668  1.00  0.00    -0.014 A 
BRANCH  25  26
ATOM     26  C   UNL A   1      40.189  29.086  28.902  1.00  0.00     0.031 A 
ATOM     27  C   UNL A   1      41.189  30.131  29.309  1.00  0.00     0.074 A 
ATOM     28  C   UNL A   1      40.598  27.823  28.653  1.00  0.00     0.049 A 
ATOM     29  N   UNL A   1      42.495  30.070  29.301  1.00  0.00    -0.248 NA
ATOM     30  C   UNL A   1      40.650  31.418  29.771  1.00  0.00     0.031 C 
ATOM     31  C   UNL A   1      39.725  26.703  28.280  1.00  0.00     0.029 A 
ATOM     32  N   UNL A   1      41.853  27.264  28.654  1.00  0.00    -0.354 N 
ATOM     33  C   UNL A   1      42.941  31.323  29.707  1.00  0.00     0.074 A 
ATOM     34  C   UNL A   1      41.758  32.125  29.950  1.00  0.00     0.031 C 
ATOM     35  C   UNL A   1      40.460  25.598  28.113  1.00  0.00     0.029 A 
ATOM     36  C   UNL A   1      41.864  25.948  28.248  1.00  0.00     0.049 A 
ATOM     37  H   UNL A   1      42.663  27.755  28.919  1.00  0.00     0.167 HD
ATOM     38  C   UNL A   1      44.217  31.757  29.852  1.00  0.00     0.037 A 
ATOM     39  C   UNL A   1      42.882  25.123  27.944  1.00  0.00     0.037 A 
ATOM     40  C   UNL A   1      45.377  30.929  29.616  1.00  0.00     0.049 A 
ATOM     41  C   UNL A   1      44.282  25.647  28.032  1.00  0.00     0.074 A 
ATOM     42  C   UNL A   1      46.714  31.255  29.765  1.00  0.00     0.029 A 
ATOM     43  N   UNL A   1      45.339  29.613  29.173  1.00  0.00    -0.354 N 
ATOM     44  N   UNL A   1      44.691  26.835  28.404  1.00  0.00    -0.248 NA
ATOM     45  C   UNL A   1      45.357  24.730  27.638  1.00  0.00     0.031 C 
ATOM     46  C   UNL A   1      47.483  30.160  29.355  1.00  0.00     0.029 A 
ATOM     47  C   UNL A   1      46.627  29.127  29.006  1.00  0.00     0.049 A 
ATOM     48  H   UNL A   1      44.516  29.099  29.002  1.00  0.00     0.167 HD
ATOM     49  C   UNL A   1      46.074  26.810  28.297  1.00  0.00     0.074 A 
ATOM     50  C   UNL A   1      46.432  25.478  27.849  1.00  0.00     0.031 C 
ATOM     51  C   UNL A   1      46.966  27.802  28.544  1.00  0.00     0.037 A 
BRANCH  38  52
ATOM     52  C   UNL A   1      44.431  33.200  30.236  1.00  0.00     0.058 A 
ATOM     53  C   UNL A   1      44.477  33.621  31.574  1.00  0.00     0.135 A 
ATOM     54  C   UNL A   1      44.613  34.180  29.244  1.00  0.00     0.135 A 
ATOM     55  F   UNL A   1      44.304  32.735  32.569  1.00  0.00    -0.206 F 
ATOM     56  C   UNL A   1      44.647  34.961  31.914  1.00  0.00     0.059 A 
ATOM     57  C   UNL A   1      44.818  35.520  29.560  1.00  0.00     0.059 A 
ATOM     58  F   UNL A   1      44.588  33.839  27.945  1.00  0.00    -0.206 F 
ATOM     59  C   UNL A   1      44.810  35.905  30.898  1.00  0.00     0.060 A 
BRANCH  59  60
ATOM     60  S   UNL A   1      44.995  37.642  31.355  1.00  0.00     0.124 S 
ATOM     61  O   UNL A   1      46.310  37.950  30.804  1.00  0.00    -0.237 OA
ATOM     62  O   UNL A   1      43.863  38.265  30.677  1.00  0.00    -0.237 OA
ATOM     63  O   UNL A   1      44.915  37.623  32.813  1.00  0.00    -0.744 OA
ENDBRANCH  59  60
ENDBRANCH  38  52
BRANCH  39  64
ATOM     64  C   UNL A   1      42.591  23.736  27.489  1.00  0.00     0.058 A 
ATOM     65  C   UNL A   1      42.550  23.427  26.123  1.00  0.00     0.135 A 
ATOM     66  C   UNL A   1      42.425  22.682  28.404  1.00  0.00     0.135 A 
ATOM     67  F   UNL A   1      42.693  24.400  25.211  1.00  0.00    -0.206 F 
ATOM     68  C   UNL A   1      42.366  22.122  25.678  1.00  0.00     0.059 A 
ATOM     69  C   UNL A   1      42.270  21.365  27.983  1.00  0.00     0.059 A 
ATOM     70  F   UNL A   1      42.471  22.923  29.724  1.00  0.00    -0.206 F 
ATOM     71  C   UNL A   1      42.240  21.096  26.616  1.00  0.00     0.060 A 
BRANCH  71  72
ATOM     72  S   UNL A   1      42.092  19.397  26.022  1.00  0.00     0.124 S 
ATOM     73  O   UNL A   1      42.602  18.643  27.161  1.00  0.00    -0.237 OA
ATOM     74  O   UNL A   1      40.657  19.285  25.774  1.00  0.00    -0.237 OA
ATOM     75  O   UNL A   1      42.930  19.382  24.829  1.00  0.00    -0.744 OA
ENDBRANCH  71  72
ENDBRANCH  39  64
BRANCH  51  76
ATOM     76  C   UNL A   1      48.419  27.476  28.336  1.00  0.00     0.058 A 
ATOM     77  C   UNL A   1      49.163  26.792  29.309  1.00  0.00     0.135 A 
ATOM     78  C   UNL A   1      49.062  27.816  27.135  1.00  0.00     0.135 A 
ATOM     79  F   UNL A   1      48.601  26.460  30.482  1.00  0.00    -0.206 F 
ATOM     80  C   UNL A   1      50.500  26.470  29.106  1.00  0.00     0.059 A 
ATOM     81  C   UNL A   1      50.390  27.477  26.898  1.00  0.00     0.059 A 
ATOM     82  F   UNL A   1      48.393  28.470  26.171  1.00  0.00    -0.206 F 
ATOM     83  C   UNL A   1      51.103  26.811  27.893  1.00  0.00     0.060 A 
BRANCH  83  84
ATOM     84  S   UNL A   1      52.825  26.342  27.626  1.00  0.00     0.124 S 
ATOM     85  O   UNL A   1      53.328  27.484  26.869  1.00  0.00    -0.237 OA
ATOM     86  O   UNL A   1      53.328  26.215  28.991  1.00  0.00    -0.237 OA
ATOM     87  O   UNL A   1      52.725  25.090  26.881  1.00  0.00    -0.744 OA
ENDBRANCH  83  84
ENDBRANCH  51  76
ENDBRANCH  25  26
ENDBRANCH  18  20
ENDBRANCH  17  18
ENDBRANCH   1  17
TORSDOF 15
ENDMDL
MODEL 3
REMARK VINA RESULT:     -10.8      5.283     11.601
REMARK SMILES C[C@@H]1CC[N@@H+]1[C@@H]1CCC[C@@H]1C(=O)OCCOC(=O)c1ccc(-c2c3nc(c(-c4c(F)cc(S(=O)(=O)[O-])cc4F)c4ccc([nH]4)c(-c4c(F)cc(S(=O)(=O)[O-])cc4F)c4nc(c(-c5c(F)cc(S(=O)(=O)[O-])cc5F)c5ccc2[nH]5)C=C4)C=C3)cc1
REMARK SMILES IDX 15 1 14 2 13 3 11 4 12 5 10 6 6 7 7 8 8 9 9 10 5 11 1 12
REMARK SMILES IDX 2 13 3 14 4 15 16 17 17 18 18 19 19 20 20 21 84 22 21 23
REMARK SMILES IDX 83 24 22 25 23 26 24 27 77 28 25 29 82 30 76 31 78 32 26 33
REMARK SMILES IDX 81 34 75 35 74 36 27 38 61 39 40 40 60 41 41 42 44 43 59 44
REMARK SMILES IDX 79 45 42 46 43 47 58 49 80 50 45 51 28 52 29 53 38 54 30 55
REMARK SMILES IDX 31 56 37 57 39 58 32 59 33 60 34 61 35 62 36 63 62 64 63 65
REMARK SMILES IDX 72 66 64 67 65 68 71 69 73 70 66 71 67 72 68 73 69 74 70 75
REMARK SMILES IDX 46 76 47 77 56 78 48 79 49 80 55 81 57 82 50 83 51 84 52 85
REMARK SMILES IDX 53 86 54 87
REMARK H PARENT 5 16 78 37 44 48
REMARK Flexibility Score: inf
ROOT
ATOM      1  C   UNL A   1      39.279  21.459  25.664  1.00  0.00     0.275 C 
ENDROOT
BRANCH   1   2
ATOM      2  C   UNL A   1      40.286  20.674  26.521  1.00  0.00     0.274 C 
BRANCH   2   3
ATOM      3  O   UNL A   1      41.005  21.512  27.464  1.00  0.00    -0.462 OA
BRANCH   3   4
ATOM      4  C   UNL A   1      42.150  22.071  27.001  1.00  0.00     0.315 C 
ATOM      5  O   UNL A   1      42.871  21.512  26.177  1.00  0.00    -0.252 OA
BRANCH   4   6
ATOM      6  C   UNL A   1      42.592  23.348  27.710  1.00  0.00     0.157 C 
ATOM      7  C   UNL A   1      43.952  24.072  27.542  1.00  0.00     0.198 C 
ATOM      8  C   UNL A   1      44.855  23.678  28.724  1.00  0.00     0.066 C 
ATOM      9  C   UNL A   1      43.949  23.010  29.740  1.00  0.00     0.007 C 
ATOM     10  C   UNL A   1      42.518  23.167  29.245  1.00  0.00     0.022 C 
BRANCH   7  11
ATOM     11  N   UNL A   1      44.515  24.361  26.223  1.00  0.00    -0.329 N 
ATOM     12  C   UNL A   1      45.795  26.499  27.010  1.00  0.00     0.075 C 
ATOM     13  C   UNL A   1      45.242  25.608  25.929  1.00  0.00     0.186 C 
ATOM     14  C   UNL A   1      44.014  26.179  25.221  1.00  0.00     0.126 C 
ATOM     15  C   UNL A   1      43.446  24.760  25.269  1.00  0.00     0.268 C 
ATOM     16  H   UNL A   1      45.078  23.512  26.166  1.00  0.00     0.348 HD
ENDBRANCH   7  11
ENDBRANCH   4   6
ENDBRANCH   3   4
ENDBRANCH   2   3
ENDBRANCH   1   2
BRANCH   1  17
ATOM     17  O   UNL A   1      38.587  22.411  26.486  1.00  0.00    -0.458 OA
BRANCH  17  18
ATOM     18  C   UNL A   1      38.392  23.659  25.999  1.00  0.00     0.338 C 
ATOM     19  O   UNL A   1      37.734  23.962  25.015  1.00  0.00    -0.246 OA
BRANCH  18  20
ATOM     20  C   UNL A   1      39.098  24.639  26.867  1.00  0.00     0.060 A 
ATOM     21  C   UNL A   1      39.925  25.618  26.315  1.00  0.00     0.016 A 
ATOM     22  C   UNL A   1      38.941  24.594  28.254  1.00  0.00     0.016 A 
ATOM     23  C   UNL A   1      40.586  26.540  27.122  1.00  0.00     0.010 A 
ATOM     24  C   UNL A   1      39.513  25.594  29.055  1.00  0.00     0.010 A 
ATOM     25  C   UNL A   1      40.310  26.603  28.489  1.00  0.00    -0.014 A 
BRANCH  25  26
ATOM     26  C   UNL A   1      40.710  27.803  29.278  1.00  0.00     0.031 A 
ATOM     27  C   UNL A   1      41.958  27.808  30.114  1.00  0.00     0.074 A 
ATOM     28  C   UNL A   1      39.877  28.866  29.304  1.00  0.00     0.049 A 
ATOM     29  N   UNL A   1      42.320  28.646  31.051  1.00  0.00    -0.248 NA
ATOM     30  C   UNL A   1      42.920  26.722  29.874  1.00  0.00     0.031 C 
ATOM     31  C   UNL A   1      38.645  29.003  28.516  1.00  0.00     0.029 A 
ATOM     32  N   UNL A   1      39.922  30.030  30.032  1.00  0.00    -0.354 N 
ATOM     33  C   UNL A   1      43.525  28.165  31.551  1.00  0.00     0.074 A 
ATOM     34  C   UNL A   1      43.829  26.956  30.811  1.00  0.00     0.031 C 
ATOM     35  C   UNL A   1      38.071  30.181  28.783  1.00  0.00     0.029 A 
ATOM     36  C   UNL A   1      38.820  30.834  29.844  1.00  0.00     0.049 A 
ATOM     37  H   UNL A   1      40.668  30.266  30.629  1.00  0.00     0.167 HD
ATOM     38  C   UNL A   1      44.293  28.685  32.541  1.00  0.00     0.037 A 
ATOM     39  C   UNL A   1      38.406  31.937  30.493  1.00  0.00     0.037 A 
ATOM     40  C   UNL A   1      43.971  29.900  33.252  1.00  0.00     0.049 A 
ATOM     41  C   UNL A   1      39.227  32.448  31.636  1.00  0.00     0.074 A 
ATOM     42  C   UNL A   1      44.695  30.535  34.247  1.00  0.00     0.029 A 
ATOM     43  N   UNL A   1      42.827  30.662  33.048  1.00  0.00    -0.354 N 
ATOM     44  N   UNL A   1      40.356  31.980  32.109  1.00  0.00    -0.248 NA
ATOM     45  C   UNL A   1      38.710  33.621  32.350  1.00  0.00     0.031 C 
ATOM     46  C   UNL A   1      43.961  31.642  34.687  1.00  0.00     0.029 A 
ATOM     47  C   UNL A   1      42.806  31.735  33.926  1.00  0.00     0.049 A 
ATOM     48  H   UNL A   1      42.131  30.467  32.379  1.00  0.00     0.167 HD
ATOM     49  C   UNL A   1      40.692  32.803  33.173  1.00  0.00     0.074 A 
ATOM     50  C   UNL A   1      39.656  33.816  33.257  1.00  0.00     0.031 C 
ATOM     51  C   UNL A   1      41.759  32.726  34.007  1.00  0.00     0.037 A 
BRANCH  38  52
ATOM     52  C   UNL A   1      45.528  27.919  32.949  1.00  0.00     0.058 A 
ATOM     53  C   UNL A   1      46.784  28.158  32.369  1.00  0.00     0.135 A 
ATOM     54  C   UNL A   1      45.456  26.940  33.956  1.00  0.00     0.135 A 
ATOM     55  F   UNL A   1      46.917  29.077  31.399  1.00  0.00    -0.206 F 
ATOM     56  C   UNL A   1      47.909  27.425  32.736  1.00  0.00     0.059 A 
ATOM     57  C   UNL A   1      46.574  26.217  34.362  1.00  0.00     0.059 A 
ATOM     58  F   UNL A   1      44.284  26.671  34.554  1.00  0.00    -0.206 F 
ATOM     59  C   UNL A   1      47.793  26.451  33.730  1.00  0.00     0.060 A 
BRANCH  59  60
ATOM     60  S   UNL A   1      49.255  25.486  34.169  1.00  0.00     0.124 S 
ATOM     61  O   UNL A   1      49.544  24.805  32.911  1.00  0.00    -0.237 OA
ATOM     62  O   UNL A   1      50.206  26.521  34.560  1.00  0.00    -0.237 OA
ATOM     63  O   UNL A   1      48.786  24.628  35.253  1.00  0.00    -0.744 OA
ENDBRANCH  59  60
ENDBRANCH  38  52
BRANCH  39  64
ATOM     64  C   UNL A   1      37.132  32.590  30.089  1.00  0.00     0.058 A 
ATOM     65  C   UNL A   1      35.938  32.304  30.764  1.00  0.00     0.135 A 
ATOM     66  C   UNL A   1      37.093  33.566  29.078  1.00  0.00     0.135 A 
ATOM     67  F   UNL A   1      35.921  31.373  31.729  1.00  0.00    -0.206 F 
ATOM     68  C   UNL A   1      34.753  32.966  30.460  1.00  0.00     0.059 A 
ATOM     69  C   UNL A   1      35.928  34.264  28.777  1.00  0.00     0.059 A 
ATOM     70  F   UNL A   1      38.213  33.888  28.411  1.00  0.00    -0.206 F 
ATOM     71  C   UNL A   1      34.761  33.954  29.474  1.00  0.00     0.060 A 
BRANCH  71  72
ATOM     72  S   UNL A   1      33.237  34.868  29.155  1.00  0.00     0.124 S 
ATOM     73  O   UNL A   1      33.754  36.161  28.724  1.00  0.00    -0.237 OA
ATOM     74  O   UNL A   1      32.606  34.055  28.118  1.00  0.00    -0.237 OA
ATOM     75  O   UNL A   1      32.560  34.857  30.447  1.00  0.00    -0.744 OA
ENDBRANCH  71  72
ENDBRANCH  39  64
BRANCH  51  76
ATOM     76  C   UNL A   1      41.857  33.772  35.082  1.00  0.00     0.058 A 
ATOM     77  C   UNL A   1      41.255  33.593  36.337  1.00  0.00     0.135 A 
ATOM     78  C   UNL A   1      42.596  34.947  34.869  1.00  0.00     0.135 A 
ATOM     79  F   UNL A   1      40.523  32.495  36.586  1.00  0.00    -0.206 F 
ATOM     80  C   UNL A   1      41.367  34.550  37.339  1.00  0.00     0.059 A 
ATOM     81  C   UNL A   1      42.747  35.904  35.867  1.00  0.00     0.059 A 
ATOM     82  F   UNL A   1      43.193  35.166  33.686  1.00  0.00    -0.206 F 
ATOM     83  C   UNL A   1      42.122  35.701  37.096  1.00  0.00     0.060 A 
BRANCH  83  84
ATOM     84  S   UNL A   1      42.299  36.910  38.424  1.00  0.00     0.124 S 
ATOM     85  O   UNL A   1      42.890  36.100  39.484  1.00  0.00    -0.237 OA
ATOM     86  O   UNL A   1      43.178  37.907  37.821  1.00  0.00    -0.237 OA
ATOM     87  O   UNL A   1      40.928  37.353  38.665  1.00  0.00    -0.744 OA
ENDBRANCH  83  84
ENDBRANCH  51  76
ENDBRANCH  25  26
ENDBRANCH  18  20
ENDBRANCH  17  18
ENDBRANCH   1  17
TORSDOF 15
ENDMDL
