MODEL 1
REMARK VINA RESULT:     -11.3      0.000      0.000
REMARK SMILES C[C@@H](C(=O)OCCOC(=O)c1ccc(-c2c3nc(c(-c4c(F)cc(S(=O)(=O)[O-])cc4F)c4ccc([nH]4)c(-c4c(F)cc(S(=O)(=O)[O-])cc4F)c4nc(c(-c5c(F)cc(S(=O)(=O)[O-])cc5F)c5ccc2[nH]5)C=C4)C=C3)cc1)c1ccc(-c2cccc(OC(=O)NC3CC3)c2)c(F)c1
REMARK SMILES IDX 6 1 5 2 3 3 4 4 2 5 1 6 77 7 78 8 96 9 79 10 94 11 80 12
REMARK SMILES IDX 95 13 81 14 82 15 93 16 83 17 85 18 84 19 86 20 87 21 88 22
REMARK SMILES IDX 89 23 90 25 91 26 92 27 7 28 8 29 9 30 10 31 11 32 12 33
REMARK SMILES IDX 76 34 13 35 75 36 14 37 15 38 16 39 69 40 17 41 74 42 68 43
REMARK SMILES IDX 70 44 18 45 73 46 67 47 66 48 19 50 53 51 32 52 52 53 33 54
REMARK SMILES IDX 36 55 51 56 71 57 34 58 35 59 50 61 72 62 37 63 20 64 21 65
REMARK SMILES IDX 30 66 22 67 23 68 29 69 31 70 24 71 25 72 26 73 27 74 28 75
REMARK SMILES IDX 54 76 55 77 64 78 56 79 57 80 63 81 65 82 58 83 59 84 60 85
REMARK SMILES IDX 61 86 62 87 38 88 39 89 48 90 40 91 41 92 47 93 49 94 42 95
REMARK SMILES IDX 43 96 44 97 45 98 46 99
REMARK H PARENT 89 24 70 49 36 60
REMARK Flexibility Score: inf
ROOT
ATOM      1  C   UNL A   1      43.530  23.201  25.836  1.00  0.00     0.274 C 
ENDROOT
BRANCH   1   2
ATOM      2  O   UNL A   1      42.698  22.244  25.151  1.00  0.00    -0.462 OA
BRANCH   2   3
ATOM      3  C   UNL A   1      42.405  21.095  25.822  1.00  0.00     0.313 C 
ATOM      4  O   UNL A   1      42.846  19.995  25.507  1.00  0.00    -0.252 OA
BRANCH   3   5
ATOM      5  C   UNL A   1      41.409  21.317  26.973  1.00  0.00     0.126 C 
ATOM      6  C   UNL A   1      41.264  20.087  27.878  1.00  0.00     0.025 C 
BRANCH   5   7
ATOM      7  C   UNL A   1      40.076  21.875  26.474  1.00  0.00    -0.031 A 
ATOM      8  C   UNL A   1      39.205  21.042  25.751  1.00  0.00     0.005 A 
ATOM      9  C   UNL A   1      39.650  23.187  26.725  1.00  0.00     0.044 A 
ATOM     10  C   UNL A   1      37.955  21.497  25.310  1.00  0.00     0.012 A 
ATOM     11  C   UNL A   1      38.405  23.638  26.272  1.00  0.00     0.131 A 
ATOM     12  C   UNL A   1      37.525  22.809  25.563  1.00  0.00     0.018 A 
ATOM     13  F   UNL A   1      38.055  24.898  26.575  1.00  0.00    -0.206 F 
BRANCH  12  14
ATOM     14  C   UNL A   1      36.198  23.271  25.112  1.00  0.00    -0.012 A 
ATOM     15  C   UNL A   1      35.883  23.354  23.743  1.00  0.00     0.009 A 
ATOM     16  C   UNL A   1      35.219  23.670  26.038  1.00  0.00     0.056 A 
ATOM     17  C   UNL A   1      34.629  23.790  23.311  1.00  0.00     0.004 A 
ATOM     18  C   UNL A   1      33.990  24.155  25.595  1.00  0.00     0.133 A 
ATOM     19  C   UNL A   1      33.677  24.185  24.239  1.00  0.00     0.047 A 
BRANCH  18  20
ATOM     20  O   UNL A   1      32.986  24.687  26.436  1.00  0.00    -0.410 OA
BRANCH  20  21
ATOM     21  C   UNL A   1      31.799  24.071  26.801  1.00  0.00     0.412 C 
ATOM     22  O   UNL A   1      31.678  23.096  27.534  1.00  0.00    -0.224 OA
ATOM     23  N   UNL A   1      30.684  24.677  26.277  1.00  0.00    -0.318 N 
ATOM     24  H   UNL A   1      29.841  24.184  26.401  1.00  0.00     0.167 HD
BRANCH  23  25
ATOM     25  C   UNL A   1      30.566  25.916  25.577  1.00  0.00     0.085 C 
ATOM     26  C   UNL A   1      30.671  26.147  24.097  1.00  0.00     0.027 C 
ATOM     27  C   UNL A   1      29.328  26.175  24.759  1.00  0.00     0.027 C 
ENDBRANCH  23  25
ENDBRANCH  20  21
ENDBRANCH  18  20
ENDBRANCH  12  14
ENDBRANCH   5   7
ENDBRANCH   3   5
ENDBRANCH   2   3
ENDBRANCH   1   2
BRANCH   1  28
ATOM     28  C   UNL A   1      43.940  24.322  24.886  1.00  0.00     0.275 C 
BRANCH  28  29
ATOM     29  O   UNL A   1      43.903  25.583  25.576  1.00  0.00    -0.458 OA
BRANCH  29  30
ATOM     30  C   UNL A   1      42.673  26.127  25.742  1.00  0.00     0.338 C 
ATOM     31  O   UNL A   1      41.726  26.062  24.980  1.00  0.00    -0.246 OA
BRANCH  30  32
ATOM     32  C   UNL A   1      42.625  26.822  27.037  1.00  0.00     0.060 A 
ATOM     33  C   UNL A   1      41.956  26.226  28.100  1.00  0.00     0.016 A 
ATOM     34  C   UNL A   1      43.136  28.114  27.163  1.00  0.00     0.016 A 
ATOM     35  C   UNL A   1      41.715  26.959  29.259  1.00  0.00     0.010 A 
ATOM     36  C   UNL A   1      42.960  28.816  28.364  1.00  0.00     0.010 A 
ATOM     37  C   UNL A   1      42.204  28.265  29.413  1.00  0.00    -0.014 A 
BRANCH  37  38
ATOM     38  C   UNL A   1      41.859  29.055  30.634  1.00  0.00     0.031 A 
ATOM     39  C   UNL A   1      40.571  29.844  30.694  1.00  0.00     0.074 A 
ATOM     40  C   UNL A   1      42.656  29.021  31.722  1.00  0.00     0.049 A 
ATOM     41  N   UNL A   1      40.160  30.689  31.607  1.00  0.00    -0.248 NA
ATOM     42  C   UNL A   1      39.635  29.679  29.571  1.00  0.00     0.031 C 
ATOM     43  C   UNL A   1      43.896  28.251  31.842  1.00  0.00     0.029 A 
ATOM     44  N   UNL A   1      42.515  29.604  32.960  1.00  0.00    -0.354 N 
ATOM     45  C   UNL A   1      38.967  31.219  31.126  1.00  0.00     0.074 A 
ATOM     46  C   UNL A   1      38.707  30.585  29.852  1.00  0.00     0.031 C 
ATOM     47  C   UNL A   1      44.335  28.317  33.109  1.00  0.00     0.029 A 
ATOM     48  C   UNL A   1      43.470  29.211  33.870  1.00  0.00     0.049 A 
ATOM     49  H   UNL A   1      41.798  30.243  33.175  1.00  0.00     0.167 HD
ATOM     50  C   UNL A   1      38.171  32.162  31.689  1.00  0.00     0.037 A 
ATOM     51  C   UNL A   1      43.627  29.528  35.171  1.00  0.00     0.037 A 
ATOM     52  C   UNL A   1      38.381  32.718  33.001  1.00  0.00     0.049 A 
ATOM     53  C   UNL A   1      42.693  30.524  35.802  1.00  0.00     0.074 A 
ATOM     54  C   UNL A   1      37.653  33.704  33.647  1.00  0.00     0.029 A 
ATOM     55  N   UNL A   1      39.368  32.309  33.884  1.00  0.00    -0.354 N 
ATOM     56  N   UNL A   1      41.632  31.098  35.292  1.00  0.00    -0.248 NA
ATOM     57  C   UNL A   1      43.002  30.941  37.178  1.00  0.00     0.031 C 
ATOM     58  C   UNL A   1      38.218  33.908  34.912  1.00  0.00     0.029 A 
ATOM     59  C   UNL A   1      39.274  33.024  35.067  1.00  0.00     0.049 A 
ATOM     60  H   UNL A   1      40.038  31.612  33.698  1.00  0.00     0.167 HD
ATOM     61  C   UNL A   1      41.161  31.963  36.273  1.00  0.00     0.074 A 
ATOM     62  C   UNL A   1      42.018  31.794  37.428  1.00  0.00     0.031 C 
ATOM     63  C   UNL A   1      40.130  32.842  36.211  1.00  0.00     0.037 A 
BRANCH  50  64
ATOM     64  C   UNL A   1      37.036  32.704  30.864  1.00  0.00     0.058 A 
ATOM     65  C   UNL A   1      37.189  33.779  29.979  1.00  0.00     0.135 A 
ATOM     66  C   UNL A   1      35.769  32.099  30.946  1.00  0.00     0.135 A 
ATOM     67  F   UNL A   1      38.373  34.402  29.870  1.00  0.00    -0.206 F 
ATOM     68  C   UNL A   1      36.121  34.256  29.221  1.00  0.00     0.059 A 
ATOM     69  C   UNL A   1      34.693  32.542  30.181  1.00  0.00     0.059 A 
ATOM     70  F   UNL A   1      35.566  31.063  31.775  1.00  0.00    -0.206 F 
ATOM     71  C   UNL A   1      34.876  33.631  29.332  1.00  0.00     0.060 A 
BRANCH  71  72
ATOM     72  S   UNL A   1      33.497  34.252  28.344  1.00  0.00     0.124 S 
ATOM     73  O   UNL A   1      32.613  34.782  29.377  1.00  0.00    -0.237 OA
ATOM     74  O   UNL A   1      34.142  35.246  27.491  1.00  0.00    -0.237 OA
ATOM     75  O   UNL A   1      33.011  33.062  27.653  1.00  0.00    -0.744 OA
ENDBRANCH  71  72
ENDBRANCH  50  64
BRANCH  51  76
ATOM     76  C   UNL A   1      44.704  28.886  35.973  1.00  0.00     0.058 A 
ATOM     77  C   UNL A   1      44.438  27.733  36.728  1.00  0.00     0.135 A 
ATOM     78  C   UNL A   1      46.013  29.392  35.995  1.00  0.00     0.135 A 
ATOM     79  F   UNL A   1      43.199  27.217  36.746  1.00  0.00    -0.206 F 
ATOM     80  C   UNL A   1      45.426  27.108  37.481  1.00  0.00     0.059 A 
ATOM     81  C   UNL A   1      47.026  28.767  36.716  1.00  0.00     0.059 A 
ATOM     82  F   UNL A   1      46.324  30.486  35.285  1.00  0.00    -0.206 F 
ATOM     83  C   UNL A   1      46.720  27.630  37.465  1.00  0.00     0.060 A 
BRANCH  83  84
ATOM     84  S   UNL A   1      48.020  26.781  38.386  1.00  0.00     0.124 S 
ATOM     85  O   UNL A   1      48.986  27.854  38.583  1.00  0.00    -0.237 OA
ATOM     86  O   UNL A   1      47.315  26.329  39.581  1.00  0.00    -0.237 OA
ATOM     87  O   UNL A   1      48.431  25.718  37.473  1.00  0.00    -0.744 OA
ENDBRANCH  83  84
ENDBRANCH  51  76
BRANCH  63  88
ATOM     88  C   UNL A   1      39.878  33.699  37.420  1.00  0.00     0.058 A 
ATOM     89  C   UNL A   1      40.476  34.963  37.551  1.00  0.00     0.135 A 
ATOM     90  C   UNL A   1      38.992  33.283  38.426  1.00  0.00     0.135 A 
ATOM     91  F   UNL A   1      41.334  35.404  36.618  1.00  0.00    -0.206 F 
ATOM     92  C   UNL A   1      40.221  35.776  38.651  1.00  0.00     0.059 A 
ATOM     93  C   UNL A   1      38.706  34.089  39.523  1.00  0.00     0.059 A 
ATOM     94  F   UNL A   1      38.388  32.087  38.342  1.00  0.00    -0.206 F 
ATOM     95  C   UNL A   1      39.334  35.330  39.632  1.00  0.00     0.060 A 
BRANCH  95  96
ATOM     96  S   UNL A   1      38.986  36.408  41.038  1.00  0.00     0.124 S 
ATOM     97  O   UNL A   1      40.279  36.437  41.714  1.00  0.00    -0.237 OA
ATOM     98  O   UNL A   1      38.583  37.653  40.388  1.00  0.00    -0.237 OA
ATOM     99  O   UNL A   1      37.920  35.706  41.747  1.00  0.00    -0.744 OA
ENDBRANCH  95  96
ENDBRANCH  63  88
ENDBRANCH  37  38
ENDBRANCH  30  32
ENDBRANCH  29  30
ENDBRANCH  28  29
ENDBRANCH   1  28
TORSDOF 19
ENDMDL
MODEL 2
REMARK VINA RESULT:     -11.3      6.304     11.967
REMARK SMILES C[C@@H](C(=O)OCCOC(=O)c1ccc(-c2c3nc(c(-c4c(F)cc(S(=O)(=O)[O-])cc4F)c4ccc([nH]4)c(-c4c(F)cc(S(=O)(=O)[O-])cc4F)c4nc(c(-c5c(F)cc(S(=O)(=O)[O-])cc5F)c5ccc2[nH]5)C=C4)C=C3)cc1)c1ccc(-c2cccc(OC(=O)NC3CC3)c2)c(F)c1
REMARK SMILES IDX 6 1 5 2 3 3 4 4 2 5 1 6 77 7 78 8 96 9 79 10 94 11 80 12
REMARK SMILES IDX 95 13 81 14 82 15 93 16 83 17 85 18 84 19 86 20 87 21 88 22
REMARK SMILES IDX 89 23 90 25 91 26 92 27 7 28 8 29 9 30 10 31 11 32 12 33
REMARK SMILES IDX 76 34 13 35 75 36 14 37 15 38 16 39 69 40 17 41 74 42 68 43
REMARK SMILES IDX 70 44 18 45 73 46 67 47 66 48 19 50 53 51 32 52 52 53 33 54
REMARK SMILES IDX 36 55 51 56 71 57 34 58 35 59 50 61 72 62 37 63 20 64 21 65
REMARK SMILES IDX 30 66 22 67 23 68 29 69 31 70 24 71 25 72 26 73 27 74 28 75
REMARK SMILES IDX 54 76 55 77 64 78 56 79 57 80 63 81 65 82 58 83 59 84 60 85
REMARK SMILES IDX 61 86 62 87 38 88 39 89 48 90 40 91 41 92 47 93 49 94 42 95
REMARK SMILES IDX 43 96 44 97 45 98 46 99
REMARK H PARENT 89 24 70 49 36 60
REMARK Flexibility Score: inf
ROOT
ATOM      1  C   UNL A   1      34.980  32.590  28.496  1.00  0.00     0.274 C 
ENDROOT
BRANCH   1   2
ATOM      2  O   UNL A   1      33.800  32.046  27.874  1.00  0.00    -0.462 OA
BRANCH   2   3
ATOM      3  C   UNL A   1      33.923  30.822  27.290  1.00  0.00     0.313 C 
ATOM      4  O   UNL A   1      34.843  30.046  27.529  1.00  0.00    -0.252 OA
BRANCH   3   5
ATOM      5  C   UNL A   1      32.824  30.547  26.250  1.00  0.00     0.126 C 
ATOM      6  C   UNL A   1      31.420  30.886  26.765  1.00  0.00     0.025 C 
BRANCH   5   7
ATOM      7  C   UNL A   1      32.939  29.144  25.654  1.00  0.00    -0.031 A 
ATOM      8  C   UNL A   1      33.490  28.981  24.371  1.00  0.00     0.005 A 
ATOM      9  C   UNL A   1      32.546  27.985  26.337  1.00  0.00     0.044 A 
ATOM     10  C   UNL A   1      33.654  27.710  23.802  1.00  0.00     0.012 A 
ATOM     11  C   UNL A   1      32.703  26.720  25.758  1.00  0.00     0.131 A 
ATOM     12  C   UNL A   1      33.264  26.549  24.485  1.00  0.00     0.018 A 
ATOM     13  F   UNL A   1      32.329  25.655  26.485  1.00  0.00    -0.206 F 
BRANCH  12  14
ATOM     14  C   UNL A   1      33.461  25.215  23.885  1.00  0.00    -0.012 A 
ATOM     15  C   UNL A   1      32.548  24.698  22.946  1.00  0.00     0.009 A 
ATOM     16  C   UNL A   1      34.550  24.409  24.256  1.00  0.00     0.056 A 
ATOM     17  C   UNL A   1      32.729  23.437  22.374  1.00  0.00     0.004 A 
ATOM     18  C   UNL A   1      34.693  23.130  23.720  1.00  0.00     0.133 A 
ATOM     19  C   UNL A   1      33.808  22.653  22.756  1.00  0.00     0.047 A 
BRANCH  18  20
ATOM     20  O   UNL A   1      35.683  22.200  24.110  1.00  0.00    -0.410 OA
BRANCH  20  21
ATOM     21  C   UNL A   1      35.774  21.550  25.331  1.00  0.00     0.412 C 
ATOM     22  O   UNL A   1      35.027  20.672  25.747  1.00  0.00    -0.224 OA
ATOM     23  N   UNL A   1      36.843  21.958  26.090  1.00  0.00    -0.318 N 
ATOM     24  H   UNL A   1      36.854  21.620  27.014  1.00  0.00     0.167 HD
BRANCH  23  25
ATOM     25  C   UNL A   1      37.940  22.801  25.738  1.00  0.00     0.085 C 
ATOM     26  C   UNL A   1      38.467  23.985  26.497  1.00  0.00     0.027 C 
ATOM     27  C   UNL A   1      39.222  22.692  26.520  1.00  0.00     0.027 C 
ENDBRANCH  23  25
ENDBRANCH  20  21
ENDBRANCH  18  20
ENDBRANCH  12  14
ENDBRANCH   5   7
ENDBRANCH   3   5
ENDBRANCH   2   3
ENDBRANCH   1   2
BRANCH   1  28
ATOM     28  C   UNL A   1      34.965  32.315  29.997  1.00  0.00     0.275 C 
BRANCH  28  29
ATOM     29  O   UNL A   1      36.305  32.087  30.464  1.00  0.00    -0.458 OA
BRANCH  29  30
ATOM     30  C   UNL A   1      36.540  30.869  31.007  1.00  0.00     0.338 C 
ATOM     31  O   UNL A   1      35.899  30.310  31.879  1.00  0.00    -0.246 OA
BRANCH  30  32
ATOM     32  C   UNL A   1      37.717  30.271  30.359  1.00  0.00     0.060 A 
ATOM     33  C   UNL A   1      38.629  29.564  31.134  1.00  0.00     0.016 A 
ATOM     34  C   UNL A   1      37.979  30.515  29.011  1.00  0.00     0.016 A 
ATOM     35  C   UNL A   1      39.849  29.181  30.583  1.00  0.00     0.010 A 
ATOM     36  C   UNL A   1      39.174  30.054  28.442  1.00  0.00     0.010 A 
ATOM     37  C   UNL A   1      40.149  29.421  29.233  1.00  0.00    -0.014 A 
BRANCH  37  38
ATOM     38  C   UNL A   1      41.498  29.071  28.692  1.00  0.00     0.031 A 
ATOM     39  C   UNL A   1      42.638  30.058  28.791  1.00  0.00     0.074 A 
ATOM     40  C   UNL A   1      41.733  27.849  28.171  1.00  0.00     0.049 A 
ATOM     41  N   UNL A   1      43.838  29.991  28.268  1.00  0.00    -0.248 NA
ATOM     42  C   UNL A   1      42.391  31.289  29.557  1.00  0.00     0.031 C 
ATOM     43  C   UNL A   1      40.753  26.766  28.070  1.00  0.00     0.029 A 
ATOM     44  N   UNL A   1      42.888  27.289  27.678  1.00  0.00    -0.354 N 
ATOM     45  C   UNL A   1      44.452  31.204  28.566  1.00  0.00     0.074 A 
ATOM     46  C   UNL A   1      43.503  31.979  29.335  1.00  0.00     0.031 C 
ATOM     47  C   UNL A   1      41.371  25.648  27.660  1.00  0.00     0.029 A 
ATOM     48  C   UNL A   1      42.768  25.952  27.372  1.00  0.00     0.049 A 
ATOM     49  H   UNL A   1      43.723  27.795  27.556  1.00  0.00     0.167 HD
ATOM     50  C   UNL A   1      45.688  31.635  28.214  1.00  0.00     0.037 A 
ATOM     51  C   UNL A   1      43.681  25.069  26.919  1.00  0.00     0.037 A 
ATOM     52  C   UNL A   1      46.666  30.824  27.535  1.00  0.00     0.049 A 
ATOM     53  C   UNL A   1      45.070  25.548  26.598  1.00  0.00     0.074 A 
ATOM     54  C   UNL A   1      47.932  31.180  27.102  1.00  0.00     0.029 A 
ATOM     55  N   UNL A   1      46.500  29.483  27.225  1.00  0.00    -0.354 N 
ATOM     56  N   UNL A   1      45.598  26.732  26.786  1.00  0.00    -0.248 NA
ATOM     57  C   UNL A   1      45.977  24.577  25.969  1.00  0.00     0.031 C 
ATOM     58  C   UNL A   1      48.523  30.058  26.508  1.00  0.00     0.029 A 
ATOM     59  C   UNL A   1      47.639  28.996  26.603  1.00  0.00     0.049 A 
ATOM     60  H   UNL A   1      45.693  28.954  27.419  1.00  0.00     0.167 HD
ATOM     61  C   UNL A   1      46.890  26.657  26.276  1.00  0.00     0.074 A 
ATOM     62  C   UNL A   1      47.083  25.294  25.825  1.00  0.00     0.031 C 
ATOM     63  C   UNL A   1      47.820  27.636  26.163  1.00  0.00     0.037 A 
BRANCH  50  64
ATOM     64  C   UNL A   1      46.035  33.072  28.497  1.00  0.00     0.058 A 
ATOM     65  C   UNL A   1      45.727  34.114  27.611  1.00  0.00     0.135 A 
ATOM     66  C   UNL A   1      46.664  33.408  29.709  1.00  0.00     0.135 A 
ATOM     67  F   UNL A   1      45.139  33.849  26.435  1.00  0.00    -0.206 F 
ATOM     68  C   UNL A   1      46.054  35.437  27.903  1.00  0.00     0.059 A 
ATOM     69  C   UNL A   1      46.977  34.725  30.033  1.00  0.00     0.059 A 
ATOM     70  F   UNL A   1      46.979  32.451  30.596  1.00  0.00    -0.206 F 
ATOM     71  C   UNL A   1      46.682  35.731  29.116  1.00  0.00     0.060 A 
BRANCH  71  72
ATOM     72  S   UNL A   1      47.098  37.449  29.489  1.00  0.00     0.124 S 
ATOM     73  O   UNL A   1      47.911  37.297  30.692  1.00  0.00    -0.237 OA
ATOM     74  O   UNL A   1      47.814  37.869  28.289  1.00  0.00    -0.237 OA
ATOM     75  O   UNL A   1      45.796  38.079  29.688  1.00  0.00    -0.744 OA
ENDBRANCH  71  72
ENDBRANCH  50  64
BRANCH  51  76
ATOM     76  C   UNL A   1      43.317  23.635  26.752  1.00  0.00     0.058 A 
ATOM     77  C   UNL A   1      43.232  22.789  27.869  1.00  0.00     0.135 A 
ATOM     78  C   UNL A   1      43.037  23.083  25.494  1.00  0.00     0.135 A 
ATOM     79  F   UNL A   1      43.501  23.269  29.094  1.00  0.00    -0.206 F 
ATOM     80  C   UNL A   1      42.887  21.448  27.745  1.00  0.00     0.059 A 
ATOM     81  C   UNL A   1      42.660  21.752  25.347  1.00  0.00     0.059 A 
ATOM     82  F   UNL A   1      43.095  23.849  24.394  1.00  0.00    -0.206 F 
ATOM     83  C   UNL A   1      42.599  20.939  26.478  1.00  0.00     0.060 A 
BRANCH  83  84
ATOM     84  S   UNL A   1      42.084  19.215  26.322  1.00  0.00     0.124 S 
ATOM     85  O   UNL A   1      42.194  18.752  27.700  1.00  0.00    -0.237 OA
ATOM     86  O   UNL A   1      40.728  19.338  25.796  1.00  0.00    -0.237 OA
ATOM     87  O   UNL A   1      43.061  18.662  25.388  1.00  0.00    -0.744 OA
ENDBRANCH  83  84
ENDBRANCH  51  76
BRANCH  63  88
ATOM     88  C   UNL A   1      49.127  27.277  25.515  1.00  0.00     0.058 A 
ATOM     89  C   UNL A   1      49.314  27.416  24.130  1.00  0.00     0.135 A 
ATOM     90  C   UNL A   1      50.218  26.845  26.285  1.00  0.00     0.135 A 
ATOM     91  F   UNL A   1      48.300  27.822  23.350  1.00  0.00    -0.206 F 
ATOM     92  C   UNL A   1      50.531  27.117  23.527  1.00  0.00     0.059 A 
ATOM     93  C   UNL A   1      51.452  26.562  25.706  1.00  0.00     0.059 A 
ATOM     94  F   UNL A   1      50.095  26.705  27.614  1.00  0.00    -0.206 F 
ATOM     95  C   UNL A   1      51.595  26.691  24.324  1.00  0.00     0.060 A 
BRANCH  95  96
ATOM     96  S   UNL A   1      53.180  26.338  23.534  1.00  0.00     0.124 S 
ATOM     97  O   UNL A   1      53.889  27.599  23.719  1.00  0.00    -0.237 OA
ATOM     98  O   UNL A   1      53.678  25.210  24.317  1.00  0.00    -0.237 OA
ATOM     99  O   UNL A   1      52.809  26.020  22.158  1.00  0.00    -0.744 OA
ENDBRANCH  95  96
ENDBRANCH  63  88
ENDBRANCH  37  38
ENDBRANCH  30  32
ENDBRANCH  29  30
ENDBRANCH  28  29
ENDBRANCH   1  28
TORSDOF 19
ENDMDL
MODEL 3
REMARK VINA RESULT:     -11.2      3.403     10.220
REMARK SMILES C[C@@H](C(=O)OCCOC(=O)c1ccc(-c2c3nc(c(-c4c(F)cc(S(=O)(=O)[O-])cc4F)c4ccc([nH]4)c(-c4c(F)cc(S(=O)(=O)[O-])cc4F)c4nc(c(-c5c(F)cc(S(=O)(=O)[O-])cc5F)c5ccc2[nH]5)C=C4)C=C3)cc1)c1ccc(-c2cccc(OC(=O)NC3CC3)c2)c(F)c1
REMARK SMILES IDX 6 1 5 2 3 3 4 4 2 5 1 6 77 7 78 8 96 9 79 10 94 11 80 12
REMARK SMILES IDX 95 13 81 14 82 15 93 16 83 17 85 18 84 19 86 20 87 21 88 22
REMARK SMILES IDX 89 23 90 25 91 26 92 27 7 28 8 29 9 30 10 31 11 32 12 33
REMARK SMILES IDX 76 34 13 35 75 36 14 37 15 38 16 39 69 40 17 41 74 42 68 43
REMARK SMILES IDX 70 44 18 45 73 46 67 47 66 48 19 50 53 51 32 52 52 53 33 54
REMARK SMILES IDX 36 55 51 56 71 57 34 58 35 59 50 61 72 62 37 63 20 64 21 65
REMARK SMILES IDX 30 66 22 67 23 68 29 69 31 70 24 71 25 72 26 73 27 74 28 75
REMARK SMILES IDX 54 76 55 77 64 78 56 79 57 80 63 81 65 82 58 83 59 84 60 85
REMARK SMILES IDX 61 86 62 87 38 88 39 89 48 90 40 91 41 92 47 93 49 94 42 95
REMARK SMILES IDX 43 96 44 97 45 98 46 99
REMARK H PARENT 89 24 70 49 36 60
REMARK Flexibility Score: inf
ROOT
ATOM      1  C   UNL A   1      33.275  34.552  28.421  1.00  0.00     0.274 C 
ENDROOT
BRANCH   1   2
ATOM      2  O   UNL A   1      33.795  33.261  28.795  1.00  0.00    -0.462 OA
BRANCH   2   3
ATOM      3  C   UNL A   1      34.903  32.831  28.130  1.00  0.00     0.313 C 
ATOM      4  O   UNL A   1      35.612  33.563  27.447  1.00  0.00    -0.252 OA
BRANCH   3   5
ATOM      5  C   UNL A   1      35.129  31.316  28.272  1.00  0.00     0.126 C 
ATOM      6  C   UNL A   1      36.591  30.909  28.047  1.00  0.00     0.025 C 
BRANCH   5   7
ATOM      7  C   UNL A   1      34.131  30.509  27.440  1.00  0.00    -0.031 A 
ATOM      8  C   UNL A   1      34.346  29.134  27.247  1.00  0.00     0.005 A 
ATOM      9  C   UNL A   1      32.977  31.067  26.872  1.00  0.00     0.044 A 
ATOM     10  C   UNL A   1      33.436  28.346  26.528  1.00  0.00     0.012 A 
ATOM     11  C   UNL A   1      32.078  30.276  26.146  1.00  0.00     0.131 A 
ATOM     12  C   UNL A   1      32.279  28.901  25.961  1.00  0.00     0.018 A 
ATOM     13  F   UNL A   1      30.982  30.875  25.656  1.00  0.00    -0.206 F 
BRANCH  12  14
ATOM     14  C   UNL A   1      31.317  28.058  25.224  1.00  0.00    -0.012 A 
ATOM     15  C   UNL A   1      31.320  26.658  25.366  1.00  0.00     0.009 A 
ATOM     16  C   UNL A   1      30.390  28.627  24.335  1.00  0.00     0.056 A 
ATOM     17  C   UNL A   1      30.413  25.854  24.671  1.00  0.00     0.004 A 
ATOM     18  C   UNL A   1      29.525  27.813  23.606  1.00  0.00     0.133 A 
ATOM     19  C   UNL A   1      29.508  26.434  23.794  1.00  0.00     0.047 A 
BRANCH  18  20
ATOM     20  O   UNL A   1      28.637  28.275  22.607  1.00  0.00    -0.410 OA
BRANCH  20  21
ATOM     21  C   UNL A   1      27.405  28.877  22.807  1.00  0.00     0.412 C 
ATOM     22  O   UNL A   1      26.483  28.444  23.490  1.00  0.00    -0.224 OA
ATOM     23  N   UNL A   1      27.278  30.087  22.172  1.00  0.00    -0.318 N 
ATOM     24  H   UNL A   1      26.371  30.471  22.178  1.00  0.00     0.167 HD
BRANCH  23  25
ATOM     25  C   UNL A   1      28.265  30.871  21.503  1.00  0.00     0.085 C 
ATOM     26  C   UNL A   1      28.127  32.275  20.987  1.00  0.00     0.027 C 
ATOM     27  C   UNL A   1      28.907  32.017  22.239  1.00  0.00     0.027 C 
ENDBRANCH  23  25
ENDBRANCH  20  21
ENDBRANCH  18  20
ENDBRANCH  12  14
ENDBRANCH   5   7
ENDBRANCH   3   5
ENDBRANCH   2   3
ENDBRANCH   1   2
BRANCH   1  28
ATOM     28  C   UNL A   1      33.342  35.514  29.604  1.00  0.00     0.275 C 
BRANCH  28  29
ATOM     29  O   UNL A   1      32.635  34.957  30.725  1.00  0.00    -0.458 OA
BRANCH  29  30
ATOM     30  C   UNL A   1      32.840  35.571  31.915  1.00  0.00     0.338 C 
ATOM     31  O   UNL A   1      32.201  36.491  32.393  1.00  0.00    -0.246 OA
BRANCH  30  32
ATOM     32  C   UNL A   1      33.979  34.936  32.595  1.00  0.00     0.060 A 
ATOM     33  C   UNL A   1      35.195  35.608  32.647  1.00  0.00     0.016 A 
ATOM     34  C   UNL A   1      33.875  33.630  33.073  1.00  0.00     0.016 A 
ATOM     35  C   UNL A   1      36.332  34.937  33.090  1.00  0.00     0.010 A 
ATOM     36  C   UNL A   1      35.008  32.990  33.595  1.00  0.00     0.010 A 
ATOM     37  C   UNL A   1      36.265  33.619  33.567  1.00  0.00    -0.014 A 
BRANCH  37  38
ATOM     38  C   UNL A   1      37.515  32.900  33.959  1.00  0.00     0.031 A 
ATOM     39  C   UNL A   1      38.097  33.080  35.342  1.00  0.00     0.074 A 
ATOM     40  C   UNL A   1      38.103  32.030  33.111  1.00  0.00     0.049 A 
ATOM     41  N   UNL A   1      39.236  32.648  35.824  1.00  0.00    -0.248 NA
ATOM     42  C   UNL A   1      37.307  33.869  36.301  1.00  0.00     0.031 C 
ATOM     43  C   UNL A   1      37.621  31.697  31.769  1.00  0.00     0.029 A 
ATOM     44  N   UNL A   1      39.202  31.221  33.272  1.00  0.00    -0.354 N 
ATOM     45  C   UNL A   1      39.337  33.185  37.104  1.00  0.00     0.074 A 
ATOM     46  C   UNL A   1      38.135  33.955  37.334  1.00  0.00     0.031 C 
ATOM     47  C   UNL A   1      38.346  30.679  31.280  1.00  0.00     0.029 A 
ATOM     48  C   UNL A   1      39.407  30.351  32.225  1.00  0.00     0.049 A 
ATOM     49  H   UNL A   1      39.789  31.260  34.061  1.00  0.00     0.167 HD
ATOM     50  C   UNL A   1      40.349  33.059  37.997  1.00  0.00     0.037 A 
ATOM     51  C   UNL A   1      40.338  29.391  32.049  1.00  0.00     0.037 A 
ATOM     52  C   UNL A   1      41.498  32.211  37.803  1.00  0.00     0.049 A 
ATOM     53  C   UNL A   1      41.416  29.216  33.083  1.00  0.00     0.074 A 
ATOM     54  C   UNL A   1      42.595  32.042  38.632  1.00  0.00     0.029 A 
ATOM     55  N   UNL A   1      41.679  31.361  36.724  1.00  0.00    -0.354 N 
ATOM     56  N   UNL A   1      41.554  29.814  34.241  1.00  0.00    -0.248 NA
ATOM     57  C   UNL A   1      42.487  28.258  32.769  1.00  0.00     0.031 C 
ATOM     58  C   UNL A   1      43.452  31.107  38.038  1.00  0.00     0.029 A 
ATOM     59  C   UNL A   1      42.870  30.668  36.860  1.00  0.00     0.049 A 
ATOM     60  H   UNL A   1      41.052  31.263  35.971  1.00  0.00     0.167 HD
ATOM     61  C   UNL A   1      42.739  29.325  34.781  1.00  0.00     0.074 A 
ATOM     62  C   UNL A   1      43.248  28.339  33.851  1.00  0.00     0.031 C 
ATOM     63  C   UNL A   1      43.364  29.685  35.929  1.00  0.00     0.037 A 
BRANCH  50  64
ATOM     64  C   UNL A   1      40.296  33.906  39.239  1.00  0.00     0.058 A 
ATOM     65  C   UNL A   1      39.680  33.478  40.423  1.00  0.00     0.135 A 
ATOM     66  C   UNL A   1      40.912  35.170  39.243  1.00  0.00     0.135 A 
ATOM     67  F   UNL A   1      39.065  32.286  40.472  1.00  0.00    -0.206 F 
ATOM     68  C   UNL A   1      39.653  34.282  41.561  1.00  0.00     0.059 A 
ATOM     69  C   UNL A   1      40.920  35.980  40.375  1.00  0.00     0.059 A 
ATOM     70  F   UNL A   1      41.521  35.630  38.137  1.00  0.00    -0.206 F 
ATOM     71  C   UNL A   1      40.273  35.533  41.525  1.00  0.00     0.060 A 
BRANCH  71  72
ATOM     72  S   UNL A   1      40.238  36.568  43.005  1.00  0.00     0.124 S 
ATOM     73  O   UNL A   1      41.662  36.707  43.298  1.00  0.00    -0.237 OA
ATOM     74  O   UNL A   1      39.568  37.774  42.532  1.00  0.00    -0.237 OA
ATOM     75  O   UNL A   1      39.477  35.768  43.961  1.00  0.00    -0.744 OA
ENDBRANCH  71  72
ENDBRANCH  50  64
BRANCH  51  76
ATOM     76  C   UNL A   1      40.287  28.509  30.852  1.00  0.00     0.058 A 
ATOM     77  C   UNL A   1      41.152  28.729  29.769  1.00  0.00     0.135 A 
ATOM     78  C   UNL A   1      39.396  27.429  30.764  1.00  0.00     0.135 A 
ATOM     79  F   UNL A   1      42.017  29.756  29.801  1.00  0.00    -0.206 F 
ATOM     80  C   UNL A   1      41.132  27.917  28.640  1.00  0.00     0.059 A 
ATOM     81  C   UNL A   1      39.378  26.583  29.660  1.00  0.00     0.059 A 
ATOM     82  F   UNL A   1      38.553  27.168  31.775  1.00  0.00    -0.206 F 
ATOM     83  C   UNL A   1      40.243  26.842  28.597  1.00  0.00     0.060 A 
BRANCH  83  84
ATOM     84  S   UNL A   1      40.263  25.745  27.163  1.00  0.00     0.124 S 
ATOM     85  O   UNL A   1      38.877  25.296  27.120  1.00  0.00    -0.237 OA
ATOM     86  O   UNL A   1      40.678  26.640  26.088  1.00  0.00    -0.237 OA
ATOM     87  O   UNL A   1      41.246  24.732  27.536  1.00  0.00    -0.744 OA
ENDBRANCH  83  84
ENDBRANCH  51  76
BRANCH  63  88
ATOM     88  C   UNL A   1      44.675  29.019  36.241  1.00  0.00     0.058 A 
ATOM     89  C   UNL A   1      44.723  27.803  36.942  1.00  0.00     0.135 A 
ATOM     90  C   UNL A   1      45.886  29.566  35.789  1.00  0.00     0.135 A 
ATOM     91  F   UNL A   1      43.592  27.242  37.399  1.00  0.00    -0.206 F 
ATOM     92  C   UNL A   1      45.930  27.164  37.205  1.00  0.00     0.059 A 
ATOM     93  C   UNL A   1      47.103  28.932  36.021  1.00  0.00     0.059 A 
ATOM     94  F   UNL A   1      45.893  30.721  35.105  1.00  0.00    -0.206 F 
ATOM     95  C   UNL A   1      47.115  27.736  36.740  1.00  0.00     0.060 A 
BRANCH  95  96
ATOM     96  S   UNL A   1      48.672  26.879  37.059  1.00  0.00     0.124 S 
ATOM     97  O   UNL A   1      49.568  27.535  36.113  1.00  0.00    -0.237 OA
ATOM     98  O   UNL A   1      48.912  27.176  38.469  1.00  0.00    -0.237 OA
ATOM     99  O   UNL A   1      48.358  25.484  36.764  1.00  0.00    -0.744 OA
ENDBRANCH  95  96
ENDBRANCH  63  88
ENDBRANCH  37  38
ENDBRANCH  30  32
ENDBRANCH  29  30
ENDBRANCH  28  29
ENDBRANCH   1  28
TORSDOF 19
ENDMDL
