MODEL 1
REMARK VINA RESULT:     -10.9      0.000      0.000
REMARK SMILES Cc1nn(C)cc1C[NH+]1CCN(C(=O)c2cnn(CC(=O)OCCOC(=O)c3ccc(-c4c5nc(c(-c6c(F)cc(S(=O)(=O)[O-])cc6F)c6ccc([nH]6)c(-c6c(F)cc(S(=O)(=O)[O-])cc6F)c6nc(c(-c7c(F)cc(S(=O)(=O)[O-])cc7F)c7ccc4[nH]7)C=C6)C=C5)cc3)c2)CC1
REMARK SMILES IDX 23 1 22 2 20 3 21 4 19 5 18 6 15 7 16 8 94 9 17 10 13 11
REMARK SMILES IDX 9 12 10 13 96 14 11 16 95 17 12 18 14 19 8 20 7 21 1 22 2 23
REMARK SMILES IDX 3 24 4 25 6 26 5 27 24 28 25 29 26 30 27 31 28 32 29 33
REMARK SMILES IDX 93 34 30 35 92 36 31 37 32 38 33 39 86 40 34 41 91 42 85 43
REMARK SMILES IDX 87 44 35 45 90 46 84 47 83 48 36 50 70 51 49 52 69 53 50 54
REMARK SMILES IDX 53 55 68 56 88 57 51 58 52 59 67 61 89 62 54 63 37 64 38 65
REMARK SMILES IDX 47 66 39 67 40 68 46 69 48 70 41 71 42 72 43 73 44 74 45 75
REMARK SMILES IDX 71 76 72 77 81 78 73 79 74 80 80 81 82 82 75 83 76 84 77 85
REMARK SMILES IDX 78 86 79 87 55 88 56 89 65 90 57 91 58 92 64 93 66 94 59 95
REMARK SMILES IDX 60 96 61 97 62 98 63 99
REMARK H PARENT 9 15 87 49 53 60
REMARK Flexibility Score: inf
ROOT
ATOM      1  C   UNL A   1      33.283  35.128  28.766  1.00  0.00     0.274 C 
ENDROOT
BRANCH   1   2
ATOM      2  O   UNL A   1      33.843  35.263  30.090  1.00  0.00    -0.461 OA
BRANCH   2   3
ATOM      3  C   UNL A   1      33.098  35.983  30.976  1.00  0.00     0.327 C 
ATOM      4  O   UNL A   1      32.607  37.080  30.715  1.00  0.00    -0.250 OA
BRANCH   3   5
ATOM      5  C   UNL A   1      33.049  35.409  32.363  1.00  0.00     0.266 C 
BRANCH   5   6
ATOM      6  N   UNL A   1      34.112  34.482  32.703  1.00  0.00    -0.261 N 
ATOM      7  C   UNL A   1      35.812  33.521  33.731  1.00  0.00     0.078 A 
ATOM      8  C   UNL A   1      35.038  32.603  32.991  1.00  0.00     0.149 A 
ATOM      9  C   UNL A   1      35.160  34.728  33.547  1.00  0.00     0.123 A 
ATOM     10  N   UNL A   1      33.972  33.172  32.420  1.00  0.00    -0.180 NA
BRANCH   7  11
ATOM     11  C   UNL A   1      36.942  33.299  34.615  1.00  0.00     0.257 C 
ATOM     12  N   UNL A   1      41.050  33.698  33.249  1.00  0.00    -0.328 N 
ATOM     13  C   UNL A   1      40.724  32.950  34.462  1.00  0.00     0.284 C 
ATOM     14  C   UNL A   1      39.997  33.536  32.243  1.00  0.00     0.284 C 
ATOM     15  H   UNL A   1      41.884  33.259  32.860  1.00  0.00     0.348 HD
ATOM     16  C   UNL A   1      39.321  33.190  35.038  1.00  0.00     0.181 C 
ATOM     17  C   UNL A   1      38.534  33.698  32.707  1.00  0.00     0.181 C 
ATOM     18  N   UNL A   1      38.230  33.233  34.066  1.00  0.00    -0.327 N 
ATOM     19  O   UNL A   1      36.753  33.232  35.831  1.00  0.00    -0.269 OA
BRANCH  12  20
ATOM     20  C   UNL A   1      41.614  35.038  33.420  1.00  0.00     0.302 C 
BRANCH  20  21
ATOM     21  C   UNL A   1      42.969  35.219  32.830  1.00  0.00     0.047 A 
ATOM     22  C   UNL A   1      42.514  35.085  30.241  1.00  0.00     0.069 C 
ATOM     23  C   UNL A   1      43.358  35.214  31.456  1.00  0.00     0.068 A 
ATOM     24  N   UNL A   1      44.689  35.286  31.318  1.00  0.00    -0.178 NA
ATOM     25  N   UNL A   1      45.141  35.305  32.581  1.00  0.00    -0.275 N 
ATOM     26  C   UNL A   1      44.152  35.454  33.502  1.00  0.00     0.118 A 
ATOM     27  C   UNL A   1      46.535  35.054  32.852  1.00  0.00     0.173 C 
ENDBRANCH  20  21
ENDBRANCH  12  20
ENDBRANCH   7  11
ENDBRANCH   5   6
ENDBRANCH   3   5
ENDBRANCH   2   3
ENDBRANCH   1   2
BRANCH   1  28
ATOM     28  C   UNL A   1      33.766  33.881  28.030  1.00  0.00     0.275 C 
BRANCH  28  29
ATOM     29  O   UNL A   1      34.451  32.969  28.887  1.00  0.00    -0.458 OA
BRANCH  29  30
ATOM     30  C   UNL A   1      34.877  31.859  28.235  1.00  0.00     0.338 C 
ATOM     31  O   UNL A   1      34.306  31.305  27.315  1.00  0.00    -0.246 OA
BRANCH  30  32
ATOM     32  C   UNL A   1      36.044  31.288  28.912  1.00  0.00     0.060 A 
ATOM     33  C   UNL A   1      37.096  32.146  29.244  1.00  0.00     0.016 A 
ATOM     34  C   UNL A   1      36.186  29.895  28.954  1.00  0.00     0.016 A 
ATOM     35  C   UNL A   1      38.342  31.602  29.503  1.00  0.00     0.010 A 
ATOM     36  C   UNL A   1      37.432  29.357  29.196  1.00  0.00     0.010 A 
ATOM     37  C   UNL A   1      38.512  30.216  29.409  1.00  0.00    -0.014 A 
BRANCH  37  38
ATOM     38  C   UNL A   1      39.847  29.671  29.597  1.00  0.00     0.031 A 
ATOM     39  C   UNL A   1      40.265  29.568  31.012  1.00  0.00     0.074 A 
ATOM     40  C   UNL A   1      40.564  29.143  28.584  1.00  0.00     0.049 A 
ATOM     41  N   UNL A   1      41.248  30.162  31.603  1.00  0.00    -0.248 NA
ATOM     42  C   UNL A   1      39.409  28.779  31.914  1.00  0.00     0.031 C 
ATOM     43  C   UNL A   1      40.079  28.875  27.226  1.00  0.00     0.029 A 
ATOM     44  N   UNL A   1      41.826  28.617  28.576  1.00  0.00    -0.354 N 
ATOM     45  C   UNL A   1      41.280  29.622  32.886  1.00  0.00     0.074 A 
ATOM     46  C   UNL A   1      40.026  28.946  33.083  1.00  0.00     0.031 C 
ATOM     47  C   UNL A   1      40.943  28.044  26.604  1.00  0.00     0.029 A 
ATOM     48  C   UNL A   1      42.101  27.839  27.459  1.00  0.00     0.049 A 
ATOM     49  H   UNL A   1      42.479  28.775  29.296  1.00  0.00     0.167 HD
ATOM     50  C   UNL A   1      42.454  29.495  33.559  1.00  0.00     0.037 A 
ATOM     51  C   UNL A   1      43.175  27.038  27.258  1.00  0.00     0.037 A 
ATOM     52  C   UNL A   1      43.498  30.286  32.967  1.00  0.00     0.049 A 
ATOM     53  C   UNL A   1      44.269  27.481  28.155  1.00  0.00     0.074 A 
ATOM     54  C   UNL A   1      43.899  31.603  32.984  1.00  0.00     0.029 A 
ATOM     55  N   UNL A   1      44.137  29.676  31.924  1.00  0.00    -0.354 N 
ATOM     56  N   UNL A   1      44.868  28.636  28.057  1.00  0.00    -0.248 NA
ATOM     57  C   UNL A   1      44.529  26.748  29.391  1.00  0.00     0.031 C 
ATOM     58  C   UNL A   1      44.720  31.791  31.833  1.00  0.00     0.029 A 
ATOM     59  C   UNL A   1      44.808  30.585  31.146  1.00  0.00     0.049 A 
ATOM     60  H   UNL A   1      44.118  28.707  31.752  1.00  0.00     0.167 HD
ATOM     61  C   UNL A   1      45.225  28.947  29.352  1.00  0.00     0.074 A 
ATOM     62  C   UNL A   1      45.157  27.695  30.091  1.00  0.00     0.031 C 
ATOM     63  C   UNL A   1      45.202  30.234  29.799  1.00  0.00     0.037 A 
BRANCH  50  64
ATOM     64  C   UNL A   1      42.792  28.313  34.441  1.00  0.00     0.058 A 
ATOM     65  C   UNL A   1      43.075  28.529  35.804  1.00  0.00     0.135 A 
ATOM     66  C   UNL A   1      43.144  27.039  33.940  1.00  0.00     0.135 A 
ATOM     67  F   UNL A   1      42.802  29.712  36.379  1.00  0.00    -0.206 F 
ATOM     68  C   UNL A   1      43.706  27.569  36.597  1.00  0.00     0.059 A 
ATOM     69  C   UNL A   1      43.719  26.047  34.726  1.00  0.00     0.059 A 
ATOM     70  F   UNL A   1      43.043  26.730  32.641  1.00  0.00    -0.206 F 
ATOM     71  C   UNL A   1      44.035  26.334  36.042  1.00  0.00     0.060 A 
BRANCH  71  72
ATOM     72  S   UNL A   1      44.933  25.124  37.029  1.00  0.00     0.124 S 
ATOM     73  O   UNL A   1      44.761  23.915  36.232  1.00  0.00    -0.237 OA
ATOM     74  O   UNL A   1      46.278  25.688  37.055  1.00  0.00    -0.237 OA
ATOM     75  O   UNL A   1      44.228  25.146  38.307  1.00  0.00    -0.744 OA
ENDBRANCH  71  72
ENDBRANCH  50  64
BRANCH  51  76
ATOM     76  C   UNL A   1      43.241  25.764  26.500  1.00  0.00     0.058 A 
ATOM     77  C   UNL A   1      44.113  25.609  25.409  1.00  0.00     0.135 A 
ATOM     78  C   UNL A   1      42.650  24.586  27.000  1.00  0.00     0.135 A 
ATOM     79  F   UNL A   1      44.734  26.677  24.884  1.00  0.00    -0.206 F 
ATOM     80  C   UNL A   1      44.422  24.355  24.877  1.00  0.00     0.059 A 
ATOM     81  C   UNL A   1      42.933  23.327  26.478  1.00  0.00     0.059 A 
ATOM     82  F   UNL A   1      41.850  24.618  28.076  1.00  0.00    -0.206 F 
ATOM     83  C   UNL A   1      43.842  23.216  25.433  1.00  0.00     0.060 A 
BRANCH  83  84
ATOM     84  S   UNL A   1      44.377  21.585  24.866  1.00  0.00     0.124 S 
ATOM     85  O   UNL A   1      44.504  21.793  23.428  1.00  0.00    -0.237 OA
ATOM     86  O   UNL A   1      45.625  21.400  25.597  1.00  0.00    -0.237 OA
ATOM     87  O   UNL A   1      43.282  20.709  25.276  1.00  0.00    -0.744 OA
ENDBRANCH  83  84
ENDBRANCH  51  76
BRANCH  63  88
ATOM     88  C   UNL A   1      45.434  31.325  28.802  1.00  0.00     0.058 A 
ATOM     89  C   UNL A   1      46.692  31.714  28.315  1.00  0.00     0.135 A 
ATOM     90  C   UNL A   1      44.307  31.970  28.269  1.00  0.00     0.135 A 
ATOM     91  F   UNL A   1      47.810  31.096  28.722  1.00  0.00    -0.206 F 
ATOM     92  C   UNL A   1      46.823  32.727  27.362  1.00  0.00     0.059 A 
ATOM     93  C   UNL A   1      44.411  32.960  27.299  1.00  0.00     0.059 A 
ATOM     94  F   UNL A   1      43.074  31.610  28.668  1.00  0.00    -0.206 F 
ATOM     95  C   UNL A   1      45.675  33.343  26.859  1.00  0.00     0.060 A 
BRANCH  95  96
ATOM     96  S   UNL A   1      45.839  34.603  25.576  1.00  0.00     0.124 S 
ATOM     97  O   UNL A   1      44.930  34.112  24.545  1.00  0.00    -0.237 OA
ATOM     98  O   UNL A   1      45.418  35.818  26.267  1.00  0.00    -0.237 OA
ATOM     99  O   UNL A   1      47.258  34.554  25.230  1.00  0.00    -0.744 OA
ENDBRANCH  95  96
ENDBRANCH  63  88
ENDBRANCH  37  38
ENDBRANCH  30  32
ENDBRANCH  29  30
ENDBRANCH  28  29
ENDBRANCH   1  28
TORSDOF 18
ENDMDL
MODEL 2
REMARK VINA RESULT:     -10.7      5.335      8.850
REMARK SMILES Cc1nn(C)cc1C[NH+]1CCN(C(=O)c2cnn(CC(=O)OCCOC(=O)c3ccc(-c4c5nc(c(-c6c(F)cc(S(=O)(=O)[O-])cc6F)c6ccc([nH]6)c(-c6c(F)cc(S(=O)(=O)[O-])cc6F)c6nc(c(-c7c(F)cc(S(=O)(=O)[O-])cc7F)c7ccc4[nH]7)C=C6)C=C5)cc3)c2)CC1
REMARK SMILES IDX 23 1 22 2 20 3 21 4 19 5 18 6 15 7 16 8 94 9 17 10 13 11
REMARK SMILES IDX 9 12 10 13 96 14 11 16 95 17 12 18 14 19 8 20 7 21 1 22 2 23
REMARK SMILES IDX 3 24 4 25 6 26 5 27 24 28 25 29 26 30 27 31 28 32 29 33
REMARK SMILES IDX 93 34 30 35 92 36 31 37 32 38 33 39 86 40 34 41 91 42 85 43
REMARK SMILES IDX 87 44 35 45 90 46 84 47 83 48 36 50 70 51 49 52 69 53 50 54
REMARK SMILES IDX 53 55 68 56 88 57 51 58 52 59 67 61 89 62 54 63 37 64 38 65
REMARK SMILES IDX 47 66 39 67 40 68 46 69 48 70 41 71 42 72 43 73 44 74 45 75
REMARK SMILES IDX 71 76 72 77 81 78 73 79 74 80 80 81 82 82 75 83 76 84 77 85
REMARK SMILES IDX 78 86 79 87 55 88 56 89 65 90 57 91 58 92 64 93 66 94 59 95
REMARK SMILES IDX 60 96 61 97 62 98 63 99
REMARK H PARENT 9 15 87 49 53 60
REMARK Flexibility Score: inf
ROOT
ATOM      1  C   UNL A   1      32.794  29.017  27.292  1.00  0.00     0.274 C 
ENDROOT
BRANCH   1   2
ATOM      2  O   UNL A   1      31.401  28.650  27.190  1.00  0.00    -0.461 OA
BRANCH   2   3
ATOM      3  C   UNL A   1      31.127  27.598  26.368  1.00  0.00     0.327 C 
ATOM      4  O   UNL A   1      30.896  26.461  26.776  1.00  0.00    -0.250 OA
BRANCH   3   5
ATOM      5  C   UNL A   1      31.284  27.892  24.903  1.00  0.00     0.266 C 
BRANCH   5   6
ATOM      6  N   UNL A   1      31.865  26.830  24.103  1.00  0.00    -0.261 N 
ATOM      7  C   UNL A   1      33.056  25.080  23.481  1.00  0.00     0.078 A 
ATOM      8  C   UNL A   1      31.905  25.261  22.686  1.00  0.00     0.149 A 
ATOM      9  C   UNL A   1      32.978  26.099  24.413  1.00  0.00     0.123 A 
ATOM     10  N   UNL A   1      31.149  26.283  23.101  1.00  0.00    -0.180 NA
BRANCH   7  11
ATOM     11  C   UNL A   1      34.043  24.016  23.475  1.00  0.00     0.257 C 
ATOM     12  N   UNL A   1      33.249  20.126  25.247  1.00  0.00    -0.328 N 
ATOM     13  C   UNL A   1      34.616  20.578  24.991  1.00  0.00     0.284 C 
ATOM     14  C   UNL A   1      32.397  21.253  25.636  1.00  0.00     0.284 C 
ATOM     15  H   UNL A   1      33.300  19.515  26.062  1.00  0.00     0.348 HD
ATOM     16  C   UNL A   1      34.758  21.775  24.041  1.00  0.00     0.181 C 
ATOM     17  C   UNL A   1      32.485  22.542  24.791  1.00  0.00     0.181 C 
ATOM     18  N   UNL A   1      33.808  22.868  24.244  1.00  0.00    -0.327 N 
ATOM     19  O   UNL A   1      35.035  24.117  22.750  1.00  0.00    -0.269 OA
BRANCH  12  20
ATOM     20  C   UNL A   1      32.683  19.146  24.319  1.00  0.00     0.302 C 
BRANCH  20  21
ATOM     21  C   UNL A   1      32.897  17.726  24.713  1.00  0.00     0.047 A 
ATOM     22  C   UNL A   1      34.339  16.766  22.731  1.00  0.00     0.069 C 
ATOM     23  C   UNL A   1      33.592  16.694  24.012  1.00  0.00     0.068 A 
ATOM     24  N   UNL A   1      33.468  15.508  24.627  1.00  0.00    -0.178 NA
ATOM     25  N   UNL A   1      32.683  15.775  25.681  1.00  0.00    -0.275 N 
ATOM     26  C   UNL A   1      32.475  17.105  25.873  1.00  0.00     0.118 A 
ATOM     27  C   UNL A   1      32.056  14.697  26.404  1.00  0.00     0.173 C 
ENDBRANCH  20  21
ENDBRANCH  12  20
ENDBRANCH   7  11
ENDBRANCH   5   6
ENDBRANCH   3   5
ENDBRANCH   2   3
ENDBRANCH   1   2
BRANCH   1  28
ATOM     28  C   UNL A   1      33.050  30.500  27.034  1.00  0.00     0.275 C 
BRANCH  28  29
ATOM     29  O   UNL A   1      34.439  30.828  27.049  1.00  0.00    -0.458 OA
BRANCH  29  30
ATOM     30  C   UNL A   1      34.769  31.654  28.072  1.00  0.00     0.338 C 
ATOM     31  O   UNL A   1      34.274  32.740  28.304  1.00  0.00    -0.246 OA
BRANCH  30  32
ATOM     32  C   UNL A   1      35.951  31.147  28.773  1.00  0.00     0.060 A 
ATOM     33  C   UNL A   1      37.005  32.034  29.011  1.00  0.00     0.016 A 
ATOM     34  C   UNL A   1      36.101  29.763  28.931  1.00  0.00     0.016 A 
ATOM     35  C   UNL A   1      38.257  31.519  29.293  1.00  0.00     0.010 A 
ATOM     36  C   UNL A   1      37.354  29.252  29.195  1.00  0.00     0.010 A 
ATOM     37  C   UNL A   1      38.433  30.131  29.315  1.00  0.00    -0.014 A 
BRANCH  37  38
ATOM     38  C   UNL A   1      39.774  29.608  29.523  1.00  0.00     0.031 A 
ATOM     39  C   UNL A   1      40.171  29.511  30.945  1.00  0.00     0.074 A 
ATOM     40  C   UNL A   1      40.516  29.093  28.523  1.00  0.00     0.049 A 
ATOM     41  N   UNL A   1      41.133  30.122  31.553  1.00  0.00    -0.248 NA
ATOM     42  C   UNL A   1      39.315  28.707  31.833  1.00  0.00     0.031 C 
ATOM     43  C   UNL A   1      40.058  28.818  27.156  1.00  0.00     0.029 A 
ATOM     44  N   UNL A   1      41.787  28.589  28.534  1.00  0.00    -0.354 N 
ATOM     45  C   UNL A   1      41.154  29.582  32.835  1.00  0.00     0.074 A 
ATOM     46  C   UNL A   1      39.909  28.884  33.012  1.00  0.00     0.031 C 
ATOM     47  C   UNL A   1      40.946  28.002  26.548  1.00  0.00     0.029 A 
ATOM     48  C   UNL A   1      42.093  27.817  27.421  1.00  0.00     0.049 A 
ATOM     49  H   UNL A   1      42.425  28.757  29.265  1.00  0.00     0.167 HD
ATOM     50  C   UNL A   1      42.319  29.474  33.527  1.00  0.00     0.037 A 
ATOM     51  C   UNL A   1      43.184  27.034  27.237  1.00  0.00     0.037 A 
ATOM     52  C   UNL A   1      43.359  30.283  32.953  1.00  0.00     0.049 A 
ATOM     53  C   UNL A   1      44.256  27.495  28.153  1.00  0.00     0.074 A 
ATOM     54  C   UNL A   1      43.737  31.607  32.977  1.00  0.00     0.029 A 
ATOM     55  N   UNL A   1      44.026  29.685  31.920  1.00  0.00    -0.354 N 
ATOM     56  N   UNL A   1      44.836  28.660  28.065  1.00  0.00    -0.248 NA
ATOM     57  C   UNL A   1      44.509  26.766  29.392  1.00  0.00     0.031 C 
ATOM     58  C   UNL A   1      44.574  31.810  31.839  1.00  0.00     0.029 A 
ATOM     59  C   UNL A   1      44.693  30.605  31.153  1.00  0.00     0.049 A 
ATOM     60  H   UNL A   1      44.026  28.716  31.747  1.00  0.00     0.167 HD
ATOM     61  C   UNL A   1      45.167  28.976  29.365  1.00  0.00     0.074 A 
ATOM     62  C   UNL A   1      45.108  27.723  30.102  1.00  0.00     0.031 C 
ATOM     63  C   UNL A   1      45.115  30.262  29.812  1.00  0.00     0.037 A 
BRANCH  50  64
ATOM     64  C   UNL A   1      42.663  28.297  34.414  1.00  0.00     0.058 A 
ATOM     65  C   UNL A   1      42.873  28.509  35.791  1.00  0.00     0.135 A 
ATOM     66  C   UNL A   1      43.090  27.043  33.919  1.00  0.00     0.135 A 
ATOM     67  F   UNL A   1      42.526  29.675  36.362  1.00  0.00    -0.206 F 
ATOM     68  C   UNL A   1      43.505  27.567  36.604  1.00  0.00     0.059 A 
ATOM     69  C   UNL A   1      43.667  26.067  34.722  1.00  0.00     0.059 A 
ATOM     70  F   UNL A   1      43.063  26.744  32.614  1.00  0.00    -0.206 F 
ATOM     71  C   UNL A   1      43.910  26.353  36.055  1.00  0.00     0.060 A 
BRANCH  71  72
ATOM     72  S   UNL A   1      44.808  25.169  37.073  1.00  0.00     0.124 S 
ATOM     73  O   UNL A   1      44.371  23.902  36.498  1.00  0.00    -0.237 OA
ATOM     74  O   UNL A   1      46.196  25.542  36.821  1.00  0.00    -0.237 OA
ATOM     75  O   UNL A   1      44.325  25.454  38.421  1.00  0.00    -0.744 OA
ENDBRANCH  71  72
ENDBRANCH  50  64
BRANCH  51  76
ATOM     76  C   UNL A   1      43.285  25.762  26.480  1.00  0.00     0.058 A 
ATOM     77  C   UNL A   1      44.201  25.612  25.425  1.00  0.00     0.135 A 
ATOM     78  C   UNL A   1      42.677  24.582  26.953  1.00  0.00     0.135 A 
ATOM     79  F   UNL A   1      44.839  26.682  24.928  1.00  0.00    -0.206 F 
ATOM     80  C   UNL A   1      44.534  24.360  24.903  1.00  0.00     0.059 A 
ATOM     81  C   UNL A   1      42.983  23.324  26.439  1.00  0.00     0.059 A 
ATOM     82  F   UNL A   1      41.832  24.609  27.995  1.00  0.00    -0.206 F 
ATOM     83  C   UNL A   1      43.934  23.218  25.432  1.00  0.00     0.060 A 
BRANCH  83  84
ATOM     84  S   UNL A   1      44.496  21.590  24.884  1.00  0.00     0.124 S 
ATOM     85  O   UNL A   1      45.784  21.474  25.557  1.00  0.00    -0.237 OA
ATOM     86  O   UNL A   1      43.437  20.717  25.379  1.00  0.00    -0.237 OA
ATOM     87  O   UNL A   1      44.561  21.725  23.432  1.00  0.00    -0.744 OA
ENDBRANCH  83  84
ENDBRANCH  51  76
BRANCH  63  88
ATOM     88  C   UNL A   1      45.344  31.359  28.820  1.00  0.00     0.058 A 
ATOM     89  C   UNL A   1      46.604  31.857  28.450  1.00  0.00     0.135 A 
ATOM     90  C   UNL A   1      44.222  31.889  28.166  1.00  0.00     0.135 A 
ATOM     91  F   UNL A   1      47.727  31.349  28.977  1.00  0.00    -0.206 F 
ATOM     92  C   UNL A   1      46.735  32.865  27.493  1.00  0.00     0.059 A 
ATOM     93  C   UNL A   1      44.330  32.873  27.190  1.00  0.00     0.059 A 
ATOM     94  F   UNL A   1      42.993  31.422  28.451  1.00  0.00    -0.206 F 
ATOM     95  C   UNL A   1      45.592  33.366  26.867  1.00  0.00     0.060 A 
BRANCH  95  96
ATOM     96  S   UNL A   1      45.767  34.620  25.580  1.00  0.00     0.124 S 
ATOM     97  O   UNL A   1      47.197  34.570  25.294  1.00  0.00    -0.237 OA
ATOM     98  O   UNL A   1      44.891  34.117  24.525  1.00  0.00    -0.237 OA
ATOM     99  O   UNL A   1      45.303  35.844  26.231  1.00  0.00    -0.744 OA
ENDBRANCH  95  96
ENDBRANCH  63  88
ENDBRANCH  37  38
ENDBRANCH  30  32
ENDBRANCH  29  30
ENDBRANCH  28  29
ENDBRANCH   1  28
TORSDOF 18
ENDMDL
MODEL 3
REMARK VINA RESULT:     -10.7      4.860     12.052
REMARK SMILES Cc1nn(C)cc1C[NH+]1CCN(C(=O)c2cnn(CC(=O)OCCOC(=O)c3ccc(-c4c5nc(c(-c6c(F)cc(S(=O)(=O)[O-])cc6F)c6ccc([nH]6)c(-c6c(F)cc(S(=O)(=O)[O-])cc6F)c6nc(c(-c7c(F)cc(S(=O)(=O)[O-])cc7F)c7ccc4[nH]7)C=C6)C=C5)cc3)c2)CC1
REMARK SMILES IDX 23 1 22 2 20 3 21 4 19 5 18 6 15 7 16 8 94 9 17 10 13 11
REMARK SMILES IDX 9 12 10 13 96 14 11 16 95 17 12 18 14 19 8 20 7 21 1 22 2 23
REMARK SMILES IDX 3 24 4 25 6 26 5 27 24 28 25 29 26 30 27 31 28 32 29 33
REMARK SMILES IDX 93 34 30 35 92 36 31 37 32 38 33 39 86 40 34 41 91 42 85 43
REMARK SMILES IDX 87 44 35 45 90 46 84 47 83 48 36 50 70 51 49 52 69 53 50 54
REMARK SMILES IDX 53 55 68 56 88 57 51 58 52 59 67 61 89 62 54 63 37 64 38 65
REMARK SMILES IDX 47 66 39 67 40 68 46 69 48 70 41 71 42 72 43 73 44 74 45 75
REMARK SMILES IDX 71 76 72 77 81 78 73 79 74 80 80 81 82 82 75 83 76 84 77 85
REMARK SMILES IDX 78 86 79 87 55 88 56 89 65 90 57 91 58 92 64 93 66 94 59 95
REMARK SMILES IDX 60 96 61 97 62 98 63 99
REMARK H PARENT 9 15 87 49 53 60
REMARK Flexibility Score: inf
ROOT
ATOM      1  C   UNL A   1      40.052  20.327  26.369  1.00  0.00     0.274 C 
ENDROOT
BRANCH   1   2
ATOM      2  O   UNL A   1      39.650  21.594  26.934  1.00  0.00    -0.461 OA
BRANCH   2   3
ATOM      3  C   UNL A   1      38.790  22.331  26.175  1.00  0.00     0.327 C 
ATOM      4  O   UNL A   1      38.504  23.502  26.419  1.00  0.00    -0.250 OA
BRANCH   3   5
ATOM      5  C   UNL A   1      38.084  21.556  25.100  1.00  0.00     0.266 C 
BRANCH   5   6
ATOM      6  N   UNL A   1      36.676  21.856  24.924  1.00  0.00    -0.261 N 
ATOM      7  C   UNL A   1      34.765  22.529  24.050  1.00  0.00     0.078 A 
ATOM      8  C   UNL A   1      34.589  21.531  25.031  1.00  0.00     0.149 A 
ATOM      9  C   UNL A   1      36.137  22.690  23.983  1.00  0.00     0.123 A 
ATOM     10  N   UNL A   1      35.749  21.077  25.516  1.00  0.00    -0.180 NA
BRANCH   7  11
ATOM     11  C   UNL A   1      33.797  23.166  23.176  1.00  0.00     0.257 C 
ATOM     12  N   UNL A   1      30.491  25.523  24.730  1.00  0.00    -0.328 N 
ATOM     13  C   UNL A   1      30.465  24.986  23.371  1.00  0.00     0.284 C 
ATOM     14  C   UNL A   1      31.169  24.596  25.639  1.00  0.00     0.284 C 
ATOM     15  H   UNL A   1      29.519  25.561  25.038  1.00  0.00     0.348 HD
ATOM     16  C   UNL A   1      31.814  24.505  22.817  1.00  0.00     0.181 C 
ATOM     17  C   UNL A   1      32.514  23.995  25.175  1.00  0.00     0.181 C 
ATOM     18  N   UNL A   1      32.642  23.728  23.738  1.00  0.00    -0.327 N 
ATOM     19  O   UNL A   1      34.037  23.254  21.970  1.00  0.00    -0.269 OA
BRANCH  12  20
ATOM     20  C   UNL A   1      30.786  26.949  24.882  1.00  0.00     0.302 C 
BRANCH  20  21
ATOM     21  C   UNL A   1      30.349  27.796  23.737  1.00  0.00     0.047 A 
ATOM     22  C   UNL A   1      32.624  28.629  22.709  1.00  0.00     0.069 C 
ATOM     23  C   UNL A   1      31.146  28.541  22.816  1.00  0.00     0.068 A 
ATOM     24  N   UNL A   1      30.390  29.282  21.994  1.00  0.00    -0.178 NA
ATOM     25  N   UNL A   1      29.137  29.038  22.405  1.00  0.00    -0.275 N 
ATOM     26  C   UNL A   1      29.056  28.026  23.310  1.00  0.00     0.118 A 
ATOM     27  C   UNL A   1      28.058  29.897  21.982  1.00  0.00     0.173 C 
ENDBRANCH  20  21
ENDBRANCH  12  20
ENDBRANCH   7  11
ENDBRANCH   5   6
ENDBRANCH   3   5
ENDBRANCH   2   3
ENDBRANCH   1   2
BRANCH   1  28
ATOM     28  C   UNL A   1      41.394  19.827  26.901  1.00  0.00     0.275 C 
BRANCH  28  29
ATOM     29  O   UNL A   1      42.207  20.882  27.416  1.00  0.00    -0.458 OA
BRANCH  29  30
ATOM     30  C   UNL A   1      42.961  21.474  26.458  1.00  0.00     0.338 C 
ATOM     31  O   UNL A   1      43.527  20.911  25.541  1.00  0.00    -0.246 OA
BRANCH  30  32
ATOM     32  C   UNL A   1      43.166  22.890  26.776  1.00  0.00     0.060 A 
ATOM     33  C   UNL A   1      43.924  23.206  27.906  1.00  0.00     0.016 A 
ATOM     34  C   UNL A   1      42.387  23.850  26.117  1.00  0.00     0.016 A 
ATOM     35  C   UNL A   1      43.804  24.471  28.455  1.00  0.00     0.010 A 
ATOM     36  C   UNL A   1      42.257  25.104  26.674  1.00  0.00     0.010 A 
ATOM     37  C   UNL A   1      42.919  25.385  27.871  1.00  0.00    -0.014 A 
BRANCH  37  38
ATOM     38  C   UNL A   1      42.739  26.677  28.513  1.00  0.00     0.031 A 
ATOM     39  C   UNL A   1      43.877  27.606  28.333  1.00  0.00     0.074 A 
ATOM     40  C   UNL A   1      41.570  27.056  29.068  1.00  0.00     0.049 A 
ATOM     41  N   UNL A   1      44.648  28.114  29.235  1.00  0.00    -0.248 NA
ATOM     42  C   UNL A   1      44.275  27.927  26.952  1.00  0.00     0.031 C 
ATOM     43  C   UNL A   1      40.292  26.343  28.968  1.00  0.00     0.029 A 
ATOM     44  N   UNL A   1      41.237  28.207  29.726  1.00  0.00    -0.354 N 
ATOM     45  C   UNL A   1      45.462  29.013  28.553  1.00  0.00     0.074 A 
ATOM     46  C   UNL A   1      45.334  28.710  27.153  1.00  0.00     0.031 C 
ATOM     47  C   UNL A   1      39.293  27.173  29.339  1.00  0.00     0.029 A 
ATOM     48  C   UNL A   1      39.867  28.412  29.835  1.00  0.00     0.049 A 
ATOM     49  H   UNL A   1      41.905  28.832  30.088  1.00  0.00     0.167 HD
ATOM     50  C   UNL A   1      45.921  30.139  29.162  1.00  0.00     0.037 A 
ATOM     51  C   UNL A   1      39.235  29.536  30.253  1.00  0.00     0.037 A 
ATOM     52  C   UNL A   1      45.781  30.069  30.590  1.00  0.00     0.049 A 
ATOM     53  C   UNL A   1      40.184  30.341  31.058  1.00  0.00     0.074 A 
ATOM     54  C   UNL A   1      46.460  29.501  31.644  1.00  0.00     0.029 A 
ATOM     55  N   UNL A   1      44.546  30.436  31.049  1.00  0.00    -0.354 N 
ATOM     56  N   UNL A   1      40.673  29.956  32.205  1.00  0.00    -0.248 NA
ATOM     57  C   UNL A   1      40.848  31.491  30.453  1.00  0.00     0.031 C 
ATOM     58  C   UNL A   1      45.540  29.435  32.732  1.00  0.00     0.029 A 
ATOM     59  C   UNL A   1      44.324  29.971  32.320  1.00  0.00     0.049 A 
ATOM     60  H   UNL A   1      43.898  30.967  30.533  1.00  0.00     0.167 HD
ATOM     61  C   UNL A   1      41.925  30.532  32.252  1.00  0.00     0.074 A 
ATOM     62  C   UNL A   1      41.910  31.590  31.255  1.00  0.00     0.031 C 
ATOM     63  C   UNL A   1      42.974  29.887  32.835  1.00  0.00     0.037 A 
BRANCH  50  64
ATOM     64  C   UNL A   1      46.047  31.477  28.467  1.00  0.00     0.058 A 
ATOM     65  C   UNL A   1      44.902  32.069  27.898  1.00  0.00     0.135 A 
ATOM     66  C   UNL A   1      47.283  32.042  28.076  1.00  0.00     0.135 A 
ATOM     67  F   UNL A   1      43.677  31.596  28.183  1.00  0.00    -0.206 F 
ATOM     68  C   UNL A   1      44.981  33.110  26.972  1.00  0.00     0.059 A 
ATOM     69  C   UNL A   1      47.382  33.118  27.201  1.00  0.00     0.059 A 
ATOM     70  F   UNL A   1      48.457  31.513  28.441  1.00  0.00    -0.206 F 
ATOM     71  C   UNL A   1      46.229  33.619  26.621  1.00  0.00     0.060 A 
BRANCH  71  72
ATOM     72  S   UNL A   1      46.348  34.898  25.358  1.00  0.00     0.124 S 
ATOM     73  O   UNL A   1      45.985  36.089  26.118  1.00  0.00    -0.237 OA
ATOM     74  O   UNL A   1      47.747  34.797  24.953  1.00  0.00    -0.237 OA
ATOM     75  O   UNL A   1      45.380  34.467  24.354  1.00  0.00    -0.744 OA
ENDBRANCH  71  72
ENDBRANCH  50  64
BRANCH  51  76
ATOM     76  C   UNL A   1      37.924  30.071  29.807  1.00  0.00     0.058 A 
ATOM     77  C   UNL A   1      36.994  30.580  30.729  1.00  0.00     0.135 A 
ATOM     78  C   UNL A   1      37.672  30.344  28.448  1.00  0.00     0.135 A 
ATOM     79  F   UNL A   1      37.169  30.383  32.044  1.00  0.00    -0.206 F 
ATOM     80  C   UNL A   1      35.904  31.359  30.331  1.00  0.00     0.059 A 
ATOM     81  C   UNL A   1      36.585  31.106  28.026  1.00  0.00     0.059 A 
ATOM     82  F   UNL A   1      38.530  29.953  27.494  1.00  0.00    -0.206 F 
ATOM     83  C   UNL A   1      35.720  31.634  28.977  1.00  0.00     0.060 A 
BRANCH  83  84
ATOM     84  S   UNL A   1      34.419  32.786  28.477  1.00  0.00     0.124 S 
ATOM     85  O   UNL A   1      33.999  33.339  29.759  1.00  0.00    -0.237 OA
ATOM     86  O   UNL A   1      35.139  33.696  27.594  1.00  0.00    -0.237 OA
ATOM     87  O   UNL A   1      33.440  31.926  27.818  1.00  0.00    -0.744 OA
ENDBRANCH  83  84
ENDBRANCH  51  76
BRANCH  63  88
ATOM     88  C   UNL A   1      42.679  28.929  33.946  1.00  0.00     0.058 A 
ATOM     89  C   UNL A   1      42.463  29.293  35.284  1.00  0.00     0.135 A 
ATOM     90  C   UNL A   1      42.550  27.571  33.616  1.00  0.00     0.135 A 
ATOM     91  F   UNL A   1      42.497  30.579  35.663  1.00  0.00    -0.206 F 
ATOM     92  C   UNL A   1      42.164  28.338  36.259  1.00  0.00     0.059 A 
ATOM     93  C   UNL A   1      42.224  26.607  34.563  1.00  0.00     0.059 A 
ATOM     94  F   UNL A   1      42.706  27.170  32.342  1.00  0.00    -0.206 F 
ATOM     95  C   UNL A   1      42.046  26.997  35.888  1.00  0.00     0.060 A 
BRANCH  95  96
ATOM     96  S   UNL A   1      41.591  25.773  37.134  1.00  0.00     0.124 S 
ATOM     97  O   UNL A   1      40.230  26.174  37.477  1.00  0.00    -0.237 OA
ATOM     98  O   UNL A   1      41.716  24.515  36.405  1.00  0.00    -0.237 OA
ATOM     99  O   UNL A   1      42.584  25.973  38.188  1.00  0.00    -0.744 OA
ENDBRANCH  95  96
ENDBRANCH  63  88
ENDBRANCH  37  38
ENDBRANCH  30  32
ENDBRANCH  29  30
ENDBRANCH  28  29
ENDBRANCH   1  28
TORSDOF 18
ENDMDL
