MODEL 1
REMARK VINA RESULT:     -10.8      0.000      0.000
REMARK SMILES Cc1ccc(S(=O)(=O)N[C@H]2C=C[C@@H](C(=O)OCCOC(=O)c3ccc(-c4c5nc(c(-c6c(F)cc(S(=O)(=O)[O-])cc6F)c6ccc([nH]6)c(-c6c(F)cc(S(=O)(=O)[O-])cc6F)c6nc(c(-c7c(F)cc(S(=O)(=O)[O-])cc7F)c7ccc4[nH]7)C=C6)C=C5)cc3)C2)c(C)c1
REMARK SMILES IDX 17 1 16 2 14 3 15 4 13 5 10 6 11 7 88 8 12 9 9 10 6 12 7 13
REMARK SMILES IDX 8 14 5 15 1 16 2 17 3 18 91 19 4 20 89 21 90 22 18 23 19 24
REMARK SMILES IDX 20 25 21 26 22 27 23 28 87 29 24 30 86 31 25 32 26 33 27 34
REMARK SMILES IDX 80 35 28 36 85 37 79 38 81 39 29 40 84 41 78 42 77 43 30 45
REMARK SMILES IDX 64 46 43 47 63 48 44 49 47 50 62 51 82 52 45 53 46 54 61 56
REMARK SMILES IDX 83 57 48 58 31 59 32 60 41 61 33 62 34 63 40 64 42 65 35 66
REMARK SMILES IDX 36 67 37 68 38 69 39 70 65 71 66 72 75 73 67 74 68 75 74 76
REMARK SMILES IDX 76 77 69 78 70 79 71 80 72 81 73 82 49 83 50 84 59 85 51 86
REMARK SMILES IDX 52 87 58 88 60 89 53 90 54 91 55 92 56 93 57 94
REMARK H PARENT 9 11 81 44 47 55
REMARK Flexibility Score: inf
ROOT
ATOM      1  C   UNL A   1      41.210  19.715  26.540  1.00  0.00     0.274 C 
ENDROOT
BRANCH   1   2
ATOM      2  O   UNL A   1      42.173  19.514  25.491  1.00  0.00    -0.462 OA
BRANCH   2   3
ATOM      3  C   UNL A   1      43.163  18.618  25.733  1.00  0.00     0.312 C 
ATOM      4  O   UNL A   1      43.084  17.698  26.541  1.00  0.00    -0.252 OA
BRANCH   3   5
ATOM      5  C   UNL A   1      44.388  18.828  24.853  1.00  0.00     0.123 C 
ATOM      6  C   UNL A   1      46.055  20.464  24.150  1.00  0.00     0.093 C 
ATOM      7  C   UNL A   1      46.583  19.538  25.191  1.00  0.00    -0.011 C 
ATOM      8  C   UNL A   1      44.546  20.187  24.173  1.00  0.00     0.043 C 
ATOM      9  C   UNL A   1      45.668  18.655  25.600  1.00  0.00    -0.015 C 
BRANCH   6  10
ATOM     10  N   UNL A   1      46.274  21.876  24.419  1.00  0.00    -0.204 NA
ATOM     11  H   UNL A   1      46.787  21.904  25.300  1.00  0.00     0.142 HD
BRANCH  10  12
ATOM     12  S   UNL A   1      45.092  23.041  24.566  1.00  0.00     0.241 S 
ATOM     13  O   UNL A   1      43.940  22.580  23.816  1.00  0.00    -0.207 OA
ATOM     14  O   UNL A   1      45.733  24.297  24.258  1.00  0.00    -0.207 OA
BRANCH  12  15
ATOM     15  C   UNL A   1      44.672  23.088  26.300  1.00  0.00     0.085 A 
ATOM     16  C   UNL A   1      43.402  23.409  30.410  1.00  0.00     0.044 C 
ATOM     17  C   UNL A   1      43.832  23.289  28.977  1.00  0.00    -0.051 A 
ATOM     18  C   UNL A   1      42.997  22.709  28.023  1.00  0.00     0.005 A 
ATOM     19  C   UNL A   1      45.105  23.726  28.590  1.00  0.00     0.008 A 
ATOM     20  C   UNL A   1      43.416  22.600  26.697  1.00  0.00     0.022 A 
ATOM     21  C   UNL A   1      45.552  23.624  27.257  1.00  0.00    -0.031 A 
ATOM     22  C   UNL A   1      46.957  24.080  26.978  1.00  0.00     0.046 C 
ENDBRANCH  12  15
ENDBRANCH  10  12
ENDBRANCH   6  10
ENDBRANCH   3   5
ENDBRANCH   2   3
ENDBRANCH   1   2
BRANCH   1  23
ATOM     23  C   UNL A   1      40.027  20.543  26.027  1.00  0.00     0.275 C 
BRANCH  23  24
ATOM     24  O   UNL A   1      39.685  21.615  26.929  1.00  0.00    -0.458 OA
BRANCH  24  25
ATOM     25  C   UNL A   1      38.896  22.579  26.397  1.00  0.00     0.338 C 
ATOM     26  O   UNL A   1      37.911  22.421  25.694  1.00  0.00    -0.246 OA
BRANCH  25  27
ATOM     27  C   UNL A   1      39.295  23.904  26.894  1.00  0.00     0.060 A 
ATOM     28  C   UNL A   1      39.838  24.799  25.973  1.00  0.00     0.016 A 
ATOM     29  C   UNL A   1      39.274  24.223  28.249  1.00  0.00     0.016 A 
ATOM     30  C   UNL A   1      40.403  25.995  26.391  1.00  0.00     0.010 A 
ATOM     31  C   UNL A   1      39.807  25.449  28.671  1.00  0.00     0.010 A 
ATOM     32  C   UNL A   1      40.391  26.337  27.747  1.00  0.00    -0.014 A 
BRANCH  32  33
ATOM     33  C   UNL A   1      41.026  27.609  28.176  1.00  0.00     0.031 A 
ATOM     34  C   UNL A   1      42.516  27.782  28.060  1.00  0.00     0.074 A 
ATOM     35  C   UNL A   1      40.256  28.623  28.616  1.00  0.00     0.049 A 
ATOM     36  N   UNL A   1      43.265  28.772  28.471  1.00  0.00    -0.248 NA
ATOM     37  C   UNL A   1      43.262  26.701  27.395  1.00  0.00     0.031 C 
ATOM     38  C   UNL A   1      38.794  28.595  28.714  1.00  0.00     0.029 A 
ATOM     39  N   UNL A   1      40.591  29.878  29.059  1.00  0.00    -0.354 N 
ATOM     40  C   UNL A   1      44.570  28.426  28.135  1.00  0.00     0.074 A 
ATOM     41  C   UNL A   1      44.514  27.126  27.506  1.00  0.00     0.031 C 
ATOM     42  C   UNL A   1      38.360  29.778  29.177  1.00  0.00     0.029 A 
ATOM     43  C   UNL A   1      39.511  30.623  29.472  1.00  0.00     0.049 A 
ATOM     44  H   UNL A   1      41.517  30.213  29.080  1.00  0.00     0.167 HD
ATOM     45  C   UNL A   1      45.706  29.138  28.331  1.00  0.00     0.037 A 
ATOM     46  C   UNL A   1      39.456  31.833  30.062  1.00  0.00     0.037 A 
ATOM     47  C   UNL A   1      45.746  30.442  28.940  1.00  0.00     0.049 A 
ATOM     48  C   UNL A   1      40.743  32.566  30.334  1.00  0.00     0.074 A 
ATOM     49  C   UNL A   1      46.849  31.238  29.200  1.00  0.00     0.029 A 
ATOM     50  N   UNL A   1      44.635  31.149  29.374  1.00  0.00    -0.354 N 
ATOM     51  N   UNL A   1      41.972  32.210  30.045  1.00  0.00    -0.248 NA
ATOM     52  C   UNL A   1      40.636  33.861  31.019  1.00  0.00     0.031 C 
ATOM     53  C   UNL A   1      46.408  32.409  29.823  1.00  0.00     0.029 A 
ATOM     54  C   UNL A   1      45.025  32.366  29.908  1.00  0.00     0.049 A 
ATOM     55  H   UNL A   1      43.705  30.833  29.311  1.00  0.00     0.167 HD
ATOM     56  C   UNL A   1      42.782  33.250  30.487  1.00  0.00     0.074 A 
ATOM     57  C   UNL A   1      41.901  34.255  31.047  1.00  0.00     0.031 C 
ATOM     58  C   UNL A   1      44.131  33.362  30.441  1.00  0.00     0.037 A 
BRANCH  45  59
ATOM     59  C   UNL A   1      47.007  28.521  27.895  1.00  0.00     0.058 A 
ATOM     60  C   UNL A   1      47.748  27.686  28.745  1.00  0.00     0.135 A 
ATOM     61  C   UNL A   1      47.482  28.710  26.586  1.00  0.00     0.135 A 
ATOM     62  F   UNL A   1      47.352  27.487  30.013  1.00  0.00    -0.206 F 
ATOM     63  C   UNL A   1      48.918  27.066  28.316  1.00  0.00     0.059 A 
ATOM     64  C   UNL A   1      48.636  28.080  26.128  1.00  0.00     0.059 A 
ATOM     65  F   UNL A   1      46.814  29.502  25.734  1.00  0.00    -0.206 F 
ATOM     66  C   UNL A   1      49.351  27.265  27.004  1.00  0.00     0.060 A 
BRANCH  66  67
ATOM     67  S   UNL A   1      50.850  26.423  26.454  1.00  0.00     0.124 S 
ATOM     68  O   UNL A   1      50.764  25.165  27.190  1.00  0.00    -0.237 OA
ATOM     69  O   UNL A   1      50.644  26.328  25.013  1.00  0.00    -0.237 OA
ATOM     70  O   UNL A   1      51.920  27.322  26.874  1.00  0.00    -0.744 OA
ENDBRANCH  66  67
ENDBRANCH  45  59
BRANCH  46  71
ATOM     71  C   UNL A   1      38.150  32.409  30.484  1.00  0.00     0.058 A 
ATOM     72  C   UNL A   1      37.400  33.219  29.620  1.00  0.00     0.135 A 
ATOM     73  C   UNL A   1      37.646  32.193  31.777  1.00  0.00     0.135 A 
ATOM     74  F   UNL A   1      37.840  33.462  28.376  1.00  0.00    -0.206 F 
ATOM     75  C   UNL A   1      36.217  33.826  30.032  1.00  0.00     0.059 A 
ATOM     76  C   UNL A   1      36.450  32.761  32.201  1.00  0.00     0.059 A 
ATOM     77  F   UNL A   1      38.317  31.413  32.640  1.00  0.00    -0.206 F 
ATOM     78  C   UNL A   1      35.755  33.595  31.329  1.00  0.00     0.060 A 
BRANCH  78  79
ATOM     79  S   UNL A   1      34.222  34.390  31.861  1.00  0.00     0.124 S 
ATOM     80  O   UNL A   1      33.532  34.571  30.590  1.00  0.00    -0.237 OA
ATOM     81  O   UNL A   1      33.653  33.390  32.761  1.00  0.00    -0.237 OA
ATOM     82  O   UNL A   1      34.687  35.612  32.509  1.00  0.00    -0.744 OA
ENDBRANCH  78  79
ENDBRANCH  46  71
BRANCH  58  83
ATOM     83  C   UNL A   1      44.734  34.637  30.962  1.00  0.00     0.058 A 
ATOM     84  C   UNL A   1      44.919  35.757  30.138  1.00  0.00     0.135 A 
ATOM     85  C   UNL A   1      45.098  34.748  32.314  1.00  0.00     0.135 A 
ATOM     86  F   UNL A   1      44.597  35.700  28.836  1.00  0.00    -0.206 F 
ATOM     87  C   UNL A   1      45.470  36.936  30.629  1.00  0.00     0.059 A 
ATOM     88  C   UNL A   1      45.623  35.926  32.834  1.00  0.00     0.059 A 
ATOM     89  F   UNL A   1      44.931  33.708  33.147  1.00  0.00    -0.206 F 
ATOM     90  C   UNL A   1      45.818  37.011  31.980  1.00  0.00     0.060 A 
BRANCH  90  91
ATOM     91  S   UNL A   1      46.505  38.555  32.613  1.00  0.00     0.124 S 
ATOM     92  O   UNL A   1      47.136  39.107  31.418  1.00  0.00    -0.237 OA
ATOM     93  O   UNL A   1      45.315  39.258  33.082  1.00  0.00    -0.237 OA
ATOM     94  O   UNL A   1      47.421  38.116  33.661  1.00  0.00    -0.744 OA
ENDBRANCH  90  91
ENDBRANCH  58  83
ENDBRANCH  32  33
ENDBRANCH  25  27
ENDBRANCH  24  25
ENDBRANCH  23  24
ENDBRANCH   1  23
TORSDOF 17
ENDMDL
MODEL 2
REMARK VINA RESULT:     -10.4      2.888     12.083
REMARK SMILES Cc1ccc(S(=O)(=O)N[C@H]2C=C[C@@H](C(=O)OCCOC(=O)c3ccc(-c4c5nc(c(-c6c(F)cc(S(=O)(=O)[O-])cc6F)c6ccc([nH]6)c(-c6c(F)cc(S(=O)(=O)[O-])cc6F)c6nc(c(-c7c(F)cc(S(=O)(=O)[O-])cc7F)c7ccc4[nH]7)C=C6)C=C5)cc3)C2)c(C)c1
REMARK SMILES IDX 17 1 16 2 14 3 15 4 13 5 10 6 11 7 88 8 12 9 9 10 6 12 7 13
REMARK SMILES IDX 8 14 5 15 1 16 2 17 3 18 91 19 4 20 89 21 90 22 18 23 19 24
REMARK SMILES IDX 20 25 21 26 22 27 23 28 87 29 24 30 86 31 25 32 26 33 27 34
REMARK SMILES IDX 80 35 28 36 85 37 79 38 81 39 29 40 84 41 78 42 77 43 30 45
REMARK SMILES IDX 64 46 43 47 63 48 44 49 47 50 62 51 82 52 45 53 46 54 61 56
REMARK SMILES IDX 83 57 48 58 31 59 32 60 41 61 33 62 34 63 40 64 42 65 35 66
REMARK SMILES IDX 36 67 37 68 38 69 39 70 65 71 66 72 75 73 67 74 68 75 74 76
REMARK SMILES IDX 76 77 69 78 70 79 71 80 72 81 73 82 49 83 50 84 59 85 51 86
REMARK SMILES IDX 52 87 58 88 60 89 53 90 54 91 55 92 56 93 57 94
REMARK H PARENT 9 11 81 44 47 55
REMARK Flexibility Score: inf
ROOT
ATOM      1  C   UNL A   1      34.619  33.959  29.036  1.00  0.00     0.274 C 
ENDROOT
BRANCH   1   2
ATOM      2  O   UNL A   1      34.686  34.844  30.168  1.00  0.00    -0.462 OA
BRANCH   2   3
ATOM      3  C   UNL A   1      33.538  35.032  30.865  1.00  0.00     0.312 C 
ATOM      4  O   UNL A   1      32.460  35.332  30.362  1.00  0.00    -0.252 OA
BRANCH   3   5
ATOM      5  C   UNL A   1      33.697  34.779  32.359  1.00  0.00     0.123 C 
ATOM      6  C   UNL A   1      34.994  33.558  34.026  1.00  0.00     0.093 C 
ATOM      7  C   UNL A   1      35.425  34.979  33.910  1.00  0.00    -0.011 C 
ATOM      8  C   UNL A   1      34.092  33.369  32.799  1.00  0.00     0.043 C 
ATOM      9  C   UNL A   1      34.737  35.648  32.982  1.00  0.00    -0.015 C 
BRANCH   6  10
ATOM     10  N   UNL A   1      36.072  32.584  33.965  1.00  0.00    -0.204 NA
ATOM     11  H   UNL A   1      35.731  31.775  34.484  1.00  0.00     0.142 HD
BRANCH  10  12
ATOM     12  S   UNL A   1      37.634  32.816  34.495  1.00  0.00     0.241 S 
ATOM     13  O   UNL A   1      38.159  31.516  34.864  1.00  0.00    -0.207 OA
ATOM     14  O   UNL A   1      37.572  33.897  35.449  1.00  0.00    -0.207 OA
BRANCH  12  15
ATOM     15  C   UNL A   1      38.539  33.425  33.082  1.00  0.00     0.085 A 
ATOM     16  C   UNL A   1      40.580  34.652  29.485  1.00  0.00     0.044 C 
ATOM     17  C   UNL A   1      39.858  34.230  30.732  1.00  0.00    -0.051 A 
ATOM     18  C   UNL A   1      38.467  34.295  30.811  1.00  0.00     0.005 A 
ATOM     19  C   UNL A   1      40.583  33.803  31.851  1.00  0.00     0.008 A 
ATOM     20  C   UNL A   1      37.812  33.905  31.979  1.00  0.00     0.022 A 
ATOM     21  C   UNL A   1      39.944  33.406  33.043  1.00  0.00    -0.031 A 
ATOM     22  C   UNL A   1      40.835  33.019  34.191  1.00  0.00     0.046 C 
ENDBRANCH  12  15
ENDBRANCH  10  12
ENDBRANCH   6  10
ENDBRANCH   3   5
ENDBRANCH   2   3
ENDBRANCH   1   2
BRANCH   1  23
ATOM     23  C   UNL A   1      34.646  32.499  29.499  1.00  0.00     0.275 C 
BRANCH  23  24
ATOM     24  O   UNL A   1      35.909  31.864  29.215  1.00  0.00    -0.458 OA
BRANCH  24  25
ATOM     25  C   UNL A   1      36.472  31.218  30.265  1.00  0.00     0.338 C 
ATOM     26  O   UNL A   1      36.000  31.076  31.381  1.00  0.00    -0.246 OA
BRANCH  25  27
ATOM     27  C   UNL A   1      37.718  30.555  29.853  1.00  0.00     0.060 A 
ATOM     28  C   UNL A   1      38.700  30.374  30.827  1.00  0.00     0.016 A 
ATOM     29  C   UNL A   1      37.985  30.242  28.523  1.00  0.00     0.016 A 
ATOM     30  C   UNL A   1      39.966  29.923  30.483  1.00  0.00     0.010 A 
ATOM     31  C   UNL A   1      39.251  29.748  28.178  1.00  0.00     0.010 A 
ATOM     32  C   UNL A   1      40.257  29.601  29.153  1.00  0.00    -0.014 A 
BRANCH  32  33
ATOM     33  C   UNL A   1      41.627  29.148  28.803  1.00  0.00     0.031 A 
ATOM     34  C   UNL A   1      42.775  30.119  28.851  1.00  0.00     0.074 A 
ATOM     35  C   UNL A   1      41.844  27.853  28.498  1.00  0.00     0.049 A 
ATOM     36  N   UNL A   1      44.019  29.943  28.488  1.00  0.00    -0.248 NA
ATOM     37  C   UNL A   1      42.489  31.464  29.375  1.00  0.00     0.031 C 
ATOM     38  C   UNL A   1      40.820  26.805  28.480  1.00  0.00     0.029 A 
ATOM     39  N   UNL A   1      42.996  27.193  28.150  1.00  0.00    -0.354 N 
ATOM     40  C   UNL A   1      44.658  31.156  28.718  1.00  0.00     0.074 A 
ATOM     41  C   UNL A   1      43.661  32.068  29.233  1.00  0.00     0.031 C 
ATOM     42  C   UNL A   1      41.390  25.636  28.149  1.00  0.00     0.029 A 
ATOM     43  C   UNL A   1      42.802  25.862  27.865  1.00  0.00     0.049 A 
ATOM     44  H   UNL A   1      43.876  27.631  28.107  1.00  0.00     0.167 HD
ATOM     45  C   UNL A   1      45.961  31.472  28.523  1.00  0.00     0.037 A 
ATOM     46  C   UNL A   1      43.657  24.936  27.388  1.00  0.00     0.037 A 
ATOM     47  C   UNL A   1      46.950  30.548  28.030  1.00  0.00     0.049 A 
ATOM     48  C   UNL A   1      45.081  25.337  27.111  1.00  0.00     0.074 A 
ATOM     49  C   UNL A   1      48.293  30.776  27.780  1.00  0.00     0.029 A 
ATOM     50  N   UNL A   1      46.709  29.217  27.723  1.00  0.00    -0.354 N 
ATOM     51  N   UNL A   1      45.662  26.499  27.299  1.00  0.00    -0.248 NA
ATOM     52  C   UNL A   1      45.964  24.306  26.550  1.00  0.00     0.031 C 
ATOM     53  C   UNL A   1      48.854  29.594  27.289  1.00  0.00     0.029 A 
ATOM     54  C   UNL A   1      47.873  28.615  27.277  1.00  0.00     0.049 A 
ATOM     55  H   UNL A   1      45.837  28.767  27.809  1.00  0.00     0.167 HD
ATOM     56  C   UNL A   1      46.984  26.329  26.905  1.00  0.00     0.074 A 
ATOM     57  C   UNL A   1      47.121  24.949  26.486  1.00  0.00     0.031 C 
ATOM     58  C   UNL A   1      47.993  27.234  26.885  1.00  0.00     0.037 A 
BRANCH  45  59
ATOM     59  C   UNL A   1      46.399  32.879  28.829  1.00  0.00     0.058 A 
ATOM     60  C   UNL A   1      46.907  33.236  30.087  1.00  0.00     0.135 A 
ATOM     61  C   UNL A   1      46.376  33.864  27.827  1.00  0.00     0.135 A 
ATOM     62  F   UNL A   1      46.932  32.340  31.086  1.00  0.00    -0.206 F 
ATOM     63  C   UNL A   1      47.370  34.523  30.344  1.00  0.00     0.059 A 
ATOM     64  C   UNL A   1      46.857  35.151  28.055  1.00  0.00     0.059 A 
ATOM     65  F   UNL A   1      45.896  33.576  26.607  1.00  0.00    -0.206 F 
ATOM     66  C   UNL A   1      47.346  35.472  29.320  1.00  0.00     0.060 A 
BRANCH  66  67
ATOM     67  S   UNL A   1      47.986  37.125  29.663  1.00  0.00     0.124 S 
ATOM     68  O   UNL A   1      49.081  36.830  30.582  1.00  0.00    -0.237 OA
ATOM     69  O   UNL A   1      48.381  37.587  28.337  1.00  0.00    -0.237 OA
ATOM     70  O   UNL A   1      46.844  37.818  30.251  1.00  0.00    -0.744 OA
ENDBRANCH  66  67
ENDBRANCH  45  59
BRANCH  46  71
ATOM     71  C   UNL A   1      43.187  23.555  27.093  1.00  0.00     0.058 A 
ATOM     72  C   UNL A   1      43.124  22.577  28.097  1.00  0.00     0.135 A 
ATOM     73  C   UNL A   1      42.827  23.174  25.789  1.00  0.00     0.135 A 
ATOM     74  F   UNL A   1      43.462  22.887  29.357  1.00  0.00    -0.206 F 
ATOM     75  C   UNL A   1      42.761  21.264  27.814  1.00  0.00     0.059 A 
ATOM     76  C   UNL A   1      42.429  21.877  25.488  1.00  0.00     0.059 A 
ATOM     77  F   UNL A   1      42.854  24.075  24.793  1.00  0.00    -0.206 F 
ATOM     78  C   UNL A   1      42.421  20.923  26.503  1.00  0.00     0.060 A 
BRANCH  78  79
ATOM     79  S   UNL A   1      41.957  19.216  26.140  1.00  0.00     0.124 S 
ATOM     80  O   UNL A   1      40.527  19.351  25.887  1.00  0.00    -0.237 OA
ATOM     81  O   UNL A   1      42.785  18.911  24.977  1.00  0.00    -0.237 OA
ATOM     82  O   UNL A   1      42.318  18.504  27.362  1.00  0.00    -0.744 OA
ENDBRANCH  78  79
ENDBRANCH  46  71
BRANCH  58  83
ATOM     83  C   UNL A   1      49.346  26.745  26.446  1.00  0.00     0.058 A 
ATOM     84  C   UNL A   1      49.811  26.938  25.137  1.00  0.00     0.135 A 
ATOM     85  C   UNL A   1      50.201  26.109  27.361  1.00  0.00     0.135 A 
ATOM     86  F   UNL A   1      49.030  27.533  24.222  1.00  0.00    -0.206 F 
ATOM     87  C   UNL A   1      51.068  26.490  24.740  1.00  0.00     0.059 A 
ATOM     88  C   UNL A   1      51.472  25.680  26.995  1.00  0.00     0.059 A 
ATOM     89  F   UNL A   1      49.807  25.910  28.630  1.00  0.00    -0.206 F 
ATOM     90  C   UNL A   1      51.891  25.863  25.678  1.00  0.00     0.060 A 
BRANCH  90  91
ATOM     91  S   UNL A   1      53.530  25.313  25.159  1.00  0.00     0.124 S 
ATOM     92  O   UNL A   1      54.393  26.086  26.047  1.00  0.00    -0.237 OA
ATOM     93  O   UNL A   1      53.475  23.878  25.420  1.00  0.00    -0.237 OA
ATOM     94  O   UNL A   1      53.584  25.686  23.749  1.00  0.00    -0.744 OA
ENDBRANCH  90  91
ENDBRANCH  58  83
ENDBRANCH  32  33
ENDBRANCH  25  27
ENDBRANCH  24  25
ENDBRANCH  23  24
ENDBRANCH   1  23
TORSDOF 17
ENDMDL
MODEL 3
REMARK VINA RESULT:     -10.4      4.038     11.089
REMARK SMILES Cc1ccc(S(=O)(=O)N[C@H]2C=C[C@@H](C(=O)OCCOC(=O)c3ccc(-c4c5nc(c(-c6c(F)cc(S(=O)(=O)[O-])cc6F)c6ccc([nH]6)c(-c6c(F)cc(S(=O)(=O)[O-])cc6F)c6nc(c(-c7c(F)cc(S(=O)(=O)[O-])cc7F)c7ccc4[nH]7)C=C6)C=C5)cc3)C2)c(C)c1
REMARK SMILES IDX 17 1 16 2 14 3 15 4 13 5 10 6 11 7 88 8 12 9 9 10 6 12 7 13
REMARK SMILES IDX 8 14 5 15 1 16 2 17 3 18 91 19 4 20 89 21 90 22 18 23 19 24
REMARK SMILES IDX 20 25 21 26 22 27 23 28 87 29 24 30 86 31 25 32 26 33 27 34
REMARK SMILES IDX 80 35 28 36 85 37 79 38 81 39 29 40 84 41 78 42 77 43 30 45
REMARK SMILES IDX 64 46 43 47 63 48 44 49 47 50 62 51 82 52 45 53 46 54 61 56
REMARK SMILES IDX 83 57 48 58 31 59 32 60 41 61 33 62 34 63 40 64 42 65 35 66
REMARK SMILES IDX 36 67 37 68 38 69 39 70 65 71 66 72 75 73 67 74 68 75 74 76
REMARK SMILES IDX 76 77 69 78 70 79 71 80 72 81 73 82 49 83 50 84 59 85 51 86
REMARK SMILES IDX 52 87 58 88 60 89 53 90 54 91 55 92 56 93 57 94
REMARK H PARENT 9 11 81 44 47 55
REMARK Flexibility Score: inf
ROOT
ATOM      1  C   UNL A   1      33.734  30.071  27.064  1.00  0.00     0.274 C 
ENDROOT
BRANCH   1   2
ATOM      2  O   UNL A   1      32.340  29.779  27.269  1.00  0.00    -0.462 OA
BRANCH   2   3
ATOM      3  C   UNL A   1      31.959  28.486  27.121  1.00  0.00     0.312 C 
ATOM      4  O   UNL A   1      31.400  27.823  27.989  1.00  0.00    -0.252 OA
BRANCH   3   5
ATOM      5  C   UNL A   1      32.243  27.933  25.730  1.00  0.00     0.123 C 
ATOM      6  C   UNL A   1      32.114  25.934  24.339  1.00  0.00     0.093 C 
ATOM      7  C   UNL A   1      30.994  26.878  24.068  1.00  0.00    -0.011 C 
ATOM      8  C   UNL A   1      32.729  26.487  25.630  1.00  0.00     0.043 C 
ATOM      9  C   UNL A   1      31.043  27.964  24.844  1.00  0.00    -0.015 C 
BRANCH   6  10
ATOM     10  N   UNL A   1      31.710  24.556  24.569  1.00  0.00    -0.204 NA
ATOM     11  H   UNL A   1      31.718  24.441  25.583  1.00  0.00     0.142 HD
BRANCH  10  12
ATOM     12  S   UNL A   1      32.467  23.198  23.970  1.00  0.00     0.241 S 
ATOM     13  O   UNL A   1      32.499  23.326  22.527  1.00  0.00    -0.207 OA
ATOM     14  O   UNL A   1      31.827  22.073  24.609  1.00  0.00    -0.207 OA
BRANCH  12  15
ATOM     15  C   UNL A   1      34.139  23.262  24.593  1.00  0.00     0.085 A 
ATOM     16  C   UNL A   1      38.242  23.138  25.918  1.00  0.00     0.044 C 
ATOM     17  C   UNL A   1      36.819  23.185  25.445  1.00  0.00    -0.051 A 
ATOM     18  C   UNL A   1      36.518  23.377  24.096  1.00  0.00     0.005 A 
ATOM     19  C   UNL A   1      35.770  23.079  26.367  1.00  0.00     0.008 A 
ATOM     20  C   UNL A   1      35.189  23.424  23.674  1.00  0.00     0.022 A 
ATOM     21  C   UNL A   1      34.420  23.126  25.964  1.00  0.00    -0.031 A 
ATOM     22  C   UNL A   1      33.387  23.053  27.055  1.00  0.00     0.046 C 
ENDBRANCH  12  15
ENDBRANCH  10  12
ENDBRANCH   6  10
ENDBRANCH   3   5
ENDBRANCH   2   3
ENDBRANCH   1   2
BRANCH   1  23
ATOM     23  C   UNL A   1      34.208  31.137  28.057  1.00  0.00     0.275 C 
BRANCH  23  24
ATOM     24  O   UNL A   1      35.644  31.267  28.068  1.00  0.00    -0.458 OA
BRANCH  24  25
ATOM     25  C   UNL A   1      36.244  30.871  29.215  1.00  0.00     0.338 C 
ATOM     26  O   UNL A   1      35.781  30.916  30.344  1.00  0.00    -0.246 OA
BRANCH  25  27
ATOM     27  C   UNL A   1      37.531  30.222  28.925  1.00  0.00     0.060 A 
ATOM     28  C   UNL A   1      38.472  30.172  29.954  1.00  0.00     0.016 A 
ATOM     29  C   UNL A   1      37.873  29.795  27.645  1.00  0.00     0.016 A 
ATOM     30  C   UNL A   1      39.768  29.741  29.711  1.00  0.00     0.010 A 
ATOM     31  C   UNL A   1      39.170  29.321  27.405  1.00  0.00     0.010 A 
ATOM     32  C   UNL A   1      40.133  29.306  28.433  1.00  0.00    -0.014 A 
BRANCH  32  33
ATOM     33  C   UNL A   1      41.533  28.877  28.189  1.00  0.00     0.031 A 
ATOM     34  C   UNL A   1      42.649  29.883  28.248  1.00  0.00     0.074 A 
ATOM     35  C   UNL A   1      41.802  27.574  27.971  1.00  0.00     0.049 A 
ATOM     36  N   UNL A   1      43.917  29.725  27.968  1.00  0.00    -0.248 NA
ATOM     37  C   UNL A   1      42.296  31.246  28.677  1.00  0.00     0.031 C 
ATOM     38  C   UNL A   1      40.810  26.496  27.954  1.00  0.00     0.029 A 
ATOM     39  N   UNL A   1      42.990  26.931  27.728  1.00  0.00    -0.354 N 
ATOM     40  C   UNL A   1      44.508  30.968  28.165  1.00  0.00     0.074 A 
ATOM     41  C   UNL A   1      43.458  31.877  28.568  1.00  0.00     0.031 C 
ATOM     42  C   UNL A   1      41.430  25.329  27.723  1.00  0.00     0.029 A 
ATOM     43  C   UNL A   1      42.850  25.581  27.509  1.00  0.00     0.049 A 
ATOM     44  H   UNL A   1      43.860  27.393  27.711  1.00  0.00     0.167 HD
ATOM     45  C   UNL A   1      45.812  31.312  28.028  1.00  0.00     0.037 A 
ATOM     46  C   UNL A   1      43.756  24.656  27.136  1.00  0.00     0.037 A 
ATOM     47  C   UNL A   1      46.852  30.392  27.647  1.00  0.00     0.049 A 
ATOM     48  C   UNL A   1      45.183  25.085  26.919  1.00  0.00     0.074 A 
ATOM     49  C   UNL A   1      48.202  30.647  27.462  1.00  0.00     0.029 A 
ATOM     50  N   UNL A   1      46.666  29.040  27.402  1.00  0.00    -0.354 N 
ATOM     51  N   UNL A   1      45.720  26.272  27.073  1.00  0.00    -0.248 NA
ATOM     52  C   UNL A   1      46.125  24.051  26.470  1.00  0.00     0.031 C 
ATOM     53  C   UNL A   1      48.822  29.457  27.072  1.00  0.00     0.029 A 
ATOM     54  C   UNL A   1      47.870  28.450  27.059  1.00  0.00     0.049 A 
ATOM     55  H   UNL A   1      45.804  28.569  27.463  1.00  0.00     0.167 HD
ATOM     56  C   UNL A   1      47.068  26.121  26.767  1.00  0.00     0.074 A 
ATOM     57  C   UNL A   1      47.267  24.725  26.436  1.00  0.00     0.031 C 
ATOM     58  C   UNL A   1      48.051  27.053  26.754  1.00  0.00     0.037 A 
BRANCH  45  59
ATOM     59  C   UNL A   1      46.192  32.746  28.278  1.00  0.00     0.058 A 
ATOM     60  C   UNL A   1      46.670  33.176  29.525  1.00  0.00     0.135 A 
ATOM     61  C   UNL A   1      46.145  33.687  27.235  1.00  0.00     0.135 A 
ATOM     62  F   UNL A   1      46.716  32.324  30.562  1.00  0.00    -0.206 F 
ATOM     63  C   UNL A   1      47.081  34.489  29.732  1.00  0.00     0.059 A 
ATOM     64  C   UNL A   1      46.574  34.999  27.413  1.00  0.00     0.059 A 
ATOM     65  F   UNL A   1      45.692  33.329  26.023  1.00  0.00    -0.206 F 
ATOM     66  C   UNL A   1      47.035  35.392  28.668  1.00  0.00     0.060 A 
BRANCH  66  67
ATOM     67  S   UNL A   1      47.607  37.082  28.946  1.00  0.00     0.124 S 
ATOM     68  O   UNL A   1      48.136  37.430  27.631  1.00  0.00    -0.237 OA
ATOM     69  O   UNL A   1      46.379  37.766  29.335  1.00  0.00    -0.237 OA
ATOM     70  O   UNL A   1      48.603  36.936  30.003  1.00  0.00    -0.744 OA
ENDBRANCH  66  67
ENDBRANCH  45  59
BRANCH  46  71
ATOM     71  C   UNL A   1      43.342  23.247  26.892  1.00  0.00     0.058 A 
ATOM     72  C   UNL A   1      43.101  22.366  27.957  1.00  0.00     0.135 A 
ATOM     73  C   UNL A   1      43.218  22.743  25.587  1.00  0.00     0.135 A 
ATOM     74  F   UNL A   1      43.211  22.796  29.223  1.00  0.00    -0.206 F 
ATOM     75  C   UNL A   1      42.790  21.027  27.739  1.00  0.00     0.059 A 
ATOM     76  C   UNL A   1      42.876  21.418  25.344  1.00  0.00     0.059 A 
ATOM     77  F   UNL A   1      43.423  23.547  24.532  1.00  0.00    -0.206 F 
ATOM     78  C   UNL A   1      42.686  20.562  26.426  1.00  0.00     0.060 A 
BRANCH  78  79
ATOM     79  S   UNL A   1      42.288  18.822  26.148  1.00  0.00     0.124 S 
ATOM     80  O   UNL A   1      40.885  18.903  25.759  1.00  0.00    -0.237 OA
ATOM     81  O   UNL A   1      43.225  18.457  25.090  1.00  0.00    -0.237 OA
ATOM     82  O   UNL A   1      42.550  18.208  27.446  1.00  0.00    -0.744 OA
ENDBRANCH  78  79
ENDBRANCH  46  71
BRANCH  58  83
ATOM     83  C   UNL A   1      49.441  26.583  26.423  1.00  0.00     0.058 A 
ATOM     84  C   UNL A   1      50.261  25.970  27.381  1.00  0.00     0.135 A 
ATOM     85  C   UNL A   1      49.941  26.717  25.117  1.00  0.00     0.135 A 
ATOM     86  F   UNL A   1      49.834  25.826  28.645  1.00  0.00    -0.206 F 
ATOM     87  C   UNL A   1      51.543  25.530  27.064  1.00  0.00     0.059 A 
ATOM     88  C   UNL A   1      51.207  26.258  24.771  1.00  0.00     0.059 A 
ATOM     89  F   UNL A   1      49.190  27.288  24.160  1.00  0.00    -0.206 F 
ATOM     90  C   UNL A   1      52.006  25.678  25.755  1.00  0.00     0.060 A 
BRANCH  90  91
ATOM     91  S   UNL A   1      53.659  25.078  25.349  1.00  0.00     0.124 S 
ATOM     92  O   UNL A   1      53.838  25.604  23.999  1.00  0.00    -0.237 OA
ATOM     93  O   UNL A   1      54.479  25.696  26.385  1.00  0.00    -0.237 OA
ATOM     94  O   UNL A   1      53.527  23.627  25.445  1.00  0.00    -0.744 OA
ENDBRANCH  90  91
ENDBRANCH  58  83
ENDBRANCH  32  33
ENDBRANCH  25  27
ENDBRANCH  24  25
ENDBRANCH  23  24
ENDBRANCH   1  23
TORSDOF 17
ENDMDL
