MODEL 1
REMARK VINA RESULT:     -10.6      0.000      0.000
REMARK SMILES C[NH2+][C@]1(C(=O)OCCOC(=O)c2ccc(-c3c4nc(c(-c5c(F)cc(S(=O)(=O)[O-])cc5F)c5ccc([nH]5)c(-c5c(F)cc(S(=O)(=O)[O-])cc5F)c5nc(c(-c6c(F)cc(S(=O)(=O)[O-])cc6F)c6ccc3[nH]6)C=C5)C=C4)cc2)CCC[C@@H]1CC[N@H+]1CCC[C@H]([NH+](C)C)C1
REMARK SMILES IDX 7 1 6 2 4 3 5 4 3 5 78 6 81 7 79 8 80 9 2 10 1 11 82 14
REMARK SMILES IDX 83 15 84 16 85 17 92 18 86 20 88 21 87 22 89 23 90 24 91 25
REMARK SMILES IDX 8 27 9 28 10 29 11 30 12 31 13 32 77 33 14 34 76 35 15 36
REMARK SMILES IDX 16 37 17 38 70 39 18 40 75 41 69 42 71 43 19 44 74 45 68 46
REMARK SMILES IDX 67 47 20 49 54 50 33 51 53 52 34 53 37 54 52 55 72 56 35 57
REMARK SMILES IDX 36 58 51 60 73 61 38 62 21 63 22 64 31 65 23 66 24 67 30 68
REMARK SMILES IDX 32 69 25 70 26 71 27 72 28 73 29 74 55 75 56 76 65 77 57 78
REMARK SMILES IDX 58 79 64 80 66 81 59 82 60 83 61 84 62 85 63 86 39 87 40 88
REMARK SMILES IDX 49 89 41 90 42 91 48 92 50 93 43 94 44 95 45 96 46 97 47 98
REMARK H PARENT 2 12 2 13 84 19 89 26 71 48 37 59
REMARK Flexibility Score: inf
ROOT
ATOM      1  C   UNL A   1      37.557  22.409  25.451  1.00  0.00     0.274 C 
ENDROOT
BRANCH   1   2
ATOM      2  O   UNL A   1      36.366  23.043  25.966  1.00  0.00    -0.457 OA
BRANCH   2   3
ATOM      3  C   UNL A   1      35.413  23.243  25.021  1.00  0.00     0.368 C 
ATOM      4  O   UNL A   1      35.691  23.569  23.871  1.00  0.00    -0.245 OA
BRANCH   3   5
ATOM      5  C   UNL A   1      33.955  23.060  25.485  1.00  0.00     0.197 C 
ATOM      6  C   UNL A   1      33.783  22.304  26.809  1.00  0.00     0.081 C 
ATOM      7  C   UNL A   1      33.409  24.471  25.910  1.00  0.00     0.068 C 
ATOM      8  C   UNL A   1      32.399  22.717  27.300  1.00  0.00     0.008 C 
ATOM      9  C   UNL A   1      32.181  24.142  26.780  1.00  0.00     0.011 C 
BRANCH   5  10
ATOM     10  N   UNL A   1      33.103  22.502  24.398  1.00  0.00    -0.334 N 
ATOM     11  C   UNL A   1      33.215  21.062  24.211  1.00  0.00     0.331 C 
ATOM     12  H   UNL A   1      32.130  22.719  24.615  1.00  0.00     0.347 HD
ATOM     13  H   UNL A   1      33.428  22.929  23.531  1.00  0.00     0.347 HD
ENDBRANCH   5  10
BRANCH   7  14
ATOM     14  C   UNL A   1      33.088  25.450  24.758  1.00  0.00     0.072 C 
BRANCH  14  15
ATOM     15  C   UNL A   1      34.015  26.679  24.635  1.00  0.00     0.262 C 
BRANCH  15  16
ATOM     16  N   UNL A   1      33.602  27.941  25.291  1.00  0.00    -0.330 N 
ATOM     17  C   UNL A   1      32.417  28.556  24.689  1.00  0.00     0.262 C 
ATOM     18  C   UNL A   1      33.335  27.690  26.722  1.00  0.00     0.327 C 
ATOM     19  H   UNL A   1      34.374  28.595  25.166  1.00  0.00     0.348 HD
ATOM     20  C   UNL A   1      31.974  29.859  25.351  1.00  0.00     0.068 C 
ATOM     21  C   UNL A   1      33.006  28.978  27.533  1.00  0.00     0.239 C 
ATOM     22  C   UNL A   1      31.848  29.745  26.861  1.00  0.00     0.077 C 
BRANCH  21  23
ATOM     23  N   UNL A   1      34.148  29.853  27.918  1.00  0.00    -0.333 N 
ATOM     24  C   UNL A   1      35.391  29.391  27.296  1.00  0.00     0.332 C 
ATOM     25  C   UNL A   1      33.968  31.275  27.630  1.00  0.00     0.332 C 
ATOM     26  H   UNL A   1      34.196  29.771  28.933  1.00  0.00     0.348 HD
ENDBRANCH  21  23
ENDBRANCH  15  16
ENDBRANCH  14  15
ENDBRANCH   7  14
ENDBRANCH   3   5
ENDBRANCH   2   3
ENDBRANCH   1   2
BRANCH   1  27
ATOM     27  C   UNL A   1      38.829  22.719  26.254  1.00  0.00     0.275 C 
BRANCH  27  28
ATOM     28  O   UNL A   1      38.960  24.124  26.550  1.00  0.00    -0.458 OA
BRANCH  28  29
ATOM     29  C   UNL A   1      40.224  24.596  26.662  1.00  0.00     0.338 C 
ATOM     30  O   UNL A   1      41.156  24.362  25.910  1.00  0.00    -0.246 OA
BRANCH  29  31
ATOM     31  C   UNL A   1      40.372  25.478  27.841  1.00  0.00     0.060 A 
ATOM     32  C   UNL A   1      39.317  25.651  28.735  1.00  0.00     0.016 A 
ATOM     33  C   UNL A   1      41.503  26.285  27.958  1.00  0.00     0.016 A 
ATOM     34  C   UNL A   1      39.344  26.655  29.697  1.00  0.00     0.010 A 
ATOM     35  C   UNL A   1      41.565  27.253  28.970  1.00  0.00     0.010 A 
ATOM     36  C   UNL A   1      40.470  27.469  29.827  1.00  0.00    -0.014 A 
BRANCH  36  37
ATOM     37  C   UNL A   1      40.456  28.599  30.791  1.00  0.00     0.031 A 
ATOM     38  C   UNL A   1      41.476  28.640  31.894  1.00  0.00     0.074 A 
ATOM     39  C   UNL A   1      39.572  29.607  30.657  1.00  0.00     0.049 A 
ATOM     40  N   UNL A   1      41.516  29.399  32.957  1.00  0.00    -0.248 NA
ATOM     41  C   UNL A   1      42.597  27.690  31.791  1.00  0.00     0.031 C 
ATOM     42  C   UNL A   1      38.588  29.738  29.580  1.00  0.00     0.029 A 
ATOM     43  N   UNL A   1      39.362  30.719  31.433  1.00  0.00    -0.354 N 
ATOM     44  C   UNL A   1      42.620  28.973  33.685  1.00  0.00     0.074 A 
ATOM     45  C   UNL A   1      43.237  27.901  32.933  1.00  0.00     0.031 C 
ATOM     46  C   UNL A   1      37.899  30.877  29.749  1.00  0.00     0.029 A 
ATOM     47  C   UNL A   1      38.329  31.511  30.990  1.00  0.00     0.049 A 
ATOM     48  H   UNL A   1      39.899  30.930  32.230  1.00  0.00     0.167 HD
ATOM     49  C   UNL A   1      43.065  29.428  34.879  1.00  0.00     0.037 A 
ATOM     50  C   UNL A   1      37.757  32.596  31.547  1.00  0.00     0.037 A 
ATOM     51  C   UNL A   1      42.477  30.535  35.586  1.00  0.00     0.049 A 
ATOM     52  C   UNL A   1      38.255  33.077  32.881  1.00  0.00     0.074 A 
ATOM     53  C   UNL A   1      42.836  31.068  36.811  1.00  0.00     0.029 A 
ATOM     54  N   UNL A   1      41.417  31.296  35.113  1.00  0.00    -0.354 N 
ATOM     55  N   UNL A   1      39.229  32.597  33.617  1.00  0.00    -0.248 NA
ATOM     56  C   UNL A   1      37.559  34.227  33.475  1.00  0.00     0.031 C 
ATOM     57  C   UNL A   1      41.980  32.141  37.087  1.00  0.00     0.029 A 
ATOM     58  C   UNL A   1      41.109  32.295  36.021  1.00  0.00     0.049 A 
ATOM     59  H   UNL A   1      40.953  31.149  34.257  1.00  0.00     0.167 HD
ATOM     60  C   UNL A   1      39.264  33.383  34.761  1.00  0.00     0.074 A 
ATOM     61  C   UNL A   1      38.227  34.385  34.611  1.00  0.00     0.031 C 
ATOM     62  C   UNL A   1      40.072  33.279  35.845  1.00  0.00     0.037 A 
BRANCH  49  63
ATOM     63  C   UNL A   1      44.210  28.694  35.517  1.00  0.00     0.058 A 
ATOM     64  C   UNL A   1      44.012  27.604  36.378  1.00  0.00     0.135 A 
ATOM     65  C   UNL A   1      45.532  29.088  35.250  1.00  0.00     0.135 A 
ATOM     66  F   UNL A   1      42.769  27.202  36.684  1.00  0.00    -0.206 F 
ATOM     67  C   UNL A   1      45.085  26.946  36.973  1.00  0.00     0.059 A 
ATOM     68  C   UNL A   1      46.619  28.432  35.817  1.00  0.00     0.059 A 
ATOM     69  F   UNL A   1      45.775  30.128  34.437  1.00  0.00    -0.206 F 
ATOM     70  C   UNL A   1      46.385  27.371  36.690  1.00  0.00     0.060 A 
BRANCH  70  71
ATOM     71  S   UNL A   1      47.770  26.515  37.470  1.00  0.00     0.124 S 
ATOM     72  O   UNL A   1      48.201  27.501  38.456  1.00  0.00    -0.237 OA
ATOM     73  O   UNL A   1      47.138  25.315  38.009  1.00  0.00    -0.237 OA
ATOM     74  O   UNL A   1      48.695  26.288  36.364  1.00  0.00    -0.744 OA
ENDBRANCH  70  71
ENDBRANCH  49  63
BRANCH  50  75
ATOM     75  C   UNL A   1      36.612  33.259  30.869  1.00  0.00     0.058 A 
ATOM     76  C   UNL A   1      35.304  33.117  31.353  1.00  0.00     0.135 A 
ATOM     77  C   UNL A   1      36.809  34.074  29.743  1.00  0.00     0.135 A 
ATOM     78  F   UNL A   1      35.064  32.339  32.418  1.00  0.00    -0.206 F 
ATOM     79  C   UNL A   1      34.230  33.764  30.747  1.00  0.00     0.059 A 
ATOM     80  C   UNL A   1      35.756  34.749  29.135  1.00  0.00     0.059 A 
ATOM     81  F   UNL A   1      38.044  34.249  29.248  1.00  0.00    -0.206 F 
ATOM     82  C   UNL A   1      34.468  34.583  29.641  1.00  0.00     0.060 A 
BRANCH  82  83
ATOM     83  S   UNL A   1      33.087  35.485  28.907  1.00  0.00     0.124 S 
ATOM     84  O   UNL A   1      32.451  34.446  28.105  1.00  0.00    -0.237 OA
ATOM     85  O   UNL A   1      32.344  35.929  30.083  1.00  0.00    -0.237 OA
ATOM     86  O   UNL A   1      33.747  36.549  28.157  1.00  0.00    -0.744 OA
ENDBRANCH  82  83
ENDBRANCH  50  75
BRANCH  62  87
ATOM     87  C   UNL A   1      39.875  34.286  36.939  1.00  0.00     0.058 A 
ATOM     88  C   UNL A   1      40.416  35.577  36.850  1.00  0.00     0.135 A 
ATOM     89  C   UNL A   1      39.101  33.969  38.066  1.00  0.00     0.135 A 
ATOM     90  F   UNL A   1      41.169  35.922  35.793  1.00  0.00    -0.206 F 
ATOM     91  C   UNL A   1      40.214  36.517  37.853  1.00  0.00     0.059 A 
ATOM     92  C   UNL A   1      38.870  34.900  39.073  1.00  0.00     0.059 A 
ATOM     93  F   UNL A   1      38.556  32.749  38.191  1.00  0.00    -0.206 F 
ATOM     94  C   UNL A   1      39.440  36.169  38.963  1.00  0.00     0.060 A 
BRANCH  94  95
ATOM     95  S   UNL A   1      39.157  37.404  40.248  1.00  0.00     0.124 S 
ATOM     96  O   UNL A   1      40.511  37.892  40.488  1.00  0.00    -0.237 OA
ATOM     97  O   UNL A   1      38.252  38.343  39.593  1.00  0.00    -0.237 OA
ATOM     98  O   UNL A   1      38.566  36.630  41.335  1.00  0.00    -0.744 OA
ENDBRANCH  94  95
ENDBRANCH  62  87
ENDBRANCH  36  37
ENDBRANCH  29  31
ENDBRANCH  28  29
ENDBRANCH  27  28
ENDBRANCH   1  27
TORSDOF 19
ENDMDL
MODEL 2
REMARK VINA RESULT:     -10.6      4.742      5.991
REMARK SMILES C[NH2+][C@]1(C(=O)OCCOC(=O)c2ccc(-c3c4nc(c(-c5c(F)cc(S(=O)(=O)[O-])cc5F)c5ccc([nH]5)c(-c5c(F)cc(S(=O)(=O)[O-])cc5F)c5nc(c(-c6c(F)cc(S(=O)(=O)[O-])cc6F)c6ccc3[nH]6)C=C5)C=C4)cc2)CCC[C@@H]1CC[N@H+]1CCC[C@H]([NH+](C)C)C1
REMARK SMILES IDX 7 1 6 2 4 3 5 4 3 5 78 6 81 7 79 8 80 9 2 10 1 11 82 14
REMARK SMILES IDX 83 15 84 16 85 17 92 18 86 20 88 21 87 22 89 23 90 24 91 25
REMARK SMILES IDX 8 27 9 28 10 29 11 30 12 31 13 32 77 33 14 34 76 35 15 36
REMARK SMILES IDX 16 37 17 38 70 39 18 40 75 41 69 42 71 43 19 44 74 45 68 46
REMARK SMILES IDX 67 47 20 49 54 50 33 51 53 52 34 53 37 54 52 55 72 56 35 57
REMARK SMILES IDX 36 58 51 60 73 61 38 62 21 63 22 64 31 65 23 66 24 67 30 68
REMARK SMILES IDX 32 69 25 70 26 71 27 72 28 73 29 74 55 75 56 76 65 77 57 78
REMARK SMILES IDX 58 79 64 80 66 81 59 82 60 83 61 84 62 85 63 86 39 87 40 88
REMARK SMILES IDX 49 89 41 90 42 91 48 92 50 93 43 94 44 95 45 96 46 97 47 98
REMARK H PARENT 2 12 2 13 84 19 89 26 71 48 37 59
REMARK Flexibility Score: inf
ROOT
ATOM      1  C   UNL A   1      36.150  21.031  25.053  1.00  0.00     0.274 C 
ENDROOT
BRANCH   1   2
ATOM      2  O   UNL A   1      35.552  22.187  25.681  1.00  0.00    -0.457 OA
BRANCH   2   3
ATOM      3  C   UNL A   1      34.752  22.897  24.845  1.00  0.00     0.368 C 
ATOM      4  O   UNL A   1      35.175  23.413  23.816  1.00  0.00    -0.245 OA
BRANCH   3   5
ATOM      5  C   UNL A   1      33.280  23.038  25.282  1.00  0.00     0.197 C 
ATOM      6  C   UNL A   1      32.924  22.345  26.604  1.00  0.00     0.081 C 
ATOM      7  C   UNL A   1      33.046  24.536  25.694  1.00  0.00     0.068 C 
ATOM      8  C   UNL A   1      31.653  23.052  27.067  1.00  0.00     0.008 C 
ATOM      9  C   UNL A   1      31.760  24.487  26.541  1.00  0.00     0.011 C 
BRANCH   5  10
ATOM     10  N   UNL A   1      32.348  22.672  24.180  1.00  0.00    -0.334 N 
ATOM     11  C   UNL A   1      32.482  21.305  23.693  1.00  0.00     0.331 C 
ATOM     12  H   UNL A   1      31.394  22.795  24.518  1.00  0.00     0.347 HD
ATOM     13  H   UNL A   1      32.579  23.279  23.394  1.00  0.00     0.347 HD
ENDBRANCH   5  10
BRANCH   7  14
ATOM     14  C   UNL A   1      32.967  25.554  24.533  1.00  0.00     0.072 C 
BRANCH  14  15
ATOM     15  C   UNL A   1      33.980  26.719  24.584  1.00  0.00     0.262 C 
BRANCH  15  16
ATOM     16  N   UNL A   1      33.525  28.024  25.116  1.00  0.00    -0.330 N 
ATOM     17  C   UNL A   1      32.123  28.324  24.818  1.00  0.00     0.262 C 
ATOM     18  C   UNL A   1      33.721  28.059  26.579  1.00  0.00     0.327 C 
ATOM     19  H   UNL A   1      34.088  28.735  24.649  1.00  0.00     0.348 HD
ATOM     20  C   UNL A   1      31.633  29.666  25.357  1.00  0.00     0.068 C 
ATOM     21  C   UNL A   1      33.383  29.435  27.224  1.00  0.00     0.239 C 
ATOM     22  C   UNL A   1      31.957  29.869  26.828  1.00  0.00     0.077 C 
BRANCH  21  23
ATOM     23  N   UNL A   1      34.391  30.522  27.082  1.00  0.00    -0.333 N 
ATOM     24  C   UNL A   1      33.981  31.714  27.828  1.00  0.00     0.332 C 
ATOM     25  C   UNL A   1      35.754  30.161  27.468  1.00  0.00     0.332 C 
ATOM     26  H   UNL A   1      34.419  30.709  26.081  1.00  0.00     0.348 HD
ENDBRANCH  21  23
ENDBRANCH  15  16
ENDBRANCH  14  15
ENDBRANCH   7  14
ENDBRANCH   3   5
ENDBRANCH   2   3
ENDBRANCH   1   2
BRANCH   1  27
ATOM     27  C   UNL A   1      37.685  21.038  25.059  1.00  0.00     0.275 C 
BRANCH  27  28
ATOM     28  O   UNL A   1      38.224  22.269  25.582  1.00  0.00    -0.458 OA
BRANCH  28  29
ATOM     29  C   UNL A   1      39.319  22.154  26.372  1.00  0.00     0.338 C 
ATOM     30  O   UNL A   1      39.969  21.141  26.568  1.00  0.00    -0.246 OA
BRANCH  29  31
ATOM     31  C   UNL A   1      39.673  23.446  26.999  1.00  0.00     0.060 A 
ATOM     32  C   UNL A   1      39.138  24.640  26.517  1.00  0.00     0.016 A 
ATOM     33  C   UNL A   1      40.689  23.492  27.952  1.00  0.00     0.016 A 
ATOM     34  C   UNL A   1      39.644  25.872  26.919  1.00  0.00     0.010 A 
ATOM     35  C   UNL A   1      41.155  24.731  28.413  1.00  0.00     0.010 A 
ATOM     36  C   UNL A   1      40.659  25.933  27.875  1.00  0.00    -0.014 A 
BRANCH  36  37
ATOM     37  C   UNL A   1      41.259  27.244  28.230  1.00  0.00     0.031 A 
ATOM     38  C   UNL A   1      42.731  27.463  28.016  1.00  0.00     0.074 A 
ATOM     39  C   UNL A   1      40.492  28.249  28.696  1.00  0.00     0.049 A 
ATOM     40  N   UNL A   1      43.495  28.430  28.448  1.00  0.00    -0.248 NA
ATOM     41  C   UNL A   1      43.439  26.449  27.216  1.00  0.00     0.031 C 
ATOM     42  C   UNL A   1      39.038  28.201  28.865  1.00  0.00     0.029 A 
ATOM     43  N   UNL A   1      40.830  29.513  29.107  1.00  0.00    -0.354 N 
ATOM     44  C   UNL A   1      44.782  28.108  28.037  1.00  0.00     0.074 A 
ATOM     45  C   UNL A   1      44.695  26.865  27.302  1.00  0.00     0.031 C 
ATOM     46  C   UNL A   1      38.608  29.388  29.319  1.00  0.00     0.029 A 
ATOM     47  C   UNL A   1      39.760  30.250  29.557  1.00  0.00     0.049 A 
ATOM     48  H   UNL A   1      41.751  29.860  29.083  1.00  0.00     0.167 HD
ATOM     49  C   UNL A   1      45.932  28.785  28.267  1.00  0.00     0.037 A 
ATOM     50  C   UNL A   1      39.717  31.462  30.144  1.00  0.00     0.037 A 
ATOM     51  C   UNL A   1      45.994  30.052  28.948  1.00  0.00     0.049 A 
ATOM     52  C   UNL A   1      41.005  32.191  30.406  1.00  0.00     0.074 A 
ATOM     53  C   UNL A   1      47.107  30.816  29.251  1.00  0.00     0.029 A 
ATOM     54  N   UNL A   1      44.889  30.753  29.408  1.00  0.00    -0.354 N 
ATOM     55  N   UNL A   1      42.230  31.825  30.113  1.00  0.00    -0.248 NA
ATOM     56  C   UNL A   1      40.909  33.481  31.102  1.00  0.00     0.031 C 
ATOM     57  C   UNL A   1      46.675  31.972  29.913  1.00  0.00     0.029 A 
ATOM     58  C   UNL A   1      45.292  31.942  29.993  1.00  0.00     0.049 A 
ATOM     59  H   UNL A   1      43.955  30.451  29.329  1.00  0.00     0.167 HD
ATOM     60  C   UNL A   1      43.052  32.837  30.591  1.00  0.00     0.074 A 
ATOM     61  C   UNL A   1      42.184  33.842  31.171  1.00  0.00     0.031 C 
ATOM     62  C   UNL A   1      44.406  32.924  30.562  1.00  0.00     0.037 A 
BRANCH  49  63
ATOM     63  C   UNL A   1      47.215  28.140  27.827  1.00  0.00     0.058 A 
ATOM     64  C   UNL A   1      47.759  28.353  26.551  1.00  0.00     0.135 A 
ATOM     65  C   UNL A   1      47.915  27.299  28.707  1.00  0.00     0.135 A 
ATOM     66  F   UNL A   1      47.118  29.130  25.664  1.00  0.00    -0.206 F 
ATOM     67  C   UNL A   1      48.942  27.735  26.155  1.00  0.00     0.059 A 
ATOM     68  C   UNL A   1      49.109  26.687  28.340  1.00  0.00     0.059 A 
ATOM     69  F   UNL A   1      47.434  27.058  29.937  1.00  0.00    -0.206 F 
ATOM     70  C   UNL A   1      49.606  26.899  27.055  1.00  0.00     0.060 A 
BRANCH  70  71
ATOM     71  S   UNL A   1      51.136  26.095  26.531  1.00  0.00     0.124 S 
ATOM     72  O   UNL A   1      50.958  24.752  27.072  1.00  0.00    -0.237 OA
ATOM     73  O   UNL A   1      51.069  26.205  25.077  1.00  0.00    -0.237 OA
ATOM     74  O   UNL A   1      52.175  26.897  27.168  1.00  0.00    -0.744 OA
ENDBRANCH  70  71
ENDBRANCH  49  63
BRANCH  50  75
ATOM     75  C   UNL A   1      38.411  32.028  30.575  1.00  0.00     0.058 A 
ATOM     76  C   UNL A   1      37.895  31.766  31.852  1.00  0.00     0.135 A 
ATOM     77  C   UNL A   1      37.671  32.870  29.730  1.00  0.00     0.135 A 
ATOM     78  F   UNL A   1      38.559  30.957  32.691  1.00  0.00    -0.206 F 
ATOM     79  C   UNL A   1      36.691  32.321  32.278  1.00  0.00     0.059 A 
ATOM     80  C   UNL A   1      36.479  33.455  30.142  1.00  0.00     0.059 A 
ATOM     81  F   UNL A   1      38.128  33.159  28.501  1.00  0.00    -0.206 F 
ATOM     82  C   UNL A   1      35.993  33.170  31.416  1.00  0.00     0.060 A 
BRANCH  82  83
ATOM     83  S   UNL A   1      34.475  33.954  32.000  1.00  0.00     0.124 S 
ATOM     84  O   UNL A   1      33.930  32.922  32.875  1.00  0.00    -0.237 OA
ATOM     85  O   UNL A   1      34.979  35.153  32.664  1.00  0.00    -0.237 OA
ATOM     86  O   UNL A   1      33.732  34.198  30.768  1.00  0.00    -0.744 OA
ENDBRANCH  82  83
ENDBRANCH  50  75
BRANCH  62  87
ATOM     87  C   UNL A   1      45.021  34.154  31.161  1.00  0.00     0.058 A 
ATOM     88  C   UNL A   1      45.410  34.193  32.508  1.00  0.00     0.135 A 
ATOM     89  C   UNL A   1      45.261  35.287  30.368  1.00  0.00     0.135 A 
ATOM     90  F   UNL A   1      45.193  33.135  33.306  1.00  0.00    -0.206 F 
ATOM     91  C   UNL A   1      46.001  35.325  33.057  1.00  0.00     0.059 A 
ATOM     92  C   UNL A   1      45.868  36.423  30.891  1.00  0.00     0.059 A 
ATOM     93  F   UNL A   1      44.912  35.291  29.072  1.00  0.00    -0.206 F 
ATOM     94  C   UNL A   1      46.224  36.437  32.241  1.00  0.00     0.060 A 
BRANCH  94  95
ATOM     95  S   UNL A   1      47.019  37.893  32.952  1.00  0.00     0.124 S 
ATOM     96  O   UNL A   1      47.100  37.522  34.361  1.00  0.00    -0.237 OA
ATOM     97  O   UNL A   1      48.289  37.943  32.236  1.00  0.00    -0.237 OA
ATOM     98  O   UNL A   1      46.087  38.972  32.639  1.00  0.00    -0.744 OA
ENDBRANCH  94  95
ENDBRANCH  62  87
ENDBRANCH  36  37
ENDBRANCH  29  31
ENDBRANCH  28  29
ENDBRANCH  27  28
ENDBRANCH   1  27
TORSDOF 19
ENDMDL
MODEL 3
REMARK VINA RESULT:     -10.5      2.199      3.064
REMARK SMILES C[NH2+][C@]1(C(=O)OCCOC(=O)c2ccc(-c3c4nc(c(-c5c(F)cc(S(=O)(=O)[O-])cc5F)c5ccc([nH]5)c(-c5c(F)cc(S(=O)(=O)[O-])cc5F)c5nc(c(-c6c(F)cc(S(=O)(=O)[O-])cc6F)c6ccc3[nH]6)C=C5)C=C4)cc2)CCC[C@@H]1CC[N@H+]1CCC[C@H]([NH+](C)C)C1
REMARK SMILES IDX 7 1 6 2 4 3 5 4 3 5 78 6 81 7 79 8 80 9 2 10 1 11 82 14
REMARK SMILES IDX 83 15 84 16 85 17 92 18 86 20 88 21 87 22 89 23 90 24 91 25
REMARK SMILES IDX 8 27 9 28 10 29 11 30 12 31 13 32 77 33 14 34 76 35 15 36
REMARK SMILES IDX 16 37 17 38 70 39 18 40 75 41 69 42 71 43 19 44 74 45 68 46
REMARK SMILES IDX 67 47 20 49 54 50 33 51 53 52 34 53 37 54 52 55 72 56 35 57
REMARK SMILES IDX 36 58 51 60 73 61 38 62 21 63 22 64 31 65 23 66 24 67 30 68
REMARK SMILES IDX 32 69 25 70 26 71 27 72 28 73 29 74 55 75 56 76 65 77 57 78
REMARK SMILES IDX 58 79 64 80 66 81 59 82 60 83 61 84 62 85 63 86 39 87 40 88
REMARK SMILES IDX 49 89 41 90 42 91 48 92 50 93 43 94 44 95 45 96 46 97 47 98
REMARK H PARENT 2 12 2 13 84 19 89 26 71 48 37 59
REMARK Flexibility Score: inf
ROOT
ATOM      1  C   UNL A   1      35.962  23.545  23.141  1.00  0.00     0.274 C 
ENDROOT
BRANCH   1   2
ATOM      2  O   UNL A   1      34.527  23.462  23.277  1.00  0.00    -0.457 OA
BRANCH   2   3
ATOM      3  C   UNL A   1      34.062  24.039  24.414  1.00  0.00     0.368 C 
ATOM      4  O   UNL A   1      34.293  25.210  24.695  1.00  0.00    -0.245 OA
BRANCH   3   5
ATOM      5  C   UNL A   1      33.245  23.123  25.347  1.00  0.00     0.197 C 
ATOM      6  C   UNL A   1      33.738  23.067  26.799  1.00  0.00     0.081 C 
ATOM      7  C   UNL A   1      31.842  23.796  25.567  1.00  0.00     0.068 C 
ATOM      8  C   UNL A   1      32.525  22.581  27.588  1.00  0.00     0.008 C 
ATOM      9  C   UNL A   1      31.299  23.108  26.835  1.00  0.00     0.011 C 
BRANCH   5  10
ATOM     10  N   UNL A   1      33.061  21.768  24.758  1.00  0.00    -0.334 N 
ATOM     11  C   UNL A   1      33.985  20.756  25.251  1.00  0.00     0.331 C 
ATOM     12  H   UNL A   1      32.112  21.458  24.965  1.00  0.00     0.347 HD
ATOM     13  H   UNL A   1      33.247  21.862  23.760  1.00  0.00     0.347 HD
ENDBRANCH   5  10
BRANCH   7  14
ATOM     14  C   UNL A   1      30.861  23.725  24.375  1.00  0.00     0.072 C 
BRANCH  14  15
ATOM     15  C   UNL A   1      30.399  25.080  23.795  1.00  0.00     0.262 C 
BRANCH  15  16
ATOM     16  N   UNL A   1      31.349  26.216  23.821  1.00  0.00    -0.330 N 
ATOM     17  C   UNL A   1      31.961  26.500  22.521  1.00  0.00     0.262 C 
ATOM     18  C   UNL A   1      30.658  27.430  24.298  1.00  0.00     0.327 C 
ATOM     19  H   UNL A   1      32.103  25.944  24.452  1.00  0.00     0.348 HD
ATOM     20  C   UNL A   1      32.945  27.667  22.525  1.00  0.00     0.068 C 
ATOM     21  C   UNL A   1      31.598  28.658  24.475  1.00  0.00     0.239 C 
ATOM     22  C   UNL A   1      32.378  28.921  23.170  1.00  0.00     0.077 C 
BRANCH  21  23
ATOM     23  N   UNL A   1      32.457  28.691  25.692  1.00  0.00    -0.333 N 
ATOM     24  C   UNL A   1      32.657  30.067  26.152  1.00  0.00     0.332 C 
ATOM     25  C   UNL A   1      31.985  27.876  26.809  1.00  0.00     0.332 C 
ATOM     26  H   UNL A   1      33.338  28.276  25.388  1.00  0.00     0.348 HD
ENDBRANCH  21  23
ENDBRANCH  15  16
ENDBRANCH  14  15
ENDBRANCH   7  14
ENDBRANCH   3   5
ENDBRANCH   2   3
ENDBRANCH   1   2
BRANCH   1  27
ATOM     27  C   UNL A   1      36.740  22.807  24.240  1.00  0.00     0.275 C 
BRANCH  27  28
ATOM     28  O   UNL A   1      37.521  23.705  25.054  1.00  0.00    -0.458 OA
BRANCH  28  29
ATOM     29  C   UNL A   1      38.538  23.147  25.754  1.00  0.00     0.338 C 
ATOM     30  O   UNL A   1      38.910  21.986  25.691  1.00  0.00    -0.246 OA
BRANCH  29  31
ATOM     31  C   UNL A   1      39.193  24.133  26.641  1.00  0.00     0.060 A 
ATOM     32  C   UNL A   1      38.898  24.169  28.003  1.00  0.00     0.016 A 
ATOM     33  C   UNL A   1      39.964  25.152  26.084  1.00  0.00     0.016 A 
ATOM     34  C   UNL A   1      39.302  25.235  28.800  1.00  0.00     0.010 A 
ATOM     35  C   UNL A   1      40.434  26.193  26.898  1.00  0.00     0.010 A 
ATOM     36  C   UNL A   1      40.077  26.260  28.257  1.00  0.00    -0.014 A 
BRANCH  36  37
ATOM     37  C   UNL A   1      40.426  27.440  29.089  1.00  0.00     0.031 A 
ATOM     38  C   UNL A   1      41.728  27.454  29.840  1.00  0.00     0.074 A 
ATOM     39  C   UNL A   1      39.613  28.513  29.136  1.00  0.00     0.049 A 
ATOM     40  N   UNL A   1      42.132  28.266  30.780  1.00  0.00    -0.248 NA
ATOM     41  C   UNL A   1      42.701  26.404  29.493  1.00  0.00     0.031 C 
ATOM     42  C   UNL A   1      38.365  28.670  28.385  1.00  0.00     0.029 A 
ATOM     43  N   UNL A   1      39.718  29.682  29.847  1.00  0.00    -0.354 N 
ATOM     44  C   UNL A   1      43.371  27.786  31.188  1.00  0.00     0.074 A 
ATOM     45  C   UNL A   1      43.663  26.622  30.379  1.00  0.00     0.031 C 
ATOM     46  C   UNL A   1      37.836  29.873  28.654  1.00  0.00     0.029 A 
ATOM     47  C   UNL A   1      38.657  30.537  29.661  1.00  0.00     0.049 A 
ATOM     48  H   UNL A   1      40.480  29.890  30.434  1.00  0.00     0.167 HD
ATOM     49  C   UNL A   1      44.180  28.267  32.160  1.00  0.00     0.037 A 
ATOM     50  C   UNL A   1      38.351  31.698  30.271  1.00  0.00     0.037 A 
ATOM     51  C   UNL A   1      43.904  29.462  32.916  1.00  0.00     0.049 A 
ATOM     52  C   UNL A   1      39.254  32.209  31.359  1.00  0.00     0.074 A 
ATOM     53  C   UNL A   1      44.646  30.030  33.935  1.00  0.00     0.029 A 
ATOM     54  N   UNL A   1      42.805  30.285  32.711  1.00  0.00    -0.354 N 
ATOM     55  N   UNL A   1      40.367  31.687  31.815  1.00  0.00    -0.248 NA
ATOM     56  C   UNL A   1      38.845  33.448  32.035  1.00  0.00     0.031 C 
ATOM     57  C   UNL A   1      43.984  31.189  34.362  1.00  0.00     0.029 A 
ATOM     58  C   UNL A   1      42.849  31.358  33.586  1.00  0.00     0.049 A 
ATOM     59  H   UNL A   1      42.100  30.130  32.042  1.00  0.00     0.167 HD
ATOM     60  C   UNL A   1      40.792  32.531  32.833  1.00  0.00     0.074 A 
ATOM     61  C   UNL A   1      39.828  33.611  32.910  1.00  0.00     0.031 C 
ATOM     62  C   UNL A   1      41.877  32.419  33.640  1.00  0.00     0.037 A 
BRANCH  49  63
ATOM     63  C   UNL A   1      45.409  27.472  32.495  1.00  0.00     0.058 A 
ATOM     64  C   UNL A   1      45.382  26.396  33.394  1.00  0.00     0.135 A 
ATOM     65  C   UNL A   1      46.638  27.794  31.894  1.00  0.00     0.135 A 
ATOM     66  F   UNL A   1      44.239  26.061  34.013  1.00  0.00    -0.206 F 
ATOM     67  C   UNL A   1      46.535  25.680  33.704  1.00  0.00     0.059 A 
ATOM     68  C   UNL A   1      47.798  27.080  32.173  1.00  0.00     0.059 A 
ATOM     69  F   UNL A   1      46.719  28.819  31.030  1.00  0.00    -0.206 F 
ATOM     70  C   UNL A   1      47.739  26.034  33.092  1.00  0.00     0.060 A 
BRANCH  70  71
ATOM     71  S   UNL A   1      49.232  25.105  33.505  1.00  0.00     0.124 S 
ATOM     72  O   UNL A   1      49.957  26.070  34.324  1.00  0.00    -0.237 OA
ATOM     73  O   UNL A   1      48.698  23.947  34.215  1.00  0.00    -0.237 OA
ATOM     74  O   UNL A   1      49.823  24.817  32.202  1.00  0.00    -0.744 OA
ENDBRANCH  70  71
ENDBRANCH  49  63
BRANCH  50  75
ATOM     75  C   UNL A   1      37.104  32.420  29.904  1.00  0.00     0.058 A 
ATOM     76  C   UNL A   1      35.878  32.095  30.499  1.00  0.00     0.135 A 
ATOM     77  C   UNL A   1      37.122  33.471  28.973  1.00  0.00     0.135 A 
ATOM     78  F   UNL A   1      35.808  31.090  31.385  1.00  0.00    -0.206 F 
ATOM     79  C   UNL A   1      34.712  32.790  30.189  1.00  0.00     0.059 A 
ATOM     80  C   UNL A   1      35.976  34.195  28.665  1.00  0.00     0.059 A 
ATOM     81  F   UNL A   1      38.274  33.826  28.382  1.00  0.00    -0.206 F 
ATOM     82  C   UNL A   1      34.773  33.843  29.274  1.00  0.00     0.060 A 
BRANCH  82  83
ATOM     83  S   UNL A   1      33.276  34.796  28.935  1.00  0.00     0.124 S 
ATOM     84  O   UNL A   1      33.831  36.021  28.371  1.00  0.00    -0.237 OA
ATOM     85  O   UNL A   1      32.560  33.930  28.002  1.00  0.00    -0.237 OA
ATOM     86  O   UNL A   1      32.660  34.925  30.252  1.00  0.00    -0.744 OA
ENDBRANCH  82  83
ENDBRANCH  50  75
BRANCH  62  87
ATOM     87  C   UNL A   1      42.081  33.500  34.659  1.00  0.00     0.058 A 
ATOM     88  C   UNL A   1      41.502  33.420  35.934  1.00  0.00     0.135 A 
ATOM     89  C   UNL A   1      42.898  34.604  34.370  1.00  0.00     0.135 A 
ATOM     90  F   UNL A   1      40.708  32.385  36.252  1.00  0.00    -0.206 F 
ATOM     91  C   UNL A   1      41.711  34.411  36.886  1.00  0.00     0.059 A 
ATOM     92  C   UNL A   1      43.135  35.598  35.313  1.00  0.00     0.059 A 
ATOM     93  F   UNL A   1      43.479  34.719  33.166  1.00  0.00    -0.206 F 
ATOM     94  C   UNL A   1      42.527  35.498  36.566  1.00  0.00     0.060 A 
BRANCH  94  95
ATOM     95  S   UNL A   1      42.817  36.767  37.816  1.00  0.00     0.124 S 
ATOM     96  O   UNL A   1      43.411  37.834  37.018  1.00  0.00    -0.237 OA
ATOM     97  O   UNL A   1      41.473  37.027  38.322  1.00  0.00    -0.237 OA
ATOM     98  O   UNL A   1      43.718  36.111  38.759  1.00  0.00    -0.744 OA
ENDBRANCH  94  95
ENDBRANCH  62  87
ENDBRANCH  36  37
ENDBRANCH  29  31
ENDBRANCH  28  29
ENDBRANCH  27  28
ENDBRANCH   1  27
TORSDOF 19
ENDMDL
