MODEL 1
REMARK VINA RESULT:     -11.1      0.000      0.000
REMARK SMILES CC1(C)CCC[C@@]1(CC(=O)OCCOC(=O)c1ccc(-c2c3nc(c(-c4c(F)cc(S(=O)(=O)[O-])cc4F)c4ccc([nH]4)c(-c4c(F)cc(S(=O)(=O)[O-])cc4F)c4nc(c(-c5c(F)cc(S(=O)(=O)[O-])cc5F)c5ccc2[nH]5)C=C4)C=C3)cc1)[NH+]1CCCCC1
REMARK SMILES IDX 13 1 12 2 11 3 9 4 10 5 8 6 7 7 1 8 2 9 3 10 4 11 5 12 6 13
REMARK SMILES IDX 83 14 84 15 88 16 85 18 87 19 86 20 14 21 15 22 16 23 17 24
REMARK SMILES IDX 18 25 82 26 19 27 81 28 20 29 21 30 22 31 75 32 23 33 80 34
REMARK SMILES IDX 74 35 76 36 24 37 79 38 73 39 72 40 25 42 59 43 38 44 58 45
REMARK SMILES IDX 39 46 42 47 57 48 77 49 40 50 41 51 56 53 78 54 43 55 26 56
REMARK SMILES IDX 27 57 36 58 28 59 29 60 35 61 37 62 30 63 31 64 32 65 33 66
REMARK SMILES IDX 34 67 60 68 61 69 70 70 62 71 63 72 69 73 71 74 64 75 65 76
REMARK SMILES IDX 66 77 67 78 68 79 44 80 45 81 54 82 46 83 47 84 53 85 55 86
REMARK SMILES IDX 48 87 49 88 50 89 51 90 52 91
REMARK H PARENT 83 17 76 41 42 52
REMARK Flexibility Score: inf
ROOT
ATOM      1  C   UNL A   1      34.282  31.040  27.574  1.00  0.00     0.275 C 
ENDROOT
BRANCH   1   2
ATOM      2  C   UNL A   1      33.090  30.145  27.254  1.00  0.00     0.274 C 
BRANCH   2   3
ATOM      3  O   UNL A   1      33.449  28.786  27.560  1.00  0.00    -0.462 OA
BRANCH   3   4
ATOM      4  C   UNL A   1      32.531  27.836  27.243  1.00  0.00     0.312 C 
ATOM      5  O   UNL A   1      31.413  27.749  27.732  1.00  0.00    -0.252 OA
BRANCH   4   6
ATOM      6  C   UNL A   1      33.031  26.932  26.142  1.00  0.00     0.191 C 
BRANCH   6   7
ATOM      7  C   UNL A   1      32.598  27.263  24.666  1.00  0.00     0.113 C 
ATOM      8  C   UNL A   1      31.681  24.871  24.013  1.00  0.00     0.018 C 
ATOM      9  C   UNL A   1      32.786  25.919  23.800  1.00  0.00     0.020 C 
ATOM     10  C   UNL A   1      34.142  25.191  24.083  1.00  0.00     0.018 C 
ATOM     11  C   UNL A   1      32.875  26.401  22.340  1.00  0.00     0.013 C 
ATOM     12  C   UNL A   1      33.545  27.768  22.406  1.00  0.00     0.007 C 
ATOM     13  C   UNL A   1      33.558  28.199  23.877  1.00  0.00     0.070 C 
BRANCH   7  14
ATOM     14  N   UNL A   1      31.218  27.856  24.737  1.00  0.00    -0.329 N 
ATOM     15  C   UNL A   1      29.989  27.094  24.537  1.00  0.00     0.262 C 
ATOM     16  C   UNL A   1      31.031  29.250  24.278  1.00  0.00     0.262 C 
ATOM     17  H   UNL A   1      31.326  27.803  25.749  1.00  0.00     0.348 HD
ATOM     18  C   UNL A   1      29.401  27.173  23.126  1.00  0.00     0.062 C 
ATOM     19  C   UNL A   1      30.403  29.441  22.895  1.00  0.00     0.062 C 
ATOM     20  C   UNL A   1      29.144  28.613  22.717  1.00  0.00     0.012 C 
ENDBRANCH   7  14
ENDBRANCH   6   7
ENDBRANCH   4   6
ENDBRANCH   3   4
ENDBRANCH   2   3
ENDBRANCH   1   2
BRANCH   1  21
ATOM     21  O   UNL A   1      35.395  30.198  27.919  1.00  0.00    -0.458 OA
BRANCH  21  22
ATOM     22  C   UNL A   1      36.083  30.571  29.024  1.00  0.00     0.338 C 
ATOM     23  O   UNL A   1      35.661  31.204  29.977  1.00  0.00    -0.246 OA
BRANCH  22  24
ATOM     24  C   UNL A   1      37.471  30.077  28.939  1.00  0.00     0.060 A 
ATOM     25  C   UNL A   1      38.251  29.929  30.090  1.00  0.00     0.016 A 
ATOM     26  C   UNL A   1      38.029  29.854  27.681  1.00  0.00     0.016 A 
ATOM     27  C   UNL A   1      39.606  29.611  29.977  1.00  0.00     0.010 A 
ATOM     28  C   UNL A   1      39.359  29.444  27.577  1.00  0.00     0.010 A 
ATOM     29  C   UNL A   1      40.168  29.332  28.722  1.00  0.00    -0.014 A 
BRANCH  29  30
ATOM     30  C   UNL A   1      41.579  28.877  28.587  1.00  0.00     0.031 A 
ATOM     31  C   UNL A   1      42.713  29.865  28.662  1.00  0.00     0.074 A 
ATOM     32  C   UNL A   1      41.838  27.581  28.322  1.00  0.00     0.049 A 
ATOM     33  N   UNL A   1      43.970  29.707  28.336  1.00  0.00    -0.248 NA
ATOM     34  C   UNL A   1      42.387  31.213  29.157  1.00  0.00     0.031 C 
ATOM     35  C   UNL A   1      40.836  26.516  28.230  1.00  0.00     0.029 A 
ATOM     36  N   UNL A   1      43.024  26.940  28.059  1.00  0.00    -0.354 N 
ATOM     37  C   UNL A   1      44.577  30.941  28.538  1.00  0.00     0.074 A 
ATOM     38  C   UNL A   1      43.549  31.840  29.019  1.00  0.00     0.031 C 
ATOM     39  C   UNL A   1      41.447  25.357  27.945  1.00  0.00     0.029 A 
ATOM     40  C   UNL A   1      42.871  25.608  27.757  1.00  0.00     0.049 A 
ATOM     41  H   UNL A   1      43.899  27.391  28.085  1.00  0.00     0.167 HD
ATOM     42  C   UNL A   1      45.871  31.289  28.338  1.00  0.00     0.037 A 
ATOM     43  C   UNL A   1      43.762  24.695  27.327  1.00  0.00     0.037 A 
ATOM     44  C   UNL A   1      46.897  30.379  27.895  1.00  0.00     0.049 A 
ATOM     45  C   UNL A   1      45.187  25.106  27.103  1.00  0.00     0.074 A 
ATOM     46  C   UNL A   1      48.242  30.635  27.680  1.00  0.00     0.029 A 
ATOM     47  N   UNL A   1      46.700  29.035  27.615  1.00  0.00    -0.354 N 
ATOM     48  N   UNL A   1      45.735  26.288  27.256  1.00  0.00    -0.248 NA
ATOM     49  C   UNL A   1      46.112  24.067  26.631  1.00  0.00     0.031 C 
ATOM     50  C   UNL A   1      48.851  29.451  27.247  1.00  0.00     0.029 A 
ATOM     51  C   UNL A   1      47.892  28.451  27.224  1.00  0.00     0.049 A 
ATOM     52  H   UNL A   1      45.837  28.565  27.685  1.00  0.00     0.167 HD
ATOM     53  C   UNL A   1      47.070  26.134  26.902  1.00  0.00     0.074 A 
ATOM     54  C   UNL A   1      47.251  24.741  26.547  1.00  0.00     0.031 C 
ATOM     55  C   UNL A   1      48.054  27.064  26.868  1.00  0.00     0.037 A 
BRANCH  42  56
ATOM     56  C   UNL A   1      46.257  32.722  28.576  1.00  0.00     0.058 A 
ATOM     57  C   UNL A   1      46.742  33.159  29.817  1.00  0.00     0.135 A 
ATOM     58  C   UNL A   1      46.201  33.656  27.528  1.00  0.00     0.135 A 
ATOM     59  F   UNL A   1      46.804  32.311  30.856  1.00  0.00    -0.206 F 
ATOM     60  C   UNL A   1      47.147  34.477  30.016  1.00  0.00     0.059 A 
ATOM     61  C   UNL A   1      46.616  34.973  27.699  1.00  0.00     0.059 A 
ATOM     62  F   UNL A   1      45.743  33.290  26.321  1.00  0.00    -0.206 F 
ATOM     63  C   UNL A   1      47.079  35.376  28.951  1.00  0.00     0.060 A 
BRANCH  63  64
ATOM     64  S   UNL A   1      47.626  37.077  29.216  1.00  0.00     0.124 S 
ATOM     65  O   UNL A   1      46.452  37.830  28.782  1.00  0.00    -0.237 OA
ATOM     66  O   UNL A   1      47.899  37.102  30.649  1.00  0.00    -0.237 OA
ATOM     67  O   UNL A   1      48.800  37.195  28.356  1.00  0.00    -0.744 OA
ENDBRANCH  63  64
ENDBRANCH  42  56
BRANCH  43  68
ATOM     68  C   UNL A   1      43.312  23.309  27.042  1.00  0.00     0.058 A 
ATOM     69  C   UNL A   1      43.133  22.867  25.724  1.00  0.00     0.135 A 
ATOM     70  C   UNL A   1      43.091  22.390  28.080  1.00  0.00     0.135 A 
ATOM     71  F   UNL A   1      43.325  23.715  24.701  1.00  0.00    -0.206 F 
ATOM     72  C   UNL A   1      42.747  21.561  25.442  1.00  0.00     0.059 A 
ATOM     73  C   UNL A   1      42.727  21.073  27.822  1.00  0.00     0.059 A 
ATOM     74  F   UNL A   1      43.267  22.762  29.357  1.00  0.00    -0.206 F 
ATOM     75  C   UNL A   1      42.550  20.671  26.498  1.00  0.00     0.060 A 
BRANCH  75  76
ATOM     76  S   UNL A   1      42.121  18.955  26.129  1.00  0.00     0.124 S 
ATOM     77  O   UNL A   1      42.392  18.305  27.405  1.00  0.00    -0.237 OA
ATOM     78  O   UNL A   1      40.714  19.060  25.752  1.00  0.00    -0.237 OA
ATOM     79  O   UNL A   1      43.028  18.614  25.038  1.00  0.00    -0.744 OA
ENDBRANCH  75  76
ENDBRANCH  43  68
BRANCH  55  80
ATOM     80  C   UNL A   1      49.416  26.597  26.448  1.00  0.00     0.058 A 
ATOM     81  C   UNL A   1      49.831  26.666  25.110  1.00  0.00     0.135 A 
ATOM     82  C   UNL A   1      50.320  26.091  27.395  1.00  0.00     0.135 A 
ATOM     83  F   UNL A   1      48.997  27.133  24.168  1.00  0.00    -0.206 F 
ATOM     84  C   UNL A   1      51.091  26.227  24.719  1.00  0.00     0.059 A 
ATOM     85  C   UNL A   1      51.592  25.664  27.030  1.00  0.00     0.059 A 
ATOM     86  F   UNL A   1      49.970  26.011  28.688  1.00  0.00    -0.206 F 
ATOM     87  C   UNL A   1      51.963  25.722  25.686  1.00  0.00     0.060 A 
BRANCH  87  88
ATOM     88  S   UNL A   1      53.603  25.167  25.174  1.00  0.00     0.124 S 
ATOM     89  O   UNL A   1      53.721  25.781  23.856  1.00  0.00    -0.237 OA
ATOM     90  O   UNL A   1      54.466  25.724  26.212  1.00  0.00    -0.237 OA
ATOM     91  O   UNL A   1      53.484  23.712  25.182  1.00  0.00    -0.744 OA
ENDBRANCH  87  88
ENDBRANCH  55  80
ENDBRANCH  29  30
ENDBRANCH  22  24
ENDBRANCH  21  22
ENDBRANCH   1  21
TORSDOF 16
ENDMDL
MODEL 2
REMARK VINA RESULT:     -11.1      6.864     12.062
REMARK SMILES CC1(C)CCC[C@@]1(CC(=O)OCCOC(=O)c1ccc(-c2c3nc(c(-c4c(F)cc(S(=O)(=O)[O-])cc4F)c4ccc([nH]4)c(-c4c(F)cc(S(=O)(=O)[O-])cc4F)c4nc(c(-c5c(F)cc(S(=O)(=O)[O-])cc5F)c5ccc2[nH]5)C=C4)C=C3)cc1)[NH+]1CCCCC1
REMARK SMILES IDX 13 1 12 2 11 3 9 4 10 5 8 6 7 7 1 8 2 9 3 10 4 11 5 12 6 13
REMARK SMILES IDX 83 14 84 15 88 16 85 18 87 19 86 20 14 21 15 22 16 23 17 24
REMARK SMILES IDX 18 25 82 26 19 27 81 28 20 29 21 30 22 31 75 32 23 33 80 34
REMARK SMILES IDX 74 35 76 36 24 37 79 38 73 39 72 40 25 42 59 43 38 44 58 45
REMARK SMILES IDX 39 46 42 47 57 48 77 49 40 50 41 51 56 53 78 54 43 55 26 56
REMARK SMILES IDX 27 57 36 58 28 59 29 60 35 61 37 62 30 63 31 64 32 65 33 66
REMARK SMILES IDX 34 67 60 68 61 69 70 70 62 71 63 72 69 73 71 74 64 75 65 76
REMARK SMILES IDX 66 77 67 78 68 79 44 80 45 81 54 82 46 83 47 84 53 85 55 86
REMARK SMILES IDX 48 87 49 88 50 89 51 90 52 91
REMARK H PARENT 83 17 76 41 42 52
REMARK Flexibility Score: inf
ROOT
ATOM      1  C   UNL A   1      38.651  22.588  26.125  1.00  0.00     0.275 C 
ENDROOT
BRANCH   1   2
ATOM      2  C   UNL A   1      37.380  22.587  25.284  1.00  0.00     0.274 C 
BRANCH   2   3
ATOM      3  O   UNL A   1      36.267  22.886  26.145  1.00  0.00    -0.462 OA
BRANCH   3   4
ATOM      4  C   UNL A   1      35.168  22.100  26.002  1.00  0.00     0.312 C 
ATOM      5  O   UNL A   1      34.668  21.423  26.890  1.00  0.00    -0.252 OA
BRANCH   4   6
ATOM      6  C   UNL A   1      34.577  22.224  24.618  1.00  0.00     0.191 C 
BRANCH   6   7
ATOM      7  C   UNL A   1      33.492  23.336  24.378  1.00  0.00     0.113 C 
ATOM      8  C   UNL A   1      31.412  22.027  25.351  1.00  0.00     0.018 C 
ATOM      9  C   UNL A   1      32.095  22.587  24.093  1.00  0.00     0.020 C 
ATOM     10  C   UNL A   1      32.233  21.388  23.097  1.00  0.00     0.018 C 
ATOM     11  C   UNL A   1      31.231  23.632  23.362  1.00  0.00     0.013 C 
ATOM     12  C   UNL A   1      32.210  24.473  22.554  1.00  0.00     0.007 C 
ATOM     13  C   UNL A   1      33.621  24.127  23.044  1.00  0.00     0.070 C 
BRANCH   7  14
ATOM     14  N   UNL A   1      33.552  24.269  25.555  1.00  0.00    -0.329 N 
ATOM     15  C   UNL A   1      32.480  24.419  26.536  1.00  0.00     0.262 C 
ATOM     16  C   UNL A   1      34.279  25.548  25.400  1.00  0.00     0.262 C 
ATOM     17  H   UNL A   1      34.131  23.556  25.998  1.00  0.00     0.348 HD
ATOM     18  C   UNL A   1      31.541  25.602  26.291  1.00  0.00     0.062 C 
ATOM     19  C   UNL A   1      33.428  26.803  25.197  1.00  0.00     0.062 C 
ATOM     20  C   UNL A   1      32.310  26.910  26.218  1.00  0.00     0.012 C 
ENDBRANCH   7  14
ENDBRANCH   6   7
ENDBRANCH   4   6
ENDBRANCH   3   4
ENDBRANCH   2   3
ENDBRANCH   1   2
BRANCH   1  21
ATOM     21  O   UNL A   1      38.892  23.934  26.572  1.00  0.00    -0.458 OA
BRANCH  21  22
ATOM     22  C   UNL A   1      40.185  24.230  26.846  1.00  0.00     0.338 C 
ATOM     23  O   UNL A   1      41.178  23.668  26.415  1.00  0.00    -0.246 OA
BRANCH  22  24
ATOM     24  C   UNL A   1      40.250  25.386  27.761  1.00  0.00     0.060 A 
ATOM     25  C   UNL A   1      41.327  26.276  27.717  1.00  0.00     0.016 A 
ATOM     26  C   UNL A   1      39.266  25.525  28.740  1.00  0.00     0.016 A 
ATOM     27  C   UNL A   1      41.449  27.271  28.689  1.00  0.00     0.010 A 
ATOM     28  C   UNL A   1      39.342  26.578  29.652  1.00  0.00     0.010 A 
ATOM     29  C   UNL A   1      40.442  27.454  29.648  1.00  0.00    -0.014 A 
BRANCH  29  30
ATOM     30  C   UNL A   1      40.491  28.580  30.621  1.00  0.00     0.031 A 
ATOM     31  C   UNL A   1      41.447  28.545  31.784  1.00  0.00     0.074 A 
ATOM     32  C   UNL A   1      39.622  29.603  30.499  1.00  0.00     0.049 A 
ATOM     33  N   UNL A   1      41.474  29.298  32.854  1.00  0.00    -0.248 NA
ATOM     34  C   UNL A   1      42.501  27.518  31.747  1.00  0.00     0.031 C 
ATOM     35  C   UNL A   1      38.649  29.768  29.417  1.00  0.00     0.029 A 
ATOM     36  N   UNL A   1      39.402  30.692  31.308  1.00  0.00    -0.354 N 
ATOM     37  C   UNL A   1      42.513  28.812  33.639  1.00  0.00     0.074 A 
ATOM     38  C   UNL A   1      43.095  27.697  32.920  1.00  0.00     0.031 C 
ATOM     39  C   UNL A   1      37.946  30.891  29.620  1.00  0.00     0.029 A 
ATOM     40  C   UNL A   1      38.364  31.487  30.885  1.00  0.00     0.049 A 
ATOM     41  H   UNL A   1      39.936  30.885  32.111  1.00  0.00     0.167 HD
ATOM     42  C   UNL A   1      42.939  29.255  34.846  1.00  0.00     0.037 A 
ATOM     43  C   UNL A   1      37.773  32.547  31.466  1.00  0.00     0.037 A 
ATOM     44  C   UNL A   1      42.380  30.389  35.538  1.00  0.00     0.049 A 
ATOM     45  C   UNL A   1      38.254  33.012  32.809  1.00  0.00     0.074 A 
ATOM     46  C   UNL A   1      42.755  30.924  36.760  1.00  0.00     0.029 A 
ATOM     47  N   UNL A   1      41.338  31.173  35.065  1.00  0.00    -0.354 N 
ATOM     48  N   UNL A   1      39.208  32.514  33.557  1.00  0.00    -0.248 NA
ATOM     49  C   UNL A   1      37.569  34.173  33.394  1.00  0.00     0.031 C 
ATOM     50  C   UNL A   1      41.925  32.017  37.035  1.00  0.00     0.029 A 
ATOM     51  C   UNL A   1      41.054  32.181  35.970  1.00  0.00     0.049 A 
ATOM     52  H   UNL A   1      40.870  31.033  34.210  1.00  0.00     0.167 HD
ATOM     53  C   UNL A   1      39.240  33.301  34.702  1.00  0.00     0.074 A 
ATOM     54  C   UNL A   1      38.224  34.321  34.537  1.00  0.00     0.031 C 
ATOM     55  C   UNL A   1      40.035  33.185  35.793  1.00  0.00     0.037 A 
BRANCH  42  56
ATOM     56  C   UNL A   1      44.054  28.502  35.517  1.00  0.00     0.058 A 
ATOM     57  C   UNL A   1      45.400  28.838  35.308  1.00  0.00     0.135 A 
ATOM     58  C   UNL A   1      43.768  27.473  36.429  1.00  0.00     0.135 A 
ATOM     59  F   UNL A   1      45.728  29.805  34.437  1.00  0.00    -0.206 F 
ATOM     60  C   UNL A   1      46.426  28.171  35.972  1.00  0.00     0.059 A 
ATOM     61  C   UNL A   1      44.777  26.805  37.116  1.00  0.00     0.059 A 
ATOM     62  F   UNL A   1      42.497  27.112  36.664  1.00  0.00    -0.206 F 
ATOM     63  C   UNL A   1      46.105  27.155  36.873  1.00  0.00     0.060 A 
BRANCH  63  64
ATOM     64  S   UNL A   1      47.444  26.311  37.743  1.00  0.00     0.124 S 
ATOM     65  O   UNL A   1      47.021  24.916  37.643  1.00  0.00    -0.237 OA
ATOM     66  O   UNL A   1      48.614  26.675  36.952  1.00  0.00    -0.237 OA
ATOM     67  O   UNL A   1      47.394  26.886  39.084  1.00  0.00    -0.744 OA
ENDBRANCH  63  64
ENDBRANCH  42  56
BRANCH  43  68
ATOM     68  C   UNL A   1      36.629  33.212  30.791  1.00  0.00     0.058 A 
ATOM     69  C   UNL A   1      35.318  33.032  31.252  1.00  0.00     0.135 A 
ATOM     70  C   UNL A   1      36.831  34.069  29.698  1.00  0.00     0.135 A 
ATOM     71  F   UNL A   1      35.078  32.215  32.289  1.00  0.00    -0.206 F 
ATOM     72  C   UNL A   1      34.243  33.678  30.652  1.00  0.00     0.059 A 
ATOM     73  C   UNL A   1      35.774  34.742  29.096  1.00  0.00     0.059 A 
ATOM     74  F   UNL A   1      38.071  34.285  29.232  1.00  0.00    -0.206 F 
ATOM     75  C   UNL A   1      34.482  34.534  29.576  1.00  0.00     0.060 A 
BRANCH  75  76
ATOM     76  S   UNL A   1      33.094  35.428  28.843  1.00  0.00     0.124 S 
ATOM     77  O   UNL A   1      32.386  35.893  30.030  1.00  0.00    -0.237 OA
ATOM     78  O   UNL A   1      33.767  36.457  28.056  1.00  0.00    -0.237 OA
ATOM     79  O   UNL A   1      32.413  34.401  28.061  1.00  0.00    -0.744 OA
ENDBRANCH  75  76
ENDBRANCH  43  68
BRANCH  55  80
ATOM     80  C   UNL A   1      39.845  34.199  36.883  1.00  0.00     0.058 A 
ATOM     81  C   UNL A   1      39.080  33.910  38.023  1.00  0.00     0.135 A 
ATOM     82  C   UNL A   1      40.448  35.463  36.794  1.00  0.00     0.135 A 
ATOM     83  F   UNL A   1      38.477  32.717  38.147  1.00  0.00    -0.206 F 
ATOM     84  C   UNL A   1      38.899  34.851  39.030  1.00  0.00     0.059 A 
ATOM     85  C   UNL A   1      40.295  36.412  37.798  1.00  0.00     0.059 A 
ATOM     86  F   UNL A   1      41.194  35.782  35.725  1.00  0.00    -0.206 F 
ATOM     87  C   UNL A   1      39.506  36.103  38.906  1.00  0.00     0.060 A 
BRANCH  87  88
ATOM     88  S   UNL A   1      39.278  37.315  40.224  1.00  0.00     0.124 S 
ATOM     89  O   UNL A   1      38.502  38.345  39.543  1.00  0.00    -0.237 OA
ATOM     90  O   UNL A   1      38.563  36.549  41.240  1.00  0.00    -0.237 OA
ATOM     91  O   UNL A   1      40.645  37.688  40.578  1.00  0.00    -0.744 OA
ENDBRANCH  87  88
ENDBRANCH  55  80
ENDBRANCH  29  30
ENDBRANCH  22  24
ENDBRANCH  21  22
ENDBRANCH   1  21
TORSDOF 16
ENDMDL
MODEL 3
REMARK VINA RESULT:     -11.0      2.251      3.411
REMARK SMILES CC1(C)CCC[C@@]1(CC(=O)OCCOC(=O)c1ccc(-c2c3nc(c(-c4c(F)cc(S(=O)(=O)[O-])cc4F)c4ccc([nH]4)c(-c4c(F)cc(S(=O)(=O)[O-])cc4F)c4nc(c(-c5c(F)cc(S(=O)(=O)[O-])cc5F)c5ccc2[nH]5)C=C4)C=C3)cc1)[NH+]1CCCCC1
REMARK SMILES IDX 13 1 12 2 11 3 9 4 10 5 8 6 7 7 1 8 2 9 3 10 4 11 5 12 6 13
REMARK SMILES IDX 83 14 84 15 88 16 85 18 87 19 86 20 14 21 15 22 16 23 17 24
REMARK SMILES IDX 18 25 82 26 19 27 81 28 20 29 21 30 22 31 75 32 23 33 80 34
REMARK SMILES IDX 74 35 76 36 24 37 79 38 73 39 72 40 25 42 59 43 38 44 58 45
REMARK SMILES IDX 39 46 42 47 57 48 77 49 40 50 41 51 56 53 78 54 43 55 26 56
REMARK SMILES IDX 27 57 36 58 28 59 29 60 35 61 37 62 30 63 31 64 32 65 33 66
REMARK SMILES IDX 34 67 60 68 61 69 70 70 62 71 63 72 69 73 71 74 64 75 65 76
REMARK SMILES IDX 66 77 67 78 68 79 44 80 45 81 54 82 46 83 47 84 53 85 55 86
REMARK SMILES IDX 48 87 49 88 50 89 51 90 52 91
REMARK H PARENT 83 17 76 41 42 52
REMARK Flexibility Score: inf
ROOT
ATOM      1  C   UNL A   1      32.384  29.260  27.176  1.00  0.00     0.275 C 
ENDROOT
BRANCH   1   2
ATOM      2  C   UNL A   1      31.620  27.942  27.237  1.00  0.00     0.274 C 
BRANCH   2   3
ATOM      3  O   UNL A   1      31.151  27.629  25.913  1.00  0.00    -0.462 OA
BRANCH   3   4
ATOM      4  C   UNL A   1      30.672  26.371  25.727  1.00  0.00     0.312 C 
ATOM      5  O   UNL A   1      29.990  25.753  26.534  1.00  0.00    -0.252 OA
BRANCH   4   6
ATOM      6  C   UNL A   1      31.016  25.847  24.354  1.00  0.00     0.191 C 
BRANCH   6   7
ATOM      7  C   UNL A   1      32.122  24.734  24.247  1.00  0.00     0.113 C 
ATOM      8  C   UNL A   1      34.163  26.166  25.125  1.00  0.00     0.018 C 
ATOM      9  C   UNL A   1      33.513  25.473  23.916  1.00  0.00     0.020 C 
ATOM     10  C   UNL A   1      33.379  26.565  22.803  1.00  0.00     0.018 C 
ATOM     11  C   UNL A   1      34.407  24.375  23.309  1.00  0.00     0.013 C 
ATOM     12  C   UNL A   1      33.457  23.442  22.571  1.00  0.00     0.007 C 
ATOM     13  C   UNL A   1      32.031  23.812  22.997  1.00  0.00     0.070 C 
BRANCH   7  14
ATOM     14  N   UNL A   1      32.051  23.922  25.510  1.00  0.00    -0.329 N 
ATOM     15  C   UNL A   1      33.114  23.868  26.509  1.00  0.00     0.262 C 
ATOM     16  C   UNL A   1      31.321  22.636  25.477  1.00  0.00     0.262 C 
ATOM     17  H   UNL A   1      31.470  24.676  25.876  1.00  0.00     0.348 HD
ATOM     18  C   UNL A   1      34.053  22.665  26.390  1.00  0.00     0.062 C 
ATOM     19  C   UNL A   1      32.170  21.365  25.406  1.00  0.00     0.062 C 
ATOM     20  C   UNL A   1      33.280  21.357  26.441  1.00  0.00     0.012 C 
ENDBRANCH   7  14
ENDBRANCH   6   7
ENDBRANCH   4   6
ENDBRANCH   3   4
ENDBRANCH   2   3
ENDBRANCH   1   2
BRANCH   1  21
ATOM     21  O   UNL A   1      33.728  29.020  27.629  1.00  0.00    -0.458 OA
BRANCH  21  22
ATOM     22  C   UNL A   1      34.433  30.127  27.962  1.00  0.00     0.338 C 
ATOM     23  O   UNL A   1      34.015  31.269  28.051  1.00  0.00    -0.246 OA
BRANCH  22  24
ATOM     24  C   UNL A   1      35.836  29.762  28.237  1.00  0.00     0.060 A 
ATOM     25  C   UNL A   1      36.239  29.375  29.519  1.00  0.00     0.016 A 
ATOM     26  C   UNL A   1      36.779  29.904  27.220  1.00  0.00     0.016 A 
ATOM     27  C   UNL A   1      37.594  29.186  29.796  1.00  0.00     0.010 A 
ATOM     28  C   UNL A   1      38.121  29.621  27.476  1.00  0.00     0.010 A 
ATOM     29  C   UNL A   1      38.548  29.273  28.770  1.00  0.00    -0.014 A 
BRANCH  29  30
ATOM     30  C   UNL A   1      39.982  28.960  29.015  1.00  0.00     0.031 A 
ATOM     31  C   UNL A   1      40.927  30.028  29.499  1.00  0.00     0.074 A 
ATOM     32  C   UNL A   1      40.453  27.729  28.731  1.00  0.00     0.049 A 
ATOM     33  N   UNL A   1      42.235  30.017  29.541  1.00  0.00    -0.248 NA
ATOM     34  C   UNL A   1      40.323  31.279  29.986  1.00  0.00     0.031 C 
ATOM     35  C   UNL A   1      39.647  26.598  28.263  1.00  0.00     0.029 A 
ATOM     36  N   UNL A   1      41.731  27.227  28.773  1.00  0.00    -0.354 N 
ATOM     37  C   UNL A   1      42.614  31.268  30.012  1.00  0.00     0.074 A 
ATOM     38  C   UNL A   1      41.396  32.015  30.246  1.00  0.00     0.031 C 
ATOM     39  C   UNL A   1      40.443  25.536  28.074  1.00  0.00     0.029 A 
ATOM     40  C   UNL A   1      41.824  25.929  28.331  1.00  0.00     0.049 A 
ATOM     41  H   UNL A   1      42.505  27.746  29.090  1.00  0.00     0.167 HD
ATOM     42  C   UNL A   1      43.863  31.747  30.228  1.00  0.00     0.037 A 
ATOM     43  C   UNL A   1      42.899  25.151  28.105  1.00  0.00     0.037 A 
ATOM     44  C   UNL A   1      45.070  30.985  30.030  1.00  0.00     0.049 A 
ATOM     45  C   UNL A   1      44.272  25.707  28.340  1.00  0.00     0.074 A 
ATOM     46  C   UNL A   1      46.382  31.379  30.237  1.00  0.00     0.029 A 
ATOM     47  N   UNL A   1      45.116  29.669  29.594  1.00  0.00    -0.354 N 
ATOM     48  N   UNL A   1      44.614  26.906  28.744  1.00  0.00    -0.248 NA
ATOM     49  C   UNL A   1      45.405  24.811  28.074  1.00  0.00     0.031 C 
ATOM     50  C   UNL A   1      47.221  30.308  29.904  1.00  0.00     0.029 A 
ATOM     51  C   UNL A   1      46.429  29.238  29.520  1.00  0.00     0.049 A 
ATOM     52  H   UNL A   1      44.328  29.121  29.370  1.00  0.00     0.167 HD
ATOM     53  C   UNL A   1      46.003  26.909  28.783  1.00  0.00     0.074 A 
ATOM     54  C   UNL A   1      46.436  25.585  28.382  1.00  0.00     0.031 C 
ATOM     55  C   UNL A   1      46.843  27.919  29.114  1.00  0.00     0.037 A 
BRANCH  42  56
ATOM     56  C   UNL A   1      43.999  33.172  30.685  1.00  0.00     0.058 A 
ATOM     57  C   UNL A   1      44.118  34.231  29.772  1.00  0.00     0.135 A 
ATOM     58  C   UNL A   1      43.946  33.488  32.052  1.00  0.00     0.135 A 
ATOM     59  F   UNL A   1      44.187  33.984  28.455  1.00  0.00    -0.206 F 
ATOM     60  C   UNL A   1      44.192  35.554  30.200  1.00  0.00     0.059 A 
ATOM     61  C   UNL A   1      44.000  34.804  32.502  1.00  0.00     0.059 A 
ATOM     62  F   UNL A   1      43.834  32.513  32.967  1.00  0.00    -0.206 F 
ATOM     63  C   UNL A   1      44.132  35.831  31.567  1.00  0.00     0.060 A 
BRANCH  63  64
ATOM     64  S   UNL A   1      44.208  37.552  32.109  1.00  0.00     0.124 S 
ATOM     65  O   UNL A   1      45.624  37.691  32.436  1.00  0.00    -0.237 OA
ATOM     66  O   UNL A   1      43.758  38.276  30.925  1.00  0.00    -0.237 OA
ATOM     67  O   UNL A   1      43.295  37.591  33.247  1.00  0.00    -0.744 OA
ENDBRANCH  63  64
ENDBRANCH  42  56
BRANCH  43  68
ATOM     68  C   UNL A   1      42.710  23.771  27.588  1.00  0.00     0.058 A 
ATOM     69  C   UNL A   1      42.747  23.508  26.212  1.00  0.00     0.135 A 
ATOM     70  C   UNL A   1      42.528  22.687  28.461  1.00  0.00     0.135 A 
ATOM     71  F   UNL A   1      42.909  24.515  25.340  1.00  0.00    -0.206 F 
ATOM     72  C   UNL A   1      42.608  22.216  25.716  1.00  0.00     0.059 A 
ATOM     73  C   UNL A   1      42.410  21.385  27.990  1.00  0.00     0.059 A 
ATOM     74  F   UNL A   1      42.503  22.889  29.788  1.00  0.00    -0.206 F 
ATOM     75  C   UNL A   1      42.443  21.160  26.614  1.00  0.00     0.060 A 
BRANCH  75  76
ATOM     76  S   UNL A   1      42.336  19.474  25.974  1.00  0.00     0.124 S 
ATOM     77  O   UNL A   1      42.848  18.702  27.100  1.00  0.00    -0.237 OA
ATOM     78  O   UNL A   1      40.909  19.335  25.700  1.00  0.00    -0.237 OA
ATOM     79  O   UNL A   1      43.190  19.514  24.791  1.00  0.00    -0.744 OA
ENDBRANCH  75  76
ENDBRANCH  43  68
BRANCH  55  80
ATOM     80  C   UNL A   1      48.313  27.621  29.072  1.00  0.00     0.058 A 
ATOM     81  C   UNL A   1      49.044  27.720  27.878  1.00  0.00     0.135 A 
ATOM     82  C   UNL A   1      48.999  27.251  30.239  1.00  0.00     0.135 A 
ATOM     83  F   UNL A   1      48.428  28.062  26.736  1.00  0.00    -0.206 F 
ATOM     84  C   UNL A   1      50.405  27.439  27.838  1.00  0.00     0.059 A 
ATOM     85  C   UNL A   1      50.363  26.982  30.225  1.00  0.00     0.059 A 
ATOM     86  F   UNL A   1      48.343  27.148  31.405  1.00  0.00    -0.206 F 
ATOM     87  C   UNL A   1      51.055  27.065  29.016  1.00  0.00     0.060 A 
BRANCH  87  88
ATOM     88  S   UNL A   1      52.825  26.714  28.959  1.00  0.00     0.124 S 
ATOM     89  O   UNL A   1      53.022  25.998  30.215  1.00  0.00    -0.237 OA
ATOM     90  O   UNL A   1      52.952  25.913  27.746  1.00  0.00    -0.237 OA
ATOM     91  O   UNL A   1      53.429  28.042  28.891  1.00  0.00    -0.744 OA
ENDBRANCH  87  88
ENDBRANCH  55  80
ENDBRANCH  29  30
ENDBRANCH  22  24
ENDBRANCH  21  22
ENDBRANCH   1  21
TORSDOF 16
ENDMDL
