MODEL 1
REMARK VINA RESULT:     -11.5      0.000      0.000
REMARK SMILES Cc1cc(CC(=O)C(=O)OCCOC(=O)c2ccc(-c3c4nc(c(-c5c(F)cc(S(=O)(=O)[O-])cc5F)c5ccc([nH]5)c(-c5c(F)cc(S(=O)(=O)[O-])cc5F)c5nc(c(-c6c(F)cc(S(=O)(=O)[O-])cc6F)c6ccc3[nH]6)C=C5)C=C4)cc2)cc2cn[nH]c12
REMARK SMILES IDX 12 1 11 2 10 3 8 4 9 5 6 6 7 7 5 8 4 9 1 10 2 11 3 12 87 13
REMARK SMILES IDX 83 14 86 15 82 16 84 17 85 18 13 20 14 21 15 22 16 23 17 24
REMARK SMILES IDX 81 25 18 26 80 27 19 28 20 29 21 30 74 31 22 32 79 33 73 34
REMARK SMILES IDX 75 35 23 36 78 37 72 38 71 39 24 41 58 42 37 43 57 44 38 45
REMARK SMILES IDX 41 46 56 47 76 48 39 49 40 50 55 52 77 53 42 54 25 55 26 56
REMARK SMILES IDX 35 57 27 58 28 59 34 60 36 61 29 62 30 63 31 64 32 65 33 66
REMARK SMILES IDX 59 67 60 68 69 69 61 70 62 71 68 72 70 73 63 74 64 75 65 76
REMARK SMILES IDX 66 77 67 78 43 79 44 80 53 81 45 82 46 83 52 84 54 85 47 86
REMARK SMILES IDX 48 87 49 88 50 89 51 90
REMARK H PARENT 86 19 75 40 41 51
REMARK Flexibility Score: inf
ROOT
ATOM      1  C   UNL A   1      40.738  20.608  26.421  1.00  0.00     0.275 C 
ENDROOT
BRANCH   1   2
ATOM      2  C   UNL A   1      42.162  20.090  26.613  1.00  0.00     0.275 C 
BRANCH   2   3
ATOM      3  O   UNL A   1      42.906  20.073  25.381  1.00  0.00    -0.456 OA
BRANCH   3   4
ATOM      4  C   UNL A   1      44.046  19.344  25.407  1.00  0.00     0.375 C 
ATOM      5  O   UNL A   1      44.122  18.152  25.656  1.00  0.00    -0.243 OA
BRANCH   4   6
ATOM      6  C   UNL A   1      45.257  20.197  24.974  1.00  0.00     0.244 C 
ATOM      7  O   UNL A   1      46.366  19.993  25.459  1.00  0.00    -0.286 OA
BRANCH   6   8
ATOM      8  C   UNL A   1      44.997  21.275  23.936  1.00  0.00     0.124 C 
BRANCH   8   9
ATOM      9  C   UNL A   1      45.130  22.674  24.492  1.00  0.00    -0.039 A 
ATOM     10  C   UNL A   1      42.920  25.758  25.048  1.00  0.00     0.047 C 
ATOM     11  C   UNL A   1      44.128  24.874  24.956  1.00  0.00    -0.025 A 
ATOM     12  C   UNL A   1      44.009  23.510  24.624  1.00  0.00     0.009 A 
ATOM     13  C   UNL A   1      45.439  25.338  25.160  1.00  0.00     0.068 A 
ATOM     14  C   UNL A   1      46.563  24.525  25.086  1.00  0.00     0.020 A 
ATOM     15  N   UNL A   1      45.930  26.588  25.439  1.00  0.00    -0.278 N 
ATOM     16  C   UNL A   1      46.414  23.167  24.782  1.00  0.00     0.016 A 
ATOM     17  C   UNL A   1      47.651  25.389  25.332  1.00  0.00     0.143 A 
ATOM     18  N   UNL A   1      47.272  26.650  25.550  1.00  0.00    -0.183 NA
ATOM     19  H   UNL A   1      45.351  27.376  25.549  1.00  0.00     0.190 HD
ENDBRANCH   8   9
ENDBRANCH   6   8
ENDBRANCH   4   6
ENDBRANCH   3   4
ENDBRANCH   2   3
ENDBRANCH   1   2
BRANCH   1  20
ATOM     20  O   UNL A   1      40.383  21.613  27.376  1.00  0.00    -0.458 OA
BRANCH  20  21
ATOM     21  C   UNL A   1      39.598  22.593  26.881  1.00  0.00     0.338 C 
ATOM     22  O   UNL A   1      38.532  22.464  26.298  1.00  0.00    -0.246 OA
BRANCH  21  23
ATOM     23  C   UNL A   1      40.254  23.891  26.990  1.00  0.00     0.060 A 
ATOM     24  C   UNL A   1      41.375  23.961  27.827  1.00  0.00     0.016 A 
ATOM     25  C   UNL A   1      39.570  25.032  26.557  1.00  0.00     0.016 A 
ATOM     26  C   UNL A   1      41.719  25.174  28.369  1.00  0.00     0.010 A 
ATOM     27  C   UNL A   1      39.900  26.242  27.118  1.00  0.00     0.010 A 
ATOM     28  C   UNL A   1      40.920  26.276  28.069  1.00  0.00    -0.014 A 
BRANCH  28  29
ATOM     29  C   UNL A   1      41.162  27.484  28.822  1.00  0.00     0.031 A 
ATOM     30  C   UNL A   1      42.301  28.291  28.336  1.00  0.00     0.074 A 
ATOM     31  C   UNL A   1      40.332  27.839  29.817  1.00  0.00     0.049 A 
ATOM     32  N   UNL A   1      43.399  28.578  28.950  1.00  0.00    -0.248 NA
ATOM     33  C   UNL A   1      42.276  28.700  26.922  1.00  0.00     0.031 C 
ATOM     34  C   UNL A   1      39.043  27.245  30.185  1.00  0.00     0.029 A 
ATOM     35  N   UNL A   1      40.428  28.902  30.651  1.00  0.00    -0.354 N 
ATOM     36  C   UNL A   1      44.130  29.365  28.065  1.00  0.00     0.074 A 
ATOM     37  C   UNL A   1      43.476  29.259  26.787  1.00  0.00     0.031 C 
ATOM     38  C   UNL A   1      38.383  28.099  30.999  1.00  0.00     0.029 A 
ATOM     39  C   UNL A   1      39.245  29.232  31.289  1.00  0.00     0.049 A 
ATOM     40  H   UNL A   1      41.267  29.398  30.790  1.00  0.00     0.167 HD
ATOM     41  C   UNL A   1      45.108  30.212  28.485  1.00  0.00     0.037 A 
ATOM     42  C   UNL A   1      38.987  30.419  31.893  1.00  0.00     0.037 A 
ATOM     43  C   UNL A   1      45.527  29.920  29.828  1.00  0.00     0.049 A 
ATOM     44  C   UNL A   1      40.307  31.059  32.172  1.00  0.00     0.074 A 
ATOM     45  C   UNL A   1      46.136  28.835  30.428  1.00  0.00     0.029 A 
ATOM     46  N   UNL A   1      44.991  30.667  30.851  1.00  0.00    -0.354 N 
ATOM     47  N   UNL A   1      41.178  30.581  33.025  1.00  0.00    -0.248 NA
ATOM     48  C   UNL A   1      40.866  31.948  31.160  1.00  0.00     0.031 C 
ATOM     49  C   UNL A   1      45.541  28.740  31.718  1.00  0.00     0.029 A 
ATOM     50  C   UNL A   1      44.633  29.793  31.848  1.00  0.00     0.049 A 
ATOM     51  H   UNL A   1      44.884  31.645  30.865  1.00  0.00     0.167 HD
ATOM     52  C   UNL A   1      42.421  30.782  32.434  1.00  0.00     0.074 A 
ATOM     53  C   UNL A   1      42.169  31.700  31.326  1.00  0.00     0.031 C 
ATOM     54  C   UNL A   1      43.484  29.968  32.713  1.00  0.00     0.037 A 
BRANCH  41  55
ATOM     55  C   UNL A   1      45.466  31.491  27.777  1.00  0.00     0.058 A 
ATOM     56  C   UNL A   1      46.751  31.650  27.225  1.00  0.00     0.135 A 
ATOM     57  C   UNL A   1      44.677  32.661  27.847  1.00  0.00     0.135 A 
ATOM     58  F   UNL A   1      47.586  30.604  27.125  1.00  0.00    -0.206 F 
ATOM     59  C   UNL A   1      47.237  32.895  26.825  1.00  0.00     0.059 A 
ATOM     60  C   UNL A   1      45.119  33.899  27.398  1.00  0.00     0.059 A 
ATOM     61  F   UNL A   1      43.479  32.680  28.447  1.00  0.00    -0.206 F 
ATOM     62  C   UNL A   1      46.417  34.016  26.933  1.00  0.00     0.060 A 
BRANCH  62  63
ATOM     63  S   UNL A   1      47.084  35.644  26.550  1.00  0.00     0.124 S 
ATOM     64  O   UNL A   1      45.863  36.430  26.412  1.00  0.00    -0.237 OA
ATOM     65  O   UNL A   1      47.898  35.923  27.728  1.00  0.00    -0.237 OA
ATOM     66  O   UNL A   1      47.832  35.419  25.316  1.00  0.00    -0.744 OA
ENDBRANCH  62  63
ENDBRANCH  41  55
BRANCH  42  67
ATOM     67  C   UNL A   1      37.694  31.155  31.873  1.00  0.00     0.058 A 
ATOM     68  C   UNL A   1      37.034  31.510  33.061  1.00  0.00     0.135 A 
ATOM     69  C   UNL A   1      37.187  31.734  30.688  1.00  0.00     0.135 A 
ATOM     70  F   UNL A   1      37.466  31.037  34.240  1.00  0.00    -0.206 F 
ATOM     71  C   UNL A   1      35.954  32.404  33.076  1.00  0.00     0.059 A 
ATOM     72  C   UNL A   1      36.105  32.609  30.676  1.00  0.00     0.059 A 
ATOM     73  F   UNL A   1      37.785  31.540  29.504  1.00  0.00    -0.206 F 
ATOM     74  C   UNL A   1      35.507  32.960  31.878  1.00  0.00     0.060 A 
BRANCH  74  75
ATOM     75  S   UNL A   1      34.216  34.225  31.903  1.00  0.00     0.124 S 
ATOM     76  O   UNL A   1      34.957  35.407  32.328  1.00  0.00    -0.237 OA
ATOM     77  O   UNL A   1      33.758  34.219  30.517  1.00  0.00    -0.237 OA
ATOM     78  O   UNL A   1      33.254  33.710  32.875  1.00  0.00    -0.744 OA
ENDBRANCH  74  75
ENDBRANCH  42  67
BRANCH  54  79
ATOM     79  C   UNL A   1      43.345  28.981  33.844  1.00  0.00     0.058 A 
ATOM     80  C   UNL A   1      43.538  29.321  35.196  1.00  0.00     0.135 A 
ATOM     81  C   UNL A   1      42.817  27.709  33.577  1.00  0.00     0.135 A 
ATOM     82  F   UNL A   1      43.926  30.554  35.544  1.00  0.00    -0.206 F 
ATOM     83  C   UNL A   1      43.259  28.428  36.231  1.00  0.00     0.059 A 
ATOM     84  C   UNL A   1      42.499  26.812  34.595  1.00  0.00     0.059 A 
ATOM     85  F   UNL A   1      42.539  27.350  32.313  1.00  0.00    -0.206 F 
ATOM     86  C   UNL A   1      42.733  27.175  35.921  1.00  0.00     0.060 A 
BRANCH  86  87
ATOM     87  S   UNL A   1      42.277  26.063  37.269  1.00  0.00     0.124 S 
ATOM     88  O   UNL A   1      42.456  24.751  36.657  1.00  0.00    -0.237 OA
ATOM     89  O   UNL A   1      43.241  26.413  38.309  1.00  0.00    -0.237 OA
ATOM     90  O   UNL A   1      40.895  26.434  37.563  1.00  0.00    -0.744 OA
ENDBRANCH  86  87
ENDBRANCH  54  79
ENDBRANCH  28  29
ENDBRANCH  21  23
ENDBRANCH  20  21
ENDBRANCH   1  20
TORSDOF 16
ENDMDL
MODEL 2
REMARK VINA RESULT:     -11.4      1.587      2.085
REMARK SMILES Cc1cc(CC(=O)C(=O)OCCOC(=O)c2ccc(-c3c4nc(c(-c5c(F)cc(S(=O)(=O)[O-])cc5F)c5ccc([nH]5)c(-c5c(F)cc(S(=O)(=O)[O-])cc5F)c5nc(c(-c6c(F)cc(S(=O)(=O)[O-])cc6F)c6ccc3[nH]6)C=C5)C=C4)cc2)cc2cn[nH]c12
REMARK SMILES IDX 12 1 11 2 10 3 8 4 9 5 6 6 7 7 5 8 4 9 1 10 2 11 3 12 87 13
REMARK SMILES IDX 83 14 86 15 82 16 84 17 85 18 13 20 14 21 15 22 16 23 17 24
REMARK SMILES IDX 81 25 18 26 80 27 19 28 20 29 21 30 74 31 22 32 79 33 73 34
REMARK SMILES IDX 75 35 23 36 78 37 72 38 71 39 24 41 58 42 37 43 57 44 38 45
REMARK SMILES IDX 41 46 56 47 76 48 39 49 40 50 55 52 77 53 42 54 25 55 26 56
REMARK SMILES IDX 35 57 27 58 28 59 34 60 36 61 29 62 30 63 31 64 32 65 33 66
REMARK SMILES IDX 59 67 60 68 69 69 61 70 62 71 68 72 70 73 63 74 64 75 65 76
REMARK SMILES IDX 66 77 67 78 43 79 44 80 53 81 45 82 46 83 52 84 54 85 47 86
REMARK SMILES IDX 48 87 49 88 50 89 51 90
REMARK H PARENT 86 19 75 40 41 51
REMARK Flexibility Score: inf
ROOT
ATOM      1  C   UNL A   1      42.629  19.415  26.573  1.00  0.00     0.275 C 
ENDROOT
BRANCH   1   2
ATOM      2  C   UNL A   1      43.167  18.257  25.735  1.00  0.00     0.275 C 
BRANCH   2   3
ATOM      3  O   UNL A   1      44.559  18.421  25.410  1.00  0.00    -0.456 OA
BRANCH   3   4
ATOM      4  C   UNL A   1      44.810  19.156  24.303  1.00  0.00     0.375 C 
ATOM      5  O   UNL A   1      44.382  18.925  23.184  1.00  0.00    -0.243 OA
BRANCH   4   6
ATOM      6  C   UNL A   1      45.638  20.412  24.649  1.00  0.00     0.244 C 
ATOM      7  O   UNL A   1      46.699  20.308  25.258  1.00  0.00    -0.286 OA
BRANCH   6   8
ATOM      8  C   UNL A   1      45.073  21.748  24.199  1.00  0.00     0.124 C 
BRANCH   8   9
ATOM      9  C   UNL A   1      45.672  22.921  24.939  1.00  0.00    -0.039 A 
ATOM     10  C   UNL A   1      48.191  25.737  24.284  1.00  0.00     0.047 C 
ATOM     11  C   UNL A   1      47.250  24.810  24.993  1.00  0.00    -0.025 A 
ATOM     12  C   UNL A   1      46.528  23.826  24.289  1.00  0.00     0.009 A 
ATOM     13  C   UNL A   1      47.047  24.835  26.383  1.00  0.00     0.068 A 
ATOM     14  C   UNL A   1      46.170  23.988  27.048  1.00  0.00     0.020 A 
ATOM     15  N   UNL A   1      47.606  25.603  27.373  1.00  0.00    -0.278 N 
ATOM     16  C   UNL A   1      45.444  23.036  26.321  1.00  0.00     0.016 A 
ATOM     17  C   UNL A   1      46.293  24.335  28.410  1.00  0.00     0.143 A 
ATOM     18  N   UNL A   1      47.167  25.322  28.615  1.00  0.00    -0.183 NA
ATOM     19  H   UNL A   1      48.275  26.302  27.190  1.00  0.00     0.190 HD
ENDBRANCH   8   9
ENDBRANCH   6   8
ENDBRANCH   4   6
ENDBRANCH   3   4
ENDBRANCH   2   3
ENDBRANCH   1   2
BRANCH   1  20
ATOM     20  O   UNL A   1      41.986  20.417  25.779  1.00  0.00    -0.458 OA
BRANCH  20  21
ATOM     21  C   UNL A   1      41.219  21.275  26.486  1.00  0.00     0.338 C 
ATOM     22  O   UNL A   1      40.030  21.162  26.745  1.00  0.00    -0.246 OA
BRANCH  21  23
ATOM     23  C   UNL A   1      41.957  22.490  26.808  1.00  0.00     0.060 A 
ATOM     24  C   UNL A   1      42.350  22.654  28.142  1.00  0.00     0.016 A 
ATOM     25  C   UNL A   1      41.940  23.552  25.896  1.00  0.00     0.016 A 
ATOM     26  C   UNL A   1      42.573  23.924  28.613  1.00  0.00     0.010 A 
ATOM     27  C   UNL A   1      42.139  24.824  26.374  1.00  0.00     0.010 A 
ATOM     28  C   UNL A   1      42.378  24.991  27.739  1.00  0.00    -0.014 A 
BRANCH  28  29
ATOM     29  C   UNL A   1      42.396  26.317  28.310  1.00  0.00     0.031 A 
ATOM     30  C   UNL A   1      43.577  27.126  27.943  1.00  0.00     0.074 A 
ATOM     31  C   UNL A   1      41.353  26.755  29.035  1.00  0.00     0.049 A 
ATOM     32  N   UNL A   1      44.500  27.592  28.716  1.00  0.00    -0.248 NA
ATOM     33  C   UNL A   1      43.845  27.306  26.507  1.00  0.00     0.031 C 
ATOM     34  C   UNL A   1      40.042  26.125  29.219  1.00  0.00     0.029 A 
ATOM     35  N   UNL A   1      41.217  27.939  29.677  1.00  0.00    -0.354 N 
ATOM     36  C   UNL A   1      45.371  28.287  27.883  1.00  0.00     0.074 A 
ATOM     37  C   UNL A   1      45.020  27.932  26.533  1.00  0.00     0.031 C 
ATOM     38  C   UNL A   1      39.182  27.040  29.721  1.00  0.00     0.029 A 
ATOM     39  C   UNL A   1      39.909  28.269  29.989  1.00  0.00     0.049 A 
ATOM     40  H   UNL A   1      41.982  28.516  29.903  1.00  0.00     0.167 HD
ATOM     41  C   UNL A   1      46.195  29.264  28.349  1.00  0.00     0.037 A 
ATOM     42  C   UNL A   1      39.473  29.512  30.316  1.00  0.00     0.037 A 
ATOM     43  C   UNL A   1      46.322  29.219  29.780  1.00  0.00     0.049 A 
ATOM     44  C   UNL A   1      40.670  30.290  30.753  1.00  0.00     0.074 A 
ATOM     45  C   UNL A   1      46.832  28.293  30.669  1.00  0.00     0.029 A 
ATOM     46  N   UNL A   1      45.543  30.071  30.526  1.00  0.00    -0.354 N 
ATOM     47  N   UNL A   1      41.353  30.022  31.837  1.00  0.00    -0.248 NA
ATOM     48  C   UNL A   1      41.398  31.053  29.745  1.00  0.00     0.031 C 
ATOM     49  C   UNL A   1      45.973  28.353  31.803  1.00  0.00     0.029 A 
ATOM     50  C   UNL A   1      45.013  29.337  31.560  1.00  0.00     0.049 A 
ATOM     51  H   UNL A   1      45.392  31.028  30.352  1.00  0.00     0.167 HD
ATOM     52  C   UNL A   1      42.685  30.226  31.494  1.00  0.00     0.074 A 
ATOM     53  C   UNL A   1      42.643  30.938  30.219  1.00  0.00     0.031 C 
ATOM     54  C   UNL A   1      43.696  29.553  32.122  1.00  0.00     0.037 A 
BRANCH  41  55
ATOM     55  C   UNL A   1      46.643  30.441  27.526  1.00  0.00     0.058 A 
ATOM     56  C   UNL A   1      48.016  30.726  27.399  1.00  0.00     0.135 A 
ATOM     57  C   UNL A   1      45.762  31.447  27.070  1.00  0.00     0.135 A 
ATOM     58  F   UNL A   1      48.938  29.843  27.814  1.00  0.00    -0.206 F 
ATOM     59  C   UNL A   1      48.478  31.947  26.908  1.00  0.00     0.059 A 
ATOM     60  C   UNL A   1      46.201  32.645  26.521  1.00  0.00     0.059 A 
ATOM     61  F   UNL A   1      44.434  31.359  27.229  1.00  0.00    -0.206 F 
ATOM     62  C   UNL A   1      47.559  32.907  26.488  1.00  0.00     0.060 A 
BRANCH  62  63
ATOM     63  S   UNL A   1      48.142  34.534  25.985  1.00  0.00     0.124 S 
ATOM     64  O   UNL A   1      47.034  34.993  25.154  1.00  0.00    -0.237 OA
ATOM     65  O   UNL A   1      48.305  35.209  27.267  1.00  0.00    -0.237 OA
ATOM     66  O   UNL A   1      49.384  34.241  25.274  1.00  0.00    -0.744 OA
ENDBRANCH  62  63
ENDBRANCH  41  55
BRANCH  42  67
ATOM     67  C   UNL A   1      38.184  30.130  29.902  1.00  0.00     0.058 A 
ATOM     68  C   UNL A   1      37.402  30.869  30.804  1.00  0.00     0.135 A 
ATOM     69  C   UNL A   1      37.801  30.209  28.544  1.00  0.00     0.135 A 
ATOM     70  F   UNL A   1      37.712  30.884  32.110  1.00  0.00    -0.206 F 
ATOM     71  C   UNL A   1      36.321  31.656  30.384  1.00  0.00     0.059 A 
ATOM     72  C   UNL A   1      36.721  30.969  28.105  1.00  0.00     0.059 A 
ATOM     73  F   UNL A   1      38.521  29.618  27.579  1.00  0.00    -0.206 F 
ATOM     74  C   UNL A   1      35.998  31.711  29.028  1.00  0.00     0.060 A 
BRANCH  74  75
ATOM     75  S   UNL A   1      34.704  32.837  28.459  1.00  0.00     0.124 S 
ATOM     76  O   UNL A   1      35.443  33.722  27.566  1.00  0.00    -0.237 OA
ATOM     77  O   UNL A   1      33.763  31.922  27.821  1.00  0.00    -0.237 OA
ATOM     78  O   UNL A   1      34.225  33.456  29.693  1.00  0.00    -0.744 OA
ENDBRANCH  74  75
ENDBRANCH  42  67
BRANCH  54  79
ATOM     79  C   UNL A   1      43.356  28.746  33.350  1.00  0.00     0.058 A 
ATOM     80  C   UNL A   1      43.191  29.313  34.627  1.00  0.00     0.135 A 
ATOM     81  C   UNL A   1      42.998  27.398  33.201  1.00  0.00     0.135 A 
ATOM     82  F   UNL A   1      43.396  30.620  34.829  1.00  0.00    -0.206 F 
ATOM     83  C   UNL A   1      42.732  28.568  35.714  1.00  0.00     0.059 A 
ATOM     84  C   UNL A   1      42.506  26.643  34.264  1.00  0.00     0.059 A 
ATOM     85  F   UNL A   1      43.061  26.817  31.992  1.00  0.00    -0.206 F 
ATOM     86  C   UNL A   1      42.386  27.232  35.522  1.00  0.00     0.060 A 
BRANCH  86  87
ATOM     87  S   UNL A   1      41.695  26.302  36.907  1.00  0.00     0.124 S 
ATOM     88  O   UNL A   1      41.389  25.016  36.290  1.00  0.00    -0.237 OA
ATOM     89  O   UNL A   1      42.795  26.299  37.867  1.00  0.00    -0.237 OA
ATOM     90  O   UNL A   1      40.534  27.096  37.306  1.00  0.00    -0.744 OA
ENDBRANCH  86  87
ENDBRANCH  54  79
ENDBRANCH  28  29
ENDBRANCH  21  23
ENDBRANCH  20  21
ENDBRANCH   1  20
TORSDOF 16
ENDMDL
MODEL 3
REMARK VINA RESULT:     -11.2      2.611     11.675
REMARK SMILES Cc1cc(CC(=O)C(=O)OCCOC(=O)c2ccc(-c3c4nc(c(-c5c(F)cc(S(=O)(=O)[O-])cc5F)c5ccc([nH]5)c(-c5c(F)cc(S(=O)(=O)[O-])cc5F)c5nc(c(-c6c(F)cc(S(=O)(=O)[O-])cc6F)c6ccc3[nH]6)C=C5)C=C4)cc2)cc2cn[nH]c12
REMARK SMILES IDX 12 1 11 2 10 3 8 4 9 5 6 6 7 7 5 8 4 9 1 10 2 11 3 12 87 13
REMARK SMILES IDX 83 14 86 15 82 16 84 17 85 18 13 20 14 21 15 22 16 23 17 24
REMARK SMILES IDX 81 25 18 26 80 27 19 28 20 29 21 30 74 31 22 32 79 33 73 34
REMARK SMILES IDX 75 35 23 36 78 37 72 38 71 39 24 41 58 42 37 43 57 44 38 45
REMARK SMILES IDX 41 46 56 47 76 48 39 49 40 50 55 52 77 53 42 54 25 55 26 56
REMARK SMILES IDX 35 57 27 58 28 59 34 60 36 61 29 62 30 63 31 64 32 65 33 66
REMARK SMILES IDX 59 67 60 68 69 69 61 70 62 71 68 72 70 73 63 74 64 75 65 76
REMARK SMILES IDX 66 77 67 78 43 79 44 80 53 81 45 82 46 83 52 84 54 85 47 86
REMARK SMILES IDX 48 87 49 88 50 89 51 90
REMARK H PARENT 86 19 75 40 41 51
REMARK Flexibility Score: inf
ROOT
ATOM      1  C   UNL A   1      34.410  33.428  28.183  1.00  0.00     0.275 C 
ENDROOT
BRANCH   1   2
ATOM      2  C   UNL A   1      34.663  33.941  29.599  1.00  0.00     0.275 C 
BRANCH   2   3
ATOM      3  O   UNL A   1      33.481  34.507  30.193  1.00  0.00    -0.456 OA
BRANCH   3   4
ATOM      4  C   UNL A   1      33.698  35.289  31.276  1.00  0.00     0.375 C 
ATOM      5  O   UNL A   1      33.473  36.486  31.345  1.00  0.00    -0.243 OA
BRANCH   4   6
ATOM      6  C   UNL A   1      34.182  34.448  32.476  1.00  0.00     0.244 C 
ATOM      7  O   UNL A   1      33.464  33.573  32.952  1.00  0.00    -0.286 OA
BRANCH   6   8
ATOM      8  C   UNL A   1      35.567  34.762  33.016  1.00  0.00     0.124 C 
BRANCH   8   9
ATOM      9  C   UNL A   1      36.348  33.523  33.390  1.00  0.00    -0.039 A 
ATOM     10  C   UNL A   1      36.747  29.911  32.167  1.00  0.00     0.047 C 
ATOM     11  C   UNL A   1      36.853  31.144  33.014  1.00  0.00    -0.025 A 
ATOM     12  C   UNL A   1      36.295  32.367  32.594  1.00  0.00     0.009 A 
ATOM     13  C   UNL A   1      37.477  31.161  34.273  1.00  0.00     0.068 A 
ATOM     14  C   UNL A   1      37.589  32.299  35.061  1.00  0.00     0.020 A 
ATOM     15  N   UNL A   1      38.070  30.167  35.010  1.00  0.00    -0.278 N 
ATOM     16  C   UNL A   1      37.050  33.509  34.607  1.00  0.00     0.016 A 
ATOM     17  C   UNL A   1      38.253  31.868  36.228  1.00  0.00     0.143 A 
ATOM     18  N   UNL A   1      38.551  30.567  36.203  1.00  0.00    -0.183 NA
ATOM     19  H   UNL A   1      38.137  29.237  34.694  1.00  0.00     0.190 HD
ENDBRANCH   8   9
ENDBRANCH   6   8
ENDBRANCH   4   6
ENDBRANCH   3   4
ENDBRANCH   2   3
ENDBRANCH   1   2
BRANCH   1  20
ATOM     20  O   UNL A   1      35.540  32.743  27.634  1.00  0.00    -0.458 OA
BRANCH  20  21
ATOM     21  C   UNL A   1      35.432  31.397  27.650  1.00  0.00     0.338 C 
ATOM     22  O   UNL A   1      34.547  30.720  27.149  1.00  0.00    -0.246 OA
BRANCH  21  23
ATOM     23  C   UNL A   1      36.459  30.802  28.498  1.00  0.00     0.060 A 
ATOM     24  C   UNL A   1      37.432  31.669  29.011  1.00  0.00     0.016 A 
ATOM     25  C   UNL A   1      36.627  29.413  28.481  1.00  0.00     0.016 A 
ATOM     26  C   UNL A   1      38.654  31.155  29.362  1.00  0.00     0.010 A 
ATOM     27  C   UNL A   1      37.860  28.902  28.809  1.00  0.00     0.010 A 
ATOM     28  C   UNL A   1      38.872  29.791  29.172  1.00  0.00    -0.014 A 
BRANCH  28  29
ATOM     29  C   UNL A   1      40.225  29.316  29.332  1.00  0.00     0.031 A 
ATOM     30  C   UNL A   1      40.697  29.271  30.732  1.00  0.00     0.074 A 
ATOM     31  C   UNL A   1      40.919  28.879  28.267  1.00  0.00     0.049 A 
ATOM     32  N   UNL A   1      41.662  29.936  31.273  1.00  0.00    -0.248 NA
ATOM     33  C   UNL A   1      39.886  28.498  31.687  1.00  0.00     0.031 C 
ATOM     34  C   UNL A   1      40.439  28.638  26.903  1.00  0.00     0.029 A 
ATOM     35  N   UNL A   1      42.200  28.444  28.223  1.00  0.00    -0.354 N 
ATOM     36  C   UNL A   1      41.701  29.526  32.602  1.00  0.00     0.074 A 
ATOM     37  C   UNL A   1      40.490  28.784  32.838  1.00  0.00     0.031 C 
ATOM     38  C   UNL A   1      41.350  27.886  26.244  1.00  0.00     0.029 A 
ATOM     39  C   UNL A   1      42.506  27.692  27.101  1.00  0.00     0.049 A 
ATOM     40  H   UNL A   1      42.858  28.645  28.927  1.00  0.00     0.167 HD
ATOM     41  C   UNL A   1      42.819  29.651  33.367  1.00  0.00     0.037 A 
ATOM     42  C   UNL A   1      43.584  26.877  26.977  1.00  0.00     0.037 A 
ATOM     43  C   UNL A   1      43.768  30.558  32.782  1.00  0.00     0.049 A 
ATOM     44  C   UNL A   1      44.579  27.314  28.001  1.00  0.00     0.074 A 
ATOM     45  C   UNL A   1      43.752  31.908  32.492  1.00  0.00     0.029 A 
ATOM     46  N   UNL A   1      44.807  30.027  32.054  1.00  0.00    -0.354 N 
ATOM     47  N   UNL A   1      45.193  28.470  27.968  1.00  0.00    -0.248 NA
ATOM     48  C   UNL A   1      44.533  26.683  29.315  1.00  0.00     0.031 C 
ATOM     49  C   UNL A   1      44.467  32.035  31.268  1.00  0.00     0.029 A 
ATOM     50  C   UNL A   1      44.913  30.765  30.900  1.00  0.00     0.049 A 
ATOM     51  H   UNL A   1      45.369  29.261  32.312  1.00  0.00     0.167 HD
ATOM     52  C   UNL A   1      45.257  28.891  29.291  1.00  0.00     0.074 A 
ATOM     53  C   UNL A   1      44.908  27.714  30.081  1.00  0.00     0.031 C 
ATOM     54  C   UNL A   1      45.304  30.219  29.616  1.00  0.00     0.037 A 
BRANCH  41  55
ATOM     55  C   UNL A   1      43.169  28.717  34.494  1.00  0.00     0.058 A 
ATOM     56  C   UNL A   1      43.179  29.191  35.819  1.00  0.00     0.135 A 
ATOM     57  C   UNL A   1      43.742  27.441  34.292  1.00  0.00     0.135 A 
ATOM     58  F   UNL A   1      42.672  30.397  36.118  1.00  0.00    -0.206 F 
ATOM     59  C   UNL A   1      43.771  28.472  36.859  1.00  0.00     0.059 A 
ATOM     60  C   UNL A   1      44.281  26.683  35.322  1.00  0.00     0.059 A 
ATOM     61  F   UNL A   1      43.899  26.915  33.070  1.00  0.00    -0.206 F 
ATOM     62  C   UNL A   1      44.335  27.226  36.594  1.00  0.00     0.060 A 
BRANCH  62  63
ATOM     63  S   UNL A   1      45.220  26.357  37.899  1.00  0.00     0.124 S 
ATOM     64  O   UNL A   1      46.602  26.717  37.598  1.00  0.00    -0.237 OA
ATOM     65  O   UNL A   1      44.650  26.952  39.102  1.00  0.00    -0.237 OA
ATOM     66  O   UNL A   1      44.869  24.958  37.670  1.00  0.00    -0.744 OA
ENDBRANCH  62  63
ENDBRANCH  41  55
BRANCH  42  67
ATOM     67  C   UNL A   1      43.611  25.550  26.304  1.00  0.00     0.058 A 
ATOM     68  C   UNL A   1      44.521  25.268  25.273  1.00  0.00     0.135 A 
ATOM     69  C   UNL A   1      42.897  24.443  26.816  1.00  0.00     0.135 A 
ATOM     70  F   UNL A   1      45.271  26.251  24.749  1.00  0.00    -0.206 F 
ATOM     71  C   UNL A   1      44.730  23.967  24.796  1.00  0.00     0.059 A 
ATOM     72  C   UNL A   1      43.073  23.145  26.346  1.00  0.00     0.059 A 
ATOM     73  F   UNL A   1      42.064  24.570  27.859  1.00  0.00    -0.206 F 
ATOM     74  C   UNL A   1      44.010  22.909  25.350  1.00  0.00     0.060 A 
BRANCH  74  75
ATOM     75  S   UNL A   1      44.379  21.212  24.848  1.00  0.00     0.124 S 
ATOM     76  O   UNL A   1      43.228  20.484  25.369  1.00  0.00    -0.237 OA
ATOM     77  O   UNL A   1      44.457  21.335  23.396  1.00  0.00    -0.237 OA
ATOM     78  O   UNL A   1      45.649  20.929  25.514  1.00  0.00    -0.744 OA
ENDBRANCH  74  75
ENDBRANCH  42  67
BRANCH  54  79
ATOM     79  C   UNL A   1      45.510  31.216  28.503  1.00  0.00     0.058 A 
ATOM     80  C   UNL A   1      44.460  31.727  27.718  1.00  0.00     0.135 A 
ATOM     81  C   UNL A   1      46.769  31.815  28.351  1.00  0.00     0.135 A 
ATOM     82  F   UNL A   1      43.205  31.293  27.886  1.00  0.00    -0.206 F 
ATOM     83  C   UNL A   1      44.658  32.756  26.797  1.00  0.00     0.059 A 
ATOM     84  C   UNL A   1      46.983  32.866  27.461  1.00  0.00     0.059 A 
ATOM     85  F   UNL A   1      47.796  31.425  29.123  1.00  0.00    -0.206 F 
ATOM     86  C   UNL A   1      45.924  33.324  26.679  1.00  0.00     0.060 A 
BRANCH  86  87
ATOM     87  S   UNL A   1      46.151  34.724  25.560  1.00  0.00     0.124 S 
ATOM     88  O   UNL A   1      45.210  34.416  24.489  1.00  0.00    -0.237 OA
ATOM     89  O   UNL A   1      45.799  35.864  26.403  1.00  0.00    -0.237 OA
ATOM     90  O   UNL A   1      47.563  34.643  25.195  1.00  0.00    -0.744 OA
ENDBRANCH  86  87
ENDBRANCH  54  79
ENDBRANCH  28  29
ENDBRANCH  21  23
ENDBRANCH  20  21
ENDBRANCH   1  20
TORSDOF 16
ENDMDL
