MODEL 1
REMARK VINA RESULT:     -11.3      0.000      0.000
REMARK SMILES O=C(/C=C/c1ccc(O)cc1)NC[C@@H]1CC[C@H](C(=O)OCCOC(=O)c2ccc(-c3c4nc(c(-c5c(F)cc(S(=O)(=O)[O-])cc5F)c5ccc([nH]5)c(-c5c(F)cc(S(=O)(=O)[O-])cc5F)c5nc(c(-c6c(F)cc(S(=O)(=O)[O-])cc6F)c6ccc3[nH]6)C=C5)C=C4)cc2)O1
REMARK SMILES IDX 21 1 20 2 18 3 19 4 17 5 14 6 15 7 92 8 16 9 13 10 12 11
REMARK SMILES IDX 1 12 2 13 3 15 4 16 5 17 6 18 11 19 7 20 10 21 8 22 9 23
REMARK SMILES IDX 22 25 23 26 24 27 25 28 26 29 27 30 91 31 28 32 90 33 29 34
REMARK SMILES IDX 30 35 31 36 84 37 32 38 89 39 83 40 85 41 33 42 88 43 82 44
REMARK SMILES IDX 81 45 34 47 68 48 47 49 67 50 48 51 51 52 66 53 86 54 49 55
REMARK SMILES IDX 50 56 65 58 87 59 52 60 35 61 36 62 45 63 37 64 38 65 44 66
REMARK SMILES IDX 46 67 39 68 40 69 41 70 42 71 43 72 69 73 70 74 79 75 71 76
REMARK SMILES IDX 72 77 78 78 80 79 73 80 74 81 75 82 76 83 77 84 53 85 54 86
REMARK SMILES IDX 63 87 55 88 56 89 62 90 64 91 57 92 58 93 59 94 60 95 61 96
REMARK H PARENT 12 14 9 24 85 46 51 57
REMARK Flexibility Score: inf
ROOT
ATOM      1  C   UNL A   1      33.077  30.380  27.108  1.00  0.00     0.274 C 
ENDROOT
BRANCH   1   2
ATOM      2  O   UNL A   1      33.353  29.986  25.752  1.00  0.00    -0.460 OA
BRANCH   2   3
ATOM      3  C   UNL A   1      32.983  28.723  25.409  1.00  0.00     0.335 C 
ATOM      4  O   UNL A   1      33.771  27.805  25.201  1.00  0.00    -0.249 OA
BRANCH   3   5
ATOM      5  C   UNL A   1      31.463  28.550  25.302  1.00  0.00     0.228 C 
ATOM      6  C   UNL A   1      30.281  26.966  24.077  1.00  0.00     0.138 C 
ATOM      7  C   UNL A   1      30.549  28.143  23.156  1.00  0.00     0.037 C 
ATOM      8  O   UNL A   1      31.134  27.155  25.213  1.00  0.00    -0.361 OA
ATOM      9  C   UNL A   1      30.770  29.258  24.147  1.00  0.00     0.047 C 
BRANCH   6  10
ATOM     10  C   UNL A   1      30.554  25.595  23.463  1.00  0.00     0.148 C 
BRANCH  10  11
ATOM     11  N   UNL A   1      31.898  25.134  23.741  1.00  0.00    -0.350 N 
ATOM     12  O   UNL A   1      32.770  25.648  21.678  1.00  0.00    -0.270 OA
ATOM     13  C   UNL A   1      32.884  25.157  22.793  1.00  0.00     0.244 C 
ATOM     14  H   UNL A   1      32.110  24.794  24.641  1.00  0.00     0.163 HD
BRANCH  13  15
ATOM     15  C   UNL A   1      34.179  24.576  23.216  1.00  0.00     0.072 C 
ATOM     16  C   UNL A   1      34.399  24.061  24.435  1.00  0.00     0.014 C 
BRANCH  16  17
ATOM     17  C   UNL A   1      35.662  23.414  24.811  1.00  0.00    -0.025 A 
ATOM     18  C   UNL A   1      36.525  23.966  25.767  1.00  0.00     0.012 A 
ATOM     19  C   UNL A   1      35.994  22.187  24.221  1.00  0.00     0.012 A 
ATOM     20  C   UNL A   1      37.719  23.322  26.102  1.00  0.00     0.047 A 
ATOM     21  C   UNL A   1      37.187  21.543  24.554  1.00  0.00     0.047 A 
ATOM     22  C   UNL A   1      38.042  22.118  25.486  1.00  0.00     0.115 A 
BRANCH  22  23
ATOM     23  O   UNL A   1      39.204  21.463  25.773  1.00  0.00    -0.508 OA
ATOM     24  H   UNL A   1      39.234  20.527  25.743  1.00  0.00     0.293 HD
ENDBRANCH  22  23
ENDBRANCH  16  17
ENDBRANCH  13  15
ENDBRANCH  10  11
ENDBRANCH   6  10
ENDBRANCH   3   5
ENDBRANCH   2   3
ENDBRANCH   1   2
BRANCH   1  25
ATOM     25  C   UNL A   1      34.282  31.080  27.744  1.00  0.00     0.275 C 
BRANCH  25  26
ATOM     26  O   UNL A   1      35.158  30.156  28.414  1.00  0.00    -0.458 OA
BRANCH  26  27
ATOM     27  C   UNL A   1      36.088  30.727  29.216  1.00  0.00     0.338 C 
ATOM     28  O   UNL A   1      35.902  31.562  30.083  1.00  0.00    -0.246 OA
BRANCH  27  29
ATOM     29  C   UNL A   1      37.397  30.098  28.998  1.00  0.00     0.060 A 
ATOM     30  C   UNL A   1      38.231  29.921  30.105  1.00  0.00     0.016 A 
ATOM     31  C   UNL A   1      37.844  29.790  27.714  1.00  0.00     0.016 A 
ATOM     32  C   UNL A   1      39.530  29.457  29.937  1.00  0.00     0.010 A 
ATOM     33  C   UNL A   1      39.146  29.312  27.546  1.00  0.00     0.010 A 
ATOM     34  C   UNL A   1      40.000  29.160  28.654  1.00  0.00    -0.014 A 
BRANCH  34  35
ATOM     35  C   UNL A   1      41.407  28.741  28.465  1.00  0.00     0.031 A 
ATOM     36  C   UNL A   1      42.499  29.766  28.531  1.00  0.00     0.074 A 
ATOM     37  C   UNL A   1      41.694  27.449  28.233  1.00  0.00     0.049 A 
ATOM     38  N   UNL A   1      43.769  29.639  28.253  1.00  0.00    -0.248 NA
ATOM     39  C   UNL A   1      42.105  31.117  28.964  1.00  0.00     0.031 C 
ATOM     40  C   UNL A   1      40.715  26.361  28.199  1.00  0.00     0.029 A 
ATOM     41  N   UNL A   1      42.891  26.836  27.963  1.00  0.00    -0.354 N 
ATOM     42  C   UNL A   1      44.323  30.899  28.437  1.00  0.00     0.074 A 
ATOM     43  C   UNL A   1      43.249  31.778  28.852  1.00  0.00     0.031 C 
ATOM     44  C   UNL A   1      41.349  25.215  27.905  1.00  0.00     0.029 A 
ATOM     45  C   UNL A   1      42.765  25.498  27.680  1.00  0.00     0.049 A 
ATOM     46  H   UNL A   1      43.754  27.309  27.973  1.00  0.00     0.167 HD
ATOM     47  C   UNL A   1      45.610  31.286  28.268  1.00  0.00     0.037 A 
ATOM     48  C   UNL A   1      43.679  24.611  27.244  1.00  0.00     0.037 A 
ATOM     49  C   UNL A   1      46.669  30.398  27.870  1.00  0.00     0.049 A 
ATOM     50  C   UNL A   1      45.094  25.063  27.030  1.00  0.00     0.074 A 
ATOM     51  C   UNL A   1      48.010  30.682  27.683  1.00  0.00     0.029 A 
ATOM     52  N   UNL A   1      46.504  29.046  27.597  1.00  0.00    -0.354 N 
ATOM     53  N   UNL A   1      45.607  26.260  27.194  1.00  0.00    -0.248 NA
ATOM     54  C   UNL A   1      46.056  24.053  26.570  1.00  0.00     0.031 C 
ATOM     55  C   UNL A   1      48.650  29.509  27.264  1.00  0.00     0.029 A 
ATOM     56  C   UNL A   1      47.715  28.486  27.226  1.00  0.00     0.049 A 
ATOM     57  H   UNL A   1      45.652  28.559  27.656  1.00  0.00     0.167 HD
ATOM     58  C   UNL A   1      46.952  26.146  26.868  1.00  0.00     0.074 A 
ATOM     59  C   UNL A   1      47.177  24.760  26.505  1.00  0.00     0.031 C 
ATOM     60  C   UNL A   1      47.915  27.101  26.872  1.00  0.00     0.037 A 
BRANCH  47  61
ATOM     61  C   UNL A   1      45.917  32.744  28.464  1.00  0.00     0.058 A 
ATOM     62  C   UNL A   1      46.268  33.268  29.718  1.00  0.00     0.135 A 
ATOM     63  C   UNL A   1      45.829  33.635  27.383  1.00  0.00     0.135 A 
ATOM     64  F   UNL A   1      46.348  32.461  30.789  1.00  0.00    -0.206 F 
ATOM     65  C   UNL A   1      46.476  34.631  29.903  1.00  0.00     0.059 A 
ATOM     66  C   UNL A   1      46.055  34.999  27.540  1.00  0.00     0.059 A 
ATOM     67  F   UNL A   1      45.496  33.186  26.162  1.00  0.00    -0.206 F 
ATOM     68  C   UNL A   1      46.354  35.490  28.810  1.00  0.00     0.060 A 
BRANCH  68  69
ATOM     69  S   UNL A   1      46.574  37.264  29.067  1.00  0.00     0.124 S 
ATOM     70  O   UNL A   1      47.129  37.675  27.780  1.00  0.00    -0.237 OA
ATOM     71  O   UNL A   1      45.215  37.716  29.344  1.00  0.00    -0.237 OA
ATOM     72  O   UNL A   1      47.496  37.329  30.198  1.00  0.00    -0.744 OA
ENDBRANCH  68  69
ENDBRANCH  47  61
BRANCH  48  73
ATOM     73  C   UNL A   1      43.251  23.218  26.959  1.00  0.00     0.058 A 
ATOM     74  C   UNL A   1      43.155  22.745  25.644  1.00  0.00     0.135 A 
ATOM     75  C   UNL A   1      43.013  22.309  28.003  1.00  0.00     0.135 A 
ATOM     76  F   UNL A   1      43.365  23.579  24.613  1.00  0.00    -0.206 F 
ATOM     77  C   UNL A   1      42.853  21.414  25.371  1.00  0.00     0.059 A 
ATOM     78  C   UNL A   1      42.730  20.971  27.756  1.00  0.00     0.059 A 
ATOM     79  F   UNL A   1      43.106  22.714  29.280  1.00  0.00    -0.206 F 
ATOM     80  C   UNL A   1      42.654  20.532  26.435  1.00  0.00     0.060 A 
BRANCH  80  81
ATOM     81  S   UNL A   1      42.371  18.785  26.074  1.00  0.00     0.124 S 
ATOM     82  O   UNL A   1      40.968  18.791  25.675  1.00  0.00    -0.237 OA
ATOM     83  O   UNL A   1      43.336  18.528  25.010  1.00  0.00    -0.237 OA
ATOM     84  O   UNL A   1      42.663  18.128  27.346  1.00  0.00    -0.744 OA
ENDBRANCH  80  81
ENDBRANCH  48  73
BRANCH  60  85
ATOM     85  C   UNL A   1      49.307  26.681  26.496  1.00  0.00     0.058 A 
ATOM     86  C   UNL A   1      50.156  26.052  27.417  1.00  0.00     0.135 A 
ATOM     87  C   UNL A   1      49.762  26.839  25.177  1.00  0.00     0.135 A 
ATOM     88  F   UNL A   1      49.768  25.886  28.691  1.00  0.00    -0.206 F 
ATOM     89  C   UNL A   1      51.416  25.594  27.045  1.00  0.00     0.059 A 
ATOM     90  C   UNL A   1      51.011  26.372  24.779  1.00  0.00     0.059 A 
ATOM     91  F   UNL A   1      48.982  27.429  24.258  1.00  0.00    -0.206 F 
ATOM     92  C   UNL A   1      51.833  25.755  25.721  1.00  0.00     0.060 A 
BRANCH  92  93
ATOM     93  S   UNL A   1      53.443  25.102  25.231  1.00  0.00     0.124 S 
ATOM     94  O   UNL A   1      53.566  25.616  23.870  1.00  0.00    -0.237 OA
ATOM     95  O   UNL A   1      54.338  25.698  26.217  1.00  0.00    -0.237 OA
ATOM     96  O   UNL A   1      53.271  23.657  25.344  1.00  0.00    -0.744 OA
ENDBRANCH  92  93
ENDBRANCH  60  85
ENDBRANCH  34  35
ENDBRANCH  27  29
ENDBRANCH  26  27
ENDBRANCH  25  26
ENDBRANCH   1  25
TORSDOF 19
ENDMDL
MODEL 2
REMARK VINA RESULT:     -11.2      1.896      2.320
REMARK SMILES O=C(/C=C/c1ccc(O)cc1)NC[C@@H]1CC[C@H](C(=O)OCCOC(=O)c2ccc(-c3c4nc(c(-c5c(F)cc(S(=O)(=O)[O-])cc5F)c5ccc([nH]5)c(-c5c(F)cc(S(=O)(=O)[O-])cc5F)c5nc(c(-c6c(F)cc(S(=O)(=O)[O-])cc6F)c6ccc3[nH]6)C=C5)C=C4)cc2)O1
REMARK SMILES IDX 21 1 20 2 18 3 19 4 17 5 14 6 15 7 92 8 16 9 13 10 12 11
REMARK SMILES IDX 1 12 2 13 3 15 4 16 5 17 6 18 11 19 7 20 10 21 8 22 9 23
REMARK SMILES IDX 22 25 23 26 24 27 25 28 26 29 27 30 91 31 28 32 90 33 29 34
REMARK SMILES IDX 30 35 31 36 84 37 32 38 89 39 83 40 85 41 33 42 88 43 82 44
REMARK SMILES IDX 81 45 34 47 68 48 47 49 67 50 48 51 51 52 66 53 86 54 49 55
REMARK SMILES IDX 50 56 65 58 87 59 52 60 35 61 36 62 45 63 37 64 38 65 44 66
REMARK SMILES IDX 46 67 39 68 40 69 41 70 42 71 43 72 69 73 70 74 79 75 71 76
REMARK SMILES IDX 72 77 78 78 80 79 73 80 74 81 75 82 76 83 77 84 53 85 54 86
REMARK SMILES IDX 63 87 55 88 56 89 62 90 64 91 57 92 58 93 59 94 60 95 61 96
REMARK H PARENT 12 14 9 24 85 46 51 57
REMARK Flexibility Score: inf
ROOT
ATOM      1  C   UNL A   1      33.114  30.236  27.259  1.00  0.00     0.274 C 
ENDROOT
BRANCH   1   2
ATOM      2  O   UNL A   1      33.369  28.824  27.149  1.00  0.00    -0.460 OA
BRANCH   2   3
ATOM      3  C   UNL A   1      32.291  28.041  26.875  1.00  0.00     0.335 C 
ATOM      4  O   UNL A   1      31.375  27.825  27.663  1.00  0.00    -0.249 OA
BRANCH   3   5
ATOM      5  C   UNL A   1      32.329  27.440  25.465  1.00  0.00     0.228 C 
ATOM      6  C   UNL A   1      31.880  25.249  24.826  1.00  0.00     0.138 C 
ATOM      7  C   UNL A   1      33.350  25.320  25.199  1.00  0.00     0.037 C 
ATOM      8  O   UNL A   1      31.291  26.457  25.323  1.00  0.00    -0.361 OA
ATOM      9  C   UNL A   1      33.634  26.791  25.029  1.00  0.00     0.047 C 
BRANCH   6  10
ATOM     10  C   UNL A   1      31.130  24.049  25.398  1.00  0.00     0.148 C 
BRANCH  10  11
ATOM     11  N   UNL A   1      31.923  22.838  25.346  1.00  0.00    -0.350 N 
ATOM     12  O   UNL A   1      31.534  22.381  23.128  1.00  0.00    -0.270 OA
ATOM     13  C   UNL A   1      32.013  22.078  24.212  1.00  0.00     0.244 C 
ATOM     14  H   UNL A   1      32.413  22.554  26.151  1.00  0.00     0.163 HD
BRANCH  13  15
ATOM     15  C   UNL A   1      32.798  20.830  24.351  1.00  0.00     0.072 C 
ATOM     16  C   UNL A   1      32.333  19.722  24.948  1.00  0.00     0.014 C 
BRANCH  16  17
ATOM     17  C   UNL A   1      33.093  18.467  25.003  1.00  0.00    -0.025 A 
ATOM     18  C   UNL A   1      32.553  17.294  25.549  1.00  0.00     0.012 A 
ATOM     19  C   UNL A   1      34.383  18.435  24.460  1.00  0.00     0.012 A 
ATOM     20  C   UNL A   1      33.304  16.117  25.585  1.00  0.00     0.047 A 
ATOM     21  C   UNL A   1      35.136  17.259  24.495  1.00  0.00     0.047 A 
ATOM     22  C   UNL A   1      34.594  16.113  25.063  1.00  0.00     0.115 A 
BRANCH  22  23
ATOM     23  O   UNL A   1      35.366  14.989  25.090  1.00  0.00    -0.508 OA
ATOM     24  H   UNL A   1      34.974  14.148  24.962  1.00  0.00     0.293 HD
ENDBRANCH  22  23
ENDBRANCH  16  17
ENDBRANCH  13  15
ENDBRANCH  10  11
ENDBRANCH   6  10
ENDBRANCH   3   5
ENDBRANCH   2   3
ENDBRANCH   1   2
BRANCH   1  25
ATOM     25  C   UNL A   1      34.321  30.980  27.839  1.00  0.00     0.275 C 
BRANCH  25  26
ATOM     26  O   UNL A   1      35.221  30.100  28.535  1.00  0.00    -0.458 OA
BRANCH  26  27
ATOM     27  C   UNL A   1      36.173  30.720  29.272  1.00  0.00     0.338 C 
ATOM     28  O   UNL A   1      36.009  31.599  30.100  1.00  0.00    -0.246 OA
BRANCH  27  29
ATOM     29  C   UNL A   1      37.480  30.092  29.040  1.00  0.00     0.060 A 
ATOM     30  C   UNL A   1      38.304  29.868  30.146  1.00  0.00     0.016 A 
ATOM     31  C   UNL A   1      37.935  29.830  27.749  1.00  0.00     0.016 A 
ATOM     32  C   UNL A   1      39.601  29.402  29.971  1.00  0.00     0.010 A 
ATOM     33  C   UNL A   1      39.236  29.351  27.573  1.00  0.00     0.010 A 
ATOM     34  C   UNL A   1      40.079  29.151  28.681  1.00  0.00    -0.014 A 
BRANCH  34  35
ATOM     35  C   UNL A   1      41.485  28.731  28.487  1.00  0.00     0.031 A 
ATOM     36  C   UNL A   1      42.579  29.754  28.555  1.00  0.00     0.074 A 
ATOM     37  C   UNL A   1      41.770  27.440  28.248  1.00  0.00     0.049 A 
ATOM     38  N   UNL A   1      43.848  29.626  28.273  1.00  0.00    -0.248 NA
ATOM     39  C   UNL A   1      42.189  31.104  28.994  1.00  0.00     0.031 C 
ATOM     40  C   UNL A   1      40.790  26.354  28.212  1.00  0.00     0.029 A 
ATOM     41  N   UNL A   1      42.965  26.826  27.973  1.00  0.00    -0.354 N 
ATOM     42  C   UNL A   1      44.405  30.885  28.462  1.00  0.00     0.074 A 
ATOM     43  C   UNL A   1      43.333  31.763  28.883  1.00  0.00     0.031 C 
ATOM     44  C   UNL A   1      41.421  25.208  27.911  1.00  0.00     0.029 A 
ATOM     45  C   UNL A   1      42.836  25.490  27.684  1.00  0.00     0.049 A 
ATOM     46  H   UNL A   1      43.829  27.297  27.983  1.00  0.00     0.167 HD
ATOM     47  C   UNL A   1      45.692  31.270  28.292  1.00  0.00     0.037 A 
ATOM     48  C   UNL A   1      43.748  24.603  27.242  1.00  0.00     0.037 A 
ATOM     49  C   UNL A   1      46.749  30.382  27.888  1.00  0.00     0.049 A 
ATOM     50  C   UNL A   1      45.164  25.054  27.027  1.00  0.00     0.074 A 
ATOM     51  C   UNL A   1      48.090  30.664  27.699  1.00  0.00     0.029 A 
ATOM     52  N   UNL A   1      46.582  29.032  27.609  1.00  0.00    -0.354 N 
ATOM     53  N   UNL A   1      45.679  26.249  27.195  1.00  0.00    -0.248 NA
ATOM     54  C   UNL A   1      46.123  24.044  26.560  1.00  0.00     0.031 C 
ATOM     55  C   UNL A   1      48.728  29.493  27.274  1.00  0.00     0.029 A 
ATOM     56  C   UNL A   1      47.791  28.471  27.232  1.00  0.00     0.049 A 
ATOM     57  H   UNL A   1      45.728  28.545  27.668  1.00  0.00     0.167 HD
ATOM     58  C   UNL A   1      47.023  26.134  26.866  1.00  0.00     0.074 A 
ATOM     59  C   UNL A   1      47.245  24.750  26.496  1.00  0.00     0.031 C 
ATOM     60  C   UNL A   1      47.987  27.088  26.872  1.00  0.00     0.037 A 
BRANCH  47  61
ATOM     61  C   UNL A   1      46.002  32.727  28.494  1.00  0.00     0.058 A 
ATOM     62  C   UNL A   1      46.383  33.239  29.744  1.00  0.00     0.135 A 
ATOM     63  C   UNL A   1      45.886  33.628  27.423  1.00  0.00     0.135 A 
ATOM     64  F   UNL A   1      46.491  32.423  30.804  1.00  0.00    -0.206 F 
ATOM     65  C   UNL A   1      46.594  34.601  29.936  1.00  0.00     0.059 A 
ATOM     66  C   UNL A   1      46.114  34.991  27.587  1.00  0.00     0.059 A 
ATOM     67  F   UNL A   1      45.524  33.189  26.207  1.00  0.00    -0.206 F 
ATOM     68  C   UNL A   1      46.443  35.470  28.854  1.00  0.00     0.060 A 
BRANCH  68  69
ATOM     69  S   UNL A   1      46.668  37.242  29.122  1.00  0.00     0.124 S 
ATOM     70  O   UNL A   1      46.347  37.362  30.542  1.00  0.00    -0.237 OA
ATOM     71  O   UNL A   1      48.071  37.441  28.772  1.00  0.00    -0.237 OA
ATOM     72  O   UNL A   1      45.705  37.847  28.207  1.00  0.00    -0.744 OA
ENDBRANCH  68  69
ENDBRANCH  47  61
BRANCH  48  73
ATOM     73  C   UNL A   1      43.317  23.212  26.952  1.00  0.00     0.058 A 
ATOM     74  C   UNL A   1      43.235  22.739  25.636  1.00  0.00     0.135 A 
ATOM     75  C   UNL A   1      43.062  22.304  27.993  1.00  0.00     0.135 A 
ATOM     76  F   UNL A   1      43.461  23.572  24.608  1.00  0.00    -0.206 F 
ATOM     77  C   UNL A   1      42.930  21.410  25.359  1.00  0.00     0.059 A 
ATOM     78  C   UNL A   1      42.776  20.967  27.742  1.00  0.00     0.059 A 
ATOM     79  F   UNL A   1      43.143  22.708  29.270  1.00  0.00    -0.206 F 
ATOM     80  C   UNL A   1      42.714  20.528  26.420  1.00  0.00     0.060 A 
BRANCH  80  81
ATOM     81  S   UNL A   1      42.428  18.783  26.056  1.00  0.00     0.124 S 
ATOM     82  O   UNL A   1      41.021  18.790  25.672  1.00  0.00    -0.237 OA
ATOM     83  O   UNL A   1      43.382  18.530  24.980  1.00  0.00    -0.237 OA
ATOM     84  O   UNL A   1      42.734  18.122  27.321  1.00  0.00    -0.744 OA
ENDBRANCH  80  81
ENDBRANCH  48  73
BRANCH  60  85
ATOM     85  C   UNL A   1      49.378  26.668  26.491  1.00  0.00     0.058 A 
ATOM     86  C   UNL A   1      50.199  25.960  27.381  1.00  0.00     0.135 A 
ATOM     87  C   UNL A   1      49.859  26.905  25.193  1.00  0.00     0.135 A 
ATOM     88  F   UNL A   1      49.785  25.716  28.634  1.00  0.00    -0.206 F 
ATOM     89  C   UNL A   1      51.456  25.504  26.999  1.00  0.00     0.059 A 
ATOM     90  C   UNL A   1      51.106  26.443  24.785  1.00  0.00     0.059 A 
ATOM     91  F   UNL A   1      49.106  27.572  24.305  1.00  0.00    -0.206 F 
ATOM     92  C   UNL A   1      51.900  25.747  25.696  1.00  0.00     0.060 A 
BRANCH  92  93
ATOM     93  S   UNL A   1      53.506  25.097  25.189  1.00  0.00     0.124 S 
ATOM     94  O   UNL A   1      53.332  23.667  25.424  1.00  0.00    -0.237 OA
ATOM     95  O   UNL A   1      53.583  25.505  23.790  1.00  0.00    -0.237 OA
ATOM     96  O   UNL A   1      54.442  25.772  26.083  1.00  0.00    -0.744 OA
ENDBRANCH  92  93
ENDBRANCH  60  85
ENDBRANCH  34  35
ENDBRANCH  27  29
ENDBRANCH  26  27
ENDBRANCH  25  26
ENDBRANCH   1  25
TORSDOF 19
ENDMDL
MODEL 3
REMARK VINA RESULT:     -11.2      6.844     12.779
REMARK SMILES O=C(/C=C/c1ccc(O)cc1)NC[C@@H]1CC[C@H](C(=O)OCCOC(=O)c2ccc(-c3c4nc(c(-c5c(F)cc(S(=O)(=O)[O-])cc5F)c5ccc([nH]5)c(-c5c(F)cc(S(=O)(=O)[O-])cc5F)c5nc(c(-c6c(F)cc(S(=O)(=O)[O-])cc6F)c6ccc3[nH]6)C=C5)C=C4)cc2)O1
REMARK SMILES IDX 21 1 20 2 18 3 19 4 17 5 14 6 15 7 92 8 16 9 13 10 12 11
REMARK SMILES IDX 1 12 2 13 3 15 4 16 5 17 6 18 11 19 7 20 10 21 8 22 9 23
REMARK SMILES IDX 22 25 23 26 24 27 25 28 26 29 27 30 91 31 28 32 90 33 29 34
REMARK SMILES IDX 30 35 31 36 84 37 32 38 89 39 83 40 85 41 33 42 88 43 82 44
REMARK SMILES IDX 81 45 34 47 68 48 47 49 67 50 48 51 51 52 66 53 86 54 49 55
REMARK SMILES IDX 50 56 65 58 87 59 52 60 35 61 36 62 45 63 37 64 38 65 44 66
REMARK SMILES IDX 46 67 39 68 40 69 41 70 42 71 43 72 69 73 70 74 79 75 71 76
REMARK SMILES IDX 72 77 78 78 80 79 73 80 74 81 75 82 76 83 77 84 53 85 54 86
REMARK SMILES IDX 63 87 55 88 56 89 62 90 64 91 57 92 58 93 59 94 60 95 61 96
REMARK H PARENT 12 14 9 24 85 46 51 57
REMARK Flexibility Score: inf
ROOT
ATOM      1  C   UNL A   1      44.963  23.757  25.604  1.00  0.00     0.274 C 
ENDROOT
BRANCH   1   2
ATOM      2  O   UNL A   1      44.869  22.397  26.065  1.00  0.00    -0.460 OA
BRANCH   2   3
ATOM      3  C   UNL A   1      45.300  21.441  25.199  1.00  0.00     0.335 C 
ATOM      4  O   UNL A   1      46.472  21.288  24.866  1.00  0.00    -0.249 OA
BRANCH   3   5
ATOM      5  C   UNL A   1      44.166  20.558  24.666  1.00  0.00     0.228 C 
ATOM      6  C   UNL A   1      42.336  19.715  25.827  1.00  0.00     0.138 C 
ATOM      7  C   UNL A   1      43.476  18.726  25.998  1.00  0.00     0.037 C 
ATOM      8  O   UNL A   1      42.929  20.911  25.306  1.00  0.00    -0.361 OA
ATOM      9  C   UNL A   1      44.340  19.053  24.807  1.00  0.00     0.047 C 
BRANCH   6  10
ATOM     10  C   UNL A   1      41.576  20.046  27.109  1.00  0.00     0.148 C 
BRANCH  10  11
ATOM     11  N   UNL A   1      42.411  20.727  28.075  1.00  0.00    -0.350 N 
ATOM     12  O   UNL A   1      41.261  22.715  28.041  1.00  0.00    -0.270 OA
ATOM     13  C   UNL A   1      42.204  22.034  28.420  1.00  0.00     0.244 C 
ATOM     14  H   UNL A   1      43.151  20.234  28.498  1.00  0.00     0.163 HD
BRANCH  13  15
ATOM     15  C   UNL A   1      43.196  22.603  29.362  1.00  0.00     0.072 C 
ATOM     16  C   UNL A   1      43.464  23.914  29.456  1.00  0.00     0.014 C 
BRANCH  16  17
ATOM     17  C   UNL A   1      44.389  24.469  30.451  1.00  0.00    -0.025 A 
ATOM     18  C   UNL A   1      44.426  24.004  31.773  1.00  0.00     0.012 A 
ATOM     19  C   UNL A   1      45.287  25.468  30.055  1.00  0.00     0.012 A 
ATOM     20  C   UNL A   1      45.320  24.554  32.695  1.00  0.00     0.047 A 
ATOM     21  C   UNL A   1      46.182  26.019  30.975  1.00  0.00     0.047 A 
ATOM     22  C   UNL A   1      46.186  25.564  32.287  1.00  0.00     0.115 A 
BRANCH  22  23
ATOM     23  O   UNL A   1      47.066  26.138  33.157  1.00  0.00    -0.508 OA
ATOM     24  H   UNL A   1      47.834  26.565  32.833  1.00  0.00     0.293 HD
ENDBRANCH  22  23
ENDBRANCH  16  17
ENDBRANCH  13  15
ENDBRANCH  10  11
ENDBRANCH   6  10
ENDBRANCH   3   5
ENDBRANCH   2   3
ENDBRANCH   1   2
BRANCH   1  25
ATOM     25  C   UNL A   1      43.612  24.272  25.098  1.00  0.00     0.275 C 
BRANCH  25  26
ATOM     26  O   UNL A   1      42.717  24.603  26.174  1.00  0.00    -0.458 OA
BRANCH  26  27
ATOM     27  C   UNL A   1      42.063  25.781  26.034  1.00  0.00     0.338 C 
ATOM     28  O   UNL A   1      41.539  26.219  25.026  1.00  0.00    -0.246 OA
BRANCH  27  29
ATOM     29  C   UNL A   1      41.942  26.449  27.337  1.00  0.00     0.060 A 
ATOM     30  C   UNL A   1      40.852  26.115  28.144  1.00  0.00     0.016 A 
ATOM     31  C   UNL A   1      42.820  27.465  27.711  1.00  0.00     0.016 A 
ATOM     32  C   UNL A   1      40.613  26.811  29.323  1.00  0.00     0.010 A 
ATOM     33  C   UNL A   1      42.586  28.157  28.902  1.00  0.00     0.010 A 
ATOM     34  C   UNL A   1      41.474  27.844  29.704  1.00  0.00    -0.014 A 
BRANCH  34  35
ATOM     35  C   UNL A   1      41.177  28.639  30.917  1.00  0.00     0.031 A 
ATOM     36  C   UNL A   1      40.045  29.622  30.900  1.00  0.00     0.074 A 
ATOM     37  C   UNL A   1      41.924  28.475  32.022  1.00  0.00     0.049 A 
ATOM     38  N   UNL A   1      39.711  30.512  31.795  1.00  0.00    -0.248 NA
ATOM     39  C   UNL A   1      39.178  29.603  29.711  1.00  0.00     0.031 C 
ATOM     40  C   UNL A   1      43.016  27.511  32.166  1.00  0.00     0.029 A 
ATOM     41  N   UNL A   1      41.890  29.129  33.227  1.00  0.00    -0.354 N 
ATOM     42  C   UNL A   1      38.619  31.188  31.265  1.00  0.00     0.074 A 
ATOM     43  C   UNL A   1      38.348  30.603  29.968  1.00  0.00     0.031 C 
ATOM     44  C   UNL A   1      43.561  27.650  33.385  1.00  0.00     0.029 A 
ATOM     45  C   UNL A   1      42.891  28.744  34.084  1.00  0.00     0.049 A 
ATOM     46  H   UNL A   1      41.214  29.807  33.454  1.00  0.00     0.167 HD
ATOM     47  C   UNL A   1      37.914  32.208  31.811  1.00  0.00     0.037 A 
ATOM     48  C   UNL A   1      43.258  29.248  35.278  1.00  0.00     0.037 A 
ATOM     49  C   UNL A   1      38.186  32.768  33.108  1.00  0.00     0.049 A 
ATOM     50  C   UNL A   1      42.486  30.399  35.854  1.00  0.00     0.074 A 
ATOM     51  C   UNL A   1      37.525  33.792  33.762  1.00  0.00     0.029 A 
ATOM     52  N   UNL A   1      39.207  32.348  33.950  1.00  0.00    -0.354 N 
ATOM     53  N   UNL A   1      41.463  31.041  35.340  1.00  0.00    -0.248 NA
ATOM     54  C   UNL A   1      42.915  30.900  37.166  1.00  0.00     0.031 C 
ATOM     55  C   UNL A   1      38.168  34.014  34.986  1.00  0.00     0.029 A 
ATOM     56  C   UNL A   1      39.206  33.103  35.111  1.00  0.00     0.049 A 
ATOM     57  H   UNL A   1      39.840  31.621  33.751  1.00  0.00     0.167 HD
ATOM     58  C   UNL A   1      41.118  32.014  36.269  1.00  0.00     0.074 A 
ATOM     59  C   UNL A   1      42.037  31.872  37.383  1.00  0.00     0.031 C 
ATOM     60  C   UNL A   1      40.129  32.940  36.208  1.00  0.00     0.037 A 
BRANCH  47  61
ATOM     61  C   UNL A   1      36.820  32.807  30.974  1.00  0.00     0.058 A 
ATOM     62  C   UNL A   1      37.087  33.723  29.944  1.00  0.00     0.135 A 
ATOM     63  C   UNL A   1      35.478  32.479  31.227  1.00  0.00     0.135 A 
ATOM     64  F   UNL A   1      38.352  34.084  29.673  1.00  0.00    -0.206 F 
ATOM     65  C   UNL A   1      36.060  34.328  29.226  1.00  0.00     0.059 A 
ATOM     66  C   UNL A   1      34.436  33.055  30.507  1.00  0.00     0.059 A 
ATOM     67  F   UNL A   1      35.168  31.608  32.201  1.00  0.00    -0.206 F 
ATOM     68  C   UNL A   1      34.738  33.997  29.525  1.00  0.00     0.060 A 
BRANCH  68  69
ATOM     69  S   UNL A   1      33.409  34.825  28.624  1.00  0.00     0.124 S 
ATOM     70  O   UNL A   1      34.130  35.926  27.992  1.00  0.00    -0.237 OA
ATOM     71  O   UNL A   1      32.936  33.778  27.723  1.00  0.00    -0.237 OA
ATOM     72  O   UNL A   1      32.475  35.208  29.678  1.00  0.00    -0.744 OA
ENDBRANCH  68  69
ENDBRANCH  47  61
BRANCH  48  73
ATOM     73  C   UNL A   1      44.433  28.666  35.974  1.00  0.00     0.058 A 
ATOM     74  C   UNL A   1      44.291  27.591  36.860  1.00  0.00     0.135 A 
ATOM     75  C   UNL A   1      45.733  29.123  35.697  1.00  0.00     0.135 A 
ATOM     76  F   UNL A   1      43.069  27.127  37.162  1.00  0.00    -0.206 F 
ATOM     77  C   UNL A   1      45.397  26.975  37.438  1.00  0.00     0.059 A 
ATOM     78  C   UNL A   1      46.854  28.511  36.246  1.00  0.00     0.059 A 
ATOM     79  F   UNL A   1      45.919  30.142  34.844  1.00  0.00    -0.206 F 
ATOM     80  C   UNL A   1      46.676  27.435  37.115  1.00  0.00     0.060 A 
BRANCH  80  81
ATOM     81  S   UNL A   1      48.109  26.561  37.782  1.00  0.00     0.124 S 
ATOM     82  O   UNL A   1      47.779  26.498  39.202  1.00  0.00    -0.237 OA
ATOM     83  O   UNL A   1      48.063  25.294  37.060  1.00  0.00    -0.237 OA
ATOM     84  O   UNL A   1      49.226  27.433  37.431  1.00  0.00    -0.744 OA
ENDBRANCH  80  81
ENDBRANCH  48  73
BRANCH  60  85
ATOM     85  C   UNL A   1      39.968  33.858  37.384  1.00  0.00     0.058 A 
ATOM     86  C   UNL A   1      40.625  35.096  37.444  1.00  0.00     0.135 A 
ATOM     87  C   UNL A   1      39.082  33.530  38.424  1.00  0.00     0.135 A 
ATOM     88  F   UNL A   1      41.486  35.450  36.478  1.00  0.00    -0.206 F 
ATOM     89  C   UNL A   1      40.413  35.978  38.498  1.00  0.00     0.059 A 
ATOM     90  C   UNL A   1      38.842  34.405  39.478  1.00  0.00     0.059 A 
ATOM     91  F   UNL A   1      38.425  32.359  38.407  1.00  0.00    -0.206 F 
ATOM     92  C   UNL A   1      39.516  35.625  39.509  1.00  0.00     0.060 A 
BRANCH  92  93
ATOM     93  S   UNL A   1      39.199  36.802  40.840  1.00  0.00     0.124 S 
ATOM     94  O   UNL A   1      38.400  35.998  41.759  1.00  0.00    -0.237 OA
ATOM     95  O   UNL A   1      40.545  37.134  41.295  1.00  0.00    -0.237 OA
ATOM     96  O   UNL A   1      38.487  37.887  40.172  1.00  0.00    -0.744 OA
ENDBRANCH  92  93
ENDBRANCH  60  85
ENDBRANCH  34  35
ENDBRANCH  27  29
ENDBRANCH  26  27
ENDBRANCH  25  26
ENDBRANCH   1  25
TORSDOF 19
ENDMDL
