MODEL 1
REMARK VINA RESULT:      -9.4      0.000      0.000
REMARK SMILES CC[N@H+](CC(C)(C)C(=O)OCCOC(=O)c1ccc(-c2c3nc(c(-c4c(F)cc(S(=O)(=O)[O-])cc4F)c4ccc([nH]4)c(-c4c(F)cc(S(=O)(=O)[O-])cc4F)c4nc(c(-c5c(F)cc(S(=O)(=O)[O-])cc5F)c5ccc2[nH]5)C=C4)C=C3)cc1)[C@H]1CC[NH2+]C1
REMARK SMILES IDX 11 1 10 2 8 3 9 4 5 5 6 6 7 7 4 8 3 9 2 11 1 12 82 13 83 14
REMARK SMILES IDX 86 15 84 16 85 17 12 20 13 21 14 22 15 23 16 24 17 25 81 26
REMARK SMILES IDX 18 27 80 28 19 29 20 30 21 31 74 32 22 33 79 34 73 35 75 36
REMARK SMILES IDX 23 37 78 38 72 39 71 40 24 42 58 43 37 44 57 45 38 46 41 47
REMARK SMILES IDX 56 48 76 49 39 50 40 51 55 53 77 54 42 55 25 56 26 57 35 58
REMARK SMILES IDX 27 59 28 60 34 61 36 62 29 63 30 64 31 65 32 66 33 67 59 68
REMARK SMILES IDX 60 69 69 70 61 71 62 72 68 73 70 74 63 75 64 76 65 77 66 78
REMARK SMILES IDX 67 79 43 80 44 81 53 82 45 83 46 84 52 85 54 86 47 87 48 88
REMARK SMILES IDX 49 89 50 90 51 91
REMARK H PARENT 3 10 85 18 85 19 75 41 41 52
REMARK Flexibility Score: inf
ROOT
ATOM      1  C   UNL A   1      34.430  32.534  29.504  1.00  0.00     0.274 C 
ENDROOT
BRANCH   1   2
ATOM      2  O   UNL A   1      35.265  33.712  29.608  1.00  0.00    -0.461 OA
BRANCH   2   3
ATOM      3  C   UNL A   1      36.570  33.424  29.852  1.00  0.00     0.317 C 
ATOM      4  O   UNL A   1      37.291  32.963  28.978  1.00  0.00    -0.251 OA
BRANCH   3   5
ATOM      5  C   UNL A   1      37.052  33.732  31.268  1.00  0.00     0.111 C 
ATOM      6  C   UNL A   1      38.439  34.387  31.289  1.00  0.00     0.029 C 
ATOM      7  C   UNL A   1      37.141  32.371  31.997  1.00  0.00     0.029 C 
BRANCH   5   8
ATOM      8  C   UNL A   1      36.004  34.630  32.031  1.00  0.00     0.280 C 
BRANCH   8   9
ATOM      9  N   UNL A   1      34.617  34.178  32.386  1.00  0.00    -0.327 N 
ATOM     10  H   UNL A   1      34.317  33.452  31.736  1.00  0.00     0.348 HD
BRANCH   9  11
ATOM     11  C   UNL A   1      34.556  33.517  33.704  1.00  0.00     0.259 C 
ATOM     12  C   UNL A   1      35.565  33.875  34.788  1.00  0.00     0.071 C 
ENDBRANCH   9  11
BRANCH   9  13
ATOM     13  C   UNL A   1      33.692  35.343  32.249  1.00  0.00     0.245 C 
ATOM     14  C   UNL A   1      34.257  36.615  32.887  1.00  0.00     0.132 C 
ATOM     15  C   UNL A   1      33.193  35.818  30.865  1.00  0.00     0.326 C 
ATOM     16  C   UNL A   1      33.573  37.734  32.121  1.00  0.00     0.267 C 
ATOM     17  N   UNL A   1      33.539  37.240  30.751  1.00  0.00    -0.341 N 
ATOM     18  H   UNL A   1      34.450  37.353  30.307  1.00  0.00     0.346 HD
ATOM     19  H   UNL A   1      32.868  37.752  30.177  1.00  0.00     0.346 HD
ENDBRANCH   9  13
ENDBRANCH   8   9
ENDBRANCH   5   8
ENDBRANCH   3   5
ENDBRANCH   2   3
ENDBRANCH   1   2
BRANCH   1  20
ATOM     20  C   UNL A   1      33.758  32.302  28.131  1.00  0.00     0.275 C 
BRANCH  20  21
ATOM     21  O   UNL A   1      34.434  31.346  27.276  1.00  0.00    -0.458 OA
BRANCH  21  22
ATOM     22  C   UNL A   1      34.535  30.081  27.768  1.00  0.00     0.338 C 
ATOM     23  O   UNL A   1      33.648  29.240  27.747  1.00  0.00    -0.246 OA
BRANCH  22  24
ATOM     24  C   UNL A   1      35.936  29.745  28.155  1.00  0.00     0.060 A 
ATOM     25  C   UNL A   1      36.906  29.856  27.153  1.00  0.00     0.016 A 
ATOM     26  C   UNL A   1      36.326  29.330  29.430  1.00  0.00     0.016 A 
ATOM     27  C   UNL A   1      38.259  29.638  27.433  1.00  0.00     0.010 A 
ATOM     28  C   UNL A   1      37.686  29.059  29.697  1.00  0.00     0.010 A 
ATOM     29  C   UNL A   1      38.674  29.239  28.712  1.00  0.00    -0.014 A 
BRANCH  29  30
ATOM     30  C   UNL A   1      40.128  28.995  28.972  1.00  0.00     0.031 A 
ATOM     31  C   UNL A   1      40.777  27.724  28.491  1.00  0.00     0.074 A 
ATOM     32  C   UNL A   1      40.899  29.933  29.564  1.00  0.00     0.049 A 
ATOM     33  N   UNL A   1      42.018  27.326  28.624  1.00  0.00    -0.248 NA
ATOM     34  C   UNL A   1      39.913  26.768  27.784  1.00  0.00     0.031 C 
ATOM     35  C   UNL A   1      40.422  31.234  30.023  1.00  0.00     0.029 A 
ATOM     36  N   UNL A   1      42.253  29.971  29.818  1.00  0.00    -0.354 N 
ATOM     37  C   UNL A   1      42.068  26.047  28.083  1.00  0.00     0.074 A 
ATOM     38  C   UNL A   1      40.749  25.764  27.558  1.00  0.00     0.031 C 
ATOM     39  C   UNL A   1      41.476  31.983  30.391  1.00  0.00     0.029 A 
ATOM     40  C   UNL A   1      42.700  31.194  30.279  1.00  0.00     0.049 A 
ATOM     41  H   UNL A   1      42.848  29.197  29.684  1.00  0.00     0.167 HD
ATOM     42  C   UNL A   1      43.099  25.167  28.084  1.00  0.00     0.037 A 
ATOM     43  C   UNL A   1      43.947  31.627  30.579  1.00  0.00     0.037 A 
ATOM     44  C   UNL A   1      44.405  25.440  28.630  1.00  0.00     0.049 A 
ATOM     45  C   UNL A   1      45.084  30.631  30.560  1.00  0.00     0.074 A 
ATOM     46  C   UNL A   1      45.486  24.582  28.741  1.00  0.00     0.029 A 
ATOM     47  N   UNL A   1      44.806  26.656  29.166  1.00  0.00    -0.354 N 
ATOM     48  N   UNL A   1      45.098  29.397  30.116  1.00  0.00    -0.248 NA
ATOM     49  C   UNL A   1      46.358  31.063  31.159  1.00  0.00     0.031 C 
ATOM     50  C   UNL A   1      46.519  25.261  29.395  1.00  0.00     0.029 A 
ATOM     51  C   UNL A   1      46.106  26.560  29.639  1.00  0.00     0.049 A 
ATOM     52  H   UNL A   1      44.249  27.466  29.205  1.00  0.00     0.167 HD
ATOM     53  C   UNL A   1      46.360  28.894  30.423  1.00  0.00     0.074 A 
ATOM     54  C   UNL A   1      47.108  29.977  31.026  1.00  0.00     0.031 C 
ATOM     55  C   UNL A   1      46.839  27.636  30.259  1.00  0.00     0.037 A 
BRANCH  42  56
ATOM     56  C   UNL A   1      42.808  23.776  27.591  1.00  0.00     0.058 A 
ATOM     57  C   UNL A   1      42.439  22.732  28.450  1.00  0.00     0.135 A 
ATOM     58  C   UNL A   1      42.920  23.488  26.219  1.00  0.00     0.135 A 
ATOM     59  F   UNL A   1      42.340  22.945  29.772  1.00  0.00    -0.206 F 
ATOM     60  C   UNL A   1      42.229  21.441  27.972  1.00  0.00     0.059 A 
ATOM     61  C   UNL A   1      42.685  22.214  25.716  1.00  0.00     0.059 A 
ATOM     62  F   UNL A   1      43.274  24.450  25.353  1.00  0.00    -0.206 F 
ATOM     63  C   UNL A   1      42.361  21.191  26.604  1.00  0.00     0.060 A 
BRANCH  63  64
ATOM     64  S   UNL A   1      42.120  19.506  26.004  1.00  0.00     0.124 S 
ATOM     65  O   UNL A   1      42.519  18.723  27.170  1.00  0.00    -0.237 OA
ATOM     66  O   UNL A   1      40.696  19.489  25.688  1.00  0.00    -0.237 OA
ATOM     67  O   UNL A   1      43.017  19.420  24.855  1.00  0.00    -0.744 OA
ENDBRANCH  63  64
ENDBRANCH  42  56
BRANCH  43  68
ATOM     68  C   UNL A   1      44.205  33.043  30.990  1.00  0.00     0.058 A 
ATOM     69  C   UNL A   1      44.584  34.015  30.046  1.00  0.00     0.135 A 
ATOM     70  C   UNL A   1      44.119  33.456  32.329  1.00  0.00     0.135 A 
ATOM     71  F   UNL A   1      44.726  33.678  28.755  1.00  0.00    -0.206 F 
ATOM     72  C   UNL A   1      44.864  35.331  30.412  1.00  0.00     0.059 A 
ATOM     73  C   UNL A   1      44.352  34.775  32.713  1.00  0.00     0.059 A 
ATOM     74  F   UNL A   1      43.788  32.577  33.287  1.00  0.00    -0.206 F 
ATOM     75  C   UNL A   1      44.736  35.704  31.750  1.00  0.00     0.060 A 
BRANCH  75  76
ATOM     76  S   UNL A   1      45.039  37.424  32.217  1.00  0.00     0.124 S 
ATOM     77  O   UNL A   1      43.682  37.940  32.347  1.00  0.00    -0.237 OA
ATOM     78  O   UNL A   1      45.789  37.281  33.462  1.00  0.00    -0.237 OA
ATOM     79  O   UNL A   1      45.809  37.945  31.091  1.00  0.00    -0.744 OA
ENDBRANCH  75  76
ENDBRANCH  43  68
BRANCH  55  80
ATOM     80  C   UNL A   1      48.220  27.334  30.782  1.00  0.00     0.058 A 
ATOM     81  C   UNL A   1      48.414  26.866  32.093  1.00  0.00     0.135 A 
ATOM     82  C   UNL A   1      49.346  27.418  29.947  1.00  0.00     0.135 A 
ATOM     83  F   UNL A   1      47.375  26.771  32.938  1.00  0.00    -0.206 F 
ATOM     84  C   UNL A   1      49.673  26.499  32.558  1.00  0.00     0.059 A 
ATOM     85  C   UNL A   1      50.611  27.031  30.383  1.00  0.00     0.059 A 
ATOM     86  F   UNL A   1      49.218  27.850  28.682  1.00  0.00    -0.206 F 
ATOM     87  C   UNL A   1      50.765  26.575  31.692  1.00  0.00     0.060 A 
BRANCH  87  88
ATOM     88  S   UNL A   1      52.380  26.029  32.289  1.00  0.00     0.124 S 
ATOM     89  O   UNL A   1      52.832  27.198  33.035  1.00  0.00    -0.237 OA
ATOM     90  O   UNL A   1      52.035  24.860  33.093  1.00  0.00    -0.237 OA
ATOM     91  O   UNL A   1      53.119  25.743  31.064  1.00  0.00    -0.744 OA
ENDBRANCH  87  88
ENDBRANCH  55  80
ENDBRANCH  29  30
ENDBRANCH  22  24
ENDBRANCH  21  22
ENDBRANCH  20  21
ENDBRANCH   1  20
TORSDOF 18
ENDMDL
MODEL 2
REMARK VINA RESULT:      -9.1      4.956     10.960
REMARK SMILES CC[N@H+](CC(C)(C)C(=O)OCCOC(=O)c1ccc(-c2c3nc(c(-c4c(F)cc(S(=O)(=O)[O-])cc4F)c4ccc([nH]4)c(-c4c(F)cc(S(=O)(=O)[O-])cc4F)c4nc(c(-c5c(F)cc(S(=O)(=O)[O-])cc5F)c5ccc2[nH]5)C=C4)C=C3)cc1)[C@H]1CC[NH2+]C1
REMARK SMILES IDX 11 1 10 2 8 3 9 4 5 5 6 6 7 7 4 8 3 9 2 11 1 12 82 13 83 14
REMARK SMILES IDX 86 15 84 16 85 17 12 20 13 21 14 22 15 23 16 24 17 25 81 26
REMARK SMILES IDX 18 27 80 28 19 29 20 30 21 31 74 32 22 33 79 34 73 35 75 36
REMARK SMILES IDX 23 37 78 38 72 39 71 40 24 42 58 43 37 44 57 45 38 46 41 47
REMARK SMILES IDX 56 48 76 49 39 50 40 51 55 53 77 54 42 55 25 56 26 57 35 58
REMARK SMILES IDX 27 59 28 60 34 61 36 62 29 63 30 64 31 65 32 66 33 67 59 68
REMARK SMILES IDX 60 69 69 70 61 71 62 72 68 73 70 74 63 75 64 76 65 77 66 78
REMARK SMILES IDX 67 79 43 80 44 81 53 82 45 83 46 84 52 85 54 86 47 87 48 88
REMARK SMILES IDX 49 89 50 90 51 91
REMARK H PARENT 3 10 85 18 85 19 75 41 41 52
REMARK Flexibility Score: inf
ROOT
ATOM      1  C   UNL A   1      38.146  21.248  25.363  1.00  0.00     0.274 C 
ENDROOT
BRANCH   1   2
ATOM      2  O   UNL A   1      36.879  21.051  24.691  1.00  0.00    -0.461 OA
BRANCH   2   3
ATOM      3  C   UNL A   1      35.852  21.720  25.277  1.00  0.00     0.317 C 
ATOM      4  O   UNL A   1      35.519  21.488  26.431  1.00  0.00    -0.251 OA
BRANCH   3   5
ATOM      5  C   UNL A   1      35.176  22.773  24.401  1.00  0.00     0.111 C 
ATOM      6  C   UNL A   1      35.928  23.015  23.086  1.00  0.00     0.029 C 
ATOM      7  C   UNL A   1      35.185  24.085  25.220  1.00  0.00     0.029 C 
BRANCH   5   8
ATOM      8  C   UNL A   1      33.675  22.382  24.117  1.00  0.00     0.280 C 
BRANCH   8   9
ATOM      9  N   UNL A   1      32.717  21.920  25.176  1.00  0.00    -0.327 N 
ATOM     10  H   UNL A   1      33.192  21.889  26.078  1.00  0.00     0.348 HD
BRANCH   9  11
ATOM     11  C   UNL A   1      31.611  22.872  25.394  1.00  0.00     0.259 C 
ATOM     12  C   UNL A   1      31.291  23.367  26.799  1.00  0.00     0.071 C 
ENDBRANCH   9  11
BRANCH   9  13
ATOM     13  C   UNL A   1      32.267  20.536  24.834  1.00  0.00     0.245 C 
ATOM     14  C   UNL A   1      32.373  20.243  23.335  1.00  0.00     0.132 C 
ATOM     15  C   UNL A   1      32.905  19.294  25.496  1.00  0.00     0.326 C 
ATOM     16  C   UNL A   1      32.523  18.733  23.275  1.00  0.00     0.267 C 
ATOM     17  N   UNL A   1      33.384  18.429  24.410  1.00  0.00    -0.341 N 
ATOM     18  H   UNL A   1      34.357  18.639  24.188  1.00  0.00     0.346 HD
ATOM     19  H   UNL A   1      33.348  17.442  24.664  1.00  0.00     0.346 HD
ENDBRANCH   9  13
ENDBRANCH   8   9
ENDBRANCH   5   8
ENDBRANCH   3   5
ENDBRANCH   2   3
ENDBRANCH   1   2
BRANCH   1  20
ATOM     20  C   UNL A   1      39.039  19.993  25.501  1.00  0.00     0.275 C 
BRANCH  20  21
ATOM     21  O   UNL A   1      39.961  20.020  26.620  1.00  0.00    -0.458 OA
BRANCH  21  22
ATOM     22  C   UNL A   1      41.283  19.966  26.299  1.00  0.00     0.338 C 
ATOM     23  O   UNL A   1      41.819  19.075  25.657  1.00  0.00    -0.246 OA
BRANCH  22  24
ATOM     24  C   UNL A   1      41.989  21.236  26.635  1.00  0.00     0.060 A 
ATOM     25  C   UNL A   1      42.117  22.174  25.605  1.00  0.00     0.016 A 
ATOM     26  C   UNL A   1      42.525  21.534  27.889  1.00  0.00     0.016 A 
ATOM     27  C   UNL A   1      42.694  23.426  25.837  1.00  0.00     0.010 A 
ATOM     28  C   UNL A   1      43.155  22.779  28.109  1.00  0.00     0.010 A 
ATOM     29  C   UNL A   1      43.221  23.752  27.095  1.00  0.00    -0.014 A 
BRANCH  29  30
ATOM     30  C   UNL A   1      43.850  25.095  27.304  1.00  0.00     0.031 A 
ATOM     31  C   UNL A   1      43.100  26.172  28.042  1.00  0.00     0.074 A 
ATOM     32  C   UNL A   1      45.120  25.340  26.913  1.00  0.00     0.049 A 
ATOM     33  N   UNL A   1      43.470  27.398  28.317  1.00  0.00    -0.248 NA
ATOM     34  C   UNL A   1      41.751  25.832  28.515  1.00  0.00     0.031 C 
ATOM     35  C   UNL A   1      45.987  24.374  26.246  1.00  0.00     0.029 A 
ATOM     36  N   UNL A   1      45.926  26.446  27.079  1.00  0.00    -0.354 N 
ATOM     37  C   UNL A   1      42.376  27.997  28.931  1.00  0.00     0.074 A 
ATOM     38  C   UNL A   1      41.354  26.978  29.050  1.00  0.00     0.031 C 
ATOM     39  C   UNL A   1      47.229  24.881  26.166  1.00  0.00     0.029 A 
ATOM     40  C   UNL A   1      47.238  26.243  26.695  1.00  0.00     0.049 A 
ATOM     41  H   UNL A   1      45.598  27.303  27.437  1.00  0.00     0.167 HD
ATOM     42  C   UNL A   1      42.216  29.292  29.301  1.00  0.00     0.037 A 
ATOM     43  C   UNL A   1      48.317  27.057  26.759  1.00  0.00     0.037 A 
ATOM     44  C   UNL A   1      43.224  30.312  29.159  1.00  0.00     0.049 A 
ATOM     45  C   UNL A   1      48.117  28.493  27.187  1.00  0.00     0.074 A 
ATOM     46  C   UNL A   1      43.123  31.664  29.437  1.00  0.00     0.029 A 
ATOM     47  N   UNL A   1      44.513  30.098  28.690  1.00  0.00    -0.354 N 
ATOM     48  N   UNL A   1      47.052  29.067  27.694  1.00  0.00    -0.248 NA
ATOM     49  C   UNL A   1      49.245  29.415  26.974  1.00  0.00     0.031 C 
ATOM     50  C   UNL A   1      44.330  32.277  29.083  1.00  0.00     0.029 A 
ATOM     51  C   UNL A   1      45.205  31.299  28.641  1.00  0.00     0.049 A 
ATOM     52  H   UNL A   1      44.881  29.223  28.431  1.00  0.00     0.167 HD
ATOM     53  C   UNL A   1      47.367  30.417  27.818  1.00  0.00     0.074 A 
ATOM     54  C   UNL A   1      48.745  30.567  27.400  1.00  0.00     0.031 C 
ATOM     55  C   UNL A   1      46.571  31.446  28.203  1.00  0.00     0.037 A 
BRANCH  42  56
ATOM     56  C   UNL A   1      40.848  29.701  29.773  1.00  0.00     0.058 A 
ATOM     57  C   UNL A   1      40.558  29.955  31.121  1.00  0.00     0.135 A 
ATOM     58  C   UNL A   1      39.800  29.824  28.842  1.00  0.00     0.135 A 
ATOM     59  F   UNL A   1      41.514  29.830  32.055  1.00  0.00    -0.206 F 
ATOM     60  C   UNL A   1      39.269  30.279  31.536  1.00  0.00     0.059 A 
ATOM     61  C   UNL A   1      38.513  30.175  29.231  1.00  0.00     0.059 A 
ATOM     62  F   UNL A   1      40.022  29.588  27.540  1.00  0.00    -0.206 F 
ATOM     63  C   UNL A   1      38.252  30.380  30.583  1.00  0.00     0.060 A 
BRANCH  63  64
ATOM     64  S   UNL A   1      36.579  30.766  31.140  1.00  0.00     0.124 S 
ATOM     65  O   UNL A   1      36.001  29.432  31.271  1.00  0.00    -0.237 OA
ATOM     66  O   UNL A   1      36.823  31.476  32.391  1.00  0.00    -0.237 OA
ATOM     67  O   UNL A   1      36.037  31.580  30.055  1.00  0.00    -0.744 OA
ENDBRANCH  63  64
ENDBRANCH  42  56
BRANCH  43  68
ATOM     68  C   UNL A   1      49.677  26.584  26.352  1.00  0.00     0.058 A 
ATOM     69  C   UNL A   1      50.122  26.709  25.024  1.00  0.00     0.135 A 
ATOM     70  C   UNL A   1      50.551  25.964  27.260  1.00  0.00     0.135 A 
ATOM     71  F   UNL A   1      49.321  27.254  24.095  1.00  0.00    -0.206 F 
ATOM     72  C   UNL A   1      51.371  26.242  24.615  1.00  0.00     0.059 A 
ATOM     73  C   UNL A   1      51.820  25.528  26.885  1.00  0.00     0.059 A 
ATOM     74  F   UNL A   1      50.183  25.788  28.538  1.00  0.00    -0.206 F 
ATOM     75  C   UNL A   1      52.218  25.660  25.557  1.00  0.00     0.060 A 
BRANCH  75  76
ATOM     76  S   UNL A   1      53.862  25.110  25.044  1.00  0.00     0.124 S 
ATOM     77  O   UNL A   1      53.648  23.682  24.845  1.00  0.00    -0.237 OA
ATOM     78  O   UNL A   1      54.089  25.895  23.834  1.00  0.00    -0.237 OA
ATOM     79  O   UNL A   1      54.704  25.471  26.181  1.00  0.00    -0.744 OA
ENDBRANCH  75  76
ENDBRANCH  43  68
BRANCH  55  80
ATOM     80  C   UNL A   1      47.143  32.839  28.143  1.00  0.00     0.058 A 
ATOM     81  C   UNL A   1      47.938  33.344  29.185  1.00  0.00     0.135 A 
ATOM     82  C   UNL A   1      46.979  33.641  27.001  1.00  0.00     0.135 A 
ATOM     83  F   UNL A   1      48.124  32.624  30.303  1.00  0.00    -0.206 F 
ATOM     84  C   UNL A   1      48.545  34.593  29.101  1.00  0.00     0.059 A 
ATOM     85  C   UNL A   1      47.598  34.883  26.884  1.00  0.00     0.059 A 
ATOM     86  F   UNL A   1      46.237  33.205  25.970  1.00  0.00    -0.206 F 
ATOM     87  C   UNL A   1      48.378  35.353  27.942  1.00  0.00     0.060 A 
BRANCH  87  88
ATOM     88  S   UNL A   1      49.228  36.942  27.820  1.00  0.00     0.124 S 
ATOM     89  O   UNL A   1      48.108  37.871  27.721  1.00  0.00    -0.237 OA
ATOM     90  O   UNL A   1      49.980  36.988  29.070  1.00  0.00    -0.237 OA
ATOM     91  O   UNL A   1      50.038  36.805  26.613  1.00  0.00    -0.744 OA
ENDBRANCH  87  88
ENDBRANCH  55  80
ENDBRANCH  29  30
ENDBRANCH  22  24
ENDBRANCH  21  22
ENDBRANCH  20  21
ENDBRANCH   1  20
TORSDOF 18
ENDMDL
MODEL 3
REMARK VINA RESULT:      -9.0      5.611     11.296
REMARK SMILES CC[N@H+](CC(C)(C)C(=O)OCCOC(=O)c1ccc(-c2c3nc(c(-c4c(F)cc(S(=O)(=O)[O-])cc4F)c4ccc([nH]4)c(-c4c(F)cc(S(=O)(=O)[O-])cc4F)c4nc(c(-c5c(F)cc(S(=O)(=O)[O-])cc5F)c5ccc2[nH]5)C=C4)C=C3)cc1)[C@H]1CC[NH2+]C1
REMARK SMILES IDX 11 1 10 2 8 3 9 4 5 5 6 6 7 7 4 8 3 9 2 11 1 12 82 13 83 14
REMARK SMILES IDX 86 15 84 16 85 17 12 20 13 21 14 22 15 23 16 24 17 25 81 26
REMARK SMILES IDX 18 27 80 28 19 29 20 30 21 31 74 32 22 33 79 34 73 35 75 36
REMARK SMILES IDX 23 37 78 38 72 39 71 40 24 42 58 43 37 44 57 45 38 46 41 47
REMARK SMILES IDX 56 48 76 49 39 50 40 51 55 53 77 54 42 55 25 56 26 57 35 58
REMARK SMILES IDX 27 59 28 60 34 61 36 62 29 63 30 64 31 65 32 66 33 67 59 68
REMARK SMILES IDX 60 69 69 70 61 71 62 72 68 73 70 74 63 75 64 76 65 77 66 78
REMARK SMILES IDX 67 79 43 80 44 81 53 82 45 83 46 84 52 85 54 86 47 87 48 88
REMARK SMILES IDX 49 89 50 90 51 91
REMARK H PARENT 3 10 85 18 85 19 75 41 41 52
REMARK Flexibility Score: inf
ROOT
ATOM      1  C   UNL A   1      37.675  22.188  25.174  1.00  0.00     0.274 C 
ENDROOT
BRANCH   1   2
ATOM      2  O   UNL A   1      36.317  22.371  25.644  1.00  0.00    -0.461 OA
BRANCH   2   3
ATOM      3  C   UNL A   1      35.502  21.325  25.350  1.00  0.00     0.317 C 
ATOM      4  O   UNL A   1      35.958  20.245  24.998  1.00  0.00    -0.251 OA
BRANCH   3   5
ATOM      5  C   UNL A   1      34.008  21.598  25.509  1.00  0.00     0.111 C 
ATOM      6  C   UNL A   1      33.432  20.995  26.796  1.00  0.00     0.029 C 
ATOM      7  C   UNL A   1      33.317  20.925  24.300  1.00  0.00     0.029 C 
BRANCH   5   8
ATOM      8  C   UNL A   1      33.714  23.146  25.443  1.00  0.00     0.280 C 
BRANCH   8   9
ATOM      9  N   UNL A   1      32.796  23.781  24.439  1.00  0.00    -0.327 N 
ATOM     10  H   UNL A   1      32.461  23.073  23.785  1.00  0.00     0.348 HD
BRANCH   9  11
ATOM     11  C   UNL A   1      31.560  24.304  25.053  1.00  0.00     0.259 C 
ATOM     12  C   UNL A   1      30.763  23.443  26.025  1.00  0.00     0.071 C 
ENDBRANCH   9  11
BRANCH   9  13
ATOM     13  C   UNL A   1      33.570  24.802  23.671  1.00  0.00     0.245 C 
ATOM     14  C   UNL A   1      33.004  25.027  22.267  1.00  0.00     0.132 C 
ATOM     15  C   UNL A   1      33.780  26.233  24.215  1.00  0.00     0.326 C 
ATOM     16  C   UNL A   1      33.439  26.442  21.928  1.00  0.00     0.267 C 
ATOM     17  N   UNL A   1      33.286  27.158  23.188  1.00  0.00    -0.341 N 
ATOM     18  H   UNL A   1      32.307  27.388  23.353  1.00  0.00     0.346 HD
ATOM     19  H   UNL A   1      33.798  28.040  23.190  1.00  0.00     0.346 HD
ENDBRANCH   9  13
ENDBRANCH   8   9
ENDBRANCH   5   8
ENDBRANCH   3   5
ENDBRANCH   2   3
ENDBRANCH   1   2
BRANCH   1  20
ATOM     20  C   UNL A   1      38.792  22.543  26.183  1.00  0.00     0.275 C 
BRANCH  20  21
ATOM     21  O   UNL A   1      39.070  23.960  26.310  1.00  0.00    -0.458 OA
BRANCH  21  22
ATOM     22  C   UNL A   1      40.333  24.281  26.706  1.00  0.00     0.338 C 
ATOM     23  O   UNL A   1      41.362  23.841  26.216  1.00  0.00    -0.246 OA
BRANCH  22  24
ATOM     24  C   UNL A   1      40.339  25.412  27.679  1.00  0.00     0.060 A 
ATOM     25  C   UNL A   1      39.352  25.390  28.671  1.00  0.00     0.016 A 
ATOM     26  C   UNL A   1      41.249  26.470  27.655  1.00  0.00     0.016 A 
ATOM     27  C   UNL A   1      39.319  26.361  29.677  1.00  0.00     0.010 A 
ATOM     28  C   UNL A   1      41.181  27.481  28.641  1.00  0.00     0.010 A 
ATOM     29  C   UNL A   1      40.236  27.423  29.681  1.00  0.00    -0.014 A 
BRANCH  29  30
ATOM     30  C   UNL A   1      40.160  28.457  30.761  1.00  0.00     0.031 A 
ATOM     31  C   UNL A   1      41.245  28.541  31.803  1.00  0.00     0.074 A 
ATOM     32  C   UNL A   1      39.173  29.379  30.777  1.00  0.00     0.049 A 
ATOM     33  N   UNL A   1      41.355  29.359  32.819  1.00  0.00    -0.248 NA
ATOM     34  C   UNL A   1      42.337  27.564  31.698  1.00  0.00     0.031 C 
ATOM     35  C   UNL A   1      38.093  29.461  29.798  1.00  0.00     0.029 A 
ATOM     36  N   UNL A   1      38.953  30.463  31.601  1.00  0.00    -0.354 N 
ATOM     37  C   UNL A   1      42.487  28.952  33.514  1.00  0.00     0.074 A 
ATOM     38  C   UNL A   1      43.067  27.857  32.764  1.00  0.00     0.031 C 
ATOM     39  C   UNL A   1      37.399  30.593  30.003  1.00  0.00     0.029 A 
ATOM     40  C   UNL A   1      37.924  31.283  31.180  1.00  0.00     0.049 A 
ATOM     41  H   UNL A   1      39.480  30.637  32.414  1.00  0.00     0.167 HD
ATOM     42  C   UNL A   1      42.961  29.405  34.701  1.00  0.00     0.037 A 
ATOM     43  C   UNL A   1      37.456  32.449  31.684  1.00  0.00     0.037 A 
ATOM     44  C   UNL A   1      42.368  30.477  35.461  1.00  0.00     0.049 A 
ATOM     45  C   UNL A   1      38.009  32.942  33.002  1.00  0.00     0.074 A 
ATOM     46  C   UNL A   1      42.737  30.953  36.708  1.00  0.00     0.029 A 
ATOM     47  N   UNL A   1      41.279  31.234  35.054  1.00  0.00    -0.354 N 
ATOM     48  N   UNL A   1      39.034  32.499  33.689  1.00  0.00    -0.248 NA
ATOM     49  C   UNL A   1      37.287  34.047  33.655  1.00  0.00     0.031 C 
ATOM     50  C   UNL A   1      41.836  31.956  37.080  1.00  0.00     0.029 A 
ATOM     51  C   UNL A   1      40.942  32.149  36.040  1.00  0.00     0.049 A 
ATOM     52  H   UNL A   1      40.814  31.135  34.192  1.00  0.00     0.167 HD
ATOM     53  C   UNL A   1      39.052  33.238  34.869  1.00  0.00     0.074 A 
ATOM     54  C   UNL A   1      37.979  34.205  34.775  1.00  0.00     0.031 C 
ATOM     55  C   UNL A   1      39.858  33.097  35.950  1.00  0.00     0.037 A 
BRANCH  42  56
ATOM     56  C   UNL A   1      44.107  28.646  35.312  1.00  0.00     0.058 A 
ATOM     57  C   UNL A   1      45.448  28.986  35.079  1.00  0.00     0.135 A 
ATOM     58  C   UNL A   1      43.845  27.539  36.139  1.00  0.00     0.135 A 
ATOM     59  F   UNL A   1      45.756  30.018  34.279  1.00  0.00    -0.206 F 
ATOM     60  C   UNL A   1      46.489  28.231  35.614  1.00  0.00     0.059 A 
ATOM     61  C   UNL A   1      44.868  26.791  36.707  1.00  0.00     0.059 A 
ATOM     62  F   UNL A   1      42.580  27.169  36.391  1.00  0.00    -0.206 F 
ATOM     63  C   UNL A   1      46.188  27.131  36.421  1.00  0.00     0.060 A 
BRANCH  63  64
ATOM     64  S   UNL A   1      47.547  26.142  37.079  1.00  0.00     0.124 S 
ATOM     65  O   UNL A   1      46.896  24.852  37.281  1.00  0.00    -0.237 OA
ATOM     66  O   UNL A   1      48.524  26.195  35.996  1.00  0.00    -0.237 OA
ATOM     67  O   UNL A   1      47.927  26.851  38.298  1.00  0.00    -0.744 OA
ENDBRANCH  63  64
ENDBRANCH  42  56
BRANCH  43  68
ATOM     68  C   UNL A   1      36.365  33.213  31.001  1.00  0.00     0.058 A 
ATOM     69  C   UNL A   1      36.633  34.000  29.866  1.00  0.00     0.135 A 
ATOM     70  C   UNL A   1      35.045  33.214  31.478  1.00  0.00     0.135 A 
ATOM     71  F   UNL A   1      37.882  34.078  29.381  1.00  0.00    -0.206 F 
ATOM     72  C   UNL A   1      35.640  34.750  29.235  1.00  0.00     0.059 A 
ATOM     73  C   UNL A   1      34.027  33.921  30.841  1.00  0.00     0.059 A 
ATOM     74  F   UNL A   1      34.723  32.507  32.573  1.00  0.00    -0.206 F 
ATOM     75  C   UNL A   1      34.336  34.696  29.726  1.00  0.00     0.060 A 
BRANCH  75  76
ATOM     76  S   UNL A   1      33.035  35.618  28.874  1.00  0.00     0.124 S 
ATOM     77  O   UNL A   1      33.810  36.588  28.111  1.00  0.00    -0.237 OA
ATOM     78  O   UNL A   1      32.374  34.575  28.095  1.00  0.00    -0.237 OA
ATOM     79  O   UNL A   1      32.241  36.165  29.971  1.00  0.00    -0.744 OA
ENDBRANCH  75  76
ENDBRANCH  43  68
BRANCH  55  80
ATOM     80  C   UNL A   1      39.588  33.969  37.149  1.00  0.00     0.058 A 
ATOM     81  C   UNL A   1      38.745  33.537  38.187  1.00  0.00     0.135 A 
ATOM     82  C   UNL A   1      40.245  35.200  37.313  1.00  0.00     0.135 A 
ATOM     83  F   UNL A   1      38.087  32.371  38.083  1.00  0.00    -0.206 F 
ATOM     84  C   UNL A   1      38.560  34.294  39.340  1.00  0.00     0.059 A 
ATOM     85  C   UNL A   1      40.094  35.961  38.469  1.00  0.00     0.059 A 
ATOM     86  F   UNL A   1      41.068  35.658  36.357  1.00  0.00    -0.206 F 
ATOM     87  C   UNL A   1      39.246  35.501  39.477  1.00  0.00     0.060 A 
BRANCH  87  88
ATOM     88  S   UNL A   1      39.048  36.438  41.008  1.00  0.00     0.124 S 
ATOM     89  O   UNL A   1      38.660  37.751  40.505  1.00  0.00    -0.237 OA
ATOM     90  O   UNL A   1      38.000  35.690  41.697  1.00  0.00    -0.237 OA
ATOM     91  O   UNL A   1      40.368  36.368  41.626  1.00  0.00    -0.744 OA
ENDBRANCH  87  88
ENDBRANCH  55  80
ENDBRANCH  29  30
ENDBRANCH  22  24
ENDBRANCH  21  22
ENDBRANCH  20  21
ENDBRANCH   1  20
TORSDOF 18
ENDMDL
