MODEL 1
REMARK VINA RESULT:     -12.1      0.000      0.000
REMARK SMILES O=C(COc1ccccc1/C=C1\C(=O)Nc2ccccc21)OCCOC(=O)c1ccc(-c2c3nc(c(-c4c(F)cc(S(=O)(=O)[O-])cc4F)c4ccc([nH]4)c(-c4c(F)cc(S(=O)(=O)[O-])cc4F)c4nc(c(-c5c(F)cc(S(=O)(=O)[O-])cc5F)c5ccc2[nH]5)C=C4)C=C3)cc1
REMARK SMILES IDX 23 1 22 2 2 3 1 4 3 5 4 6 5 7 6 8 10 9 7 10 9 11 8 12 11 13
REMARK SMILES IDX 12 14 13 15 21 16 14 17 15 18 16 19 20 20 17 22 19 23 18 24
REMARK SMILES IDX 24 25 25 26 26 27 27 28 28 29 29 30 93 31 30 32 92 33 31 34
REMARK SMILES IDX 32 35 33 36 86 37 34 38 91 39 85 40 87 41 35 42 90 43 84 44
REMARK SMILES IDX 83 45 36 47 70 48 49 49 69 50 50 51 53 52 68 53 88 54 51 55
REMARK SMILES IDX 52 56 67 58 89 59 54 60 37 61 38 62 47 63 39 64 40 65 46 66
REMARK SMILES IDX 48 67 41 68 42 69 43 70 44 71 45 72 71 73 72 74 81 75 73 76
REMARK SMILES IDX 74 77 80 78 82 79 75 80 76 81 77 82 78 83 79 84 55 85 56 86
REMARK SMILES IDX 65 87 57 88 58 89 64 90 66 91 59 92 60 93 61 94 62 95 63 96
REMARK H PARENT 15 21 87 46 53 57
REMARK Flexibility Score: inf
ROOT
ATOM      1  C   UNL A   1      37.977  21.768  25.388  1.00  0.00     0.274 C 
ENDROOT
BRANCH   1   2
ATOM      2  O   UNL A   1      37.366  23.064  25.201  1.00  0.00    -0.460 OA
BRANCH   2   3
ATOM      3  C   UNL A   1      36.299  23.283  24.388  1.00  0.00     0.344 C 
ATOM      4  O   UNL A   1      36.153  22.618  23.363  1.00  0.00    -0.248 OA
BRANCH   3   5
ATOM      5  C   UNL A   1      35.278  24.318  24.812  1.00  0.00     0.352 C 
BRANCH   5   6
ATOM      6  O   UNL A   1      34.159  24.203  23.942  1.00  0.00    -0.481 OA
BRANCH   6   7
ATOM      7  C   UNL A   1      32.994  24.480  24.599  1.00  0.00     0.127 A 
ATOM      8  C   UNL A   1      32.836  25.780  25.099  1.00  0.00     0.047 A 
ATOM      9  C   UNL A   1      32.050  23.468  24.846  1.00  0.00     0.017 A 
ATOM     10  C   UNL A   1      31.734  26.085  25.888  1.00  0.00     0.004 A 
ATOM     11  C   UNL A   1      31.039  23.770  25.765  1.00  0.00     0.012 A 
ATOM     12  C   UNL A   1      30.856  25.070  26.250  1.00  0.00     0.001 A 
BRANCH   9  13
ATOM     13  C   UNL A   1      32.109  22.147  24.165  1.00  0.00     0.026 C 
ATOM     14  C   UNL A   1      32.827  21.071  24.555  1.00  0.00     0.050 C 
ATOM     15  C   UNL A   1      33.773  20.988  25.738  1.00  0.00     0.256 C 
ATOM     16  C   UNL A   1      32.917  19.755  23.883  1.00  0.00     0.011 A 
ATOM     17  O   UNL A   1      33.937  21.757  26.668  1.00  0.00    -0.269 OA
ATOM     18  N   UNL A   1      34.460  19.804  25.578  1.00  0.00    -0.321 N 
ATOM     19  C   UNL A   1      33.955  19.064  24.524  1.00  0.00     0.049 A 
ATOM     20  C   UNL A   1      32.199  19.114  22.889  1.00  0.00     0.011 A 
ATOM     21  H   UNL A   1      35.216  19.520  26.143  1.00  0.00     0.170 HD
ATOM     22  C   UNL A   1      34.353  17.786  24.184  1.00  0.00     0.027 A 
ATOM     23  C   UNL A   1      32.565  17.799  22.542  1.00  0.00     0.001 A 
ATOM     24  C   UNL A   1      33.640  17.147  23.173  1.00  0.00     0.002 A 
ENDBRANCH   9  13
ENDBRANCH   6   7
ENDBRANCH   5   6
ENDBRANCH   3   5
ENDBRANCH   2   3
ENDBRANCH   1   2
BRANCH   1  25
ATOM     25  C   UNL A   1      39.306  21.891  26.135  1.00  0.00     0.275 C 
BRANCH  25  26
ATOM     26  O   UNL A   1      39.481  23.225  26.641  1.00  0.00    -0.458 OA
BRANCH  26  27
ATOM     27  C   UNL A   1      40.765  23.653  26.773  1.00  0.00     0.338 C 
ATOM     28  O   UNL A   1      41.744  23.216  26.201  1.00  0.00    -0.246 OA
BRANCH  27  29
ATOM     29  C   UNL A   1      40.744  24.885  27.589  1.00  0.00     0.060 A 
ATOM     30  C   UNL A   1      41.860  25.733  27.584  1.00  0.00     0.016 A 
ATOM     31  C   UNL A   1      39.609  25.212  28.332  1.00  0.00     0.016 A 
ATOM     32  C   UNL A   1      41.840  26.918  28.327  1.00  0.00     0.010 A 
ATOM     33  C   UNL A   1      39.599  26.383  29.088  1.00  0.00     0.010 A 
ATOM     34  C   UNL A   1      40.720  27.233  29.106  1.00  0.00    -0.014 A 
BRANCH  34  35
ATOM     35  C   UNL A   1      40.751  28.338  30.094  1.00  0.00     0.031 A 
ATOM     36  C   UNL A   1      41.696  28.217  31.256  1.00  0.00     0.074 A 
ATOM     37  C   UNL A   1      39.903  29.377  30.016  1.00  0.00     0.049 A 
ATOM     38  N   UNL A   1      41.780  28.944  32.338  1.00  0.00    -0.248 NA
ATOM     39  C   UNL A   1      42.662  27.109  31.192  1.00  0.00     0.031 C 
ATOM     40  C   UNL A   1      38.961  29.620  28.925  1.00  0.00     0.029 A 
ATOM     41  N   UNL A   1      39.672  30.404  30.899  1.00  0.00    -0.354 N 
ATOM     42  C   UNL A   1      42.791  28.367  33.097  1.00  0.00     0.074 A 
ATOM     43  C   UNL A   1      43.272  27.219  32.361  1.00  0.00     0.031 C 
ATOM     44  C   UNL A   1      38.223  30.704  29.225  1.00  0.00     0.029 A 
ATOM     45  C   UNL A   1      38.613  31.205  30.544  1.00  0.00     0.049 A 
ATOM     46  H   UNL A   1      40.213  30.552  31.708  1.00  0.00     0.167 HD
ATOM     47  C   UNL A   1      43.272  28.760  34.301  1.00  0.00     0.037 A 
ATOM     48  C   UNL A   1      38.000  32.197  31.223  1.00  0.00     0.037 A 
ATOM     49  C   UNL A   1      42.776  29.896  35.030  1.00  0.00     0.049 A 
ATOM     50  C   UNL A   1      38.510  32.589  32.587  1.00  0.00     0.074 A 
ATOM     51  C   UNL A   1      43.218  30.399  36.240  1.00  0.00     0.029 A 
ATOM     52  N   UNL A   1      41.714  30.694  34.629  1.00  0.00    -0.354 N 
ATOM     53  N   UNL A   1      39.493  32.067  33.282  1.00  0.00    -0.248 NA
ATOM     54  C   UNL A   1      37.830  33.706  33.262  1.00  0.00     0.031 C 
ATOM     55  C   UNL A   1      42.379  31.457  36.605  1.00  0.00     0.029 A 
ATOM     56  C   UNL A   1      41.462  31.664  35.586  1.00  0.00     0.049 A 
ATOM     57  H   UNL A   1      41.212  30.588  33.789  1.00  0.00     0.167 HD
ATOM     58  C   UNL A   1      39.571  32.808  34.458  1.00  0.00     0.074 A 
ATOM     59  C   UNL A   1      38.533  33.815  34.383  1.00  0.00     0.031 C 
ATOM     60  C   UNL A   1      40.432  32.672  35.498  1.00  0.00     0.037 A 
BRANCH  47  61
ATOM     61  C   UNL A   1      44.349  27.913  34.921  1.00  0.00     0.058 A 
ATOM     62  C   UNL A   1      44.068  26.944  35.899  1.00  0.00     0.135 A 
ATOM     63  C   UNL A   1      45.689  28.085  34.540  1.00  0.00     0.135 A 
ATOM     64  F   UNL A   1      42.805  26.747  36.313  1.00  0.00    -0.206 F 
ATOM     65  C   UNL A   1      45.081  26.215  36.512  1.00  0.00     0.059 A 
ATOM     66  C   UNL A   1      46.715  27.342  35.113  1.00  0.00     0.059 A 
ATOM     67  F   UNL A   1      46.017  28.996  33.609  1.00  0.00    -0.206 F 
ATOM     68  C   UNL A   1      46.403  26.426  36.118  1.00  0.00     0.060 A 
BRANCH  68  69
ATOM     69  S   UNL A   1      47.710  25.502  36.949  1.00  0.00     0.124 S 
ATOM     70  O   UNL A   1      46.947  24.441  37.599  1.00  0.00    -0.237 OA
ATOM     71  O   UNL A   1      48.554  25.084  35.834  1.00  0.00    -0.237 OA
ATOM     72  O   UNL A   1      48.305  26.485  37.848  1.00  0.00    -0.744 OA
ENDBRANCH  68  69
ENDBRANCH  47  61
BRANCH  48  73
ATOM     73  C   UNL A   1      36.815  32.869  30.623  1.00  0.00     0.058 A 
ATOM     74  C   UNL A   1      35.511  32.557  31.035  1.00  0.00     0.135 A 
ATOM     75  C   UNL A   1      36.968  33.870  29.649  1.00  0.00     0.135 A 
ATOM     76  F   UNL A   1      35.309  31.594  31.948  1.00  0.00    -0.206 F 
ATOM     77  C   UNL A   1      34.404  33.217  30.513  1.00  0.00     0.059 A 
ATOM     78  C   UNL A   1      35.879  34.561  29.130  1.00  0.00     0.059 A 
ATOM     79  F   UNL A   1      38.195  34.210  29.222  1.00  0.00    -0.206 F 
ATOM     80  C   UNL A   1      34.598  34.228  29.570  1.00  0.00     0.060 A 
BRANCH  80  81
ATOM     81  S   UNL A   1      33.162  35.142  28.969  1.00  0.00     0.124 S 
ATOM     82  O   UNL A   1      32.423  35.377  30.204  1.00  0.00    -0.237 OA
ATOM     83  O   UNL A   1      33.780  36.317  28.362  1.00  0.00    -0.237 OA
ATOM     84  O   UNL A   1      32.539  34.214  28.029  1.00  0.00    -0.744 OA
ENDBRANCH  80  81
ENDBRANCH  48  73
BRANCH  60  85
ATOM     85  C   UNL A   1      40.340  33.656  36.635  1.00  0.00     0.058 A 
ATOM     86  C   UNL A   1      41.083  34.846  36.654  1.00  0.00     0.135 A 
ATOM     87  C   UNL A   1      39.405  33.453  37.665  1.00  0.00     0.135 A 
ATOM     88  F   UNL A   1      41.997  35.088  35.700  1.00  0.00    -0.206 F 
ATOM     89  C   UNL A   1      40.901  35.800  37.651  1.00  0.00     0.059 A 
ATOM     90  C   UNL A   1      39.186  34.406  38.654  1.00  0.00     0.059 A 
ATOM     91  F   UNL A   1      38.661  32.337  37.691  1.00  0.00    -0.206 F 
ATOM     92  C   UNL A   1      39.941  35.577  38.640  1.00  0.00     0.060 A 
BRANCH  92  93
ATOM     93  S   UNL A   1      39.659  36.860  39.881  1.00  0.00     0.124 S 
ATOM     94  O   UNL A   1      41.020  37.308  40.157  1.00  0.00    -0.237 OA
ATOM     95  O   UNL A   1      38.813  37.806  39.162  1.00  0.00    -0.237 OA
ATOM     96  O   UNL A   1      39.003  36.143  40.970  1.00  0.00    -0.744 OA
ENDBRANCH  92  93
ENDBRANCH  60  85
ENDBRANCH  34  35
ENDBRANCH  27  29
ENDBRANCH  26  27
ENDBRANCH  25  26
ENDBRANCH   1  25
TORSDOF 17
ENDMDL
MODEL 2
REMARK VINA RESULT:     -12.1      6.432     11.947
REMARK SMILES O=C(COc1ccccc1/C=C1\C(=O)Nc2ccccc21)OCCOC(=O)c1ccc(-c2c3nc(c(-c4c(F)cc(S(=O)(=O)[O-])cc4F)c4ccc([nH]4)c(-c4c(F)cc(S(=O)(=O)[O-])cc4F)c4nc(c(-c5c(F)cc(S(=O)(=O)[O-])cc5F)c5ccc2[nH]5)C=C4)C=C3)cc1
REMARK SMILES IDX 23 1 22 2 2 3 1 4 3 5 4 6 5 7 6 8 10 9 7 10 9 11 8 12 11 13
REMARK SMILES IDX 12 14 13 15 21 16 14 17 15 18 16 19 20 20 17 22 19 23 18 24
REMARK SMILES IDX 24 25 25 26 26 27 27 28 28 29 29 30 93 31 30 32 92 33 31 34
REMARK SMILES IDX 32 35 33 36 86 37 34 38 91 39 85 40 87 41 35 42 90 43 84 44
REMARK SMILES IDX 83 45 36 47 70 48 49 49 69 50 50 51 53 52 68 53 88 54 51 55
REMARK SMILES IDX 52 56 67 58 89 59 54 60 37 61 38 62 47 63 39 64 40 65 46 66
REMARK SMILES IDX 48 67 41 68 42 69 43 70 44 71 45 72 71 73 72 74 81 75 73 76
REMARK SMILES IDX 74 77 80 78 82 79 75 80 76 81 77 82 78 83 79 84 55 85 56 86
REMARK SMILES IDX 65 87 57 88 58 89 64 90 66 91 59 92 60 93 61 94 62 95 63 96
REMARK H PARENT 15 21 87 46 53 57
REMARK Flexibility Score: inf
ROOT
ATOM      1  C   UNL A   1      33.341  30.842  26.972  1.00  0.00     0.274 C 
ENDROOT
BRANCH   1   2
ATOM      2  O   UNL A   1      33.439  29.400  26.951  1.00  0.00    -0.460 OA
BRANCH   2   3
ATOM      3  C   UNL A   1      32.755  28.611  26.082  1.00  0.00     0.344 C 
ATOM      4  O   UNL A   1      32.065  29.117  25.198  1.00  0.00    -0.248 OA
BRANCH   3   5
ATOM      5  C   UNL A   1      32.917  27.110  26.199  1.00  0.00     0.352 C 
BRANCH   5   6
ATOM      6  O   UNL A   1      31.656  26.567  26.568  1.00  0.00    -0.481 OA
BRANCH   6   7
ATOM      7  C   UNL A   1      31.452  25.351  25.979  1.00  0.00     0.127 A 
ATOM      8  C   UNL A   1      32.163  24.262  26.499  1.00  0.00     0.047 A 
ATOM      9  C   UNL A   1      30.641  25.233  24.837  1.00  0.00     0.017 A 
ATOM     10  C   UNL A   1      32.100  23.030  25.861  1.00  0.00     0.004 A 
ATOM     11  C   UNL A   1      30.721  24.024  24.138  1.00  0.00     0.012 A 
ATOM     12  C   UNL A   1      31.407  22.921  24.661  1.00  0.00     0.001 A 
BRANCH   9  13
ATOM     13  C   UNL A   1      29.736  26.326  24.392  1.00  0.00     0.026 C 
ATOM     14  C   UNL A   1      30.007  27.270  23.464  1.00  0.00     0.050 C 
ATOM     15  C   UNL A   1      31.311  27.458  22.711  1.00  0.00     0.256 C 
ATOM     16  C   UNL A   1      29.131  28.377  23.020  1.00  0.00     0.011 A 
ATOM     17  O   UNL A   1      32.281  26.726  22.626  1.00  0.00    -0.269 OA
ATOM     18  N   UNL A   1      31.203  28.682  22.086  1.00  0.00    -0.321 N 
ATOM     19  C   UNL A   1      29.933  29.214  22.232  1.00  0.00     0.049 A 
ATOM     20  C   UNL A   1      27.787  28.679  23.164  1.00  0.00     0.011 A 
ATOM     21  H   UNL A   1      31.936  29.122  21.598  1.00  0.00     0.170 HD
ATOM     22  C   UNL A   1      29.479  30.369  21.626  1.00  0.00     0.027 A 
ATOM     23  C   UNL A   1      27.291  29.836  22.533  1.00  0.00     0.001 A 
ATOM     24  C   UNL A   1      28.132  30.680  21.784  1.00  0.00     0.002 A 
ENDBRANCH   9  13
ENDBRANCH   6   7
ENDBRANCH   5   6
ENDBRANCH   3   5
ENDBRANCH   2   3
ENDBRANCH   1   2
BRANCH   1  25
ATOM     25  C   UNL A   1      34.183  31.433  28.104  1.00  0.00     0.275 C 
BRANCH  25  26
ATOM     26  O   UNL A   1      35.396  30.680  28.279  1.00  0.00    -0.458 OA
BRANCH  26  27
ATOM     27  C   UNL A   1      36.115  30.953  29.400  1.00  0.00     0.338 C 
ATOM     28  O   UNL A   1      35.710  31.481  30.418  1.00  0.00    -0.246 OA
BRANCH  27  29
ATOM     29  C   UNL A   1      37.438  30.313  29.250  1.00  0.00     0.060 A 
ATOM     30  C   UNL A   1      38.170  29.969  30.394  1.00  0.00     0.016 A 
ATOM     31  C   UNL A   1      37.937  30.029  27.978  1.00  0.00     0.016 A 
ATOM     32  C   UNL A   1      39.410  29.334  30.266  1.00  0.00     0.010 A 
ATOM     33  C   UNL A   1      39.182  29.415  27.851  1.00  0.00     0.010 A 
ATOM     34  C   UNL A   1      39.934  29.082  28.992  1.00  0.00    -0.014 A 
BRANCH  34  35
ATOM     35  C   UNL A   1      41.338  28.644  28.807  1.00  0.00     0.031 A 
ATOM     36  C   UNL A   1      42.409  29.698  28.793  1.00  0.00     0.074 A 
ATOM     37  C   UNL A   1      41.650  27.359  28.566  1.00  0.00     0.049 A 
ATOM     38  N   UNL A   1      43.670  29.599  28.467  1.00  0.00    -0.248 NA
ATOM     39  C   UNL A   1      41.987  31.053  29.181  1.00  0.00     0.031 C 
ATOM     40  C   UNL A   1      40.707  26.243  28.580  1.00  0.00     0.029 A 
ATOM     41  N   UNL A   1      42.851  26.785  28.221  1.00  0.00    -0.354 N 
ATOM     42  C   UNL A   1      44.189  30.882  28.586  1.00  0.00     0.074 A 
ATOM     43  C   UNL A   1      43.099  31.744  28.991  1.00  0.00     0.031 C 
ATOM     44  C   UNL A   1      41.357  25.123  28.218  1.00  0.00     0.029 A 
ATOM     45  C   UNL A   1      42.750  25.451  27.906  1.00  0.00     0.049 A 
ATOM     46  H   UNL A   1      43.700  27.282  28.201  1.00  0.00     0.167 HD
ATOM     47  C   UNL A   1      45.458  31.304  28.374  1.00  0.00     0.037 A 
ATOM     48  C   UNL A   1      43.662  24.604  27.384  1.00  0.00     0.037 A 
ATOM     49  C   UNL A   1      46.530  30.439  27.957  1.00  0.00     0.049 A 
ATOM     50  C   UNL A   1      45.058  25.099  27.100  1.00  0.00     0.074 A 
ATOM     51  C   UNL A   1      47.859  30.759  27.749  1.00  0.00     0.029 A 
ATOM     52  N   UNL A   1      46.393  29.089  27.666  1.00  0.00    -0.354 N 
ATOM     53  N   UNL A   1      45.553  26.304  27.253  1.00  0.00    -0.248 NA
ATOM     54  C   UNL A   1      46.022  24.121  26.572  1.00  0.00     0.031 C 
ATOM     55  C   UNL A   1      48.511  29.621  27.264  1.00  0.00     0.029 A 
ATOM     56  C   UNL A   1      47.606  28.570  27.243  1.00  0.00     0.049 A 
ATOM     57  H   UNL A   1      45.557  28.575  27.746  1.00  0.00     0.167 HD
ATOM     58  C   UNL A   1      46.891  26.223  26.873  1.00  0.00     0.074 A 
ATOM     59  C   UNL A   1      47.127  24.850  26.479  1.00  0.00     0.031 C 
ATOM     60  C   UNL A   1      47.836  27.196  26.863  1.00  0.00     0.037 A 
BRANCH  47  61
ATOM     61  C   UNL A   1      45.732  32.773  28.532  1.00  0.00     0.058 A 
ATOM     62  C   UNL A   1      45.597  33.678  27.467  1.00  0.00     0.135 A 
ATOM     63  C   UNL A   1      46.150  33.283  29.772  1.00  0.00     0.135 A 
ATOM     64  F   UNL A   1      45.214  33.244  26.255  1.00  0.00    -0.206 F 
ATOM     65  C   UNL A   1      45.917  35.024  27.611  1.00  0.00     0.059 A 
ATOM     66  C   UNL A   1      46.441  34.632  29.949  1.00  0.00     0.059 A 
ATOM     67  F   UNL A   1      46.295  32.465  30.827  1.00  0.00    -0.206 F 
ATOM     68  C   UNL A   1      46.346  35.490  28.854  1.00  0.00     0.060 A 
BRANCH  68  69
ATOM     69  S   UNL A   1      46.795  37.229  29.017  1.00  0.00     0.124 S 
ATOM     70  O   UNL A   1      46.967  37.351  30.462  1.00  0.00    -0.237 OA
ATOM     71  O   UNL A   1      48.019  37.312  28.225  1.00  0.00    -0.237 OA
ATOM     72  O   UNL A   1      45.644  37.934  28.463  1.00  0.00    -0.744 OA
ENDBRANCH  68  69
ENDBRANCH  47  61
BRANCH  48  73
ATOM     73  C   UNL A   1      43.264  23.204  27.075  1.00  0.00     0.058 A 
ATOM     74  C   UNL A   1      43.113  22.762  25.753  1.00  0.00     0.135 A 
ATOM     75  C   UNL A   1      43.066  22.266  28.102  1.00  0.00     0.135 A 
ATOM     76  F   UNL A   1      43.272  23.623  24.736  1.00  0.00    -0.206 F 
ATOM     77  C   UNL A   1      42.791  21.440  25.458  1.00  0.00     0.059 A 
ATOM     78  C   UNL A   1      42.767  20.934  27.832  1.00  0.00     0.059 A 
ATOM     79  F   UNL A   1      43.202  22.636  29.385  1.00  0.00    -0.206 F 
ATOM     80  C   UNL A   1      42.632  20.530  26.504  1.00  0.00     0.060 A 
BRANCH  80  81
ATOM     81  S   UNL A   1      42.307  18.799  26.107  1.00  0.00     0.124 S 
ATOM     82  O   UNL A   1      42.635  18.140  27.366  1.00  0.00    -0.237 OA
ATOM     83  O   UNL A   1      40.892  18.829  25.750  1.00  0.00    -0.237 OA
ATOM     84  O   UNL A   1      43.220  18.531  24.998  1.00  0.00    -0.744 OA
ENDBRANCH  80  81
ENDBRANCH  48  73
BRANCH  60  85
ATOM     85  C   UNL A   1      49.239  26.825  26.460  1.00  0.00     0.058 A 
ATOM     86  C   UNL A   1      50.159  26.282  27.370  1.00  0.00     0.135 A 
ATOM     87  C   UNL A   1      49.627  26.909  25.111  1.00  0.00     0.135 A 
ATOM     88  F   UNL A   1      49.844  26.185  28.672  1.00  0.00    -0.206 F 
ATOM     89  C   UNL A   1      51.411  25.834  26.958  1.00  0.00     0.059 A 
ATOM     90  C   UNL A   1      50.862  26.442  24.673  1.00  0.00     0.059 A 
ATOM     91  F   UNL A   1      48.784  27.412  24.196  1.00  0.00    -0.206 F 
ATOM     92  C   UNL A   1      51.749  25.907  25.604  1.00  0.00     0.060 A 
BRANCH  92  93
ATOM     93  S   UNL A   1      53.345  25.248  25.073  1.00  0.00     0.124 S 
ATOM     94  O   UNL A   1      54.269  25.987  25.928  1.00  0.00    -0.237 OA
ATOM     95  O   UNL A   1      53.208  23.826  25.367  1.00  0.00    -0.237 OA
ATOM     96  O   UNL A   1      53.398  25.587  23.654  1.00  0.00    -0.744 OA
ENDBRANCH  92  93
ENDBRANCH  60  85
ENDBRANCH  34  35
ENDBRANCH  27  29
ENDBRANCH  26  27
ENDBRANCH  25  26
ENDBRANCH   1  25
TORSDOF 17
ENDMDL
MODEL 3
REMARK VINA RESULT:     -12.0      6.026     10.380
REMARK SMILES O=C(COc1ccccc1/C=C1\C(=O)Nc2ccccc21)OCCOC(=O)c1ccc(-c2c3nc(c(-c4c(F)cc(S(=O)(=O)[O-])cc4F)c4ccc([nH]4)c(-c4c(F)cc(S(=O)(=O)[O-])cc4F)c4nc(c(-c5c(F)cc(S(=O)(=O)[O-])cc5F)c5ccc2[nH]5)C=C4)C=C3)cc1
REMARK SMILES IDX 23 1 22 2 2 3 1 4 3 5 4 6 5 7 6 8 10 9 7 10 9 11 8 12 11 13
REMARK SMILES IDX 12 14 13 15 21 16 14 17 15 18 16 19 20 20 17 22 19 23 18 24
REMARK SMILES IDX 24 25 25 26 26 27 27 28 28 29 29 30 93 31 30 32 92 33 31 34
REMARK SMILES IDX 32 35 33 36 86 37 34 38 91 39 85 40 87 41 35 42 90 43 84 44
REMARK SMILES IDX 83 45 36 47 70 48 49 49 69 50 50 51 53 52 68 53 88 54 51 55
REMARK SMILES IDX 52 56 67 58 89 59 54 60 37 61 38 62 47 63 39 64 40 65 46 66
REMARK SMILES IDX 48 67 41 68 42 69 43 70 44 71 45 72 71 73 72 74 81 75 73 76
REMARK SMILES IDX 74 77 80 78 82 79 75 80 76 81 77 82 78 83 79 84 55 85 56 86
REMARK SMILES IDX 65 87 57 88 58 89 64 90 66 91 59 92 60 93 61 94 62 95 63 96
REMARK H PARENT 15 21 87 46 53 57
REMARK Flexibility Score: inf
ROOT
ATOM      1  C   UNL A   1      37.997  21.771  25.509  1.00  0.00     0.274 C 
ENDROOT
BRANCH   1   2
ATOM      2  O   UNL A   1      36.935  21.746  24.529  1.00  0.00    -0.460 OA
BRANCH   2   3
ATOM      3  C   UNL A   1      36.531  22.839  23.830  1.00  0.00     0.344 C 
ATOM      4  O   UNL A   1      36.695  22.891  22.612  1.00  0.00    -0.248 OA
BRANCH   3   5
ATOM      5  C   UNL A   1      35.826  23.949  24.582  1.00  0.00     0.352 C 
BRANCH   5   6
ATOM      6  O   UNL A   1      34.720  24.370  23.793  1.00  0.00    -0.481 OA
BRANCH   6   7
ATOM      7  C   UNL A   1      33.666  24.738  24.580  1.00  0.00     0.127 A 
ATOM      8  C   UNL A   1      33.685  26.036  25.109  1.00  0.00     0.047 A 
ATOM      9  C   UNL A   1      32.666  23.812  24.920  1.00  0.00     0.017 A 
ATOM     10  C   UNL A   1      32.712  26.423  26.021  1.00  0.00     0.004 A 
ATOM     11  C   UNL A   1      31.794  24.184  25.950  1.00  0.00     0.012 A 
ATOM     12  C   UNL A   1      31.788  25.484  26.467  1.00  0.00     0.001 A 
BRANCH   9  13
ATOM     13  C   UNL A   1      32.525  22.506  24.222  1.00  0.00     0.026 C 
ATOM     14  C   UNL A   1      33.086  21.332  24.588  1.00  0.00     0.050 C 
ATOM     15  C   UNL A   1      34.024  21.096  25.756  1.00  0.00     0.256 C 
ATOM     16  C   UNL A   1      32.976  20.027  23.899  1.00  0.00     0.011 A 
ATOM     17  O   UNL A   1      34.309  21.821  26.693  1.00  0.00    -0.269 OA
ATOM     18  N   UNL A   1      34.532  19.828  25.572  1.00  0.00    -0.321 N 
ATOM     19  C   UNL A   1      33.912  19.184  24.516  1.00  0.00     0.049 A 
ATOM     20  C   UNL A   1      32.161  19.510  22.906  1.00  0.00     0.011 A 
ATOM     21  H   UNL A   1      35.246  19.431  26.122  1.00  0.00     0.170 HD
ATOM     22  C   UNL A   1      34.118  17.867  24.154  1.00  0.00     0.027 A 
ATOM     23  C   UNL A   1      32.330  18.161  22.538  1.00  0.00     0.001 A 
ATOM     24  C   UNL A   1      33.308  17.352  23.146  1.00  0.00     0.002 A 
ENDBRANCH   9  13
ENDBRANCH   6   7
ENDBRANCH   5   6
ENDBRANCH   3   5
ENDBRANCH   2   3
ENDBRANCH   1   2
BRANCH   1  25
ATOM     25  C   UNL A   1      38.877  20.525  25.396  1.00  0.00     0.275 C 
BRANCH  25  26
ATOM     26  O   UNL A   1      39.715  20.390  26.556  1.00  0.00    -0.458 OA
BRANCH  26  27
ATOM     27  C   UNL A   1      41.017  20.079  26.323  1.00  0.00     0.338 C 
ATOM     28  O   UNL A   1      41.445  19.079  25.779  1.00  0.00    -0.246 OA
BRANCH  27  29
ATOM     29  C   UNL A   1      41.829  21.266  26.665  1.00  0.00     0.060 A 
ATOM     30  C   UNL A   1      42.201  21.484  27.998  1.00  0.00     0.016 A 
ATOM     31  C   UNL A   1      42.243  22.142  25.662  1.00  0.00     0.016 A 
ATOM     32  C   UNL A   1      42.996  22.586  28.330  1.00  0.00     0.010 A 
ATOM     33  C   UNL A   1      43.016  23.252  25.997  1.00  0.00     0.010 A 
ATOM     34  C   UNL A   1      43.382  23.491  27.334  1.00  0.00    -0.014 A 
BRANCH  34  35
ATOM     35  C   UNL A   1      44.005  24.793  27.672  1.00  0.00     0.031 A 
ATOM     36  C   UNL A   1      43.100  25.928  28.061  1.00  0.00     0.074 A 
ATOM     37  C   UNL A   1      45.328  24.994  27.549  1.00  0.00     0.049 A 
ATOM     38  N   UNL A   1      43.375  27.194  28.219  1.00  0.00    -0.248 NA
ATOM     39  C   UNL A   1      41.687  25.581  28.281  1.00  0.00     0.031 C 
ATOM     40  C   UNL A   1      46.311  23.969  27.206  1.00  0.00     0.029 A 
ATOM     41  N   UNL A   1      46.066  26.148  27.662  1.00  0.00    -0.354 N 
ATOM     42  C   UNL A   1      42.166  27.803  28.532  1.00  0.00     0.074 A 
ATOM     43  C   UNL A   1      41.155  26.769  28.518  1.00  0.00     0.031 C 
ATOM     44  C   UNL A   1      47.520  24.548  27.096  1.00  0.00     0.029 A 
ATOM     45  C   UNL A   1      47.388  25.989  27.320  1.00  0.00     0.049 A 
ATOM     46  H   UNL A   1      45.685  27.005  27.960  1.00  0.00     0.167 HD
ATOM     47  C   UNL A   1      41.922  29.108  28.804  1.00  0.00     0.037 A 
ATOM     48  C   UNL A   1      48.366  26.905  27.160  1.00  0.00     0.037 A 
ATOM     49  C   UNL A   1      42.934  30.130  28.801  1.00  0.00     0.049 A 
ATOM     50  C   UNL A   1      48.069  28.362  27.411  1.00  0.00     0.074 A 
ATOM     51  C   UNL A   1      42.798  31.474  29.097  1.00  0.00     0.029 A 
ATOM     52  N   UNL A   1      44.266  29.926  28.466  1.00  0.00    -0.354 N 
ATOM     53  N   UNL A   1      46.933  28.926  27.747  1.00  0.00    -0.248 NA
ATOM     54  C   UNL A   1      49.185  29.310  27.264  1.00  0.00     0.031 C 
ATOM     55  C   UNL A   1      44.030  32.096  28.873  1.00  0.00     0.029 A 
ATOM     56  C   UNL A   1      44.954  31.128  28.512  1.00  0.00     0.049 A 
ATOM     57  H   UNL A   1      44.663  29.058  28.229  1.00  0.00     0.167 HD
ATOM     58  C   UNL A   1      47.202  30.285  27.883  1.00  0.00     0.074 A 
ATOM     59  C   UNL A   1      48.609  30.460  27.589  1.00  0.00     0.031 C 
ATOM     60  C   UNL A   1      46.361  31.292  28.229  1.00  0.00     0.037 A 
BRANCH  47  61
ATOM     61  C   UNL A   1      40.495  29.501  29.066  1.00  0.00     0.058 A 
ATOM     62  C   UNL A   1      39.558  29.652  28.030  1.00  0.00     0.135 A 
ATOM     63  C   UNL A   1      40.060  29.745  30.379  1.00  0.00     0.135 A 
ATOM     64  F   UNL A   1      39.922  29.445  26.754  1.00  0.00    -0.206 F 
ATOM     65  C   UNL A   1      38.259  30.080  28.281  1.00  0.00     0.059 A 
ATOM     66  C   UNL A   1      38.756  30.140  30.657  1.00  0.00     0.059 A 
ATOM     67  F   UNL A   1      40.911  29.616  31.409  1.00  0.00    -0.206 F 
ATOM     68  C   UNL A   1      37.869  30.329  29.598  1.00  0.00     0.060 A 
BRANCH  68  69
ATOM     69  S   UNL A   1      36.194  30.923  29.905  1.00  0.00     0.124 S 
ATOM     70  O   UNL A   1      36.059  30.681  31.339  1.00  0.00    -0.237 OA
ATOM     71  O   UNL A   1      36.280  32.323  29.505  1.00  0.00    -0.237 OA
ATOM     72  O   UNL A   1      35.369  30.078  29.048  1.00  0.00    -0.744 OA
ENDBRANCH  68  69
ENDBRANCH  47  61
BRANCH  48  73
ATOM     73  C   UNL A   1      49.715  26.461  26.712  1.00  0.00     0.058 A 
ATOM     74  C   UNL A   1      50.656  25.954  27.619  1.00  0.00     0.135 A 
ATOM     75  C   UNL A   1      50.074  26.500  25.354  1.00  0.00     0.135 A 
ATOM     76  F   UNL A   1      50.370  25.915  28.930  1.00  0.00    -0.206 F 
ATOM     77  C   UNL A   1      51.899  25.492  27.198  1.00  0.00     0.059 A 
ATOM     78  C   UNL A   1      51.300  26.021  24.906  1.00  0.00     0.059 A 
ATOM     79  F   UNL A   1      49.208  26.972  24.443  1.00  0.00    -0.206 F 
ATOM     80  C   UNL A   1      52.207  25.517  25.837  1.00  0.00     0.060 A 
BRANCH  80  81
ATOM     81  S   UNL A   1      53.785  24.828  25.292  1.00  0.00     0.124 S 
ATOM     82  O   UNL A   1      54.058  25.621  24.099  1.00  0.00    -0.237 OA
ATOM     83  O   UNL A   1      54.644  25.086  26.443  1.00  0.00    -0.237 OA
ATOM     84  O   UNL A   1      53.474  23.420  25.055  1.00  0.00    -0.744 OA
ENDBRANCH  80  81
ENDBRANCH  48  73
BRANCH  60  85
ATOM     85  C   UNL A   1      46.927  32.681  28.364  1.00  0.00     0.058 A 
ATOM     86  C   UNL A   1      46.869  33.616  27.319  1.00  0.00     0.135 A 
ATOM     87  C   UNL A   1      47.432  33.116  29.602  1.00  0.00     0.135 A 
ATOM     88  F   UNL A   1      46.403  33.254  26.114  1.00  0.00    -0.206 F 
ATOM     89  C   UNL A   1      47.288  34.932  27.498  1.00  0.00     0.059 A 
ATOM     90  C   UNL A   1      47.830  34.432  29.810  1.00  0.00     0.059 A 
ATOM     91  F   UNL A   1      47.502  32.266  30.639  1.00  0.00    -0.206 F 
ATOM     92  C   UNL A   1      47.756  35.334  28.751  1.00  0.00     0.060 A 
BRANCH  92  93
ATOM     93  S   UNL A   1      48.222  37.064  28.988  1.00  0.00     0.124 S 
ATOM     94  O   UNL A   1      49.651  37.028  28.697  1.00  0.00    -0.237 OA
ATOM     95  O   UNL A   1      47.390  37.747  28.004  1.00  0.00    -0.237 OA
ATOM     96  O   UNL A   1      47.873  37.322  30.382  1.00  0.00    -0.744 OA
ENDBRANCH  92  93
ENDBRANCH  60  85
ENDBRANCH  34  35
ENDBRANCH  27  29
ENDBRANCH  26  27
ENDBRANCH  25  26
ENDBRANCH   1  25
TORSDOF 17
ENDMDL
