MODEL 1
REMARK VINA RESULT:     -13.2      0.000      0.000
REMARK SMILES O=C(OCCOC(=O)[C@@H](Cc1ccc(O)cc1)Nc1c2ccccc2nc2ccccc12)c1ccc(-c2c3nc(c(-c4c(F)cc(S(=O)(=O)[O-])cc4F)c4ccc([nH]4)c(-c4c(F)cc(S(=O)(=O)[O-])cc4F)c4nc(c(-c5c(F)cc(S(=O)(=O)[O-])cc5F)c5ccc2[nH]5)C=C4)C=C3)cc1
REMARK SMILES IDX 4 1 3 2 2 3 1 4 33 5 34 6 98 7 35 8 97 9 36 10 37 11 38 12
REMARK SMILES IDX 91 13 39 14 96 15 90 16 92 17 40 18 95 19 89 20 88 21 41 23
REMARK SMILES IDX 75 24 54 25 74 26 55 27 58 28 73 29 93 30 56 31 57 32 72 34
REMARK SMILES IDX 94 35 59 36 42 37 43 38 52 39 44 40 45 41 51 42 53 43 46 44
REMARK SMILES IDX 47 45 48 46 49 47 50 48 76 49 77 50 86 51 78 52 79 53 85 54
REMARK SMILES IDX 87 55 80 56 81 57 82 58 83 59 84 60 60 61 61 62 70 63 62 64
REMARK SMILES IDX 63 65 69 66 71 67 64 68 65 69 66 70 67 71 68 72 5 73 6 74
REMARK SMILES IDX 7 75 8 76 9 77 10 78 11 79 12 80 17 81 13 82 16 83 14 84
REMARK SMILES IDX 15 85 18 87 19 89 20 90 32 91 21 92 25 93 27 94 31 95 22 96
REMARK SMILES IDX 24 97 26 98 28 99 30 100 23 101 29 102
REMARK H PARENT 92 22 58 33 15 86 18 88
REMARK Flexibility Score: inf
ROOT
ATOM      1  C   UNL A   1      41.656  22.076  25.770  1.00  0.00     0.275 C 
ENDROOT
BRANCH   1   2
ATOM      2  O   UNL A   1      42.538  23.051  26.305  1.00  0.00    -0.458 OA
BRANCH   2   3
ATOM      3  C   UNL A   1      42.263  24.362  26.295  1.00  0.00     0.338 C 
ATOM      4  O   UNL A   1      42.077  24.947  25.230  1.00  0.00    -0.246 OA
BRANCH   3   5
ATOM      5  C   UNL A   1      42.284  25.208  27.522  1.00  0.00     0.060 A 
ATOM      6  C   UNL A   1      43.362  26.647  27.884  1.00  0.00     0.016 A 
ATOM      7  C   UNL A   1      40.686  25.060  28.386  1.00  0.00     0.016 A 
ATOM      8  C   UNL A   1      42.725  28.023  28.913  1.00  0.00     0.010 A 
ATOM      9  C   UNL A   1      40.137  26.342  29.488  1.00  0.00     0.010 A 
ATOM     10  C   UNL A   1      41.125  27.797  29.818  1.00  0.00    -0.014 A 
BRANCH  10  11
ATOM     11  C   UNL A   1      40.863  28.544  31.089  1.00  0.00     0.031 A 
ATOM     12  C   UNL A   1      41.873  28.501  32.229  1.00  0.00     0.074 A 
ATOM     13  C   UNL A   1      39.960  29.530  30.985  1.00  0.00     0.049 A 
ATOM     14  N   UNL A   1      41.944  29.284  33.276  1.00  0.00    -0.248 NA
ATOM     15  C   UNL A   1      42.982  27.527  32.187  1.00  0.00     0.031 C 
ATOM     16  C   UNL A   1      39.054  29.684  29.852  1.00  0.00     0.029 A 
ATOM     17  N   UNL A   1      39.725  30.639  31.741  1.00  0.00    -0.354 N 
ATOM     18  C   UNL A   1      43.062  28.867  33.999  1.00  0.00     0.074 A 
ATOM     19  C   UNL A   1      43.684  27.805  33.272  1.00  0.00     0.031 C 
ATOM     20  C   UNL A   1      38.485  30.889  29.888  1.00  0.00     0.029 A 
ATOM     21  C   UNL A   1      38.789  31.476  31.181  1.00  0.00     0.049 A 
ATOM     22  H   UNL A   1      40.177  30.821  32.596  1.00  0.00     0.167 HD
ATOM     23  C   UNL A   1      43.509  29.318  35.190  1.00  0.00     0.037 A 
ATOM     24  C   UNL A   1      38.144  32.527  31.714  1.00  0.00     0.037 A 
ATOM     25  C   UNL A   1      42.848  30.375  35.892  1.00  0.00     0.049 A 
ATOM     26  C   UNL A   1      38.530  32.886  33.114  1.00  0.00     0.074 A 
ATOM     27  C   UNL A   1      43.109  30.867  37.154  1.00  0.00     0.029 A 
ATOM     28  N   UNL A   1      41.763  31.078  35.389  1.00  0.00    -0.354 N 
ATOM     29  N   UNL A   1      39.534  32.426  33.826  1.00  0.00    -0.248 NA
ATOM     30  C   UNL A   1      37.675  33.846  33.811  1.00  0.00     0.031 C 
ATOM     31  C   UNL A   1      42.115  31.801  37.451  1.00  0.00     0.029 A 
ATOM     32  C   UNL A   1      41.294  31.956  36.342  1.00  0.00     0.049 A 
ATOM     33  H   UNL A   1      41.385  30.967  34.487  1.00  0.00     0.167 HD
ATOM     34  C   UNL A   1      39.416  33.017  35.070  1.00  0.00     0.074 A 
ATOM     35  C   UNL A   1      38.275  33.914  34.991  1.00  0.00     0.031 C 
ATOM     36  C   UNL A   1      40.156  32.826  36.189  1.00  0.00     0.037 A 
BRANCH  23  37
ATOM     37  C   UNL A   1      44.630  28.576  35.869  1.00  0.00     0.058 A 
ATOM     38  C   UNL A   1      45.983  28.921  35.735  1.00  0.00     0.135 A 
ATOM     39  C   UNL A   1      44.310  27.511  36.728  1.00  0.00     0.135 A 
ATOM     40  F   UNL A   1      46.354  29.896  34.889  1.00  0.00    -0.206 F 
ATOM     41  C   UNL A   1      46.976  28.255  36.455  1.00  0.00     0.059 A 
ATOM     42  C   UNL A   1      45.280  26.850  37.473  1.00  0.00     0.059 A 
ATOM     43  F   UNL A   1      43.035  27.114  36.861  1.00  0.00    -0.206 F 
ATOM     44  C   UNL A   1      46.611  27.235  37.338  1.00  0.00     0.060 A 
BRANCH  44  45
ATOM     45  S   UNL A   1      47.890  26.447  38.342  1.00  0.00     0.124 S 
ATOM     46  O   UNL A   1      47.195  25.261  38.833  1.00  0.00    -0.237 OA
ATOM     47  O   UNL A   1      48.943  26.204  37.361  1.00  0.00    -0.237 OA
ATOM     48  O   UNL A   1      48.200  27.453  39.352  1.00  0.00    -0.744 OA
ENDBRANCH  44  45
ENDBRANCH  23  37
BRANCH  24  49
ATOM     49  C   UNL A   1      36.959  33.101  31.017  1.00  0.00     0.058 A 
ATOM     50  C   UNL A   1      35.647  32.780  31.377  1.00  0.00     0.135 A 
ATOM     51  C   UNL A   1      37.134  34.003  29.946  1.00  0.00     0.135 A 
ATOM     52  F   UNL A   1      35.413  31.916  32.377  1.00  0.00    -0.206 F 
ATOM     53  C   UNL A   1      34.555  33.322  30.697  1.00  0.00     0.059 A 
ATOM     54  C   UNL A   1      36.067  34.607  29.301  1.00  0.00     0.059 A 
ATOM     55  F   UNL A   1      38.369  34.333  29.533  1.00  0.00    -0.206 F 
ATOM     56  C   UNL A   1      34.778  34.237  29.665  1.00  0.00     0.060 A 
BRANCH  56  57
ATOM     57  S   UNL A   1      33.364  34.923  28.782  1.00  0.00     0.124 S 
ATOM     58  O   UNL A   1      33.935  36.146  28.227  1.00  0.00    -0.237 OA
ATOM     59  O   UNL A   1      33.060  33.866  27.822  1.00  0.00    -0.237 OA
ATOM     60  O   UNL A   1      32.366  35.112  29.829  1.00  0.00    -0.744 OA
ENDBRANCH  56  57
ENDBRANCH  24  49
BRANCH  36  61
ATOM     61  C   UNL A   1      39.760  33.619  37.388  1.00  0.00     0.058 A 
ATOM     62  C   UNL A   1      38.841  33.120  38.320  1.00  0.00     0.135 A 
ATOM     63  C   UNL A   1      40.363  34.861  37.632  1.00  0.00     0.135 A 
ATOM     64  F   UNL A   1      38.235  31.939  38.112  1.00  0.00    -0.206 F 
ATOM     65  C   UNL A   1      38.515  33.842  39.457  1.00  0.00     0.059 A 
ATOM     66  C   UNL A   1      40.083  35.579  38.782  1.00  0.00     0.059 A 
ATOM     67  F   UNL A   1      41.258  35.362  36.766  1.00  0.00    -0.206 F 
ATOM     68  C   UNL A   1      39.150  35.065  39.682  1.00  0.00     0.060 A 
BRANCH  68  69
ATOM     69  S   UNL A   1      38.758  35.965  41.191  1.00  0.00     0.124 S 
ATOM     70  O   UNL A   1      39.935  35.690  42.008  1.00  0.00    -0.237 OA
ATOM     71  O   UNL A   1      38.624  37.334  40.706  1.00  0.00    -0.237 OA
ATOM     72  O   UNL A   1      37.520  35.340  41.646  1.00  0.00    -0.744 OA
ENDBRANCH  68  69
ENDBRANCH  36  61
ENDBRANCH  10  11
ENDBRANCH   3   5
ENDBRANCH   2   3
ENDBRANCH   1   2
BRANCH   1  73
ATOM     73  C   UNL A   1      40.450  21.826  26.700  1.00  0.00     0.274 C 
BRANCH  73  74
ATOM     74  O   UNL A   1      39.185  22.411  26.275  1.00  0.00    -0.461 OA
BRANCH  74  75
ATOM     75  C   UNL A   1      38.223  21.632  25.685  1.00  0.00     0.329 C 
ATOM     76  O   UNL A   1      38.452  20.499  25.284  1.00  0.00    -0.250 OA
BRANCH  75  77
ATOM     77  C   UNL A   1      36.786  22.353  25.629  1.00  0.00     0.194 C 
BRANCH  77  78
ATOM     78  C   UNL A   1      36.189  23.319  24.143  1.00  0.00     0.072 C 
BRANCH  78  79
ATOM     79  C   UNL A   1      34.391  24.354  23.570  1.00  0.00    -0.045 A 
ATOM     80  C   UNL A   1      33.846  25.752  24.121  1.00  0.00     0.007 A 
ATOM     81  C   UNL A   1      33.178  23.917  22.790  1.00  0.00     0.007 A 
ATOM     82  C   UNL A   1      32.604  26.400  24.033  1.00  0.00     0.046 A 
ATOM     83  C   UNL A   1      31.892  24.576  22.722  1.00  0.00     0.046 A 
ATOM     84  C   UNL A   1      31.613  25.775  23.356  1.00  0.00     0.115 A 
BRANCH  84  85
ATOM     85  O   UNL A   1      30.368  26.317  23.305  1.00  0.00    -0.508 OA
ATOM     86  H   UNL A   1      30.184  27.011  22.703  1.00  0.00     0.293 HD
ENDBRANCH  84  85
ENDBRANCH  78  79
ENDBRANCH  77  78
BRANCH  77  87
ATOM     87  N   UNL A   1      35.756  21.415  26.122  1.00  0.00    -0.371 N 
ATOM     88  H   UNL A   1      36.016  20.972  26.962  1.00  0.00     0.161 HD
BRANCH  87  89
ATOM     89  C   UNL A   1      34.499  21.015  25.667  1.00  0.00     0.054 A 
ATOM     90  C   UNL A   1      34.206  19.794  24.958  1.00  0.00     0.024 A 
ATOM     91  C   UNL A   1      33.400  21.900  25.981  1.00  0.00     0.024 A 
ATOM     92  C   UNL A   1      35.097  18.723  24.658  1.00  0.00     0.012 A 
ATOM     93  C   UNL A   1      32.857  19.580  24.586  1.00  0.00     0.073 A 
ATOM     94  C   UNL A   1      32.120  21.556  25.510  1.00  0.00     0.073 A 
ATOM     95  C   UNL A   1      33.499  23.097  26.750  1.00  0.00     0.012 A 
ATOM     96  C   UNL A   1      34.682  17.525  24.063  1.00  0.00     0.001 A 
ATOM     97  C   UNL A   1      32.465  18.397  23.969  1.00  0.00     0.029 A 
ATOM     98  N   UNL A   1      31.875  20.448  24.816  1.00  0.00    -0.248 NA
ATOM     99  C   UNL A   1      31.034  22.382  25.776  1.00  0.00     0.029 A 
ATOM    100  C   UNL A   1      32.397  23.910  27.018  1.00  0.00     0.001 A 
ATOM    101  C   UNL A   1      33.357  17.362  23.713  1.00  0.00     0.002 A 
ATOM    102  C   UNL A   1      31.159  23.555  26.518  1.00  0.00     0.002 A 
ENDBRANCH  87  89
ENDBRANCH  77  87
ENDBRANCH  75  77
ENDBRANCH  74  75
ENDBRANCH  73  74
ENDBRANCH   1  73
TORSDOF 19
ENDMDL
MODEL 2
REMARK VINA RESULT:     -13.1      6.658     12.215
REMARK SMILES O=C(OCCOC(=O)[C@@H](Cc1ccc(O)cc1)Nc1c2ccccc2nc2ccccc12)c1ccc(-c2c3nc(c(-c4c(F)cc(S(=O)(=O)[O-])cc4F)c4ccc([nH]4)c(-c4c(F)cc(S(=O)(=O)[O-])cc4F)c4nc(c(-c5c(F)cc(S(=O)(=O)[O-])cc5F)c5ccc2[nH]5)C=C4)C=C3)cc1
REMARK SMILES IDX 4 1 3 2 2 3 1 4 33 5 34 6 98 7 35 8 97 9 36 10 37 11 38 12
REMARK SMILES IDX 91 13 39 14 96 15 90 16 92 17 40 18 95 19 89 20 88 21 41 23
REMARK SMILES IDX 75 24 54 25 74 26 55 27 58 28 73 29 93 30 56 31 57 32 72 34
REMARK SMILES IDX 94 35 59 36 42 37 43 38 52 39 44 40 45 41 51 42 53 43 46 44
REMARK SMILES IDX 47 45 48 46 49 47 50 48 76 49 77 50 86 51 78 52 79 53 85 54
REMARK SMILES IDX 87 55 80 56 81 57 82 58 83 59 84 60 60 61 61 62 70 63 62 64
REMARK SMILES IDX 63 65 69 66 71 67 64 68 65 69 66 70 67 71 68 72 5 73 6 74
REMARK SMILES IDX 7 75 8 76 9 77 10 78 11 79 12 80 17 81 13 82 16 83 14 84
REMARK SMILES IDX 15 85 18 87 19 89 20 90 32 91 21 92 25 93 27 94 31 95 22 96
REMARK SMILES IDX 24 97 26 98 28 99 30 100 23 101 29 102
REMARK H PARENT 92 22 58 33 15 86 18 88
REMARK Flexibility Score: inf
ROOT
ATOM      1  C   UNL A   1      35.873  31.818  28.449  1.00  0.00     0.275 C 
ENDROOT
BRANCH   1   2
ATOM      2  O   UNL A   1      35.923  31.568  29.845  1.00  0.00    -0.458 OA
BRANCH   2   3
ATOM      3  C   UNL A   1      36.425  30.439  30.362  1.00  0.00     0.338 C 
ATOM      4  O   UNL A   1      35.921  29.940  31.367  1.00  0.00    -0.246 OA
BRANCH   3   5
ATOM      5  C   UNL A   1      37.666  29.791  29.852  1.00  0.00     0.060 A 
ATOM      6  C   UNL A   1      38.128  29.449  28.110  1.00  0.00     0.016 A 
ATOM      7  C   UNL A   1      38.983  29.937  31.104  1.00  0.00     0.016 A 
ATOM      8  C   UNL A   1      39.891  29.495  27.613  1.00  0.00     0.010 A 
ATOM      9  C   UNL A   1      40.693  29.847  30.627  1.00  0.00     0.010 A 
ATOM     10  C   UNL A   1      41.191  29.582  28.929  1.00  0.00    -0.014 A 
BRANCH  10  11
ATOM     11  C   UNL A   1      42.556  29.018  28.683  1.00  0.00     0.031 A 
ATOM     12  C   UNL A   1      42.718  27.602  28.143  1.00  0.00     0.074 A 
ATOM     13  C   UNL A   1      43.528  29.934  28.560  1.00  0.00     0.049 A 
ATOM     14  N   UNL A   1      43.786  27.052  27.624  1.00  0.00    -0.248 NA
ATOM     15  C   UNL A   1      41.551  26.697  28.104  1.00  0.00     0.031 C 
ATOM     16  C   UNL A   1      43.379  31.332  28.949  1.00  0.00     0.029 A 
ATOM     17  N   UNL A   1      44.761  29.887  27.981  1.00  0.00    -0.354 N 
ATOM     18  C   UNL A   1      43.415  25.762  27.246  1.00  0.00     0.074 A 
ATOM     19  C   UNL A   1      42.023  25.603  27.533  1.00  0.00     0.031 C 
ATOM     20  C   UNL A   1      44.389  32.048  28.454  1.00  0.00     0.029 A 
ATOM     21  C   UNL A   1      45.378  31.116  27.946  1.00  0.00     0.049 A 
ATOM     22  H   UNL A   1      45.165  29.063  27.627  1.00  0.00     0.167 HD
ATOM     23  C   UNL A   1      44.186  24.782  26.730  1.00  0.00     0.037 A 
ATOM     24  C   UNL A   1      46.653  31.432  27.663  1.00  0.00     0.037 A 
ATOM     25  C   UNL A   1      45.580  24.978  26.471  1.00  0.00     0.049 A 
ATOM     26  C   UNL A   1      47.537  30.288  27.277  1.00  0.00     0.074 A 
ATOM     27  C   UNL A   1      46.518  24.055  26.057  1.00  0.00     0.029 A 
ATOM     28  N   UNL A   1      46.236  26.189  26.640  1.00  0.00    -0.354 N 
ATOM     29  N   UNL A   1      47.194  29.049  27.005  1.00  0.00    -0.248 NA
ATOM     30  C   UNL A   1      48.974  30.552  27.219  1.00  0.00     0.031 C 
ATOM     31  C   UNL A   1      47.762  24.689  26.074  1.00  0.00     0.029 A 
ATOM     32  C   UNL A   1      47.584  26.026  26.406  1.00  0.00     0.049 A 
ATOM     33  H   UNL A   1      45.803  27.038  26.888  1.00  0.00     0.167 HD
ATOM     34  C   UNL A   1      48.377  28.372  26.774  1.00  0.00     0.074 A 
ATOM     35  C   UNL A   1      49.440  29.358  26.880  1.00  0.00     0.031 C 
ATOM     36  C   UNL A   1      48.583  27.057  26.523  1.00  0.00     0.037 A 
BRANCH  23  37
ATOM     37  C   UNL A   1      43.601  23.403  26.583  1.00  0.00     0.058 A 
ATOM     38  C   UNL A   1      43.272  22.827  25.347  1.00  0.00     0.135 A 
ATOM     39  C   UNL A   1      43.420  22.620  27.736  1.00  0.00     0.135 A 
ATOM     40  F   UNL A   1      43.375  23.543  24.216  1.00  0.00    -0.206 F 
ATOM     41  C   UNL A   1      42.813  21.511  25.259  1.00  0.00     0.059 A 
ATOM     42  C   UNL A   1      42.988  21.301  27.670  1.00  0.00     0.059 A 
ATOM     43  F   UNL A   1      43.681  23.137  28.947  1.00  0.00    -0.206 F 
ATOM     44  C   UNL A   1      42.695  20.750  26.426  1.00  0.00     0.060 A 
BRANCH  44  45
ATOM     45  S   UNL A   1      42.199  19.018  26.293  1.00  0.00     0.124 S 
ATOM     46  O   UNL A   1      43.164  18.506  25.324  1.00  0.00    -0.237 OA
ATOM     47  O   UNL A   1      42.366  18.545  27.664  1.00  0.00    -0.237 OA
ATOM     48  O   UNL A   1      40.820  19.092  25.822  1.00  0.00    -0.744 OA
ENDBRANCH  44  45
ENDBRANCH  23  37
BRANCH  24  49
ATOM     49  C   UNL A   1      47.165  32.795  27.975  1.00  0.00     0.058 A 
ATOM     50  C   UNL A   1      47.135  33.840  27.046  1.00  0.00     0.135 A 
ATOM     51  C   UNL A   1      47.707  33.075  29.247  1.00  0.00     0.135 A 
ATOM     52  F   UNL A   1      46.646  33.634  25.814  1.00  0.00    -0.206 F 
ATOM     53  C   UNL A   1      47.635  35.104  27.361  1.00  0.00     0.059 A 
ATOM     54  C   UNL A   1      48.146  34.340  29.606  1.00  0.00     0.059 A 
ATOM     55  F   UNL A   1      47.789  32.109  30.177  1.00  0.00    -0.206 F 
ATOM     56  C   UNL A   1      48.133  35.343  28.645  1.00  0.00     0.060 A 
BRANCH  56  57
ATOM     57  S   UNL A   1      48.788  36.975  29.042  1.00  0.00     0.124 S 
ATOM     58  O   UNL A   1      48.521  37.053  30.474  1.00  0.00    -0.237 OA
ATOM     59  O   UNL A   1      50.191  36.843  28.658  1.00  0.00    -0.237 OA
ATOM     60  O   UNL A   1      48.000  37.872  28.203  1.00  0.00    -0.744 OA
ENDBRANCH  56  57
ENDBRANCH  24  49
BRANCH  36  61
ATOM     61  C   UNL A   1      50.000  26.635  26.327  1.00  0.00     0.058 A 
ATOM     62  C   UNL A   1      50.619  26.721  25.072  1.00  0.00     0.135 A 
ATOM     63  C   UNL A   1      50.758  26.207  27.426  1.00  0.00     0.135 A 
ATOM     64  F   UNL A   1      49.919  27.115  23.995  1.00  0.00    -0.206 F 
ATOM     65  C   UNL A   1      51.950  26.373  24.909  1.00  0.00     0.059 A 
ATOM     66  C   UNL A   1      52.100  25.896  27.292  1.00  0.00     0.059 A 
ATOM     67  F   UNL A   1      50.200  26.127  28.644  1.00  0.00    -0.206 F 
ATOM     68  C   UNL A   1      52.683  25.972  26.028  1.00  0.00     0.060 A 
BRANCH  68  69
ATOM     69  S   UNL A   1      54.425  25.578  25.809  1.00  0.00     0.124 S 
ATOM     70  O   UNL A   1      54.863  25.416  27.192  1.00  0.00    -0.237 OA
ATOM     71  O   UNL A   1      54.367  24.358  25.012  1.00  0.00    -0.237 OA
ATOM     72  O   UNL A   1      54.954  26.750  25.118  1.00  0.00    -0.744 OA
ENDBRANCH  68  69
ENDBRANCH  36  61
ENDBRANCH  10  11
ENDBRANCH   3   5
ENDBRANCH   2   3
ENDBRANCH   1   2
BRANCH   1  73
ATOM     73  C   UNL A   1      34.708  31.062  27.776  1.00  0.00     0.274 C 
BRANCH  73  74
ATOM     74  O   UNL A   1      33.440  31.776  27.703  1.00  0.00    -0.461 OA
BRANCH  74  75
ATOM     75  C   UNL A   1      32.409  31.286  26.943  1.00  0.00     0.329 C 
ATOM     76  O   UNL A   1      31.376  31.915  26.757  1.00  0.00    -0.250 OA
BRANCH  75  77
ATOM     77  C   UNL A   1      32.735  29.846  26.306  1.00  0.00     0.194 C 
BRANCH  77  78
ATOM     78  C   UNL A   1      32.134  28.241  27.055  1.00  0.00     0.072 C 
BRANCH  78  79
ATOM     79  C   UNL A   1      31.859  26.212  26.392  1.00  0.00    -0.045 A 
ATOM     80  C   UNL A   1      32.970  25.075  26.230  1.00  0.00     0.007 A 
ATOM     81  C   UNL A   1      30.707  25.518  25.713  1.00  0.00     0.007 A 
ATOM     82  C   UNL A   1      32.980  23.828  25.585  1.00  0.00     0.046 A 
ATOM     83  C   UNL A   1      30.729  24.244  25.028  1.00  0.00     0.046 A 
ATOM     84  C   UNL A   1      31.851  23.438  24.947  1.00  0.00     0.115 A 
BRANCH  84  85
ATOM     85  O   UNL A   1      31.828  22.279  24.240  1.00  0.00    -0.508 OA
ATOM     86  H   UNL A   1      31.551  22.282  23.344  1.00  0.00     0.293 HD
ENDBRANCH  84  85
ENDBRANCH  78  79
ENDBRANCH  77  78
BRANCH  77  87
ATOM     87  N   UNL A   1      32.491  29.896  24.849  1.00  0.00    -0.371 N 
ATOM     88  H   UNL A   1      33.109  30.501  24.380  1.00  0.00     0.161 HD
BRANCH  87  89
ATOM     89  C   UNL A   1      31.581  29.279  23.988  1.00  0.00     0.054 A 
ATOM     90  C   UNL A   1      30.255  29.754  23.679  1.00  0.00     0.024 A 
ATOM     91  C   UNL A   1      32.047  28.082  23.326  1.00  0.00     0.024 A 
ATOM     92  C   UNL A   1      29.640  30.966  24.106  1.00  0.00     0.012 A 
ATOM     93  C   UNL A   1      29.493  28.975  22.776  1.00  0.00     0.073 A 
ATOM     94  C   UNL A   1      31.152  27.406  22.478  1.00  0.00     0.073 A 
ATOM     95  C   UNL A   1      33.356  27.529  23.448  1.00  0.00     0.012 A 
ATOM     96  C   UNL A   1      28.383  31.388  23.653  1.00  0.00     0.001 A 
ATOM     97  C   UNL A   1      28.235  29.392  22.358  1.00  0.00     0.029 A 
ATOM     98  N   UNL A   1      29.914  27.832  22.240  1.00  0.00    -0.248 NA
ATOM     99  C   UNL A   1      31.550  26.243  21.829  1.00  0.00     0.029 A 
ATOM    100  C   UNL A   1      33.744  26.366  22.781  1.00  0.00     0.001 A 
ATOM    101  C   UNL A   1      27.675  30.594  22.775  1.00  0.00     0.002 A 
ATOM    102  C   UNL A   1      32.831  25.713  21.975  1.00  0.00     0.002 A 
ENDBRANCH  87  89
ENDBRANCH  77  87
ENDBRANCH  75  77
ENDBRANCH  74  75
ENDBRANCH  73  74
ENDBRANCH   1  73
TORSDOF 19
ENDMDL
MODEL 3
REMARK VINA RESULT:     -13.0      0.284      2.162
REMARK SMILES O=C(OCCOC(=O)[C@@H](Cc1ccc(O)cc1)Nc1c2ccccc2nc2ccccc12)c1ccc(-c2c3nc(c(-c4c(F)cc(S(=O)(=O)[O-])cc4F)c4ccc([nH]4)c(-c4c(F)cc(S(=O)(=O)[O-])cc4F)c4nc(c(-c5c(F)cc(S(=O)(=O)[O-])cc5F)c5ccc2[nH]5)C=C4)C=C3)cc1
REMARK SMILES IDX 4 1 3 2 2 3 1 4 33 5 34 6 98 7 35 8 97 9 36 10 37 11 38 12
REMARK SMILES IDX 91 13 39 14 96 15 90 16 92 17 40 18 95 19 89 20 88 21 41 23
REMARK SMILES IDX 75 24 54 25 74 26 55 27 58 28 73 29 93 30 56 31 57 32 72 34
REMARK SMILES IDX 94 35 59 36 42 37 43 38 52 39 44 40 45 41 51 42 53 43 46 44
REMARK SMILES IDX 47 45 48 46 49 47 50 48 76 49 77 50 86 51 78 52 79 53 85 54
REMARK SMILES IDX 87 55 80 56 81 57 82 58 83 59 84 60 60 61 61 62 70 63 62 64
REMARK SMILES IDX 63 65 69 66 71 67 64 68 65 69 66 70 67 71 68 72 5 73 6 74
REMARK SMILES IDX 7 75 8 76 9 77 10 78 11 79 12 80 17 81 13 82 16 83 14 84
REMARK SMILES IDX 15 85 18 87 19 89 20 90 32 91 21 92 25 93 27 94 31 95 22 96
REMARK SMILES IDX 24 97 26 98 28 99 30 100 23 101 29 102
REMARK H PARENT 92 22 58 33 15 86 18 88
REMARK Flexibility Score: inf
ROOT
ATOM      1  C   UNL A   1      41.631  22.000  25.782  1.00  0.00     0.275 C 
ENDROOT
BRANCH   1   2
ATOM      2  O   UNL A   1      42.466  22.975  26.387  1.00  0.00    -0.458 OA
BRANCH   2   3
ATOM      3  C   UNL A   1      42.173  24.282  26.386  1.00  0.00     0.338 C 
ATOM      4  O   UNL A   1      41.964  24.869  25.327  1.00  0.00    -0.246 OA
BRANCH   3   5
ATOM      5  C   UNL A   1      42.200  25.123  27.617  1.00  0.00     0.060 A 
ATOM      6  C   UNL A   1      43.353  26.490  28.026  1.00  0.00     0.016 A 
ATOM      7  C   UNL A   1      40.563  25.076  28.418  1.00  0.00     0.016 A 
ATOM      8  C   UNL A   1      42.764  27.901  29.036  1.00  0.00     0.010 A 
ATOM      9  C   UNL A   1      40.054  26.388  29.503  1.00  0.00     0.010 A 
ATOM     10  C   UNL A   1      41.120  27.777  29.877  1.00  0.00    -0.014 A 
BRANCH  10  11
ATOM     11  C   UNL A   1      40.856  28.536  31.140  1.00  0.00     0.031 A 
ATOM     12  C   UNL A   1      41.867  28.508  32.281  1.00  0.00     0.074 A 
ATOM     13  C   UNL A   1      39.951  29.520  31.026  1.00  0.00     0.049 A 
ATOM     14  N   UNL A   1      41.936  29.303  33.319  1.00  0.00    -0.248 NA
ATOM     15  C   UNL A   1      42.978  27.536  32.249  1.00  0.00     0.031 C 
ATOM     16  C   UNL A   1      39.044  29.659  29.892  1.00  0.00     0.029 A 
ATOM     17  N   UNL A   1      39.714  30.635  31.771  1.00  0.00    -0.354 N 
ATOM     18  C   UNL A   1      43.055  28.895  34.046  1.00  0.00     0.074 A 
ATOM     19  C   UNL A   1      43.679  27.827  33.330  1.00  0.00     0.031 C 
ATOM     20  C   UNL A   1      38.473  30.863  29.915  1.00  0.00     0.029 A 
ATOM     21  C   UNL A   1      38.776  31.465  31.201  1.00  0.00     0.049 A 
ATOM     22  H   UNL A   1      40.165  30.828  32.624  1.00  0.00     0.167 HD
ATOM     23  C   UNL A   1      43.502  29.360  35.232  1.00  0.00     0.037 A 
ATOM     24  C   UNL A   1      38.128  32.520  31.723  1.00  0.00     0.037 A 
ATOM     25  C   UNL A   1      42.839  30.423  35.923  1.00  0.00     0.049 A 
ATOM     26  C   UNL A   1      38.514  32.895  33.120  1.00  0.00     0.074 A 
ATOM     27  C   UNL A   1      43.099  30.929  37.179  1.00  0.00     0.029 A 
ATOM     28  N   UNL A   1      41.751  31.119  35.413  1.00  0.00    -0.354 N 
ATOM     29  N   UNL A   1      39.519  32.445  33.836  1.00  0.00    -0.248 NA
ATOM     30  C   UNL A   1      37.657  33.861  33.807  1.00  0.00     0.031 C 
ATOM     31  C   UNL A   1      42.103  31.864  37.467  1.00  0.00     0.029 A 
ATOM     32  C   UNL A   1      41.281  32.005  36.356  1.00  0.00     0.049 A 
ATOM     33  H   UNL A   1      41.374  30.997  34.512  1.00  0.00     0.167 HD
ATOM     34  C   UNL A   1      39.400  33.049  35.074  1.00  0.00     0.074 A 
ATOM     35  C   UNL A   1      38.257  33.942  34.986  1.00  0.00     0.031 C 
ATOM     36  C   UNL A   1      40.141  32.871  36.194  1.00  0.00     0.037 A 
BRANCH  23  37
ATOM     37  C   UNL A   1      44.624  28.628  35.918  1.00  0.00     0.058 A 
ATOM     38  C   UNL A   1      44.432  27.509  36.742  1.00  0.00     0.135 A 
ATOM     39  C   UNL A   1      45.945  29.049  35.687  1.00  0.00     0.135 A 
ATOM     40  F   UNL A   1      43.192  27.091  37.041  1.00  0.00    -0.206 F 
ATOM     41  C   UNL A   1      45.514  26.814  37.285  1.00  0.00     0.059 A 
ATOM     42  C   UNL A   1      47.038  28.358  36.198  1.00  0.00     0.059 A 
ATOM     43  F   UNL A   1      46.182  30.138  34.939  1.00  0.00    -0.206 F 
ATOM     44  C   UNL A   1      46.814  27.235  36.989  1.00  0.00     0.060 A 
BRANCH  44  45
ATOM     45  S   UNL A   1      48.209  26.270  37.612  1.00  0.00     0.124 S 
ATOM     46  O   UNL A   1      49.047  26.156  36.421  1.00  0.00    -0.237 OA
ATOM     47  O   UNL A   1      48.728  27.130  38.671  1.00  0.00    -0.237 OA
ATOM     48  O   UNL A   1      47.592  25.027  38.063  1.00  0.00    -0.744 OA
ENDBRANCH  44  45
ENDBRANCH  23  37
BRANCH  24  49
ATOM     49  C   UNL A   1      36.942  33.083  31.020  1.00  0.00     0.058 A 
ATOM     50  C   UNL A   1      35.632  32.718  31.345  1.00  0.00     0.135 A 
ATOM     51  C   UNL A   1      37.113  34.022  29.981  1.00  0.00     0.135 A 
ATOM     52  F   UNL A   1      35.403  31.818  32.314  1.00  0.00    -0.206 F 
ATOM     53  C   UNL A   1      34.540  33.251  30.661  1.00  0.00     0.059 A 
ATOM     54  C   UNL A   1      36.043  34.617  29.333  1.00  0.00     0.059 A 
ATOM     55  F   UNL A   1      38.347  34.396  29.602  1.00  0.00    -0.206 F 
ATOM     56  C   UNL A   1      34.758  34.203  29.660  1.00  0.00     0.060 A 
BRANCH  56  57
ATOM     57  S   UNL A   1      33.342  34.879  28.771  1.00  0.00     0.124 S 
ATOM     58  O   UNL A   1      32.424  35.170  29.867  1.00  0.00    -0.237 OA
ATOM     59  O   UNL A   1      33.927  36.038  28.101  1.00  0.00    -0.237 OA
ATOM     60  O   UNL A   1      32.944  33.790  27.885  1.00  0.00    -0.744 OA
ENDBRANCH  56  57
ENDBRANCH  24  49
BRANCH  36  61
ATOM     61  C   UNL A   1      39.743  33.676  37.385  1.00  0.00     0.058 A 
ATOM     62  C   UNL A   1      38.896  33.151  38.370  1.00  0.00     0.135 A 
ATOM     63  C   UNL A   1      40.276  34.961  37.567  1.00  0.00     0.135 A 
ATOM     64  F   UNL A   1      38.359  31.928  38.222  1.00  0.00    -0.206 F 
ATOM     65  C   UNL A   1      38.571  33.888  39.496  1.00  0.00     0.059 A 
ATOM     66  C   UNL A   1      39.997  35.696  38.706  1.00  0.00     0.059 A 
ATOM     67  F   UNL A   1      41.101  35.488  36.649  1.00  0.00    -0.206 F 
ATOM     68  C   UNL A   1      39.135  35.155  39.659  1.00  0.00     0.060 A 
BRANCH  68  69
ATOM     69  S   UNL A   1      38.747  36.076  41.155  1.00  0.00     0.124 S 
ATOM     70  O   UNL A   1      37.481  35.468  41.551  1.00  0.00    -0.237 OA
ATOM     71  O   UNL A   1      39.893  35.776  42.007  1.00  0.00    -0.237 OA
ATOM     72  O   UNL A   1      38.661  37.457  40.691  1.00  0.00    -0.744 OA
ENDBRANCH  68  69
ENDBRANCH  36  61
ENDBRANCH  10  11
ENDBRANCH   3   5
ENDBRANCH   2   3
ENDBRANCH   1   2
BRANCH   1  73
ATOM     73  C   UNL A   1      40.404  21.677  26.661  1.00  0.00     0.274 C 
BRANCH  73  74
ATOM     74  O   UNL A   1      39.163  22.349  26.297  1.00  0.00    -0.461 OA
BRANCH  74  75
ATOM     75  C   UNL A   1      38.174  21.670  25.633  1.00  0.00     0.329 C 
ATOM     76  O   UNL A   1      38.343  20.547  25.175  1.00  0.00    -0.250 OA
BRANCH  75  77
ATOM     77  C   UNL A   1      36.790  22.487  25.573  1.00  0.00     0.194 C 
BRANCH  77  78
ATOM     78  C   UNL A   1      36.190  23.362  24.033  1.00  0.00     0.072 C 
BRANCH  78  79
ATOM     79  C   UNL A   1      34.388  24.354  23.399  1.00  0.00    -0.045 A 
ATOM     80  C   UNL A   1      33.899  25.829  23.771  1.00  0.00     0.007 A 
ATOM     81  C   UNL A   1      33.131  23.845  22.744  1.00  0.00     0.007 A 
ATOM     82  C   UNL A   1      32.668  26.492  23.647  1.00  0.00     0.046 A 
ATOM     83  C   UNL A   1      31.857  24.522  22.640  1.00  0.00     0.046 A 
ATOM     84  C   UNL A   1      31.633  25.805  23.110  1.00  0.00     0.115 A 
BRANCH  84  85
ATOM     85  O   UNL A   1      30.398  26.368  23.037  1.00  0.00    -0.508 OA
ATOM     86  H   UNL A   1      29.972  26.665  23.818  1.00  0.00     0.293 HD
ENDBRANCH  84  85
ENDBRANCH  78  79
ENDBRANCH  77  78
BRANCH  77  87
ATOM     87  N   UNL A   1      35.722  21.674  26.192  1.00  0.00    -0.371 N 
ATOM     88  H   UNL A   1      36.018  21.219  27.013  1.00  0.00     0.161 HD
BRANCH  87  89
ATOM     89  C   UNL A   1      34.390  21.405  25.876  1.00  0.00     0.054 A 
ATOM     90  C   UNL A   1      33.271  22.284  26.113  1.00  0.00     0.024 A 
ATOM     91  C   UNL A   1      34.136  20.144  25.216  1.00  0.00     0.024 A 
ATOM     92  C   UNL A   1      33.299  23.614  26.624  1.00  0.00     0.012 A 
ATOM     93  C   UNL A   1      31.996  21.816  25.714  1.00  0.00     0.073 A 
ATOM     94  C   UNL A   1      32.803  19.814  24.912  1.00  0.00     0.073 A 
ATOM     95  C   UNL A   1      35.135  19.202  24.827  1.00  0.00     0.012 A 
ATOM     96  C   UNL A   1      32.161  24.426  26.707  1.00  0.00     0.001 A 
ATOM     97  C   UNL A   1      30.871  22.624  25.829  1.00  0.00     0.029 A 
ATOM     98  N   UNL A   1      31.777  20.617  25.180  1.00  0.00    -0.248 NA
ATOM     99  C   UNL A   1      32.509  18.607  24.289  1.00  0.00     0.029 A 
ATOM    100  C   UNL A   1      34.824  18.000  24.192  1.00  0.00     0.001 A 
ATOM    101  C   UNL A   1      30.937  23.927  26.310  1.00  0.00     0.002 A 
ATOM    102  C   UNL A   1      33.501  17.696  23.931  1.00  0.00     0.002 A 
ENDBRANCH  87  89
ENDBRANCH  77  87
ENDBRANCH  75  77
ENDBRANCH  74  75
ENDBRANCH  73  74
ENDBRANCH   1  73
TORSDOF 19
ENDMDL
