MODEL 1
REMARK VINA RESULT:     -12.5      0.000      0.000
REMARK SMILES O=C(OCCOC(=O)[C@@H]1CC=CC[C@@H]1C(=O)Nc1ccc(O)cc1)c1ccc(-c2c3nc(c(-c4c(F)cc(S(=O)(=O)[O-])cc4F)c4ccc([nH]4)c(-c4c(F)cc(S(=O)(=O)[O-])cc4F)c4nc(c(-c5c(F)cc(S(=O)(=O)[O-])cc5F)c5ccc2[nH]5)C=C4)C=C3)cc1
REMARK SMILES IDX 4 1 3 2 2 3 1 4 25 5 26 6 90 7 27 8 89 9 28 10 29 11 30 12
REMARK SMILES IDX 83 13 31 14 88 15 82 16 84 17 32 18 87 19 81 20 80 21 33 23
REMARK SMILES IDX 67 24 46 25 66 26 47 27 50 28 65 29 85 30 48 31 49 32 64 34
REMARK SMILES IDX 86 35 51 36 34 37 35 38 44 39 36 40 37 41 43 42 45 43 38 44
REMARK SMILES IDX 39 45 40 46 41 47 42 48 68 49 69 50 78 51 70 52 71 53 77 54
REMARK SMILES IDX 79 55 72 56 73 57 74 58 75 59 76 60 52 61 53 62 62 63 54 64
REMARK SMILES IDX 55 65 61 66 63 67 56 68 57 69 58 70 59 71 60 72 5 73 6 74
REMARK SMILES IDX 7 75 8 76 9 77 10 78 14 79 11 80 13 81 12 82 15 83 16 84
REMARK SMILES IDX 17 85 18 87 19 88 24 89 20 90 23 91 21 92 22 93
REMARK H PARENT 84 22 50 33 17 86 22 94
REMARK Flexibility Score: inf
ROOT
ATOM      1  C   UNL A   1      32.700  27.780  26.880  1.00  0.00     0.275 C 
ENDROOT
BRANCH   1   2
ATOM      2  O   UNL A   1      34.010  28.374  27.009  1.00  0.00    -0.458 OA
BRANCH   2   3
ATOM      3  C   UNL A   1      34.453  29.485  27.649  1.00  0.00     0.338 C 
ATOM      4  O   UNL A   1      33.688  30.451  27.683  1.00  0.00    -0.246 OA
BRANCH   3   5
ATOM      5  C   UNL A   1      35.832  29.692  28.233  1.00  0.00     0.060 A 
ATOM      6  C   UNL A   1      36.193  29.656  29.579  1.00  0.00     0.016 A 
ATOM      7  C   UNL A   1      36.892  29.829  27.305  1.00  0.00     0.016 A 
ATOM      8  C   UNL A   1      37.552  29.514  29.954  1.00  0.00     0.010 A 
ATOM      9  C   UNL A   1      38.250  29.705  27.685  1.00  0.00     0.010 A 
ATOM     10  C   UNL A   1      38.594  29.393  29.002  1.00  0.00    -0.014 A 
BRANCH  10  11
ATOM     11  C   UNL A   1      40.030  29.227  29.480  1.00  0.00     0.031 A 
ATOM     12  C   UNL A   1      40.427  27.820  28.705  1.00  0.00     0.074 A 
ATOM     13  C   UNL A   1      40.911  30.299  30.117  1.00  0.00     0.049 A 
ATOM     14  N   UNL A   1      41.345  27.620  27.781  1.00  0.00    -0.248 NA
ATOM     15  C   UNL A   1      39.615  26.596  28.861  1.00  0.00     0.031 C 
ATOM     16  C   UNL A   1      40.264  32.173  30.466  1.00  0.00     0.029 A 
ATOM     17  N   UNL A   1      42.863  30.772  29.861  1.00  0.00    -0.354 N 
ATOM     18  C   UNL A   1      41.585  26.279  27.713  1.00  0.00     0.074 A 
ATOM     19  C   UNL A   1      40.312  25.703  28.141  1.00  0.00     0.031 C 
ATOM     20  C   UNL A   1      41.492  33.327  30.204  1.00  0.00     0.029 A 
ATOM     21  C   UNL A   1      43.168  32.535  29.847  1.00  0.00     0.049 A 
ATOM     22  H   UNL A   1      43.573  30.100  29.755  1.00  0.00     0.167 HD
ATOM     23  C   UNL A   1      42.783  25.616  27.612  1.00  0.00     0.037 A 
ATOM     24  C   UNL A   1      44.465  32.900  29.901  1.00  0.00     0.037 A 
ATOM     25  C   UNL A   1      44.191  26.095  27.852  1.00  0.00     0.049 A 
ATOM     26  C   UNL A   1      45.492  31.762  29.710  1.00  0.00     0.074 A 
ATOM     27  C   UNL A   1      45.288  25.278  28.110  1.00  0.00     0.029 A 
ATOM     28  N   UNL A   1      44.761  27.405  27.929  1.00  0.00    -0.354 N 
ATOM     29  N   UNL A   1      45.322  30.547  29.199  1.00  0.00    -0.248 NA
ATOM     30  C   UNL A   1      46.852  31.998  30.184  1.00  0.00     0.031 C 
ATOM     31  C   UNL A   1      46.344  26.051  28.627  1.00  0.00     0.029 A 
ATOM     32  C   UNL A   1      45.993  27.398  28.615  1.00  0.00     0.049 A 
ATOM     33  H   UNL A   1      44.345  28.212  27.550  1.00  0.00     0.167 HD
ATOM     34  C   UNL A   1      46.513  29.842  29.346  1.00  0.00     0.074 A 
ATOM     35  C   UNL A   1      47.435  30.830  29.918  1.00  0.00     0.031 C 
ATOM     36  C   UNL A   1      46.832  28.527  29.097  1.00  0.00     0.037 A 
BRANCH  23  37
ATOM     37  C   UNL A   1      42.568  24.148  27.363  1.00  0.00     0.058 A 
ATOM     38  C   UNL A   1      42.449  23.720  26.032  1.00  0.00     0.135 A 
ATOM     39  C   UNL A   1      42.437  23.190  28.382  1.00  0.00     0.135 A 
ATOM     40  F   UNL A   1      42.522  24.610  25.029  1.00  0.00    -0.206 F 
ATOM     41  C   UNL A   1      42.210  22.395  25.716  1.00  0.00     0.059 A 
ATOM     42  C   UNL A   1      42.228  21.844  28.086  1.00  0.00     0.059 A 
ATOM     43  F   UNL A   1      42.501  23.556  29.672  1.00  0.00    -0.206 F 
ATOM     44  C   UNL A   1      42.110  21.461  26.748  1.00  0.00     0.060 A 
BRANCH  44  45
ATOM     45  S   UNL A   1      41.838  19.740  26.289  1.00  0.00     0.124 S 
ATOM     46  O   UNL A   1      42.292  19.044  27.489  1.00  0.00    -0.237 OA
ATOM     47  O   UNL A   1      40.399  19.714  26.047  1.00  0.00    -0.237 OA
ATOM     48  O   UNL A   1      42.675  19.567  25.107  1.00  0.00    -0.744 OA
ENDBRANCH  44  45
ENDBRANCH  23  37
BRANCH  24  49
ATOM     49  C   UNL A   1      44.760  34.202  30.509  1.00  0.00     0.058 A 
ATOM     50  C   UNL A   1      45.074  35.341  29.767  1.00  0.00     0.135 A 
ATOM     51  C   UNL A   1      44.715  34.322  31.911  1.00  0.00     0.135 A 
ATOM     52  F   UNL A   1      45.193  35.266  28.433  1.00  0.00    -0.206 F 
ATOM     53  C   UNL A   1      45.265  36.571  30.393  1.00  0.00     0.059 A 
ATOM     54  C   UNL A   1      44.860  35.537  32.552  1.00  0.00     0.059 A 
ATOM     55  F   UNL A   1      44.510  33.244  32.681  1.00  0.00    -0.206 F 
ATOM     56  C   UNL A   1      45.131  36.661  31.784  1.00  0.00     0.060 A 
BRANCH  56  57
ATOM     57  S   UNL A   1      45.271  38.266  32.588  1.00  0.00     0.124 S 
ATOM     58  O   UNL A   1      46.087  37.938  33.750  1.00  0.00    -0.237 OA
ATOM     59  O   UNL A   1      45.917  39.068  31.555  1.00  0.00    -0.237 OA
ATOM     60  O   UNL A   1      43.883  38.622  32.870  1.00  0.00    -0.744 OA
ENDBRANCH  56  57
ENDBRANCH  24  49
BRANCH  36  61
ATOM     61  C   UNL A   1      48.304  28.194  29.340  1.00  0.00     0.058 A 
ATOM     62  C   UNL A   1      49.300  28.213  28.344  1.00  0.00     0.135 A 
ATOM     63  C   UNL A   1      48.690  27.785  30.627  1.00  0.00     0.135 A 
ATOM     64  F   UNL A   1      49.003  28.603  27.094  1.00  0.00    -0.206 F 
ATOM     65  C   UNL A   1      50.593  27.744  28.592  1.00  0.00     0.059 A 
ATOM     66  C   UNL A   1      49.983  27.355  30.907  1.00  0.00     0.059 A 
ATOM     67  F   UNL A   1      47.795  27.781  31.627  1.00  0.00    -0.206 F 
ATOM     68  C   UNL A   1      50.917  27.299  29.876  1.00  0.00     0.060 A 
BRANCH  68  69
ATOM     69  S   UNL A   1      52.562  26.615  30.183  1.00  0.00     0.124 S 
ATOM     70  O   UNL A   1      53.247  27.758  30.779  1.00  0.00    -0.237 OA
ATOM     71  O   UNL A   1      52.276  25.504  31.084  1.00  0.00    -0.237 OA
ATOM     72  O   UNL A   1      53.024  26.234  28.851  1.00  0.00    -0.744 OA
ENDBRANCH  68  69
ENDBRANCH  36  61
ENDBRANCH  10  11
ENDBRANCH   3   5
ENDBRANCH   2   3
ENDBRANCH   1   2
BRANCH   1  73
ATOM     73  C   UNL A   1      32.578  26.803  25.712  1.00  0.00     0.274 C 
BRANCH  73  74
ATOM     74  O   UNL A   1      33.088  25.528  26.084  1.00  0.00    -0.462 OA
BRANCH  74  75
ATOM     75  C   UNL A   1      33.332  24.642  25.083  1.00  0.00     0.310 C 
ATOM     76  O   UNL A   1      32.540  24.334  24.201  1.00  0.00    -0.252 OA
BRANCH  75  77
ATOM     77  C   UNL A   1      34.790  24.267  25.058  1.00  0.00     0.116 C 
ATOM     78  C   UNL A   1      35.260  23.685  23.718  1.00  0.00     0.043 C 
ATOM     79  C   UNL A   1      35.347  23.490  26.282  1.00  0.00     0.097 C 
ATOM     80  C   UNL A   1      36.722  23.322  23.700  1.00  0.00    -0.030 C 
ATOM     81  C   UNL A   1      36.902  23.794  26.122  1.00  0.00     0.041 C 
ATOM     82  C   UNL A   1      37.492  23.424  24.786  1.00  0.00    -0.030 C 
BRANCH  79  83
ATOM     83  C   UNL A   1      34.423  22.132  26.840  1.00  0.00     0.228 C 
ATOM     84  O   UNL A   1      33.798  22.299  27.906  1.00  0.00    -0.274 OA
ATOM     85  N   UNL A   1      34.469  20.754  26.376  1.00  0.00    -0.326 N 
ATOM     86  H   UNL A   1      34.603  20.112  27.111  1.00  0.00     0.169 HD
BRANCH  85  87
ATOM     87  C   UNL A   1      34.348  20.005  24.884  1.00  0.00     0.041 A 
ATOM     88  C   UNL A   1      33.107  20.860  23.935  1.00  0.00     0.030 A 
ATOM     89  C   UNL A   1      34.527  17.987  24.352  1.00  0.00     0.030 A 
ATOM     90  C   UNL A   1      32.184  19.768  22.835  1.00  0.00     0.048 A 
ATOM     91  C   UNL A   1      33.487  17.209  23.268  1.00  0.00     0.048 A 
ATOM     92  C   UNL A   1      32.376  18.087  22.597  1.00  0.00     0.115 A 
BRANCH  92  93
ATOM     93  O   UNL A   1      31.545  17.466  21.702  1.00  0.00    -0.508 OA
ATOM     94  H   UNL A   1      31.653  16.554  21.518  1.00  0.00     0.293 HD
ENDBRANCH  92  93
ENDBRANCH  85  87
ENDBRANCH  79  83
ENDBRANCH  75  77
ENDBRANCH  74  75
ENDBRANCH  73  74
ENDBRANCH   1  73
TORSDOF 17
ENDMDL
MODEL 2
REMARK VINA RESULT:     -11.9      3.984      9.202
REMARK SMILES O=C(OCCOC(=O)[C@@H]1CC=CC[C@@H]1C(=O)Nc1ccc(O)cc1)c1ccc(-c2c3nc(c(-c4c(F)cc(S(=O)(=O)[O-])cc4F)c4ccc([nH]4)c(-c4c(F)cc(S(=O)(=O)[O-])cc4F)c4nc(c(-c5c(F)cc(S(=O)(=O)[O-])cc5F)c5ccc2[nH]5)C=C4)C=C3)cc1
REMARK SMILES IDX 4 1 3 2 2 3 1 4 25 5 26 6 90 7 27 8 89 9 28 10 29 11 30 12
REMARK SMILES IDX 83 13 31 14 88 15 82 16 84 17 32 18 87 19 81 20 80 21 33 23
REMARK SMILES IDX 67 24 46 25 66 26 47 27 50 28 65 29 85 30 48 31 49 32 64 34
REMARK SMILES IDX 86 35 51 36 34 37 35 38 44 39 36 40 37 41 43 42 45 43 38 44
REMARK SMILES IDX 39 45 40 46 41 47 42 48 68 49 69 50 78 51 70 52 71 53 77 54
REMARK SMILES IDX 79 55 72 56 73 57 74 58 75 59 76 60 52 61 53 62 62 63 54 64
REMARK SMILES IDX 55 65 61 66 63 67 56 68 57 69 58 70 59 71 60 72 5 73 6 74
REMARK SMILES IDX 7 75 8 76 9 77 10 78 14 79 11 80 13 81 12 82 15 83 16 84
REMARK SMILES IDX 17 85 18 87 19 88 24 89 20 90 23 91 21 92 22 93
REMARK H PARENT 84 22 50 33 17 86 22 94
REMARK Flexibility Score: inf
ROOT
ATOM      1  C   UNL A   1      32.224  30.585  26.442  1.00  0.00     0.275 C 
ENDROOT
BRANCH   1   2
ATOM      2  O   UNL A   1      33.020  30.829  27.622  1.00  0.00    -0.458 OA
BRANCH   2   3
ATOM      3  C   UNL A   1      33.956  31.763  27.918  1.00  0.00     0.338 C 
ATOM      4  O   UNL A   1      33.572  32.932  28.001  1.00  0.00    -0.246 OA
BRANCH   3   5
ATOM      5  C   UNL A   1      35.443  31.529  28.054  1.00  0.00     0.060 A 
ATOM      6  C   UNL A   1      36.428  32.482  28.310  1.00  0.00     0.016 A 
ATOM      7  C   UNL A   1      35.872  30.181  28.026  1.00  0.00     0.016 A 
ATOM      8  C   UNL A   1      37.713  32.084  28.759  1.00  0.00     0.010 A 
ATOM      9  C   UNL A   1      37.161  29.787  28.457  1.00  0.00     0.010 A 
ATOM     10  C   UNL A   1      38.054  30.726  28.975  1.00  0.00    -0.014 A 
BRANCH  10  11
ATOM     11  C   UNL A   1      39.450  30.376  29.474  1.00  0.00     0.031 A 
ATOM     12  C   UNL A   1      39.322  30.871  31.047  1.00  0.00     0.074 A 
ATOM     13  C   UNL A   1      40.455  29.447  28.798  1.00  0.00     0.049 A 
ATOM     14  N   UNL A   1      39.399  30.149  32.147  1.00  0.00    -0.248 NA
ATOM     15  C   UNL A   1      38.908  32.246  31.394  1.00  0.00     0.031 C 
ATOM     16  C   UNL A   1      40.081  28.529  27.046  1.00  0.00     0.029 A 
ATOM     17  N   UNL A   1      41.699  28.032  29.540  1.00  0.00    -0.354 N 
ATOM     18  C   UNL A   1      39.623  30.998  33.191  1.00  0.00     0.074 A 
ATOM     19  C   UNL A   1      39.004  32.240  32.733  1.00  0.00     0.031 C 
ATOM     20  C   UNL A   1      40.738  26.955  27.002  1.00  0.00     0.029 A 
ATOM     21  C   UNL A   1      41.795  26.568  28.517  1.00  0.00     0.049 A 
ATOM     22  H   UNL A   1      42.200  28.139  30.380  1.00  0.00     0.167 HD
ATOM     23  C   UNL A   1      40.488  30.864  34.249  1.00  0.00     0.037 A 
ATOM     24  C   UNL A   1      42.768  25.693  28.845  1.00  0.00     0.037 A 
ATOM     25  C   UNL A   1      41.660  29.937  34.443  1.00  0.00     0.049 A 
ATOM     26  C   UNL A   1      43.480  25.953  30.191  1.00  0.00     0.074 A 
ATOM     27  C   UNL A   1      42.701  30.133  35.347  1.00  0.00     0.029 A 
ATOM     28  N   UNL A   1      42.045  28.723  33.792  1.00  0.00    -0.354 N 
ATOM     29  N   UNL A   1      43.095  26.703  31.220  1.00  0.00    -0.248 NA
ATOM     30  C   UNL A   1      44.789  25.339  30.390  1.00  0.00     0.031 C 
ATOM     31  C   UNL A   1      43.776  29.285  35.021  1.00  0.00     0.029 A 
ATOM     32  C   UNL A   1      43.417  28.448  33.968  1.00  0.00     0.049 A 
ATOM     33  H   UNL A   1      41.428  28.150  33.282  1.00  0.00     0.167 HD
ATOM     34  C   UNL A   1      44.124  26.718  32.157  1.00  0.00     0.074 A 
ATOM     35  C   UNL A   1      45.122  25.801  31.594  1.00  0.00     0.031 C 
ATOM     36  C   UNL A   1      44.283  27.426  33.326  1.00  0.00     0.037 A 
BRANCH  23  37
ATOM     37  C   UNL A   1      40.263  31.945  35.270  1.00  0.00     0.058 A 
ATOM     38  C   UNL A   1      41.082  33.083  35.210  1.00  0.00     0.135 A 
ATOM     39  C   UNL A   1      39.313  31.865  36.302  1.00  0.00     0.135 A 
ATOM     40  F   UNL A   1      42.033  33.180  34.268  1.00  0.00    -0.206 F 
ATOM     41  C   UNL A   1      40.968  34.106  36.134  1.00  0.00     0.059 A 
ATOM     42  C   UNL A   1      39.160  32.898  37.224  1.00  0.00     0.059 A 
ATOM     43  F   UNL A   1      38.535  30.778  36.427  1.00  0.00    -0.206 F 
ATOM     44  C   UNL A   1      39.999  34.010  37.132  1.00  0.00     0.060 A 
BRANCH  44  45
ATOM     45  S   UNL A   1      39.859  35.384  38.290  1.00  0.00     0.124 S 
ATOM     46  O   UNL A   1      38.704  34.978  39.085  1.00  0.00    -0.237 OA
ATOM     47  O   UNL A   1      41.148  35.336  38.975  1.00  0.00    -0.237 OA
ATOM     48  O   UNL A   1      39.653  36.539  37.425  1.00  0.00    -0.744 OA
ENDBRANCH  44  45
ENDBRANCH  23  37
BRANCH  24  49
ATOM     49  C   UNL A   1      43.305  24.864  27.760  1.00  0.00     0.058 A 
ATOM     50  C   UNL A   1      44.243  25.325  26.836  1.00  0.00     0.135 A 
ATOM     51  C   UNL A   1      42.867  23.530  27.645  1.00  0.00     0.135 A 
ATOM     52  F   UNL A   1      44.643  26.605  26.862  1.00  0.00    -0.206 F 
ATOM     53  C   UNL A   1      44.780  24.470  25.876  1.00  0.00     0.059 A 
ATOM     54  C   UNL A   1      43.414  22.652  26.729  1.00  0.00     0.059 A 
ATOM     55  F   UNL A   1      41.901  23.059  28.445  1.00  0.00    -0.206 F 
ATOM     56  C   UNL A   1      44.376  23.130  25.850  1.00  0.00     0.060 A 
BRANCH  56  57
ATOM     57  S   UNL A   1      45.144  21.993  24.682  1.00  0.00     0.124 S 
ATOM     58  O   UNL A   1      45.278  22.837  23.501  1.00  0.00    -0.237 OA
ATOM     59  O   UNL A   1      46.384  21.646  25.367  1.00  0.00    -0.237 OA
ATOM     60  O   UNL A   1      44.170  20.910  24.579  1.00  0.00    -0.744 OA
ENDBRANCH  56  57
ENDBRANCH  24  49
BRANCH  36  61
ATOM     61  C   UNL A   1      45.559  27.074  34.090  1.00  0.00     0.058 A 
ATOM     62  C   UNL A   1      46.816  27.671  33.861  1.00  0.00     0.135 A 
ATOM     63  C   UNL A   1      45.501  26.049  35.048  1.00  0.00     0.135 A 
ATOM     64  F   UNL A   1      46.942  28.664  32.966  1.00  0.00    -0.206 F 
ATOM     65  C   UNL A   1      47.976  27.195  34.477  1.00  0.00     0.059 A 
ATOM     66  C   UNL A   1      46.637  25.589  35.706  1.00  0.00     0.059 A 
ATOM     67  F   UNL A   1      44.327  25.467  35.337  1.00  0.00    -0.206 F 
ATOM     68  C   UNL A   1      47.875  26.139  35.385  1.00  0.00     0.060 A 
BRANCH  68  69
ATOM     69  S   UNL A   1      49.381  25.465  36.124  1.00  0.00     0.124 S 
ATOM     70  O   UNL A   1      48.849  24.765  37.289  1.00  0.00    -0.237 OA
ATOM     71  O   UNL A   1      49.903  24.619  35.057  1.00  0.00    -0.237 OA
ATOM     72  O   UNL A   1      50.175  26.655  36.419  1.00  0.00    -0.744 OA
ENDBRANCH  68  69
ENDBRANCH  36  61
ENDBRANCH  10  11
ENDBRANCH   3   5
ENDBRANCH   2   3
ENDBRANCH   1   2
BRANCH   1  73
ATOM     73  C   UNL A   1      32.869  29.617  25.452  1.00  0.00     0.274 C 
BRANCH  73  74
ATOM     74  O   UNL A   1      33.057  28.345  26.062  1.00  0.00    -0.462 OA
BRANCH  74  75
ATOM     75  C   UNL A   1      33.166  27.272  25.236  1.00  0.00     0.310 C 
ATOM     76  O   UNL A   1      34.028  27.122  24.378  1.00  0.00    -0.252 OA
BRANCH  75  77
ATOM     77  C   UNL A   1      32.233  26.175  25.675  1.00  0.00     0.116 C 
ATOM     78  C   UNL A   1      32.947  24.917  26.186  1.00  0.00     0.043 C 
ATOM     79  C   UNL A   1      31.029  25.851  24.748  1.00  0.00     0.097 C 
ATOM     80  C   UNL A   1      32.004  23.829  26.632  1.00  0.00    -0.030 C 
ATOM     81  C   UNL A   1      30.068  25.116  25.785  1.00  0.00     0.041 C 
ATOM     82  C   UNL A   1      30.680  23.941  26.501  1.00  0.00    -0.030 C 
BRANCH  79  83
ATOM     83  C   UNL A   1      31.364  25.666  23.057  1.00  0.00     0.228 C 
ATOM     84  O   UNL A   1      31.040  26.624  22.329  1.00  0.00    -0.274 OA
ATOM     85  N   UNL A   1      31.742  24.460  22.337  1.00  0.00    -0.326 N 
ATOM     86  H   UNL A   1      31.166  24.289  21.557  1.00  0.00     0.169 HD
BRANCH  85  87
ATOM     87  C   UNL A   1      32.929  23.294  22.524  1.00  0.00     0.041 A 
ATOM     88  C   UNL A   1      32.154  21.808  23.127  1.00  0.00     0.030 A 
ATOM     89  C   UNL A   1      34.927  23.466  23.126  1.00  0.00     0.030 A 
ATOM     90  C   UNL A   1      33.214  20.860  24.237  1.00  0.00     0.048 A 
ATOM     91  C   UNL A   1      35.673  22.404  24.212  1.00  0.00     0.048 A 
ATOM     92  C   UNL A   1      34.813  21.202  24.732  1.00  0.00     0.115 A 
BRANCH  92  93
ATOM     93  O   UNL A   1      35.419  20.328  25.595  1.00  0.00    -0.508 OA
ATOM     94  H   UNL A   1      34.997  19.522  25.818  1.00  0.00     0.293 HD
ENDBRANCH  92  93
ENDBRANCH  85  87
ENDBRANCH  79  83
ENDBRANCH  75  77
ENDBRANCH  74  75
ENDBRANCH  73  74
ENDBRANCH   1  73
TORSDOF 17
ENDMDL
MODEL 3
REMARK VINA RESULT:     -11.8      3.621      8.966
REMARK SMILES O=C(OCCOC(=O)[C@@H]1CC=CC[C@@H]1C(=O)Nc1ccc(O)cc1)c1ccc(-c2c3nc(c(-c4c(F)cc(S(=O)(=O)[O-])cc4F)c4ccc([nH]4)c(-c4c(F)cc(S(=O)(=O)[O-])cc4F)c4nc(c(-c5c(F)cc(S(=O)(=O)[O-])cc5F)c5ccc2[nH]5)C=C4)C=C3)cc1
REMARK SMILES IDX 4 1 3 2 2 3 1 4 25 5 26 6 90 7 27 8 89 9 28 10 29 11 30 12
REMARK SMILES IDX 83 13 31 14 88 15 82 16 84 17 32 18 87 19 81 20 80 21 33 23
REMARK SMILES IDX 67 24 46 25 66 26 47 27 50 28 65 29 85 30 48 31 49 32 64 34
REMARK SMILES IDX 86 35 51 36 34 37 35 38 44 39 36 40 37 41 43 42 45 43 38 44
REMARK SMILES IDX 39 45 40 46 41 47 42 48 68 49 69 50 78 51 70 52 71 53 77 54
REMARK SMILES IDX 79 55 72 56 73 57 74 58 75 59 76 60 52 61 53 62 62 63 54 64
REMARK SMILES IDX 55 65 61 66 63 67 56 68 57 69 58 70 59 71 60 72 5 73 6 74
REMARK SMILES IDX 7 75 8 76 9 77 10 78 14 79 11 80 13 81 12 82 15 83 16 84
REMARK SMILES IDX 17 85 18 87 19 88 24 89 20 90 23 91 21 92 22 93
REMARK H PARENT 84 22 50 33 17 86 22 94
REMARK Flexibility Score: inf
ROOT
ATOM      1  C   UNL A   1      32.294  29.435  27.154  1.00  0.00     0.275 C 
ENDROOT
BRANCH   1   2
ATOM      2  O   UNL A   1      33.387  30.334  26.862  1.00  0.00    -0.458 OA
BRANCH   2   3
ATOM      3  C   UNL A   1      34.062  31.232  27.621  1.00  0.00     0.338 C 
ATOM      4  O   UNL A   1      33.638  32.389  27.628  1.00  0.00    -0.246 OA
BRANCH   3   5
ATOM      5  C   UNL A   1      35.346  30.977  28.377  1.00  0.00     0.060 A 
ATOM      6  C   UNL A   1      35.762  29.779  28.956  1.00  0.00     0.016 A 
ATOM      7  C   UNL A   1      36.279  32.042  28.407  1.00  0.00     0.016 A 
ATOM      8  C   UNL A   1      37.119  29.590  29.317  1.00  0.00     0.010 A 
ATOM      9  C   UNL A   1      37.629  31.854  28.786  1.00  0.00     0.010 A 
ATOM     10  C   UNL A   1      38.107  30.582  29.104  1.00  0.00    -0.014 A 
BRANCH  10  11
ATOM     11  C   UNL A   1      39.550  30.299  29.503  1.00  0.00     0.031 A 
ATOM     12  C   UNL A   1      39.535  30.876  31.053  1.00  0.00     0.074 A 
ATOM     13  C   UNL A   1      40.527  29.363  28.795  1.00  0.00     0.049 A 
ATOM     14  N   UNL A   1      39.726  30.218  32.179  1.00  0.00    -0.248 NA
ATOM     15  C   UNL A   1      39.105  32.256  31.361  1.00  0.00     0.031 C 
ATOM     16  C   UNL A   1      40.041  28.340  27.131  1.00  0.00     0.029 A 
ATOM     17  N   UNL A   1      41.873  28.027  29.504  1.00  0.00    -0.354 N 
ATOM     18  C   UNL A   1      40.006  31.129  33.155  1.00  0.00     0.074 A 
ATOM     19  C   UNL A   1      39.311  32.325  32.685  1.00  0.00     0.031 C 
ATOM     20  C   UNL A   1      40.744  26.786  27.114  1.00  0.00     0.029 A 
ATOM     21  C   UNL A   1      41.934  26.512  28.554  1.00  0.00     0.049 A 
ATOM     22  H   UNL A   1      42.438  28.194  30.292  1.00  0.00     0.167 HD
ATOM     23  C   UNL A   1      40.959  31.078  34.142  1.00  0.00     0.037 A 
ATOM     24  C   UNL A   1      42.958  25.685  28.845  1.00  0.00     0.037 A 
ATOM     25  C   UNL A   1      42.172  30.197  34.287  1.00  0.00     0.049 A 
ATOM     26  C   UNL A   1      43.769  26.039  30.112  1.00  0.00     0.074 A 
ATOM     27  C   UNL A   1      43.277  30.471  35.089  1.00  0.00     0.029 A 
ATOM     28  N   UNL A   1      42.543  28.960  33.670  1.00  0.00    -0.354 N 
ATOM     29  N   UNL A   1      43.445  26.833  31.128  1.00  0.00    -0.248 NA
ATOM     30  C   UNL A   1      45.109  25.474  30.233  1.00  0.00     0.031 C 
ATOM     31  C   UNL A   1      44.349  29.638  34.719  1.00  0.00     0.029 A 
ATOM     32  C   UNL A   1      43.933  28.735  33.745  1.00  0.00     0.049 A 
ATOM     33  H   UNL A   1      41.905  28.343  33.244  1.00  0.00     0.167 HD
ATOM     34  C   UNL A   1      44.546  26.929  31.974  1.00  0.00     0.074 A 
ATOM     35  C   UNL A   1      45.524  26.011  31.378  1.00  0.00     0.031 C 
ATOM     36  C   UNL A   1      44.777  27.704  33.087  1.00  0.00     0.037 A 
BRANCH  23  37
ATOM     37  C   UNL A   1      40.782  32.206  35.121  1.00  0.00     0.058 A 
ATOM     38  C   UNL A   1      39.867  32.025  36.170  1.00  0.00     0.135 A 
ATOM     39  C   UNL A   1      41.444  33.440  35.026  1.00  0.00     0.135 A 
ATOM     40  F   UNL A   1      39.178  30.877  36.273  1.00  0.00    -0.206 F 
ATOM     41  C   UNL A   1      39.613  33.026  37.091  1.00  0.00     0.059 A 
ATOM     42  C   UNL A   1      41.229  34.451  35.960  1.00  0.00     0.059 A 
ATOM     43  F   UNL A   1      42.298  33.678  34.016  1.00  0.00    -0.206 F 
ATOM     44  C   UNL A   1      40.306  34.232  36.985  1.00  0.00     0.060 A 
BRANCH  44  45
ATOM     45  S   UNL A   1      39.974  35.492  38.230  1.00  0.00     0.124 S 
ATOM     46  O   UNL A   1      38.855  34.898  38.954  1.00  0.00    -0.237 OA
ATOM     47  O   UNL A   1      41.241  35.544  38.954  1.00  0.00    -0.237 OA
ATOM     48  O   UNL A   1      39.655  36.675  37.439  1.00  0.00    -0.744 OA
ENDBRANCH  44  45
ENDBRANCH  23  37
BRANCH  24  49
ATOM     49  C   UNL A   1      43.431  24.813  27.764  1.00  0.00     0.058 A 
ATOM     50  C   UNL A   1      44.263  25.253  26.734  1.00  0.00     0.135 A 
ATOM     51  C   UNL A   1      43.043  23.460  27.764  1.00  0.00     0.135 A 
ATOM     52  F   UNL A   1      44.610  26.546  26.652  1.00  0.00    -0.206 F 
ATOM     53  C   UNL A   1      44.750  24.363  25.779  1.00  0.00     0.059 A 
ATOM     54  C   UNL A   1      43.543  22.550  26.853  1.00  0.00     0.059 A 
ATOM     55  F   UNL A   1      42.172  23.001  28.674  1.00  0.00    -0.206 F 
ATOM     56  C   UNL A   1      44.402  23.009  25.864  1.00  0.00     0.060 A 
BRANCH  56  57
ATOM     57  S   UNL A   1      45.111  21.835  24.697  1.00  0.00     0.124 S 
ATOM     58  O   UNL A   1      45.244  22.658  23.502  1.00  0.00    -0.237 OA
ATOM     59  O   UNL A   1      46.356  21.461  25.361  1.00  0.00    -0.237 OA
ATOM     60  O   UNL A   1      44.104  20.779  24.631  1.00  0.00    -0.744 OA
ENDBRANCH  56  57
ENDBRANCH  24  49
BRANCH  36  61
ATOM     61  C   UNL A   1      46.122  27.431  33.759  1.00  0.00     0.058 A 
ATOM     62  C   UNL A   1      46.316  26.509  34.808  1.00  0.00     0.135 A 
ATOM     63  C   UNL A   1      47.236  28.182  33.350  1.00  0.00     0.135 A 
ATOM     64  F   UNL A   1      45.297  25.750  35.242  1.00  0.00    -0.206 F 
ATOM     65  C   UNL A   1      47.533  26.420  35.489  1.00  0.00     0.059 A 
ATOM     66  C   UNL A   1      48.469  28.078  33.985  1.00  0.00     0.059 A 
ATOM     67  F   UNL A   1      47.123  29.049  32.332  1.00  0.00    -0.206 F 
ATOM     68  C   UNL A   1      48.598  27.225  35.079  1.00  0.00     0.060 A 
BRANCH  68  69
ATOM     69  S   UNL A   1      50.150  27.175  36.006  1.00  0.00     0.124 S 
ATOM     70  O   UNL A   1      51.131  27.076  34.930  1.00  0.00    -0.237 OA
ATOM     71  O   UNL A   1      50.124  28.441  36.729  1.00  0.00    -0.237 OA
ATOM     72  O   UNL A   1      50.009  25.981  36.836  1.00  0.00    -0.744 OA
ENDBRANCH  68  69
ENDBRANCH  36  61
ENDBRANCH  10  11
ENDBRANCH   3   5
ENDBRANCH   2   3
ENDBRANCH   1   2
BRANCH   1  73
ATOM     73  C   UNL A   1      32.640  27.960  26.962  1.00  0.00     0.274 C 
BRANCH  73  74
ATOM     74  O   UNL A   1      31.466  27.163  27.070  1.00  0.00    -0.462 OA
BRANCH  74  75
ATOM     75  C   UNL A   1      31.147  26.383  26.005  1.00  0.00     0.310 C 
ATOM     76  O   UNL A   1      30.037  26.303  25.492  1.00  0.00    -0.252 OA
BRANCH  75  77
ATOM     77  C   UNL A   1      32.392  25.810  25.382  1.00  0.00     0.116 C 
ATOM     78  C   UNL A   1      32.280  25.573  23.870  1.00  0.00     0.043 C 
ATOM     79  C   UNL A   1      33.085  24.635  26.127  1.00  0.00     0.097 C 
ATOM     80  C   UNL A   1      33.534  25.009  23.255  1.00  0.00    -0.030 C 
ATOM     81  C   UNL A   1      34.545  24.728  25.496  1.00  0.00     0.041 C 
ATOM     82  C   UNL A   1      34.596  24.672  23.991  1.00  0.00    -0.030 C 
BRANCH  79  83
ATOM     83  C   UNL A   1      32.071  23.335  26.664  1.00  0.00     0.228 C 
ATOM     84  O   UNL A   1      31.048  23.666  27.295  1.00  0.00    -0.274 OA
ATOM     85  N   UNL A   1      32.368  21.911  26.698  1.00  0.00    -0.326 N 
ATOM     86  H   UNL A   1      32.207  21.513  27.584  1.00  0.00     0.169 HD
BRANCH  85  87
ATOM     87  C   UNL A   1      32.920  20.792  25.582  1.00  0.00     0.041 A 
ATOM     88  C   UNL A   1      32.629  21.446  23.952  1.00  0.00     0.030 A 
ATOM     89  C   UNL A   1      32.905  18.698  25.630  1.00  0.00     0.030 A 
ATOM     90  C   UNL A   1      32.242  20.168  22.739  1.00  0.00     0.048 A 
ATOM     91  C   UNL A   1      32.486  17.734  24.303  1.00  0.00     0.048 A 
ATOM     92  C   UNL A   1      32.153  18.477  22.964  1.00  0.00     0.115 A 
BRANCH  92  93
ATOM     93  O   UNL A   1      31.834  17.700  21.882  1.00  0.00    -0.508 OA
ATOM     94  H   UNL A   1      31.095  17.125  21.921  1.00  0.00     0.293 HD
ENDBRANCH  92  93
ENDBRANCH  85  87
ENDBRANCH  79  83
ENDBRANCH  75  77
ENDBRANCH  74  75
ENDBRANCH  73  74
ENDBRANCH   1  73
TORSDOF 17
ENDMDL
