MODEL 1
REMARK VINA RESULT:     -11.5      0.000      0.000
REMARK SMILES [NH3+][C@H](Cc1cnc2[nH]cccc1-2)C(=O)OCCOC(=O)c1ccc(-c2c3nc(c(-c4c(F)cc(S(=O)(=O)[O-])cc4F)c4ccc([nH]4)c(-c4c(F)cc(S(=O)(=O)[O-])cc4F)c4nc(c(-c5c(F)cc(S(=O)(=O)[O-])cc5F)c5ccc2[nH]5)C=C4)C=C3)cc1
REMARK SMILES IDX 17 1 16 2 15 3 13 4 14 5 2 6 1 7 3 11 4 12 5 13 12 14 6 15
REMARK SMILES IDX 7 16 11 17 8 18 10 19 9 20 18 22 19 23 20 24 21 25 22 26
REMARK SMILES IDX 86 27 23 28 85 29 24 30 25 31 26 32 79 33 27 34 84 35 78 36
REMARK SMILES IDX 80 37 28 38 83 39 77 40 76 41 29 43 63 44 42 45 62 46 43 47
REMARK SMILES IDX 46 48 61 49 81 50 44 51 45 52 60 54 82 55 47 56 30 57 31 58
REMARK SMILES IDX 40 59 32 60 33 61 39 62 41 63 34 64 35 65 36 66 37 67 38 68
REMARK SMILES IDX 64 69 65 70 74 71 66 72 67 73 73 74 75 75 68 76 69 77 70 78
REMARK SMILES IDX 71 79 72 80 48 81 49 82 58 83 50 84 51 85 57 86 59 87 52 88
REMARK SMILES IDX 53 89 54 90 55 91 56 92
REMARK H PARENT 1 8 1 9 1 10 8 21 80 42 46 53
REMARK Flexibility Score: inf
ROOT
ATOM      1  C   UNL A   1      40.822  20.403  26.658  1.00  0.00     0.275 C 
ENDROOT
BRANCH   1   2
ATOM      2  C   UNL A   1      42.237  20.482  26.081  1.00  0.00     0.274 C 
BRANCH   2   3
ATOM      3  O   UNL A   1      42.502  19.328  25.253  1.00  0.00    -0.458 OA
BRANCH   3   4
ATOM      4  C   UNL A   1      43.818  19.017  25.124  1.00  0.00     0.365 C 
ATOM      5  O   UNL A   1      44.317  17.990  25.574  1.00  0.00    -0.245 OA
BRANCH   4   6
ATOM      6  C   UNL A   1      44.631  20.089  24.376  1.00  0.00     0.296 C 
BRANCH   6   7
ATOM      7  N   UNL A   1      44.916  19.562  23.042  1.00  0.00    -0.346 N 
ATOM      8  H   UNL A   1      44.568  18.605  22.973  1.00  0.00     0.345 HD
ATOM      9  H   UNL A   1      45.923  19.570  22.881  1.00  0.00     0.345 HD
ATOM     10  H   UNL A   1      44.455  20.144  22.341  1.00  0.00     0.345 HD
ENDBRANCH   6   7
BRANCH   6  11
ATOM     11  C   UNL A   1      45.824  20.730  25.126  1.00  0.00     0.115 C 
BRANCH  11  12
ATOM     12  C   UNL A   1      45.791  22.226  25.028  1.00  0.00    -0.012 A 
ATOM     13  C   UNL A   1      46.293  23.056  24.089  1.00  0.00     0.118 A 
ATOM     14  C   UNL A   1      45.471  23.093  26.121  1.00  0.00     0.022 A 
ATOM     15  N   UNL A   1      46.423  24.389  24.479  1.00  0.00    -0.238 NA
ATOM     16  C   UNL A   1      46.008  24.423  25.721  1.00  0.00     0.137 A 
ATOM     17  C   UNL A   1      44.945  22.947  27.344  1.00  0.00     0.014 A 
ATOM     18  N   UNL A   1      46.032  25.433  26.645  1.00  0.00    -0.346 N 
ATOM     19  C   UNL A   1      45.085  24.021  28.319  1.00  0.00     0.018 A 
ATOM     20  C   UNL A   1      45.627  25.197  27.944  1.00  0.00     0.084 A 
ATOM     21  H   UNL A   1      46.340  26.331  26.383  1.00  0.00     0.167 HD
ENDBRANCH  11  12
ENDBRANCH   6  11
ENDBRANCH   4   6
ENDBRANCH   3   4
ENDBRANCH   2   3
ENDBRANCH   1   2
BRANCH   1  22
ATOM     22  O   UNL A   1      40.502  21.637  27.319  1.00  0.00    -0.458 OA
BRANCH  22  23
ATOM     23  C   UNL A   1      39.619  22.451  26.697  1.00  0.00     0.338 C 
ATOM     24  O   UNL A   1      38.474  22.162  26.357  1.00  0.00    -0.246 OA
BRANCH  23  25
ATOM     25  C   UNL A   1      40.123  23.836  26.827  1.00  0.00     0.060 A 
ATOM     26  C   UNL A   1      41.396  24.095  27.353  1.00  0.00     0.016 A 
ATOM     27  C   UNL A   1      39.182  24.865  26.722  1.00  0.00     0.016 A 
ATOM     28  C   UNL A   1      41.643  25.311  27.980  1.00  0.00     0.010 A 
ATOM     29  C   UNL A   1      39.439  26.080  27.349  1.00  0.00     0.010 A 
ATOM     30  C   UNL A   1      40.626  26.265  28.070  1.00  0.00    -0.014 A 
BRANCH  30  31
ATOM     31  C   UNL A   1      40.908  27.551  28.712  1.00  0.00     0.031 A 
ATOM     32  C   UNL A   1      42.088  28.192  28.109  1.00  0.00     0.074 A 
ATOM     33  C   UNL A   1      40.238  28.191  29.695  1.00  0.00     0.049 A 
ATOM     34  N   UNL A   1      43.282  28.170  28.599  1.00  0.00    -0.248 NA
ATOM     35  C   UNL A   1      41.994  28.717  26.742  1.00  0.00     0.031 C 
ATOM     36  C   UNL A   1      38.988  27.827  30.339  1.00  0.00     0.029 A 
ATOM     37  N   UNL A   1      40.528  29.387  30.297  1.00  0.00    -0.354 N 
ATOM     38  C   UNL A   1      44.047  28.891  27.703  1.00  0.00     0.074 A 
ATOM     39  C   UNL A   1      43.277  28.979  26.490  1.00  0.00     0.031 C 
ATOM     40  C   UNL A   1      38.481  28.884  31.021  1.00  0.00     0.029 A 
ATOM     41  C   UNL A   1      39.487  29.930  31.050  1.00  0.00     0.049 A 
ATOM     42  H   UNL A   1      41.403  29.829  30.203  1.00  0.00     0.167 HD
ATOM     43  C   UNL A   1      45.122  29.607  28.124  1.00  0.00     0.037 A 
ATOM     44  C   UNL A   1      39.474  31.118  31.712  1.00  0.00     0.037 A 
ATOM     45  C   UNL A   1      45.534  29.222  29.453  1.00  0.00     0.049 A 
ATOM     46  C   UNL A   1      40.888  31.447  32.002  1.00  0.00     0.074 A 
ATOM     47  C   UNL A   1      45.941  28.042  30.047  1.00  0.00     0.029 A 
ATOM     48  N   UNL A   1      45.199  30.065  30.484  1.00  0.00    -0.354 N 
ATOM     49  N   UNL A   1      41.631  30.788  32.847  1.00  0.00    -0.248 NA
ATOM     50  C   UNL A   1      41.607  32.280  31.052  1.00  0.00     0.031 C 
ATOM     51  C   UNL A   1      45.425  28.086  31.375  1.00  0.00     0.029 A 
ATOM     52  C   UNL A   1      44.765  29.303  31.540  1.00  0.00     0.049 A 
ATOM     53  H   UNL A   1      45.261  31.048  30.470  1.00  0.00     0.167 HD
ATOM     54  C   UNL A   1      42.885  30.763  32.259  1.00  0.00     0.074 A 
ATOM     55  C   UNL A   1      42.838  31.795  31.226  1.00  0.00     0.031 C 
ATOM     56  C   UNL A   1      43.742  29.723  32.476  1.00  0.00     0.037 A 
BRANCH  43  57
ATOM     57  C   UNL A   1      45.537  30.902  27.481  1.00  0.00     0.058 A 
ATOM     58  C   UNL A   1      46.854  31.044  27.010  1.00  0.00     0.135 A 
ATOM     59  C   UNL A   1      44.770  32.090  27.533  1.00  0.00     0.135 A 
ATOM     60  F   UNL A   1      47.676  29.985  26.955  1.00  0.00    -0.206 F 
ATOM     61  C   UNL A   1      47.383  32.284  26.656  1.00  0.00     0.059 A 
ATOM     62  C   UNL A   1      45.254  33.321  27.118  1.00  0.00     0.059 A 
ATOM     63  F   UNL A   1      43.550  32.138  28.082  1.00  0.00    -0.206 F 
ATOM     64  C   UNL A   1      46.575  33.416  26.719  1.00  0.00     0.060 A 
BRANCH  64  65
ATOM     65  S   UNL A   1      47.279  35.030  26.352  1.00  0.00     0.124 S 
ATOM     66  O   UNL A   1      46.080  35.805  26.052  1.00  0.00    -0.237 OA
ATOM     67  O   UNL A   1      47.957  35.354  27.603  1.00  0.00    -0.237 OA
ATOM     68  O   UNL A   1      48.158  34.762  25.219  1.00  0.00    -0.744 OA
ENDBRANCH  64  65
ENDBRANCH  43  57
BRANCH  44  69
ATOM     69  C   UNL A   1      38.388  32.128  31.867  1.00  0.00     0.058 A 
ATOM     70  C   UNL A   1      37.949  32.893  30.765  1.00  0.00     0.135 A 
ATOM     71  C   UNL A   1      37.542  32.126  32.991  1.00  0.00     0.135 A 
ATOM     72  F   UNL A   1      38.689  32.954  29.647  1.00  0.00    -0.206 F 
ATOM     73  C   UNL A   1      36.709  33.542  30.746  1.00  0.00     0.059 A 
ATOM     74  C   UNL A   1      36.301  32.771  32.996  1.00  0.00     0.059 A 
ATOM     75  F   UNL A   1      37.852  31.415  34.085  1.00  0.00    -0.206 F 
ATOM     76  C   UNL A   1      35.876  33.448  31.858  1.00  0.00     0.060 A 
BRANCH  76  77
ATOM     77  S   UNL A   1      34.193  34.112  31.762  1.00  0.00     0.124 S 
ATOM     78  O   UNL A   1      34.400  35.516  32.098  1.00  0.00    -0.237 OA
ATOM     79  O   UNL A   1      33.831  33.835  30.376  1.00  0.00    -0.237 OA
ATOM     80  O   UNL A   1      33.467  33.332  32.761  1.00  0.00    -0.744 OA
ENDBRANCH  76  77
ENDBRANCH  44  69
BRANCH  56  81
ATOM     81  C   UNL A   1      43.476  28.816  33.653  1.00  0.00     0.058 A 
ATOM     82  C   UNL A   1      43.965  29.020  34.956  1.00  0.00     0.135 A 
ATOM     83  C   UNL A   1      42.566  27.763  33.472  1.00  0.00     0.135 A 
ATOM     84  F   UNL A   1      44.775  30.052  35.235  1.00  0.00    -0.206 F 
ATOM     85  C   UNL A   1      43.586  28.198  36.022  1.00  0.00     0.059 A 
ATOM     86  C   UNL A   1      42.151  26.950  34.525  1.00  0.00     0.059 A 
ATOM     87  F   UNL A   1      42.025  27.543  32.263  1.00  0.00    -0.206 F 
ATOM     88  C   UNL A   1      42.671  27.168  35.799  1.00  0.00     0.060 A 
BRANCH  88  89
ATOM     89  S   UNL A   1      42.109  26.164  37.191  1.00  0.00     0.124 S 
ATOM     90  O   UNL A   1      43.157  26.391  38.181  1.00  0.00    -0.237 OA
ATOM     91  O   UNL A   1      40.808  26.749  37.501  1.00  0.00    -0.237 OA
ATOM     92  O   UNL A   1      42.056  24.812  36.640  1.00  0.00    -0.744 OA
ENDBRANCH  88  89
ENDBRANCH  56  81
ENDBRANCH  30  31
ENDBRANCH  23  25
ENDBRANCH  22  23
ENDBRANCH   1  22
TORSDOF 17
ENDMDL
MODEL 2
REMARK VINA RESULT:     -11.4      2.910     11.901
REMARK SMILES [NH3+][C@H](Cc1cnc2[nH]cccc1-2)C(=O)OCCOC(=O)c1ccc(-c2c3nc(c(-c4c(F)cc(S(=O)(=O)[O-])cc4F)c4ccc([nH]4)c(-c4c(F)cc(S(=O)(=O)[O-])cc4F)c4nc(c(-c5c(F)cc(S(=O)(=O)[O-])cc5F)c5ccc2[nH]5)C=C4)C=C3)cc1
REMARK SMILES IDX 17 1 16 2 15 3 13 4 14 5 2 6 1 7 3 11 4 12 5 13 12 14 6 15
REMARK SMILES IDX 7 16 11 17 8 18 10 19 9 20 18 22 19 23 20 24 21 25 22 26
REMARK SMILES IDX 86 27 23 28 85 29 24 30 25 31 26 32 79 33 27 34 84 35 78 36
REMARK SMILES IDX 80 37 28 38 83 39 77 40 76 41 29 43 63 44 42 45 62 46 43 47
REMARK SMILES IDX 46 48 61 49 81 50 44 51 45 52 60 54 82 55 47 56 30 57 31 58
REMARK SMILES IDX 40 59 32 60 33 61 39 62 41 63 34 64 35 65 36 66 37 67 38 68
REMARK SMILES IDX 64 69 65 70 74 71 66 72 67 73 73 74 75 75 68 76 69 77 70 78
REMARK SMILES IDX 71 79 72 80 48 81 49 82 58 83 50 84 51 85 57 86 59 87 52 88
REMARK SMILES IDX 53 89 54 90 55 91 56 92
REMARK H PARENT 1 8 1 9 1 10 8 21 80 42 46 53
REMARK Flexibility Score: inf
ROOT
ATOM      1  C   UNL A   1      34.186  34.694  27.969  1.00  0.00     0.275 C 
ENDROOT
BRANCH   1   2
ATOM      2  C   UNL A   1      33.390  34.585  29.271  1.00  0.00     0.274 C 
BRANCH   2   3
ATOM      3  O   UNL A   1      32.684  35.819  29.527  1.00  0.00    -0.458 OA
BRANCH   3   4
ATOM      4  C   UNL A   1      32.914  36.357  30.753  1.00  0.00     0.365 C 
ATOM      5  O   UNL A   1      32.909  37.563  30.974  1.00  0.00    -0.245 OA
BRANCH   4   6
ATOM      6  C   UNL A   1      33.201  35.304  31.840  1.00  0.00     0.296 C 
BRANCH   6   7
ATOM      7  N   UNL A   1      32.051  35.292  32.744  1.00  0.00    -0.346 N 
ATOM      8  H   UNL A   1      31.374  35.993  32.442  1.00  0.00     0.345 HD
ATOM      9  H   UNL A   1      32.361  35.504  33.692  1.00  0.00     0.345 HD
ATOM     10  H   UNL A   1      31.616  34.369  32.727  1.00  0.00     0.345 HD
ENDBRANCH   6   7
BRANCH   6  11
ATOM     11  C   UNL A   1      34.595  35.336  32.511  1.00  0.00     0.115 C 
BRANCH  11  12
ATOM     12  C   UNL A   1      35.319  34.034  32.328  1.00  0.00    -0.012 A 
ATOM     13  C   UNL A   1      34.859  32.765  32.351  1.00  0.00     0.118 A 
ATOM     14  C   UNL A   1      36.740  33.890  32.405  1.00  0.00     0.022 A 
ATOM     15  N   UNL A   1      35.834  31.781  32.526  1.00  0.00    -0.238 NA
ATOM     16  C   UNL A   1      36.962  32.437  32.637  1.00  0.00     0.137 A 
ATOM     17  C   UNL A   1      37.793  34.718  32.422  1.00  0.00     0.014 A 
ATOM     18  N   UNL A   1      38.223  32.000  32.951  1.00  0.00    -0.346 N 
ATOM     19  C   UNL A   1      39.092  34.221  32.858  1.00  0.00     0.018 A 
ATOM     20  C   UNL A   1      39.251  32.907  33.115  1.00  0.00     0.084 A 
ATOM     21  H   UNL A   1      38.395  31.037  33.061  1.00  0.00     0.167 HD
ENDBRANCH  11  12
ENDBRANCH   6  11
ENDBRANCH   4   6
ENDBRANCH   3   4
ENDBRANCH   2   3
ENDBRANCH   1   2
BRANCH   1  22
ATOM     22  O   UNL A   1      35.230  33.707  27.959  1.00  0.00    -0.458 OA
BRANCH  22  23
ATOM     23  C   UNL A   1      34.853  32.419  28.137  1.00  0.00     0.338 C 
ATOM     24  O   UNL A   1      33.909  31.853  27.590  1.00  0.00    -0.246 OA
BRANCH  23  25
ATOM     25  C   UNL A   1      35.972  31.717  28.803  1.00  0.00     0.060 A 
ATOM     26  C   UNL A   1      37.162  32.387  29.115  1.00  0.00     0.016 A 
ATOM     27  C   UNL A   1      35.929  30.319  28.806  1.00  0.00     0.016 A 
ATOM     28  C   UNL A   1      38.350  31.669  29.201  1.00  0.00     0.010 A 
ATOM     29  C   UNL A   1      37.122  29.609  28.896  1.00  0.00     0.010 A 
ATOM     30  C   UNL A   1      38.344  30.289  28.986  1.00  0.00    -0.014 A 
BRANCH  30  31
ATOM     31  C   UNL A   1      39.598  29.542  29.103  1.00  0.00     0.031 A 
ATOM     32  C   UNL A   1      39.979  29.372  30.515  1.00  0.00     0.074 A 
ATOM     33  C   UNL A   1      40.372  28.996  28.140  1.00  0.00     0.049 A 
ATOM     34  N   UNL A   1      40.844  30.092  31.148  1.00  0.00    -0.248 NA
ATOM     35  C   UNL A   1      39.184  28.478  31.365  1.00  0.00     0.031 C 
ATOM     36  C   UNL A   1      40.133  28.915  26.709  1.00  0.00     0.029 A 
ATOM     37  N   UNL A   1      41.554  28.316  28.268  1.00  0.00    -0.354 N 
ATOM     38  C   UNL A   1      40.869  29.574  32.428  1.00  0.00     0.074 A 
ATOM     39  C   UNL A   1      39.678  28.777  32.567  1.00  0.00     0.031 C 
ATOM     40  C   UNL A   1      40.964  28.006  26.141  1.00  0.00     0.029 A 
ATOM     41  C   UNL A   1      41.949  27.610  27.132  1.00  0.00     0.049 A 
ATOM     42  H   UNL A   1      42.084  28.324  29.098  1.00  0.00     0.167 HD
ATOM     43  C   UNL A   1      42.007  29.603  33.168  1.00  0.00     0.037 A 
ATOM     44  C   UNL A   1      43.042  26.814  26.987  1.00  0.00     0.037 A 
ATOM     45  C   UNL A   1      42.980  30.517  32.618  1.00  0.00     0.049 A 
ATOM     46  C   UNL A   1      44.031  27.282  27.985  1.00  0.00     0.074 A 
ATOM     47  C   UNL A   1      42.998  31.867  32.326  1.00  0.00     0.029 A 
ATOM     48  N   UNL A   1      44.037  29.971  31.930  1.00  0.00    -0.354 N 
ATOM     49  N   UNL A   1      44.644  28.431  27.919  1.00  0.00    -0.248 NA
ATOM     50  C   UNL A   1      44.052  26.634  29.285  1.00  0.00     0.031 C 
ATOM     51  C   UNL A   1      43.791  31.994  31.150  1.00  0.00     0.029 A 
ATOM     52  C   UNL A   1      44.252  30.724  30.803  1.00  0.00     0.049 A 
ATOM     53  H   UNL A   1      44.552  29.177  32.199  1.00  0.00     0.167 HD
ATOM     54  C   UNL A   1      44.728  28.854  29.235  1.00  0.00     0.074 A 
ATOM     55  C   UNL A   1      44.462  27.661  30.033  1.00  0.00     0.031 C 
ATOM     56  C   UNL A   1      44.728  30.184  29.546  1.00  0.00     0.037 A 
BRANCH  43  57
ATOM     57  C   UNL A   1      42.363  28.522  34.151  1.00  0.00     0.058 A 
ATOM     58  C   UNL A   1      42.412  28.829  35.522  1.00  0.00     0.135 A 
ATOM     59  C   UNL A   1      42.897  27.265  33.782  1.00  0.00     0.135 A 
ATOM     60  F   UNL A   1      41.964  30.011  35.973  1.00  0.00    -0.206 F 
ATOM     61  C   UNL A   1      42.989  27.967  36.453  1.00  0.00     0.059 A 
ATOM     62  C   UNL A   1      43.411  26.363  34.701  1.00  0.00     0.059 A 
ATOM     63  F   UNL A   1      43.043  26.890  32.506  1.00  0.00    -0.206 F 
ATOM     64  C   UNL A   1      43.490  26.739  36.030  1.00  0.00     0.060 A 
BRANCH  64  65
ATOM     65  S   UNL A   1      44.318  25.664  37.211  1.00  0.00     0.124 S 
ATOM     66  O   UNL A   1      43.673  26.058  38.458  1.00  0.00    -0.237 OA
ATOM     67  O   UNL A   1      43.977  24.340  36.702  1.00  0.00    -0.237 OA
ATOM     68  O   UNL A   1      45.722  26.039  37.079  1.00  0.00    -0.744 OA
ENDBRANCH  64  65
ENDBRANCH  43  57
BRANCH  44  69
ATOM     69  C   UNL A   1      43.207  25.517  26.271  1.00  0.00     0.058 A 
ATOM     70  C   UNL A   1      44.257  25.329  25.347  1.00  0.00     0.135 A 
ATOM     71  C   UNL A   1      42.565  24.347  26.717  1.00  0.00     0.135 A 
ATOM     72  F   UNL A   1      44.931  26.385  24.865  1.00  0.00    -0.206 F 
ATOM     73  C   UNL A   1      44.699  24.059  24.957  1.00  0.00     0.059 A 
ATOM     74  C   UNL A   1      42.986  23.069  26.338  1.00  0.00     0.059 A 
ATOM     75  F   UNL A   1      41.568  24.409  27.613  1.00  0.00    -0.206 F 
ATOM     76  C   UNL A   1      44.076  22.932  25.485  1.00  0.00     0.060 A 
BRANCH  76  77
ATOM     77  S   UNL A   1      44.773  21.295  25.146  1.00  0.00     0.124 S 
ATOM     78  O   UNL A   1      46.111  21.409  25.716  1.00  0.00    -0.237 OA
ATOM     79  O   UNL A   1      43.851  20.413  25.855  1.00  0.00    -0.237 OA
ATOM     80  O   UNL A   1      44.722  21.203  23.689  1.00  0.00    -0.744 OA
ENDBRANCH  76  77
ENDBRANCH  44  69
BRANCH  56  81
ATOM     81  C   UNL A   1      45.032  31.173  28.446  1.00  0.00     0.058 A 
ATOM     82  C   UNL A   1      44.128  31.565  27.441  1.00  0.00     0.135 A 
ATOM     83  C   UNL A   1      46.257  31.854  28.503  1.00  0.00     0.135 A 
ATOM     84  F   UNL A   1      42.903  31.024  27.365  1.00  0.00    -0.206 F 
ATOM     85  C   UNL A   1      44.443  32.570  26.521  1.00  0.00     0.059 A 
ATOM     86  C   UNL A   1      46.579  32.878  27.615  1.00  0.00     0.059 A 
ATOM     87  F   UNL A   1      47.145  31.560  29.466  1.00  0.00    -0.206 F 
ATOM     88  C   UNL A   1      45.669  33.227  26.620  1.00  0.00     0.060 A 
BRANCH  88  89
ATOM     89  S   UNL A   1      46.039  34.588  25.491  1.00  0.00     0.124 S 
ATOM     90  O   UNL A   1      45.208  34.267  24.335  1.00  0.00    -0.237 OA
ATOM     91  O   UNL A   1      45.629  35.760  26.259  1.00  0.00    -0.237 OA
ATOM     92  O   UNL A   1      47.479  34.472  25.273  1.00  0.00    -0.744 OA
ENDBRANCH  88  89
ENDBRANCH  56  81
ENDBRANCH  30  31
ENDBRANCH  23  25
ENDBRANCH  22  23
ENDBRANCH   1  22
TORSDOF 17
ENDMDL
MODEL 3
REMARK VINA RESULT:     -10.8      3.343      5.470
REMARK SMILES [NH3+][C@H](Cc1cnc2[nH]cccc1-2)C(=O)OCCOC(=O)c1ccc(-c2c3nc(c(-c4c(F)cc(S(=O)(=O)[O-])cc4F)c4ccc([nH]4)c(-c4c(F)cc(S(=O)(=O)[O-])cc4F)c4nc(c(-c5c(F)cc(S(=O)(=O)[O-])cc5F)c5ccc2[nH]5)C=C4)C=C3)cc1
REMARK SMILES IDX 17 1 16 2 15 3 13 4 14 5 2 6 1 7 3 11 4 12 5 13 12 14 6 15
REMARK SMILES IDX 7 16 11 17 8 18 10 19 9 20 18 22 19 23 20 24 21 25 22 26
REMARK SMILES IDX 86 27 23 28 85 29 24 30 25 31 26 32 79 33 27 34 84 35 78 36
REMARK SMILES IDX 80 37 28 38 83 39 77 40 76 41 29 43 63 44 42 45 62 46 43 47
REMARK SMILES IDX 46 48 61 49 81 50 44 51 45 52 60 54 82 55 47 56 30 57 31 58
REMARK SMILES IDX 40 59 32 60 33 61 39 62 41 63 34 64 35 65 36 66 37 67 38 68
REMARK SMILES IDX 64 69 65 70 74 71 66 72 67 73 73 74 75 75 68 76 69 77 70 78
REMARK SMILES IDX 71 79 72 80 48 81 49 82 58 83 50 84 51 85 57 86 59 87 52 88
REMARK SMILES IDX 53 89 54 90 55 91 56 92
REMARK H PARENT 1 8 1 9 1 10 8 21 80 42 46 53
REMARK Flexibility Score: inf
ROOT
ATOM      1  C   UNL A   1      37.812  21.459  25.497  1.00  0.00     0.275 C 
ENDROOT
BRANCH   1   2
ATOM      2  C   UNL A   1      36.391  21.893  25.129  1.00  0.00     0.274 C 
BRANCH   2   3
ATOM      3  O   UNL A   1      35.439  21.308  26.043  1.00  0.00    -0.458 OA
BRANCH   3   4
ATOM      4  C   UNL A   1      34.640  20.357  25.492  1.00  0.00     0.365 C 
ATOM      5  O   UNL A   1      35.036  19.533  24.675  1.00  0.00    -0.245 OA
BRANCH   4   6
ATOM      6  C   UNL A   1      33.181  20.425  25.980  1.00  0.00     0.296 C 
BRANCH   6   7
ATOM      7  N   UNL A   1      32.739  19.050  26.213  1.00  0.00    -0.346 N 
ATOM      8  H   UNL A   1      32.185  18.732  25.418  1.00  0.00     0.345 HD
ATOM      9  H   UNL A   1      32.171  19.015  27.060  1.00  0.00     0.345 HD
ATOM     10  H   UNL A   1      33.553  18.446  26.325  1.00  0.00     0.345 HD
ENDBRANCH   6   7
BRANCH   6  11
ATOM     11  C   UNL A   1      32.207  21.329  25.186  1.00  0.00     0.115 C 
BRANCH  11  12
ATOM     12  C   UNL A   1      31.705  22.464  26.029  1.00  0.00    -0.012 A 
ATOM     13  C   UNL A   1      30.499  22.664  26.601  1.00  0.00     0.118 A 
ATOM     14  C   UNL A   1      32.351  23.736  26.127  1.00  0.00     0.022 A 
ATOM     15  N   UNL A   1      30.236  23.977  26.995  1.00  0.00    -0.238 NA
ATOM     16  C   UNL A   1      31.303  24.655  26.651  1.00  0.00     0.137 A 
ATOM     17  C   UNL A   1      33.540  24.243  25.775  1.00  0.00     0.014 A 
ATOM     18  N   UNL A   1      31.552  26.002  26.675  1.00  0.00    -0.346 N 
ATOM     19  C   UNL A   1      33.719  25.689  25.726  1.00  0.00     0.018 A 
ATOM     20  C   UNL A   1      32.732  26.499  26.156  1.00  0.00     0.084 A 
ATOM     21  H   UNL A   1      30.889  26.617  27.063  1.00  0.00     0.167 HD
ENDBRANCH  11  12
ENDBRANCH   6  11
ENDBRANCH   4   6
ENDBRANCH   3   4
ENDBRANCH   2   3
ENDBRANCH   1   2
BRANCH   1  22
ATOM     22  O   UNL A   1      38.593  22.612  25.846  1.00  0.00    -0.458 OA
BRANCH  22  23
ATOM     23  C   UNL A   1      39.563  22.434  26.772  1.00  0.00     0.338 C 
ATOM     24  O   UNL A   1      40.019  21.359  27.153  1.00  0.00    -0.246 OA
BRANCH  23  25
ATOM     25  C   UNL A   1      40.232  23.739  26.973  1.00  0.00     0.060 A 
ATOM     26  C   UNL A   1      41.306  23.871  27.863  1.00  0.00     0.016 A 
ATOM     27  C   UNL A   1      39.558  24.873  26.509  1.00  0.00     0.016 A 
ATOM     28  C   UNL A   1      41.552  25.102  28.461  1.00  0.00     0.010 A 
ATOM     29  C   UNL A   1      39.813  26.101  27.109  1.00  0.00     0.010 A 
ATOM     30  C   UNL A   1      40.735  26.195  28.161  1.00  0.00    -0.014 A 
BRANCH  30  31
ATOM     31  C   UNL A   1      41.021  27.491  28.779  1.00  0.00     0.031 A 
ATOM     32  C   UNL A   1      42.202  28.118  28.164  1.00  0.00     0.074 A 
ATOM     33  C   UNL A   1      40.354  28.151  29.752  1.00  0.00     0.049 A 
ATOM     34  N   UNL A   1      43.397  28.102  28.653  1.00  0.00    -0.248 NA
ATOM     35  C   UNL A   1      42.109  28.618  26.788  1.00  0.00     0.031 C 
ATOM     36  C   UNL A   1      39.103  27.802  30.403  1.00  0.00     0.029 A 
ATOM     37  N   UNL A   1      40.648  29.357  30.331  1.00  0.00    -0.354 N 
ATOM     38  C   UNL A   1      44.163  28.804  27.744  1.00  0.00     0.074 A 
ATOM     39  C   UNL A   1      43.392  28.873  26.530  1.00  0.00     0.031 C 
ATOM     40  C   UNL A   1      38.600  28.873  31.066  1.00  0.00     0.029 A 
ATOM     41  C   UNL A   1      39.609  29.916  31.076  1.00  0.00     0.049 A 
ATOM     42  H   UNL A   1      41.523  29.795  30.229  1.00  0.00     0.167 HD
ATOM     43  C   UNL A   1      45.240  29.524  28.151  1.00  0.00     0.037 A 
ATOM     44  C   UNL A   1      39.600  31.115  31.716  1.00  0.00     0.037 A 
ATOM     45  C   UNL A   1      45.652  29.162  29.486  1.00  0.00     0.049 A 
ATOM     46  C   UNL A   1      41.015  31.446  31.999  1.00  0.00     0.074 A 
ATOM     47  C   UNL A   1      46.056  27.992  30.101  1.00  0.00     0.029 A 
ATOM     48  N   UNL A   1      45.321  30.025  30.503  1.00  0.00    -0.354 N 
ATOM     49  N   UNL A   1      41.757  30.800  32.855  1.00  0.00    -0.248 NA
ATOM     50  C   UNL A   1      41.736  32.260  31.034  1.00  0.00     0.031 C 
ATOM     51  C   UNL A   1      45.542  28.061  31.428  1.00  0.00     0.029 A 
ATOM     52  C   UNL A   1      44.885  29.283  31.572  1.00  0.00     0.049 A 
ATOM     53  H   UNL A   1      45.385  31.007  30.471  1.00  0.00     0.167 HD
ATOM     54  C   UNL A   1      43.010  30.761  32.266  1.00  0.00     0.074 A 
ATOM     55  C   UNL A   1      42.966  31.774  31.216  1.00  0.00     0.031 C 
ATOM     56  C   UNL A   1      43.864  29.722  32.502  1.00  0.00     0.037 A 
BRANCH  43  57
ATOM     57  C   UNL A   1      45.658  30.806  27.484  1.00  0.00     0.058 A 
ATOM     58  C   UNL A   1      46.984  30.949  27.040  1.00  0.00     0.135 A 
ATOM     59  C   UNL A   1      44.880  31.987  27.488  1.00  0.00     0.135 A 
ATOM     60  F   UNL A   1      47.817  29.897  27.031  1.00  0.00    -0.206 F 
ATOM     61  C   UNL A   1      47.510  32.184  26.667  1.00  0.00     0.059 A 
ATOM     62  C   UNL A   1      45.362  33.212  27.054  1.00  0.00     0.059 A 
ATOM     63  F   UNL A   1      43.647  32.038  28.008  1.00  0.00    -0.206 F 
ATOM     64  C   UNL A   1      46.691  33.310  26.682  1.00  0.00     0.060 A 
BRANCH  64  65
ATOM     65  S   UNL A   1      47.389  34.921  26.290  1.00  0.00     0.124 S 
ATOM     66  O   UNL A   1      48.127  34.623  25.068  1.00  0.00    -0.237 OA
ATOM     67  O   UNL A   1      46.190  35.738  26.133  1.00  0.00    -0.237 OA
ATOM     68  O   UNL A   1      48.202  35.228  27.461  1.00  0.00    -0.744 OA
ENDBRANCH  64  65
ENDBRANCH  43  57
BRANCH  44  69
ATOM     69  C   UNL A   1      38.517  32.131  31.854  1.00  0.00     0.058 A 
ATOM     70  C   UNL A   1      38.036  32.833  30.728  1.00  0.00     0.135 A 
ATOM     71  C   UNL A   1      37.712  32.191  33.006  1.00  0.00     0.135 A 
ATOM     72  F   UNL A   1      38.734  32.833  29.582  1.00  0.00    -0.206 F 
ATOM     73  C   UNL A   1      36.793  33.479  30.718  1.00  0.00     0.059 A 
ATOM     74  C   UNL A   1      36.470  32.834  33.021  1.00  0.00     0.059 A 
ATOM     75  F   UNL A   1      38.064  31.543  34.127  1.00  0.00    -0.206 F 
ATOM     76  C   UNL A   1      36.002  33.446  31.863  1.00  0.00     0.060 A 
BRANCH  76  77
ATOM     77  S   UNL A   1      34.315  34.101  31.791  1.00  0.00     0.124 S 
ATOM     78  O   UNL A   1      34.520  35.509  32.113  1.00  0.00    -0.237 OA
ATOM     79  O   UNL A   1      33.929  33.811  30.414  1.00  0.00    -0.237 OA
ATOM     80  O   UNL A   1      33.609  33.326  32.810  1.00  0.00    -0.744 OA
ENDBRANCH  76  77
ENDBRANCH  44  69
BRANCH  56  81
ATOM     81  C   UNL A   1      43.597  28.837  33.695  1.00  0.00     0.058 A 
ATOM     82  C   UNL A   1      44.017  29.107  35.011  1.00  0.00     0.135 A 
ATOM     83  C   UNL A   1      42.754  27.730  33.510  1.00  0.00     0.135 A 
ATOM     84  F   UNL A   1      44.755  30.191  35.290  1.00  0.00    -0.206 F 
ATOM     85  C   UNL A   1      43.636  28.297  36.085  1.00  0.00     0.059 A 
ATOM     86  C   UNL A   1      42.339  26.927  34.569  1.00  0.00     0.059 A 
ATOM     87  F   UNL A   1      42.281  27.444  32.286  1.00  0.00    -0.206 F 
ATOM     88  C   UNL A   1      42.790  27.212  35.857  1.00  0.00     0.060 A 
BRANCH  88  89
ATOM     89  S   UNL A   1      42.223  26.220  37.256  1.00  0.00     0.124 S 
ATOM     90  O   UNL A   1      40.886  26.754  37.495  1.00  0.00    -0.237 OA
ATOM     91  O   UNL A   1      42.276  24.860  36.725  1.00  0.00    -0.237 OA
ATOM     92  O   UNL A   1      43.203  26.508  38.300  1.00  0.00    -0.744 OA
ENDBRANCH  88  89
ENDBRANCH  56  81
ENDBRANCH  30  31
ENDBRANCH  23  25
ENDBRANCH  22  23
ENDBRANCH   1  22
TORSDOF 17
ENDMDL
