MODEL 1
REMARK VINA RESULT:     -11.5      0.000      0.000
REMARK SMILES C[C@H](Sc1ccccn1)C(=O)N[C@H](C(=O)OCCOC(=O)c1ccc(-c2c3nc(c(-c4c(F)cc(S(=O)(=O)[O-])cc4F)c4ccc([nH]4)c(-c4c(F)cc(S(=O)(=O)[O-])cc4F)c4nc(c(-c5c(F)cc(S(=O)(=O)[O-])cc5F)c5ccc2[nH]5)C=C4)C=C3)cc1)c1ccc(F)cc1
REMARK SMILES IDX 17 1 16 2 14 3 15 4 13 5 12 6 10 7 11 8 2 10 1 11 3 12 4 13
REMARK SMILES IDX 5 14 9 15 6 16 8 17 7 18 88 19 89 20 94 21 90 22 93 23 91 24
REMARK SMILES IDX 92 25 18 26 19 27 20 28 21 29 22 30 23 31 87 32 24 33 86 34
REMARK SMILES IDX 25 35 26 36 27 37 80 38 28 39 85 40 79 41 81 42 29 43 84 44
REMARK SMILES IDX 78 45 77 46 30 48 64 49 43 50 63 51 44 52 47 53 62 54 82 55
REMARK SMILES IDX 45 56 46 57 61 59 83 60 48 61 31 62 32 63 41 64 33 65 34 66
REMARK SMILES IDX 40 67 42 68 35 69 36 70 37 71 38 72 39 73 65 74 66 75 75 76
REMARK SMILES IDX 67 77 68 78 74 79 76 80 69 81 70 82 71 83 72 84 73 85 49 86
REMARK SMILES IDX 50 87 59 88 51 89 52 90 58 91 60 92 53 93 54 94 55 95 56 96
REMARK SMILES IDX 57 97
REMARK H PARENT 12 9 81 47 47 58
REMARK Flexibility Score: inf
ROOT
ATOM      1  C   UNL A   1      34.055  28.573  26.133  1.00  0.00     0.274 C 
ENDROOT
BRANCH   1   2
ATOM      2  O   UNL A   1      32.643  28.386  25.911  1.00  0.00    -0.460 OA
BRANCH   2   3
ATOM      3  C   UNL A   1      32.016  27.443  26.682  1.00  0.00     0.333 C 
ATOM      4  O   UNL A   1      31.430  27.667  27.732  1.00  0.00    -0.249 OA
BRANCH   3   5
ATOM      5  C   UNL A   1      32.230  26.043  26.086  1.00  0.00     0.223 C 
BRANCH   5   6
ATOM      6  N   UNL A   1      31.393  24.962  26.636  1.00  0.00    -0.338 N 
ATOM      7  C   UNL A   1      31.489  23.643  26.915  1.00  0.00     0.234 C 
ATOM      8  O   UNL A   1      30.530  23.196  27.565  1.00  0.00    -0.274 OA
ATOM      9  H   UNL A   1      30.498  25.302  26.870  1.00  0.00     0.164 HD
BRANCH   7  10
ATOM     10  C   UNL A   1      32.608  22.667  26.505  1.00  0.00     0.139 C 
ATOM     11  C   UNL A   1      33.973  23.050  27.037  1.00  0.00     0.030 C 
BRANCH  10  12
ATOM     12  S   UNL A   1      32.330  22.039  24.795  1.00  0.00    -0.093 SA
BRANCH  12  13
ATOM     13  C   UNL A   1      33.046  20.412  24.660  1.00  0.00     0.097 A 
ATOM     14  C   UNL A   1      34.393  20.102  24.798  1.00  0.00     0.035 A 
ATOM     15  N   UNL A   1      32.120  19.436  24.476  1.00  0.00    -0.250 NA
ATOM     16  C   UNL A   1      34.814  18.779  24.637  1.00  0.00     0.004 A 
ATOM     17  C   UNL A   1      32.549  18.162  24.338  1.00  0.00     0.112 A 
ATOM     18  C   UNL A   1      33.877  17.787  24.398  1.00  0.00     0.020 A 
ENDBRANCH  12  13
ENDBRANCH  10  12
ENDBRANCH   7  10
ENDBRANCH   5   6
BRANCH   5  19
ATOM     19  C   UNL A   1      32.372  25.983  24.565  1.00  0.00    -0.014 A 
ATOM     20  C   UNL A   1      31.259  26.215  23.731  1.00  0.00     0.009 A 
ATOM     21  C   UNL A   1      33.581  25.647  23.942  1.00  0.00     0.009 A 
ATOM     22  C   UNL A   1      31.373  26.126  22.337  1.00  0.00     0.039 A 
ATOM     23  C   UNL A   1      33.715  25.615  22.552  1.00  0.00     0.039 A 
ATOM     24  C   UNL A   1      32.605  25.850  21.760  1.00  0.00     0.123 A 
ATOM     25  F   UNL A   1      32.711  25.759  20.429  1.00  0.00    -0.207 F 
ENDBRANCH   5  19
ENDBRANCH   3   5
ENDBRANCH   2   3
ENDBRANCH   1   2
BRANCH   1  26
ATOM     26  C   UNL A   1      34.374  29.666  27.155  1.00  0.00     0.275 C 
BRANCH  26  27
ATOM     27  O   UNL A   1      35.259  29.185  28.182  1.00  0.00    -0.458 OA
BRANCH  27  28
ATOM     28  C   UNL A   1      35.963  30.150  28.818  1.00  0.00     0.338 C 
ATOM     29  O   UNL A   1      35.511  31.055  29.501  1.00  0.00    -0.246 OA
BRANCH  28  30
ATOM     30  C   UNL A   1      37.396  29.818  28.782  1.00  0.00     0.060 A 
ATOM     31  C   UNL A   1      37.989  29.848  27.522  1.00  0.00     0.016 A 
ATOM     32  C   UNL A   1      38.148  29.459  29.904  1.00  0.00     0.016 A 
ATOM     33  C   UNL A   1      39.337  29.565  27.372  1.00  0.00     0.010 A 
ATOM     34  C   UNL A   1      39.507  29.138  29.746  1.00  0.00     0.010 A 
ATOM     35  C   UNL A   1      40.106  29.200  28.477  1.00  0.00    -0.014 A 
BRANCH  35  36
ATOM     36  C   UNL A   1      41.496  28.760  28.214  1.00  0.00     0.031 A 
ATOM     37  C   UNL A   1      42.610  29.747  28.399  1.00  0.00     0.074 A 
ATOM     38  C   UNL A   1      41.776  27.462  27.994  1.00  0.00     0.049 A 
ATOM     39  N   UNL A   1      43.893  29.593  28.207  1.00  0.00    -0.248 NA
ATOM     40  C   UNL A   1      42.227  31.081  28.893  1.00  0.00     0.031 C 
ATOM     41  C   UNL A   1      40.794  26.378  27.966  1.00  0.00     0.029 A 
ATOM     42  N   UNL A   1      42.978  26.832  27.784  1.00  0.00    -0.354 N 
ATOM     43  C   UNL A   1      44.471  30.811  28.541  1.00  0.00     0.074 A 
ATOM     44  C   UNL A   1      43.401  31.691  28.956  1.00  0.00     0.031 C 
ATOM     45  C   UNL A   1      41.435  25.216  27.750  1.00  0.00     0.029 A 
ATOM     46  C   UNL A   1      42.862  25.479  27.572  1.00  0.00     0.049 A 
ATOM     47  H   UNL A   1      43.841  27.305  27.786  1.00  0.00     0.167 HD
ATOM     48  C   UNL A   1      45.776  31.166  28.492  1.00  0.00     0.037 A 
ATOM     49  C   UNL A   1      43.797  24.568  27.234  1.00  0.00     0.037 A 
ATOM     50  C   UNL A   1      46.835  30.286  28.075  1.00  0.00     0.049 A 
ATOM     51  C   UNL A   1      45.226  25.016  27.053  1.00  0.00     0.074 A 
ATOM     52  C   UNL A   1      48.180  30.571  27.917  1.00  0.00     0.029 A 
ATOM     53  N   UNL A   1      46.668  28.947  27.754  1.00  0.00    -0.354 N 
ATOM     54  N   UNL A   1      45.753  26.199  27.266  1.00  0.00    -0.248 NA
ATOM     55  C   UNL A   1      46.183  24.014  26.560  1.00  0.00     0.031 C 
ATOM     56  C   UNL A   1      48.819  29.413  27.460  1.00  0.00     0.029 A 
ATOM     57  C   UNL A   1      47.881  28.396  27.376  1.00  0.00     0.049 A 
ATOM     58  H   UNL A   1      45.814  28.460  27.790  1.00  0.00     0.167 HD
ATOM     59  C   UNL A   1      47.101  26.081  26.944  1.00  0.00     0.074 A 
ATOM     60  C   UNL A   1      47.314  24.707  26.539  1.00  0.00     0.031 C 
ATOM     61  C   UNL A   1      48.074  27.026  26.975  1.00  0.00     0.037 A 
BRANCH  48  62
ATOM     62  C   UNL A   1      46.109  32.591  28.819  1.00  0.00     0.058 A 
ATOM     63  C   UNL A   1      46.452  32.999  30.117  1.00  0.00     0.135 A 
ATOM     64  C   UNL A   1      46.075  33.565  27.808  1.00  0.00     0.135 A 
ATOM     65  F   UNL A   1      46.471  32.110  31.123  1.00  0.00    -0.206 F 
ATOM     66  C   UNL A   1      46.728  34.332  30.406  1.00  0.00     0.059 A 
ATOM     67  C   UNL A   1      46.368  34.899  28.071  1.00  0.00     0.059 A 
ATOM     68  F   UNL A   1      45.741  33.225  26.553  1.00  0.00    -0.206 F 
ATOM     69  C   UNL A   1      46.678  35.275  29.376  1.00  0.00     0.060 A 
BRANCH  69  70
ATOM     70  S   UNL A   1      47.022  37.003  29.765  1.00  0.00     0.124 S 
ATOM     71  O   UNL A   1      48.403  36.927  30.234  1.00  0.00    -0.237 OA
ATOM     72  O   UNL A   1      46.826  37.660  28.476  1.00  0.00    -0.237 OA
ATOM     73  O   UNL A   1      46.031  37.325  30.786  1.00  0.00    -0.744 OA
ENDBRANCH  69  70
ENDBRANCH  48  62
BRANCH  49  74
ATOM     74  C   UNL A   1      43.408  23.157  26.966  1.00  0.00     0.058 A 
ATOM     75  C   UNL A   1      43.130  22.261  28.010  1.00  0.00     0.135 A 
ATOM     76  C   UNL A   1      43.332  22.669  25.652  1.00  0.00     0.135 A 
ATOM     77  F   UNL A   1      43.208  22.671  29.285  1.00  0.00    -0.206 F 
ATOM     78  C   UNL A   1      42.797  20.932  27.761  1.00  0.00     0.059 A 
ATOM     79  C   UNL A   1      42.976  21.353  25.377  1.00  0.00     0.059 A 
ATOM     80  F   UNL A   1      43.588  23.483  24.616  1.00  0.00    -0.206 F 
ATOM     81  C   UNL A   1      42.721  20.488  26.439  1.00  0.00     0.060 A 
BRANCH  81  82
ATOM     82  S   UNL A   1      42.238  18.779  26.116  1.00  0.00     0.124 S 
ATOM     83  O   UNL A   1      43.213  18.384  25.106  1.00  0.00    -0.237 OA
ATOM     84  O   UNL A   1      42.388  18.161  27.429  1.00  0.00    -0.237 OA
ATOM     85  O   UNL A   1      40.860  18.906  25.648  1.00  0.00    -0.744 OA
ENDBRANCH  81  82
ENDBRANCH  49  74
BRANCH  61  86
ATOM     86  C   UNL A   1      49.461  26.608  26.573  1.00  0.00     0.058 A 
ATOM     87  C   UNL A   1      50.323  25.964  27.473  1.00  0.00     0.135 A 
ATOM     88  C   UNL A   1      49.908  26.795  25.254  1.00  0.00     0.135 A 
ATOM     89  F   UNL A   1      49.946  25.766  28.746  1.00  0.00    -0.206 F 
ATOM     90  C   UNL A   1      51.588  25.535  27.086  1.00  0.00     0.059 A 
ATOM     91  C   UNL A   1      51.160  26.352  24.839  1.00  0.00     0.059 A 
ATOM     92  F   UNL A   1      49.117  27.395  24.351  1.00  0.00    -0.206 F 
ATOM     93  C   UNL A   1      51.998  25.732  25.765  1.00  0.00     0.060 A 
BRANCH  93  94
ATOM     94  S   UNL A   1      53.626  25.133  25.262  1.00  0.00     0.124 S 
ATOM     95  O   UNL A   1      53.449  23.688  25.362  1.00  0.00    -0.237 OA
ATOM     96  O   UNL A   1      53.752  25.664  23.908  1.00  0.00    -0.237 OA
ATOM     97  O   UNL A   1      54.524  25.726  26.247  1.00  0.00    -0.744 OA
ENDBRANCH  93  94
ENDBRANCH  61  86
ENDBRANCH  35  36
ENDBRANCH  28  30
ENDBRANCH  27  28
ENDBRANCH  26  27
ENDBRANCH   1  26
TORSDOF 19
ENDMDL
MODEL 2
REMARK VINA RESULT:     -11.4      2.499      3.267
REMARK SMILES C[C@H](Sc1ccccn1)C(=O)N[C@H](C(=O)OCCOC(=O)c1ccc(-c2c3nc(c(-c4c(F)cc(S(=O)(=O)[O-])cc4F)c4ccc([nH]4)c(-c4c(F)cc(S(=O)(=O)[O-])cc4F)c4nc(c(-c5c(F)cc(S(=O)(=O)[O-])cc5F)c5ccc2[nH]5)C=C4)C=C3)cc1)c1ccc(F)cc1
REMARK SMILES IDX 17 1 16 2 14 3 15 4 13 5 12 6 10 7 11 8 2 10 1 11 3 12 4 13
REMARK SMILES IDX 5 14 9 15 6 16 8 17 7 18 88 19 89 20 94 21 90 22 93 23 91 24
REMARK SMILES IDX 92 25 18 26 19 27 20 28 21 29 22 30 23 31 87 32 24 33 86 34
REMARK SMILES IDX 25 35 26 36 27 37 80 38 28 39 85 40 79 41 81 42 29 43 84 44
REMARK SMILES IDX 78 45 77 46 30 48 64 49 43 50 63 51 44 52 47 53 62 54 82 55
REMARK SMILES IDX 45 56 46 57 61 59 83 60 48 61 31 62 32 63 41 64 33 65 34 66
REMARK SMILES IDX 40 67 42 68 35 69 36 70 37 71 38 72 39 73 65 74 66 75 75 76
REMARK SMILES IDX 67 77 68 78 74 79 76 80 69 81 70 82 71 83 72 84 73 85 49 86
REMARK SMILES IDX 50 87 59 88 51 89 52 90 58 91 60 92 53 93 54 94 55 95 56 96
REMARK SMILES IDX 57 97
REMARK H PARENT 12 9 81 47 47 58
REMARK Flexibility Score: inf
ROOT
ATOM      1  C   UNL A   1      33.144  27.538  25.159  1.00  0.00     0.274 C 
ENDROOT
BRANCH   1   2
ATOM      2  O   UNL A   1      33.116  27.576  23.719  1.00  0.00    -0.460 OA
BRANCH   2   3
ATOM      3  C   UNL A   1      33.626  26.488  23.062  1.00  0.00     0.333 C 
ATOM      4  O   UNL A   1      34.069  26.497  21.922  1.00  0.00    -0.249 OA
BRANCH   3   5
ATOM      5  C   UNL A   1      33.480  25.227  23.929  1.00  0.00     0.223 C 
BRANCH   5   6
ATOM      6  N   UNL A   1      32.369  24.322  23.587  1.00  0.00    -0.338 N 
ATOM      7  C   UNL A   1      31.247  23.829  24.157  1.00  0.00     0.234 C 
ATOM      8  O   UNL A   1      30.510  23.215  23.367  1.00  0.00    -0.274 OA
ATOM      9  H   UNL A   1      32.476  23.972  22.672  1.00  0.00     0.164 HD
BRANCH   7  10
ATOM     10  C   UNL A   1      30.813  23.923  25.632  1.00  0.00     0.139 C 
ATOM     11  C   UNL A   1      30.127  25.226  25.982  1.00  0.00     0.030 C 
BRANCH  10  12
ATOM     12  S   UNL A   1      32.050  23.108  26.727  1.00  0.00    -0.093 SA
BRANCH  12  13
ATOM     13  C   UNL A   1      32.730  21.698  25.874  1.00  0.00     0.097 A 
ATOM     14  C   UNL A   1      34.073  21.346  25.827  1.00  0.00     0.035 A 
ATOM     15  N   UNL A   1      31.781  20.910  25.306  1.00  0.00    -0.250 NA
ATOM     16  C   UNL A   1      34.464  20.223  25.093  1.00  0.00     0.004 A 
ATOM     17  C   UNL A   1      32.182  19.821  24.614  1.00  0.00     0.112 A 
ATOM     18  C   UNL A   1      33.503  19.445  24.468  1.00  0.00     0.020 A 
ENDBRANCH  12  13
ENDBRANCH  10  12
ENDBRANCH   7  10
ENDBRANCH   5   6
BRANCH   5  19
ATOM     19  C   UNL A   1      34.780  24.493  24.256  1.00  0.00    -0.014 A 
ATOM     20  C   UNL A   1      35.390  23.652  23.302  1.00  0.00     0.009 A 
ATOM     21  C   UNL A   1      35.387  24.576  25.516  1.00  0.00     0.009 A 
ATOM     22  C   UNL A   1      36.562  22.948  23.606  1.00  0.00     0.039 A 
ATOM     23  C   UNL A   1      36.587  23.923  25.806  1.00  0.00     0.039 A 
ATOM     24  C   UNL A   1      37.162  23.107  24.847  1.00  0.00     0.123 A 
ATOM     25  F   UNL A   1      38.277  22.428  25.140  1.00  0.00    -0.207 F 
ENDBRANCH   5  19
ENDBRANCH   3   5
ENDBRANCH   2   3
ENDBRANCH   1   2
BRANCH   1  26
ATOM     26  C   UNL A   1      33.337  28.912  25.804  1.00  0.00     0.275 C 
BRANCH  26  27
ATOM     27  O   UNL A   1      33.832  28.798  27.150  1.00  0.00    -0.458 OA
BRANCH  27  28
ATOM     28  C   UNL A   1      34.335  29.944  27.665  1.00  0.00     0.338 C 
ATOM     29  O   UNL A   1      33.711  30.951  27.955  1.00  0.00    -0.246 OA
BRANCH  28  30
ATOM     30  C   UNL A   1      35.734  29.727  28.071  1.00  0.00     0.060 A 
ATOM     31  C   UNL A   1      36.680  29.850  27.056  1.00  0.00     0.016 A 
ATOM     32  C   UNL A   1      36.132  29.388  29.366  1.00  0.00     0.016 A 
ATOM     33  C   UNL A   1      38.028  29.680  27.328  1.00  0.00     0.010 A 
ATOM     34  C   UNL A   1      37.496  29.180  29.633  1.00  0.00     0.010 A 
ATOM     35  C   UNL A   1      38.449  29.337  28.613  1.00  0.00    -0.014 A 
BRANCH  35  36
ATOM     36  C   UNL A   1      39.884  29.018  28.788  1.00  0.00     0.031 A 
ATOM     37  C   UNL A   1      40.772  30.034  29.443  1.00  0.00     0.074 A 
ATOM     38  C   UNL A   1      40.349  27.780  28.538  1.00  0.00     0.049 A 
ATOM     39  N   UNL A   1      42.056  29.982  29.680  1.00  0.00    -0.248 NA
ATOM     40  C   UNL A   1      40.117  31.264  29.920  1.00  0.00     0.031 C 
ATOM     41  C   UNL A   1      39.544  26.654  28.063  1.00  0.00     0.029 A 
ATOM     42  N   UNL A   1      41.610  27.254  28.679  1.00  0.00    -0.354 N 
ATOM     43  C   UNL A   1      42.368  31.175  30.319  1.00  0.00     0.074 A 
ATOM     44  C   UNL A   1      41.139  31.928  30.440  1.00  0.00     0.031 C 
ATOM     45  C   UNL A   1      40.333  25.571  27.952  1.00  0.00     0.029 A 
ATOM     46  C   UNL A   1      41.706  25.938  28.296  1.00  0.00     0.049 A 
ATOM     47  H   UNL A   1      42.373  27.773  29.023  1.00  0.00     0.167 HD
ATOM     48  C   UNL A   1      43.575  31.609  30.751  1.00  0.00     0.037 A 
ATOM     49  C   UNL A   1      42.786  25.137  28.197  1.00  0.00     0.037 A 
ATOM     50  C   UNL A   1      44.795  30.856  30.624  1.00  0.00     0.049 A 
ATOM     51  C   UNL A   1      44.143  25.688  28.557  1.00  0.00     0.074 A 
ATOM     52  C   UNL A   1      46.081  31.237  30.961  1.00  0.00     0.029 A 
ATOM     53  N   UNL A   1      44.876  29.565  30.124  1.00  0.00    -0.354 N 
ATOM     54  N   UNL A   1      44.451  26.860  29.063  1.00  0.00    -0.248 NA
ATOM     55  C   UNL A   1      45.304  24.819  28.311  1.00  0.00     0.031 C 
ATOM     56  C   UNL A   1      46.947  30.191  30.624  1.00  0.00     0.029 A 
ATOM     57  C   UNL A   1      46.195  29.142  30.119  1.00  0.00     0.049 A 
ATOM     58  H   UNL A   1      44.110  29.029  29.816  1.00  0.00     0.167 HD
ATOM     59  C   UNL A   1      45.834  26.865  29.203  1.00  0.00     0.074 A 
ATOM     60  C   UNL A   1      46.304  25.572  28.748  1.00  0.00     0.031 C 
ATOM     61  C   UNL A   1      46.645  27.852  29.662  1.00  0.00     0.037 A 
BRANCH  48  62
ATOM     62  C   UNL A   1      43.639  32.994  31.323  1.00  0.00     0.058 A 
ATOM     63  C   UNL A   1      43.305  33.267  32.658  1.00  0.00     0.135 A 
ATOM     64  C   UNL A   1      44.035  34.067  30.509  1.00  0.00     0.135 A 
ATOM     65  F   UNL A   1      42.892  32.279  33.468  1.00  0.00    -0.206 F 
ATOM     66  C   UNL A   1      43.341  34.563  33.161  1.00  0.00     0.059 A 
ATOM     67  C   UNL A   1      44.099  35.367  30.998  1.00  0.00     0.059 A 
ATOM     68  F   UNL A   1      44.353  33.857  29.222  1.00  0.00    -0.206 F 
ATOM     69  C   UNL A   1      43.735  35.608  32.321  1.00  0.00     0.060 A 
BRANCH  69  70
ATOM     70  S   UNL A   1      43.763  37.288  32.979  1.00  0.00     0.124 S 
ATOM     71  O   UNL A   1      45.120  37.369  33.510  1.00  0.00    -0.237 OA
ATOM     72  O   UNL A   1      43.497  38.095  31.792  1.00  0.00    -0.237 OA
ATOM     73  O   UNL A   1      42.698  37.279  33.977  1.00  0.00    -0.744 OA
ENDBRANCH  69  70
ENDBRANCH  48  62
BRANCH  49  74
ATOM     74  C   UNL A   1      42.649  23.754  27.663  1.00  0.00     0.058 A 
ATOM     75  C   UNL A   1      42.503  22.649  28.515  1.00  0.00     0.135 A 
ATOM     76  C   UNL A   1      42.688  23.510  26.281  1.00  0.00     0.135 A 
ATOM     77  F   UNL A   1      42.479  22.826  29.845  1.00  0.00    -0.206 F 
ATOM     78  C   UNL A   1      42.406  21.353  28.017  1.00  0.00     0.059 A 
ATOM     79  C   UNL A   1      42.567  22.227  25.759  1.00  0.00     0.059 A 
ATOM     80  F   UNL A   1      42.826  24.531  25.420  1.00  0.00    -0.206 F 
ATOM     81  C   UNL A   1      42.438  21.152  26.636  1.00  0.00     0.060 A 
BRANCH  81  82
ATOM     82  S   UNL A   1      42.261  19.476  25.989  1.00  0.00     0.124 S 
ATOM     83  O   UNL A   1      42.790  18.679  27.089  1.00  0.00    -0.237 OA
ATOM     84  O   UNL A   1      40.823  19.382  25.763  1.00  0.00    -0.237 OA
ATOM     85  O   UNL A   1      43.075  19.500  24.776  1.00  0.00    -0.744 OA
ENDBRANCH  81  82
ENDBRANCH  49  74
BRANCH  61  86
ATOM     86  C   UNL A   1      48.121  27.573  29.708  1.00  0.00     0.058 A 
ATOM     87  C   UNL A   1      48.720  26.976  30.827  1.00  0.00     0.135 A 
ATOM     88  C   UNL A   1      48.933  27.847  28.596  1.00  0.00     0.135 A 
ATOM     89  F   UNL A   1      47.988  26.699  31.918  1.00  0.00    -0.206 F 
ATOM     90  C   UNL A   1      50.077  26.674  30.850  1.00  0.00     0.059 A 
ATOM     91  C   UNL A   1      50.289  27.532  28.588  1.00  0.00     0.059 A 
ATOM     92  F   UNL A   1      48.407  28.408  27.496  1.00  0.00    -0.206 F 
ATOM     93  C   UNL A   1      50.854  26.955  29.725  1.00  0.00     0.060 A 
BRANCH  93  94
ATOM     94  S   UNL A   1      52.607  26.521  29.749  1.00  0.00     0.124 S 
ATOM     95  O   UNL A   1      52.784  25.942  28.422  1.00  0.00    -0.237 OA
ATOM     96  O   UNL A   1      53.249  27.814  29.967  1.00  0.00    -0.237 OA
ATOM     97  O   UNL A   1      52.709  25.584  30.863  1.00  0.00    -0.744 OA
ENDBRANCH  93  94
ENDBRANCH  61  86
ENDBRANCH  35  36
ENDBRANCH  28  30
ENDBRANCH  27  28
ENDBRANCH  26  27
ENDBRANCH   1  26
TORSDOF 19
ENDMDL
MODEL 3
REMARK VINA RESULT:     -11.4      2.844      3.788
REMARK SMILES C[C@H](Sc1ccccn1)C(=O)N[C@H](C(=O)OCCOC(=O)c1ccc(-c2c3nc(c(-c4c(F)cc(S(=O)(=O)[O-])cc4F)c4ccc([nH]4)c(-c4c(F)cc(S(=O)(=O)[O-])cc4F)c4nc(c(-c5c(F)cc(S(=O)(=O)[O-])cc5F)c5ccc2[nH]5)C=C4)C=C3)cc1)c1ccc(F)cc1
REMARK SMILES IDX 17 1 16 2 14 3 15 4 13 5 12 6 10 7 11 8 2 10 1 11 3 12 4 13
REMARK SMILES IDX 5 14 9 15 6 16 8 17 7 18 88 19 89 20 94 21 90 22 93 23 91 24
REMARK SMILES IDX 92 25 18 26 19 27 20 28 21 29 22 30 23 31 87 32 24 33 86 34
REMARK SMILES IDX 25 35 26 36 27 37 80 38 28 39 85 40 79 41 81 42 29 43 84 44
REMARK SMILES IDX 78 45 77 46 30 48 64 49 43 50 63 51 44 52 47 53 62 54 82 55
REMARK SMILES IDX 45 56 46 57 61 59 83 60 48 61 31 62 32 63 41 64 33 65 34 66
REMARK SMILES IDX 40 67 42 68 35 69 36 70 37 71 38 72 39 73 65 74 66 75 75 76
REMARK SMILES IDX 67 77 68 78 74 79 76 80 69 81 70 82 71 83 72 84 73 85 49 86
REMARK SMILES IDX 50 87 59 88 51 89 52 90 58 91 60 92 53 93 54 94 55 95 56 96
REMARK SMILES IDX 57 97
REMARK H PARENT 12 9 81 47 47 58
REMARK Flexibility Score: inf
ROOT
ATOM      1  C   UNL A   1      33.472  28.439  25.098  1.00  0.00     0.274 C 
ENDROOT
BRANCH   1   2
ATOM      2  O   UNL A   1      32.732  28.729  23.896  1.00  0.00    -0.460 OA
BRANCH   2   3
ATOM      3  C   UNL A   1      32.353  27.658  23.130  1.00  0.00     0.333 C 
ATOM      4  O   UNL A   1      33.079  27.057  22.352  1.00  0.00    -0.249 OA
BRANCH   3   5
ATOM      5  C   UNL A   1      30.854  27.373  23.320  1.00  0.00     0.223 C 
BRANCH   5   6
ATOM      6  N   UNL A   1      30.456  26.798  24.617  1.00  0.00    -0.338 N 
ATOM      7  C   UNL A   1      30.811  25.776  25.429  1.00  0.00     0.234 C 
ATOM      8  O   UNL A   1      30.273  25.814  26.548  1.00  0.00    -0.274 OA
ATOM      9  H   UNL A   1      29.712  27.310  25.009  1.00  0.00     0.164 HD
BRANCH   7  10
ATOM     10  C   UNL A   1      31.755  24.601  25.115  1.00  0.00     0.139 C 
ATOM     11  C   UNL A   1      31.039  23.282  24.921  1.00  0.00     0.030 C 
BRANCH  10  12
ATOM     12  S   UNL A   1      33.333  24.765  26.051  1.00  0.00    -0.093 SA
BRANCH  12  13
ATOM     13  C   UNL A   1      34.648  24.041  25.089  1.00  0.00     0.097 A 
ATOM     14  C   UNL A   1      34.531  23.538  23.801  1.00  0.00     0.035 A 
ATOM     15  N   UNL A   1      35.854  24.090  25.713  1.00  0.00    -0.250 NA
ATOM     16  C   UNL A   1      35.647  22.973  23.178  1.00  0.00     0.004 A 
ATOM     17  C   UNL A   1      36.923  23.551  25.086  1.00  0.00     0.112 A 
ATOM     18  C   UNL A   1      36.869  22.974  23.833  1.00  0.00     0.020 A 
ENDBRANCH  12  13
ENDBRANCH  10  12
ENDBRANCH   7  10
ENDBRANCH   5   6
BRANCH   5  19
ATOM     19  C   UNL A   1      29.903  28.462  22.824  1.00  0.00    -0.014 A 
ATOM     20  C   UNL A   1      28.529  28.412  23.136  1.00  0.00     0.009 A 
ATOM     21  C   UNL A   1      30.335  29.513  22.005  1.00  0.00     0.009 A 
ATOM     22  C   UNL A   1      27.645  29.387  22.655  1.00  0.00     0.039 A 
ATOM     23  C   UNL A   1      29.471  30.520  21.571  1.00  0.00     0.039 A 
ATOM     24  C   UNL A   1      28.127  30.444  21.896  1.00  0.00     0.123 A 
ATOM     25  F   UNL A   1      27.281  31.370  21.431  1.00  0.00    -0.207 F 
ENDBRANCH   5  19
ENDBRANCH   3   5
ENDBRANCH   2   3
ENDBRANCH   1   2
BRANCH   1  26
ATOM     26  C   UNL A   1      32.792  28.942  26.373  1.00  0.00     0.275 C 
BRANCH  26  27
ATOM     27  O   UNL A   1      33.682  28.891  27.501  1.00  0.00    -0.458 OA
BRANCH  27  28
ATOM     28  C   UNL A   1      34.251  30.075  27.826  1.00  0.00     0.338 C 
ATOM     29  O   UNL A   1      33.681  31.143  27.974  1.00  0.00    -0.246 OA
BRANCH  28  30
ATOM     30  C   UNL A   1      35.650  29.854  28.227  1.00  0.00     0.060 A 
ATOM     31  C   UNL A   1      36.598  30.023  27.222  1.00  0.00     0.016 A 
ATOM     32  C   UNL A   1      36.047  29.469  29.510  1.00  0.00     0.016 A 
ATOM     33  C   UNL A   1      37.947  29.855  27.492  1.00  0.00     0.010 A 
ATOM     34  C   UNL A   1      37.412  29.263  29.774  1.00  0.00     0.010 A 
ATOM     35  C   UNL A   1      38.366  29.466  28.764  1.00  0.00    -0.014 A 
BRANCH  35  36
ATOM     36  C   UNL A   1      39.804  29.153  28.931  1.00  0.00     0.031 A 
ATOM     37  C   UNL A   1      40.690  30.168  29.591  1.00  0.00     0.074 A 
ATOM     38  C   UNL A   1      40.274  27.919  28.670  1.00  0.00     0.049 A 
ATOM     39  N   UNL A   1      41.975  30.120  29.824  1.00  0.00    -0.248 NA
ATOM     40  C   UNL A   1      40.031  31.391  30.079  1.00  0.00     0.031 C 
ATOM     41  C   UNL A   1      39.472  26.793  28.190  1.00  0.00     0.029 A 
ATOM     42  N   UNL A   1      41.538  27.398  28.803  1.00  0.00    -0.354 N 
ATOM     43  C   UNL A   1      42.284  31.310  30.470  1.00  0.00     0.074 A 
ATOM     44  C   UNL A   1      41.051  32.056  30.601  1.00  0.00     0.031 C 
ATOM     45  C   UNL A   1      40.266  25.714  28.068  1.00  0.00     0.029 A 
ATOM     46  C   UNL A   1      41.638  26.085  28.410  1.00  0.00     0.049 A 
ATOM     47  H   UNL A   1      42.300  27.918  29.148  1.00  0.00     0.167 HD
ATOM     48  C   UNL A   1      43.490  31.746  30.902  1.00  0.00     0.037 A 
ATOM     49  C   UNL A   1      42.722  25.290  28.301  1.00  0.00     0.037 A 
ATOM     50  C   UNL A   1      44.712  31.000  30.765  1.00  0.00     0.049 A 
ATOM     51  C   UNL A   1      44.078  25.844  28.661  1.00  0.00     0.074 A 
ATOM     52  C   UNL A   1      45.998  31.384  31.100  1.00  0.00     0.029 A 
ATOM     53  N   UNL A   1      44.798  29.713  30.254  1.00  0.00    -0.354 N 
ATOM     54  N   UNL A   1      44.382  27.014  29.174  1.00  0.00    -0.248 NA
ATOM     55  C   UNL A   1      45.241  24.983  28.404  1.00  0.00     0.031 C 
ATOM     56  C   UNL A   1      46.868  30.345  30.752  1.00  0.00     0.029 A 
ATOM     57  C   UNL A   1      46.119  29.296  30.242  1.00  0.00     0.049 A 
ATOM     58  H   UNL A   1      44.034  29.175  29.945  1.00  0.00     0.167 HD
ATOM     59  C   UNL A   1      45.766  27.024  29.310  1.00  0.00     0.074 A 
ATOM     60  C   UNL A   1      46.240  25.738  28.843  1.00  0.00     0.031 C 
ATOM     61  C   UNL A   1      46.573  28.011  29.773  1.00  0.00     0.037 A 
BRANCH  48  62
ATOM     62  C   UNL A   1      43.549  33.127  31.483  1.00  0.00     0.058 A 
ATOM     63  C   UNL A   1      43.891  34.248  30.712  1.00  0.00     0.135 A 
ATOM     64  C   UNL A   1      43.263  33.324  32.843  1.00  0.00     0.135 A 
ATOM     65  F   UNL A   1      44.200  34.107  29.413  1.00  0.00    -0.206 F 
ATOM     66  C   UNL A   1      43.970  35.517  31.277  1.00  0.00     0.059 A 
ATOM     67  C   UNL A   1      43.316  34.586  33.424  1.00  0.00     0.059 A 
ATOM     68  F   UNL A   1      42.943  32.280  33.625  1.00  0.00    -0.206 F 
ATOM     69  C   UNL A   1      43.685  35.675  32.636  1.00  0.00     0.060 A 
BRANCH  69  70
ATOM     70  S   UNL A   1      43.806  37.322  33.362  1.00  0.00     0.124 S 
ATOM     71  O   UNL A   1      42.755  37.271  34.374  1.00  0.00    -0.237 OA
ATOM     72  O   UNL A   1      45.174  37.342  33.870  1.00  0.00    -0.237 OA
ATOM     73  O   UNL A   1      43.547  38.210  32.234  1.00  0.00    -0.744 OA
ENDBRANCH  69  70
ENDBRANCH  48  62
BRANCH  49  74
ATOM     74  C   UNL A   1      42.589  23.911  27.757  1.00  0.00     0.058 A 
ATOM     75  C   UNL A   1      42.514  23.669  26.377  1.00  0.00     0.135 A 
ATOM     76  C   UNL A   1      42.508  22.804  28.617  1.00  0.00     0.135 A 
ATOM     77  F   UNL A   1      42.567  24.694  25.512  1.00  0.00    -0.206 F 
ATOM     78  C   UNL A   1      42.358  22.382  25.869  1.00  0.00     0.059 A 
ATOM     79  C   UNL A   1      42.378  21.507  28.134  1.00  0.00     0.059 A 
ATOM     80  F   UNL A   1      42.574  22.978  29.947  1.00  0.00    -0.206 F 
ATOM     81  C   UNL A   1      42.292  21.307  26.757  1.00  0.00     0.060 A 
BRANCH  81  82
ATOM     82  S   UNL A   1      42.142  19.633  26.097  1.00  0.00     0.124 S 
ATOM     83  O   UNL A   1      43.105  19.661  25.003  1.00  0.00    -0.237 OA
ATOM     84  O   UNL A   1      42.501  18.812  27.249  1.00  0.00    -0.237 OA
ATOM     85  O   UNL A   1      40.737  19.558  25.701  1.00  0.00    -0.744 OA
ENDBRANCH  81  82
ENDBRANCH  49  74
BRANCH  61  86
ATOM     86  C   UNL A   1      48.050  27.739  29.812  1.00  0.00     0.058 A 
ATOM     87  C   UNL A   1      48.687  27.312  30.987  1.00  0.00     0.135 A 
ATOM     88  C   UNL A   1      48.826  27.845  28.646  1.00  0.00     0.135 A 
ATOM     89  F   UNL A   1      47.991  27.201  32.130  1.00  0.00    -0.206 F 
ATOM     90  C   UNL A   1      50.045  27.014  31.011  1.00  0.00     0.059 A 
ATOM     91  C   UNL A   1      50.182  27.529  28.641  1.00  0.00     0.059 A 
ATOM     92  F   UNL A   1      48.263  28.238  27.493  1.00  0.00    -0.206 F 
ATOM     93  C   UNL A   1      50.785  27.125  29.831  1.00  0.00     0.060 A 
BRANCH  93  94
ATOM     94  S   UNL A   1      52.539  26.695  29.863  1.00  0.00     0.124 S 
ATOM     95  O   UNL A   1      52.556  25.609  30.836  1.00  0.00    -0.237 OA
ATOM     96  O   UNL A   1      52.793  26.309  28.478  1.00  0.00    -0.237 OA
ATOM     97  O   UNL A   1      53.183  27.933  30.289  1.00  0.00    -0.744 OA
ENDBRANCH  93  94
ENDBRANCH  61  86
ENDBRANCH  35  36
ENDBRANCH  28  30
ENDBRANCH  27  28
ENDBRANCH  26  27
ENDBRANCH   1  26
TORSDOF 19
ENDMDL
