MODEL 1
REMARK VINA RESULT:     -10.5      0.000      0.000
REMARK SMILES C[C@H](C(=O)OCCOC(=O)c1ccc(-c2c3nc(c(-c4c(F)cc(S(=O)(=O)[O-])cc4F)c4ccc([nH]4)c(-c4c(F)cc(S(=O)(=O)[O-])cc4F)c4nc(c(-c5c(F)cc(S(=O)(=O)[O-])cc5F)c5ccc2[nH]5)C=C4)C=C3)cc1)[C@H](C)[NH+]1CCN(S(C)(=O)=O)CC1
REMARK SMILES IDX 6 1 5 2 3 3 4 4 2 5 1 6 77 7 78 8 79 9 80 10 88 11 81 13
REMARK SMILES IDX 87 14 82 15 83 16 84 17 85 18 86 19 7 20 8 21 9 22 10 23
REMARK SMILES IDX 11 24 12 25 76 26 13 27 75 28 14 29 15 30 16 31 69 32 17 33
REMARK SMILES IDX 74 34 68 35 70 36 18 37 73 38 67 39 66 40 19 42 53 43 32 44
REMARK SMILES IDX 52 45 33 46 36 47 51 48 71 49 34 50 35 51 50 53 72 54 37 55
REMARK SMILES IDX 20 56 21 57 30 58 22 59 23 60 29 61 31 62 24 63 25 64 26 65
REMARK SMILES IDX 27 66 28 67 54 68 55 69 64 70 56 71 57 72 63 73 65 74 58 75
REMARK SMILES IDX 59 76 60 77 61 78 62 79 38 80 39 81 48 82 40 83 41 84 47 85
REMARK SMILES IDX 49 86 42 87 43 88 44 89 45 90 46 91
REMARK H PARENT 79 12 70 41 36 52
REMARK Flexibility Score: inf
ROOT
ATOM      1  C   UNL A   1      32.021  27.576  26.872  1.00  0.00     0.274 C 
ENDROOT
BRANCH   1   2
ATOM      2  O   UNL A   1      31.924  26.422  26.003  1.00  0.00    -0.462 OA
BRANCH   2   3
ATOM      3  C   UNL A   1      30.659  25.978  25.762  1.00  0.00     0.314 C 
ATOM      4  O   UNL A   1      29.907  25.636  26.668  1.00  0.00    -0.252 OA
BRANCH   3   5
ATOM      5  C   UNL A   1      30.273  25.866  24.280  1.00  0.00     0.154 C 
ATOM      6  C   UNL A   1      29.146  26.812  23.865  1.00  0.00     0.026 C 
BRANCH   5   7
ATOM      7  C   UNL A   1      31.524  25.928  23.298  1.00  0.00     0.195 C 
ATOM      8  C   UNL A   1      31.147  26.771  22.059  1.00  0.00     0.076 C 
BRANCH   7   9
ATOM      9  N   UNL A   1      32.327  24.701  23.091  1.00  0.00    -0.330 N 
ATOM     10  C   UNL A   1      33.733  24.855  22.784  1.00  0.00     0.279 C 
ATOM     11  C   UNL A   1      32.135  23.467  23.888  1.00  0.00     0.279 C 
ATOM     12  H   UNL A   1      31.785  24.515  22.247  1.00  0.00     0.348 HD
ATOM     13  C   UNL A   1      34.551  24.896  24.081  1.00  0.00     0.163 C 
ATOM     14  C   UNL A   1      33.299  22.941  24.831  1.00  0.00     0.163 C 
ATOM     15  N   UNL A   1      34.641  23.531  24.568  1.00  0.00    -0.191 NA
BRANCH  15  16
ATOM     16  S   UNL A   1      36.037  22.687  24.234  1.00  0.00     0.211 S 
ATOM     17  C   UNL A   1      37.149  23.173  25.545  1.00  0.00     0.176 C 
ATOM     18  O   UNL A   1      35.758  21.280  24.467  1.00  0.00    -0.212 OA
ATOM     19  O   UNL A   1      36.584  23.144  22.980  1.00  0.00    -0.212 OA
ENDBRANCH  15  16
ENDBRANCH   7   9
ENDBRANCH   5   7
ENDBRANCH   3   5
ENDBRANCH   2   3
ENDBRANCH   1   2
BRANCH   1  20
ATOM     20  C   UNL A   1      33.093  28.562  26.411  1.00  0.00     0.275 C 
BRANCH  20  21
ATOM     21  O   UNL A   1      34.195  28.583  27.330  1.00  0.00    -0.458 OA
BRANCH  21  22
ATOM     22  C   UNL A   1      34.554  29.825  27.725  1.00  0.00     0.338 C 
ATOM     23  O   UNL A   1      33.835  30.807  27.818  1.00  0.00    -0.246 OA
BRANCH  22  24
ATOM     24  C   UNL A   1      35.955  29.852  28.153  1.00  0.00     0.060 A 
ATOM     25  C   UNL A   1      36.950  30.081  27.206  1.00  0.00     0.016 A 
ATOM     26  C   UNL A   1      36.293  29.415  29.425  1.00  0.00     0.016 A 
ATOM     27  C   UNL A   1      38.264  29.759  27.454  1.00  0.00     0.010 A 
ATOM     28  C   UNL A   1      37.639  29.211  29.726  1.00  0.00     0.010 A 
ATOM     29  C   UNL A   1      38.622  29.350  28.729  1.00  0.00    -0.014 A 
BRANCH  29  30
ATOM     30  C   UNL A   1      40.025  28.998  28.991  1.00  0.00     0.031 A 
ATOM     31  C   UNL A   1      40.935  30.067  29.500  1.00  0.00     0.074 A 
ATOM     32  C   UNL A   1      40.449  27.740  28.775  1.00  0.00     0.049 A 
ATOM     33  N   UNL A   1      42.235  30.110  29.490  1.00  0.00    -0.248 NA
ATOM     34  C   UNL A   1      40.289  31.265  30.069  1.00  0.00     0.031 C 
ATOM     35  C   UNL A   1      39.602  26.603  28.399  1.00  0.00     0.029 A 
ATOM     36  N   UNL A   1      41.710  27.211  28.821  1.00  0.00    -0.354 N 
ATOM     37  C   UNL A   1      42.567  31.369  29.970  1.00  0.00     0.074 A 
ATOM     38  C   UNL A   1      41.332  32.056  30.275  1.00  0.00     0.031 C 
ATOM     39  C   UNL A   1      40.368  25.513  28.245  1.00  0.00     0.029 A 
ATOM     40  C   UNL A   1      41.760  25.905  28.394  1.00  0.00     0.049 A 
ATOM     41  H   UNL A   1      42.500  27.712  29.127  1.00  0.00     0.167 HD
ATOM     42  C   UNL A   1      43.805  31.893  30.113  1.00  0.00     0.037 A 
ATOM     43  C   UNL A   1      42.819  25.141  28.075  1.00  0.00     0.037 A 
ATOM     44  C   UNL A   1      45.000  31.144  29.825  1.00  0.00     0.049 A 
ATOM     45  C   UNL A   1      44.182  25.764  28.180  1.00  0.00     0.074 A 
ATOM     46  C   UNL A   1      46.318  31.547  29.926  1.00  0.00     0.029 A 
ATOM     47  N   UNL A   1      45.015  29.825  29.385  1.00  0.00    -0.354 N 
ATOM     48  N   UNL A   1      44.503  26.980  28.556  1.00  0.00    -0.248 NA
ATOM     49  C   UNL A   1      45.320  24.924  27.800  1.00  0.00     0.031 C 
ATOM     50  C   UNL A   1      47.126  30.486  29.502  1.00  0.00     0.029 A 
ATOM     51  C   UNL A   1      46.316  29.402  29.195  1.00  0.00     0.049 A 
ATOM     52  H   UNL A   1      44.214  29.272  29.232  1.00  0.00     0.167 HD
ATOM     53  C   UNL A   1      45.887  27.045  28.487  1.00  0.00     0.074 A 
ATOM     54  C   UNL A   1      46.338  25.739  28.041  1.00  0.00     0.031 C 
ATOM     55  C   UNL A   1      46.716  28.083  28.763  1.00  0.00     0.037 A 
BRANCH  42  56
ATOM     56  C   UNL A   1      43.915  33.332  30.528  1.00  0.00     0.058 A 
ATOM     57  C   UNL A   1      44.049  33.720  31.870  1.00  0.00     0.135 A 
ATOM     58  C   UNL A   1      43.886  34.347  29.557  1.00  0.00     0.135 A 
ATOM     59  F   UNL A   1      44.052  32.796  32.846  1.00  0.00    -0.206 F 
ATOM     60  C   UNL A   1      44.128  35.061  32.236  1.00  0.00     0.059 A 
ATOM     61  C   UNL A   1      43.994  35.691  29.896  1.00  0.00     0.059 A 
ATOM     62  F   UNL A   1      43.743  34.036  28.259  1.00  0.00    -0.206 F 
ATOM     63  C   UNL A   1      44.102  36.040  31.242  1.00  0.00     0.060 A 
BRANCH  63  64
ATOM     64  S   UNL A   1      44.219  37.773  31.732  1.00  0.00     0.124 S 
ATOM     65  O   UNL A   1      45.657  37.922  31.936  1.00  0.00    -0.237 OA
ATOM     66  O   UNL A   1      43.671  38.462  30.568  1.00  0.00    -0.237 OA
ATOM     67  O   UNL A   1      43.404  37.842  32.940  1.00  0.00    -0.744 OA
ENDBRANCH  63  64
ENDBRANCH  42  56
BRANCH  43  68
ATOM     68  C   UNL A   1      42.619  23.753  27.583  1.00  0.00     0.058 A 
ATOM     69  C   UNL A   1      42.543  22.680  28.481  1.00  0.00     0.135 A 
ATOM     70  C   UNL A   1      42.467  23.471  26.214  1.00  0.00     0.135 A 
ATOM     71  F   UNL A   1      42.684  22.897  29.797  1.00  0.00    -0.206 F 
ATOM     72  C   UNL A   1      42.342  21.376  28.042  1.00  0.00     0.059 A 
ATOM     73  C   UNL A   1      42.232  22.180  25.754  1.00  0.00     0.059 A 
ATOM     74  F   UNL A   1      42.510  24.464  25.312  1.00  0.00    -0.206 F 
ATOM     75  C   UNL A   1      42.183  21.136  26.675  1.00  0.00     0.060 A 
BRANCH  75  76
ATOM     76  S   UNL A   1      41.882  19.443  26.126  1.00  0.00     0.124 S 
ATOM     77  O   UNL A   1      42.320  18.678  27.286  1.00  0.00    -0.237 OA
ATOM     78  O   UNL A   1      40.444  19.457  25.873  1.00  0.00    -0.237 OA
ATOM     79  O   UNL A   1      42.720  19.322  24.937  1.00  0.00    -0.744 OA
ENDBRANCH  75  76
ENDBRANCH  43  68
BRANCH  55  80
ATOM     80  C   UNL A   1      48.188  27.820  28.647  1.00  0.00     0.058 A 
ATOM     81  C   UNL A   1      48.932  27.289  29.710  1.00  0.00     0.135 A 
ATOM     82  C   UNL A   1      48.849  28.060  27.431  1.00  0.00     0.135 A 
ATOM     83  F   UNL A   1      48.347  27.053  30.895  1.00  0.00    -0.206 F 
ATOM     84  C   UNL A   1      50.290  27.027  29.580  1.00  0.00     0.059 A 
ATOM     85  C   UNL A   1      50.197  27.774  27.268  1.00  0.00     0.059 A 
ATOM     86  F   UNL A   1      48.176  28.560  26.382  1.00  0.00    -0.206 F 
ATOM     87  C   UNL A   1      50.912  27.268  28.352  1.00  0.00     0.060 A 
BRANCH  87  88
ATOM     88  S   UNL A   1      52.666  26.885  28.185  1.00  0.00     0.124 S 
ATOM     89  O   UNL A   1      53.181  28.119  27.603  1.00  0.00    -0.237 OA
ATOM     90  O   UNL A   1      53.060  26.622  29.567  1.00  0.00    -0.237 OA
ATOM     91  O   UNL A   1      52.677  25.721  27.304  1.00  0.00    -0.744 OA
ENDBRANCH  87  88
ENDBRANCH  55  80
ENDBRANCH  29  30
ENDBRANCH  22  24
ENDBRANCH  21  22
ENDBRANCH  20  21
ENDBRANCH   1  20
TORSDOF 17
ENDMDL
MODEL 2
REMARK VINA RESULT:     -10.5      4.851     11.089
REMARK SMILES C[C@H](C(=O)OCCOC(=O)c1ccc(-c2c3nc(c(-c4c(F)cc(S(=O)(=O)[O-])cc4F)c4ccc([nH]4)c(-c4c(F)cc(S(=O)(=O)[O-])cc4F)c4nc(c(-c5c(F)cc(S(=O)(=O)[O-])cc5F)c5ccc2[nH]5)C=C4)C=C3)cc1)[C@H](C)[NH+]1CCN(S(C)(=O)=O)CC1
REMARK SMILES IDX 6 1 5 2 3 3 4 4 2 5 1 6 77 7 78 8 79 9 80 10 88 11 81 13
REMARK SMILES IDX 87 14 82 15 83 16 84 17 85 18 86 19 7 20 8 21 9 22 10 23
REMARK SMILES IDX 11 24 12 25 76 26 13 27 75 28 14 29 15 30 16 31 69 32 17 33
REMARK SMILES IDX 74 34 68 35 70 36 18 37 73 38 67 39 66 40 19 42 53 43 32 44
REMARK SMILES IDX 52 45 33 46 36 47 51 48 71 49 34 50 35 51 50 53 72 54 37 55
REMARK SMILES IDX 20 56 21 57 30 58 22 59 23 60 29 61 31 62 24 63 25 64 26 65
REMARK SMILES IDX 27 66 28 67 54 68 55 69 64 70 56 71 57 72 63 73 65 74 58 75
REMARK SMILES IDX 59 76 60 77 61 78 62 79 38 80 39 81 48 82 40 83 41 84 47 85
REMARK SMILES IDX 49 86 42 87 43 88 44 89 45 90 46 91
REMARK H PARENT 79 12 70 41 36 52
REMARK Flexibility Score: inf
ROOT
ATOM      1  C   UNL A   1      40.358  20.605  26.274  1.00  0.00     0.274 C 
ENDROOT
BRANCH   1   2
ATOM      2  O   UNL A   1      41.174  21.433  27.138  1.00  0.00    -0.462 OA
BRANCH   2   3
ATOM      3  C   UNL A   1      42.148  22.149  26.511  1.00  0.00     0.314 C 
ATOM      4  O   UNL A   1      42.532  21.871  25.380  1.00  0.00    -0.252 OA
BRANCH   3   5
ATOM      5  C   UNL A   1      42.780  23.271  27.346  1.00  0.00     0.154 C 
ATOM      6  C   UNL A   1      42.271  23.327  28.787  1.00  0.00     0.026 C 
BRANCH   5   7
ATOM      7  C   UNL A   1      44.369  23.308  27.251  1.00  0.00     0.195 C 
ATOM      8  C   UNL A   1      44.953  23.457  28.674  1.00  0.00     0.076 C 
BRANCH   7   9
ATOM      9  N   UNL A   1      44.997  24.078  26.153  1.00  0.00    -0.330 N 
ATOM     10  C   UNL A   1      44.535  25.430  25.924  1.00  0.00     0.279 C 
ATOM     11  C   UNL A   1      46.442  23.996  25.835  1.00  0.00     0.279 C 
ATOM     12  H   UNL A   1      44.579  23.429  25.487  1.00  0.00     0.348 HD
ATOM     13  C   UNL A   1      45.350  26.414  26.773  1.00  0.00     0.163 C 
ATOM     14  C   UNL A   1      47.366  25.277  26.002  1.00  0.00     0.163 C 
ATOM     15  N   UNL A   1      46.639  26.571  26.121  1.00  0.00    -0.191 NA
BRANCH  15  16
ATOM     16  S   UNL A   1      46.853  27.911  25.157  1.00  0.00     0.211 S 
ATOM     17  C   UNL A   1      46.264  29.260  26.171  1.00  0.00     0.176 C 
ATOM     18  O   UNL A   1      48.283  28.125  25.024  1.00  0.00    -0.212 OA
ATOM     19  O   UNL A   1      46.001  27.808  23.998  1.00  0.00    -0.212 OA
ENDBRANCH  15  16
ENDBRANCH   7   9
ENDBRANCH   5   7
ENDBRANCH   3   5
ENDBRANCH   2   3
ENDBRANCH   1   2
BRANCH   1  20
ATOM     20  C   UNL A   1      39.240  21.397  25.597  1.00  0.00     0.275 C 
BRANCH  20  21
ATOM     21  O   UNL A   1      38.596  22.271  26.537  1.00  0.00    -0.458 OA
BRANCH  21  22
ATOM     22  C   UNL A   1      38.419  23.530  26.078  1.00  0.00     0.338 C 
ATOM     23  O   UNL A   1      37.673  23.892  25.183  1.00  0.00    -0.246 OA
BRANCH  22  24
ATOM     24  C   UNL A   1      39.185  24.489  26.879  1.00  0.00     0.060 A 
ATOM     25  C   UNL A   1      38.923  24.599  28.242  1.00  0.00     0.016 A 
ATOM     26  C   UNL A   1      39.978  25.434  26.245  1.00  0.00     0.016 A 
ATOM     27  C   UNL A   1      39.322  25.700  28.963  1.00  0.00     0.010 A 
ATOM     28  C   UNL A   1      40.497  26.485  26.999  1.00  0.00     0.010 A 
ATOM     29  C   UNL A   1      40.139  26.638  28.352  1.00  0.00    -0.014 A 
BRANCH  29  30
ATOM     30  C   UNL A   1      40.558  27.819  29.120  1.00  0.00     0.031 A 
ATOM     31  C   UNL A   1      41.863  27.760  29.844  1.00  0.00     0.074 A 
ATOM     32  C   UNL A   1      39.772  28.910  29.149  1.00  0.00     0.049 A 
ATOM     33  N   UNL A   1      42.290  28.500  30.826  1.00  0.00    -0.248 NA
ATOM     34  C   UNL A   1      42.801  26.702  29.425  1.00  0.00     0.031 C 
ATOM     35  C   UNL A   1      38.543  29.101  28.371  1.00  0.00     0.029 A 
ATOM     36  N   UNL A   1      39.881  30.060  29.882  1.00  0.00    -0.354 N 
ATOM     37  C   UNL A   1      43.507  27.949  31.202  1.00  0.00     0.074 A 
ATOM     38  C   UNL A   1      43.758  26.820  30.334  1.00  0.00     0.031 C 
ATOM     39  C   UNL A   1      38.011  30.295  28.671  1.00  0.00     0.029 A 
ATOM     40  C   UNL A   1      38.794  30.891  29.741  1.00  0.00     0.049 A 
ATOM     41  H   UNL A   1      40.656  30.272  30.449  1.00  0.00     0.167 HD
ATOM     42  C   UNL A   1      44.316  28.355  32.205  1.00  0.00     0.037 A 
ATOM     43  C   UNL A   1      38.431  31.965  30.462  1.00  0.00     0.037 A 
ATOM     44  C   UNL A   1      44.028  29.511  33.013  1.00  0.00     0.049 A 
ATOM     45  C   UNL A   1      39.312  32.361  31.612  1.00  0.00     0.074 A 
ATOM     46  C   UNL A   1      44.758  30.038  34.060  1.00  0.00     0.029 A 
ATOM     47  N   UNL A   1      42.912  30.326  32.850  1.00  0.00    -0.354 N 
ATOM     48  N   UNL A   1      40.424  31.799  32.027  1.00  0.00    -0.248 NA
ATOM     49  C   UNL A   1      38.883  33.517  32.403  1.00  0.00     0.031 C 
ATOM     50  C   UNL A   1      44.060  31.142  34.560  1.00  0.00     0.029 A 
ATOM     51  C   UNL A   1      42.926  31.342  33.786  1.00  0.00     0.049 A 
ATOM     52  H   UNL A   1      42.215  30.197  32.166  1.00  0.00     0.167 HD
ATOM     53  C   UNL A   1      40.846  32.552  33.113  1.00  0.00     0.074 A 
ATOM     54  C   UNL A   1      39.871  33.615  33.281  1.00  0.00     0.031 C 
ATOM     55  C   UNL A   1      41.937  32.388  33.904  1.00  0.00     0.037 A 
BRANCH  42  56
ATOM     56  C   UNL A   1      45.526  27.519  32.513  1.00  0.00     0.058 A 
ATOM     57  C   UNL A   1      45.470  26.394  33.350  1.00  0.00     0.135 A 
ATOM     58  C   UNL A   1      46.771  27.855  31.954  1.00  0.00     0.135 A 
ATOM     59  F   UNL A   1      44.314  26.043  33.937  1.00  0.00    -0.206 F 
ATOM     60  C   UNL A   1      46.608  25.646  33.640  1.00  0.00     0.059 A 
ATOM     61  C   UNL A   1      47.914  27.104  32.206  1.00  0.00     0.059 A 
ATOM     62  F   UNL A   1      46.887  28.931  31.160  1.00  0.00    -0.206 F 
ATOM     63  C   UNL A   1      47.825  26.007  33.061  1.00  0.00     0.060 A 
BRANCH  63  64
ATOM     64  S   UNL A   1      49.287  25.018  33.437  1.00  0.00     0.124 S 
ATOM     65  O   UNL A   1      49.790  24.720  32.099  1.00  0.00    -0.237 OA
ATOM     66  O   UNL A   1      50.094  25.944  34.225  1.00  0.00    -0.237 OA
ATOM     67  O   UNL A   1      48.749  23.878  34.171  1.00  0.00    -0.744 OA
ENDBRANCH  63  64
ENDBRANCH  42  56
BRANCH  43  68
ATOM     68  C   UNL A   1      37.169  32.684  30.149  1.00  0.00     0.058 A 
ATOM     69  C   UNL A   1      37.153  33.732  29.219  1.00  0.00     0.135 A 
ATOM     70  C   UNL A   1      35.947  32.322  30.744  1.00  0.00     0.135 A 
ATOM     71  F   UNL A   1      38.293  34.116  28.625  1.00  0.00    -0.206 F 
ATOM     72  C   UNL A   1      35.980  34.406  28.901  1.00  0.00     0.059 A 
ATOM     73  C   UNL A   1      34.755  32.960  30.418  1.00  0.00     0.059 A 
ATOM     74  F   UNL A   1      35.900  31.312  31.627  1.00  0.00    -0.206 F 
ATOM     75  C   UNL A   1      34.784  34.011  29.503  1.00  0.00     0.060 A 
BRANCH  75  76
ATOM     76  S   UNL A   1      33.263  34.871  29.049  1.00  0.00     0.124 S 
ATOM     77  O   UNL A   1      32.696  33.960  28.062  1.00  0.00    -0.237 OA
ATOM     78  O   UNL A   1      32.563  34.945  30.328  1.00  0.00    -0.237 OA
ATOM     79  O   UNL A   1      33.742  36.148  28.529  1.00  0.00    -0.744 OA
ENDBRANCH  75  76
ENDBRANCH  43  68
BRANCH  55  80
ATOM     80  C   UNL A   1      42.155  33.415  34.975  1.00  0.00     0.058 A 
ATOM     81  C   UNL A   1      42.883  34.589  34.738  1.00  0.00     0.135 A 
ATOM     82  C   UNL A   1      41.579  33.237  36.243  1.00  0.00     0.135 A 
ATOM     83  F   UNL A   1      43.462  34.798  33.545  1.00  0.00    -0.206 F 
ATOM     84  C   UNL A   1      43.055  35.544  35.733  1.00  0.00     0.059 A 
ATOM     85  C   UNL A   1      41.709  34.194  37.241  1.00  0.00     0.059 A 
ATOM     86  F   UNL A   1      40.864  32.132  36.514  1.00  0.00    -0.206 F 
ATOM     87  C   UNL A   1      42.460  35.338  36.980  1.00  0.00     0.060 A 
BRANCH  87  88
ATOM     88  S   UNL A   1      42.657  36.604  38.248  1.00  0.00     0.124 S 
ATOM     89  O   UNL A   1      43.583  37.527  37.599  1.00  0.00    -0.237 OA
ATOM     90  O   UNL A   1      41.291  37.090  38.418  1.00  0.00    -0.237 OA
ATOM     91  O   UNL A   1      43.199  35.865  39.385  1.00  0.00    -0.744 OA
ENDBRANCH  87  88
ENDBRANCH  55  80
ENDBRANCH  29  30
ENDBRANCH  22  24
ENDBRANCH  21  22
ENDBRANCH  20  21
ENDBRANCH   1  20
TORSDOF 17
ENDMDL
MODEL 3
REMARK VINA RESULT:     -10.2      5.032     11.266
REMARK SMILES C[C@H](C(=O)OCCOC(=O)c1ccc(-c2c3nc(c(-c4c(F)cc(S(=O)(=O)[O-])cc4F)c4ccc([nH]4)c(-c4c(F)cc(S(=O)(=O)[O-])cc4F)c4nc(c(-c5c(F)cc(S(=O)(=O)[O-])cc5F)c5ccc2[nH]5)C=C4)C=C3)cc1)[C@H](C)[NH+]1CCN(S(C)(=O)=O)CC1
REMARK SMILES IDX 6 1 5 2 3 3 4 4 2 5 1 6 77 7 78 8 79 9 80 10 88 11 81 13
REMARK SMILES IDX 87 14 82 15 83 16 84 17 85 18 86 19 7 20 8 21 9 22 10 23
REMARK SMILES IDX 11 24 12 25 76 26 13 27 75 28 14 29 15 30 16 31 69 32 17 33
REMARK SMILES IDX 74 34 68 35 70 36 18 37 73 38 67 39 66 40 19 42 53 43 32 44
REMARK SMILES IDX 52 45 33 46 36 47 51 48 71 49 34 50 35 51 50 53 72 54 37 55
REMARK SMILES IDX 20 56 21 57 30 58 22 59 23 60 29 61 31 62 24 63 25 64 26 65
REMARK SMILES IDX 27 66 28 67 54 68 55 69 64 70 56 71 57 72 63 73 65 74 58 75
REMARK SMILES IDX 59 76 60 77 61 78 62 79 38 80 39 81 48 82 40 83 41 84 47 85
REMARK SMILES IDX 49 86 42 87 43 88 44 89 45 90 46 91
REMARK H PARENT 79 12 70 41 36 52
REMARK Flexibility Score: inf
ROOT
ATOM      1  C   UNL A   1      41.187  19.969  26.949  1.00  0.00     0.274 C 
ENDROOT
BRANCH   1   2
ATOM      2  O   UNL A   1      42.547  20.433  26.766  1.00  0.00    -0.462 OA
BRANCH   2   3
ATOM      3  C   UNL A   1      43.241  19.825  25.764  1.00  0.00     0.314 C 
ATOM      4  O   UNL A   1      42.963  18.697  25.373  1.00  0.00    -0.252 OA
BRANCH   3   5
ATOM      5  C   UNL A   1      44.436  20.619  25.217  1.00  0.00     0.154 C 
ATOM      6  C   UNL A   1      45.116  19.957  24.018  1.00  0.00     0.026 C 
BRANCH   5   7
ATOM      7  C   UNL A   1      44.109  22.157  24.970  1.00  0.00     0.195 C 
ATOM      8  C   UNL A   1      44.702  22.583  23.608  1.00  0.00     0.076 C 
BRANCH   7   9
ATOM      9  N   UNL A   1      44.223  23.099  26.107  1.00  0.00    -0.330 N 
ATOM     10  C   UNL A   1      45.402  23.014  26.942  1.00  0.00     0.279 C 
ATOM     11  C   UNL A   1      43.781  24.512  26.032  1.00  0.00     0.279 C 
ATOM     12  H   UNL A   1      43.428  22.634  26.545  1.00  0.00     0.348 HD
ATOM     13  C   UNL A   1      46.509  23.916  26.380  1.00  0.00     0.163 C 
ATOM     14  C   UNL A   1      44.842  25.685  26.171  1.00  0.00     0.163 C 
ATOM     15  N   UNL A   1      46.162  25.281  26.731  1.00  0.00    -0.191 NA
BRANCH  15  16
ATOM     16  S   UNL A   1      46.907  25.944  28.064  1.00  0.00     0.211 S 
ATOM     17  C   UNL A   1      46.284  27.618  28.108  1.00  0.00     0.176 C 
ATOM     18  O   UNL A   1      46.351  25.295  29.239  1.00  0.00    -0.212 OA
ATOM     19  O   UNL A   1      48.331  25.995  27.841  1.00  0.00    -0.212 OA
ENDBRANCH  15  16
ENDBRANCH   7   9
ENDBRANCH   5   7
ENDBRANCH   3   5
ENDBRANCH   2   3
ENDBRANCH   1   2
BRANCH   1  20
ATOM     20  C   UNL A   1      40.165  20.875  26.265  1.00  0.00     0.275 C 
BRANCH  20  21
ATOM     21  O   UNL A   1      40.235  22.208  26.794  1.00  0.00    -0.458 OA
BRANCH  21  22
ATOM     22  C   UNL A   1      39.294  23.042  26.297  1.00  0.00     0.338 C 
ATOM     23  O   UNL A   1      38.432  22.777  25.476  1.00  0.00    -0.246 OA
BRANCH  22  24
ATOM     24  C   UNL A   1      39.353  24.348  26.959  1.00  0.00     0.060 A 
ATOM     25  C   UNL A   1      40.175  25.341  26.432  1.00  0.00     0.016 A 
ATOM     26  C   UNL A   1      38.793  24.506  28.218  1.00  0.00     0.016 A 
ATOM     27  C   UNL A   1      40.559  26.428  27.182  1.00  0.00     0.010 A 
ATOM     28  C   UNL A   1      39.073  25.669  28.934  1.00  0.00     0.010 A 
ATOM     29  C   UNL A   1      39.986  26.615  28.430  1.00  0.00    -0.014 A 
BRANCH  29  30
ATOM     30  C   UNL A   1      40.402  27.772  29.234  1.00  0.00     0.031 A 
ATOM     31  C   UNL A   1      41.681  27.673  30.000  1.00  0.00     0.074 A 
ATOM     32  C   UNL A   1      39.638  28.878  29.259  1.00  0.00     0.049 A 
ATOM     33  N   UNL A   1      42.089  28.384  31.010  1.00  0.00    -0.248 NA
ATOM     34  C   UNL A   1      42.611  26.604  29.591  1.00  0.00     0.031 C 
ATOM     35  C   UNL A   1      38.439  29.109  28.444  1.00  0.00     0.029 A 
ATOM     36  N   UNL A   1      39.745  30.012  30.017  1.00  0.00    -0.354 N 
ATOM     37  C   UNL A   1      43.281  27.802  31.415  1.00  0.00     0.074 A 
ATOM     38  C   UNL A   1      43.539  26.685  30.534  1.00  0.00     0.031 C 
ATOM     39  C   UNL A   1      37.922  30.308  28.750  1.00  0.00     0.029 A 
ATOM     40  C   UNL A   1      38.680  30.867  29.857  1.00  0.00     0.049 A 
ATOM     41  H   UNL A   1      40.505  30.197  30.614  1.00  0.00     0.167 HD
ATOM     42  C   UNL A   1      44.064  28.172  32.452  1.00  0.00     0.037 A 
ATOM     43  C   UNL A   1      38.314  31.935  30.586  1.00  0.00     0.037 A 
ATOM     44  C   UNL A   1      43.772  29.318  33.273  1.00  0.00     0.049 A 
ATOM     45  C   UNL A   1      39.163  32.290  31.773  1.00  0.00     0.074 A 
ATOM     46  C   UNL A   1      44.477  29.809  34.354  1.00  0.00     0.029 A 
ATOM     47  N   UNL A   1      42.679  30.158  33.089  1.00  0.00    -0.354 N 
ATOM     48  N   UNL A   1      40.250  31.698  32.213  1.00  0.00    -0.248 NA
ATOM     49  C   UNL A   1      38.731  33.440  32.572  1.00  0.00     0.031 C 
ATOM     50  C   UNL A   1      43.784  30.919  34.852  1.00  0.00     0.029 A 
ATOM     51  C   UNL A   1      42.681  31.156  34.045  1.00  0.00     0.049 A 
ATOM     52  H   UNL A   1      42.002  30.057  32.380  1.00  0.00     0.167 HD
ATOM     53  C   UNL A   1      40.650  32.421  33.328  1.00  0.00     0.074 A 
ATOM     54  C   UNL A   1      39.692  33.501  33.484  1.00  0.00     0.031 C 
ATOM     55  C   UNL A   1      41.710  32.220  34.150  1.00  0.00     0.037 A 
BRANCH  42  56
ATOM     56  C   UNL A   1      45.246  27.306  32.784  1.00  0.00     0.058 A 
ATOM     57  C   UNL A   1      46.503  27.486  32.187  1.00  0.00     0.135 A 
ATOM     58  C   UNL A   1      45.115  26.270  33.725  1.00  0.00     0.135 A 
ATOM     59  F   UNL A   1      46.681  28.440  31.258  1.00  0.00    -0.206 F 
ATOM     60  C   UNL A   1      47.580  26.658  32.493  1.00  0.00     0.059 A 
ATOM     61  C   UNL A   1      46.184  25.451  34.069  1.00  0.00     0.059 A 
ATOM     62  F   UNL A   1      43.931  26.041  34.316  1.00  0.00    -0.206 F 
ATOM     63  C   UNL A   1      47.412  25.644  33.437  1.00  0.00     0.060 A 
BRANCH  63  64
ATOM     64  S   UNL A   1      48.821  24.589  33.832  1.00  0.00     0.124 S 
ATOM     65  O   UNL A   1      49.580  24.637  32.587  1.00  0.00    -0.237 OA
ATOM     66  O   UNL A   1      49.421  25.284  34.967  1.00  0.00    -0.237 OA
ATOM     67  O   UNL A   1      48.208  23.302  34.142  1.00  0.00    -0.744 OA
ENDBRANCH  63  64
ENDBRANCH  42  56
BRANCH  43  68
ATOM     68  C   UNL A   1      37.078  32.686  30.246  1.00  0.00     0.058 A 
ATOM     69  C   UNL A   1      37.094  33.683  29.262  1.00  0.00     0.135 A 
ATOM     70  C   UNL A   1      35.849  32.403  30.868  1.00  0.00     0.135 A 
ATOM     71  F   UNL A   1      38.242  33.992  28.641  1.00  0.00    -0.206 F 
ATOM     72  C   UNL A   1      35.945  34.386  28.919  1.00  0.00     0.059 A 
ATOM     73  C   UNL A   1      34.680  33.069  30.518  1.00  0.00     0.059 A 
ATOM     74  F   UNL A   1      35.772  31.442  31.802  1.00  0.00    -0.206 F 
ATOM     75  C   UNL A   1      34.740  34.069  29.549  1.00  0.00     0.060 A 
BRANCH  75  76
ATOM     76  S   UNL A   1      33.250  34.964  29.063  1.00  0.00     0.124 S 
ATOM     77  O   UNL A   1      32.677  34.059  28.073  1.00  0.00    -0.237 OA
ATOM     78  O   UNL A   1      32.530  35.066  30.328  1.00  0.00    -0.237 OA
ATOM     79  O   UNL A   1      33.769  36.224  28.541  1.00  0.00    -0.744 OA
ENDBRANCH  75  76
ENDBRANCH  43  68
BRANCH  55  80
ATOM     80  C   UNL A   1      41.912  33.221  35.249  1.00  0.00     0.058 A 
ATOM     81  C   UNL A   1      41.353  33.045  36.523  1.00  0.00     0.135 A 
ATOM     82  C   UNL A   1      42.721  34.347  35.030  1.00  0.00     0.135 A 
ATOM     83  F   UNL A   1      40.564  31.990  36.776  1.00  0.00    -0.206 F 
ATOM     84  C   UNL A   1      41.570  33.968  37.539  1.00  0.00     0.059 A 
ATOM     85  C   UNL A   1      42.980  35.264  36.040  1.00  0.00     0.059 A 
ATOM     86  F   UNL A   1      43.286  34.553  33.829  1.00  0.00    -0.206 F 
ATOM     87  C   UNL A   1      42.389  35.072  37.288  1.00  0.00     0.060 A 
BRANCH  87  88
ATOM     88  S   UNL A   1      42.695  36.240  38.627  1.00  0.00     0.124 S 
ATOM     89  O   UNL A   1      41.736  37.295  38.320  1.00  0.00    -0.237 OA
ATOM     90  O   UNL A   1      42.400  35.438  39.812  1.00  0.00    -0.237 OA
ATOM     91  O   UNL A   1      44.100  36.596  38.453  1.00  0.00    -0.744 OA
ENDBRANCH  87  88
ENDBRANCH  55  80
ENDBRANCH  29  30
ENDBRANCH  22  24
ENDBRANCH  21  22
ENDBRANCH  20  21
ENDBRANCH   1  20
TORSDOF 17
ENDMDL
