MODEL 1
REMARK VINA RESULT:     -10.9      0.000      0.000
REMARK SMILES O=C(CCCNC(=O)N1CC[C@@H](C(=O)OCCOC(=O)c2ccc(-c3c4nc(c(-c5c(F)cc(S(=O)(=O)[O-])cc5F)c5ccc([nH]5)c(-c5c(F)cc(S(=O)(=O)[O-])cc5F)c5nc(c(-c6c(F)cc(S(=O)(=O)[O-])cc6F)c6ccc3[nH]6)C=C5)C=C4)cc2)C1)NC1CC1
REMARK SMILES IDX 15 1 13 2 14 3 12 4 9 5 10 6 87 7 11 8 7 9 6 10 8 12 5 13
REMARK SMILES IDX 4 14 3 15 2 16 1 17 88 18 89 20 90 21 91 22 16 23 17 24
REMARK SMILES IDX 18 25 19 26 20 27 21 28 22 29 86 30 23 31 85 32 24 33 25 34
REMARK SMILES IDX 26 35 79 36 27 37 84 38 78 39 80 40 28 41 83 42 77 43 76 44
REMARK SMILES IDX 29 46 63 47 42 48 62 49 43 50 46 51 61 52 81 53 44 54 45 55
REMARK SMILES IDX 60 57 82 58 47 59 30 60 31 61 40 62 32 63 33 64 39 65 41 66
REMARK SMILES IDX 34 67 35 68 36 69 37 70 38 71 64 72 65 73 74 74 66 75 67 76
REMARK SMILES IDX 73 77 75 78 68 79 69 80 70 81 71 82 72 83 48 84 49 85 58 86
REMARK SMILES IDX 50 87 51 88 57 89 59 90 52 91 53 92 54 93 55 94 56 95
REMARK H PARENT 6 11 88 19 80 45 46 56
REMARK Flexibility Score: inf
ROOT
ATOM      1  O   UNL A   1      33.833  30.913  26.962  1.00  0.00    -0.462 OA
ENDROOT
BRANCH   1   2
ATOM      2  C   UNL A   1      32.720  30.144  26.818  1.00  0.00     0.310 C 
ATOM      3  O   UNL A   1      31.680  30.518  26.296  1.00  0.00    -0.252 OA
BRANCH   2   4
ATOM      4  C   UNL A   1      32.938  28.760  27.399  1.00  0.00     0.120 C 
ATOM      5  N   UNL A   1      31.997  26.907  26.250  1.00  0.00    -0.324 N 
ATOM      6  C   UNL A   1      33.157  27.343  25.499  1.00  0.00     0.122 C 
ATOM      7  C   UNL A   1      31.669  27.913  27.257  1.00  0.00     0.136 C 
ATOM      8  C   UNL A   1      33.985  27.965  26.605  1.00  0.00     0.039 C 
BRANCH   5   9
ATOM      9  C   UNL A   1      31.253  25.782  26.122  1.00  0.00     0.317 C 
ATOM     10  N   UNL A   1      30.541  25.552  24.994  1.00  0.00    -0.338 N 
ATOM     11  H   UNL A   1      29.792  24.922  25.098  1.00  0.00     0.165 HD
ATOM     12  O   UNL A   1      31.235  24.907  26.991  1.00  0.00    -0.249 OA
BRANCH  10  13
ATOM     13  C   UNL A   1      30.710  26.092  23.653  1.00  0.00     0.118 C 
BRANCH  13  14
ATOM     14  C   UNL A   1      29.913  27.372  23.409  1.00  0.00     0.031 C 
BRANCH  14  15
ATOM     15  C   UNL A   1      28.397  27.247  23.511  1.00  0.00     0.102 C 
BRANCH  15  16
ATOM     16  C   UNL A   1      27.669  28.525  23.160  1.00  0.00     0.220 C 
ATOM     17  O   UNL A   1      26.483  28.684  23.433  1.00  0.00    -0.275 OA
ATOM     18  N   UNL A   1      28.456  29.471  22.536  1.00  0.00    -0.353 N 
ATOM     19  H   UNL A   1      29.398  29.256  22.348  1.00  0.00     0.163 HD
BRANCH  18  20
ATOM     20  C   UNL A   1      27.950  30.749  22.154  1.00  0.00     0.082 C 
ATOM     21  C   UNL A   1      27.666  31.796  23.197  1.00  0.00     0.027 C 
ATOM     22  C   UNL A   1      28.803  31.983  22.238  1.00  0.00     0.027 C 
ENDBRANCH  18  20
ENDBRANCH  15  16
ENDBRANCH  14  15
ENDBRANCH  13  14
ENDBRANCH  10  13
ENDBRANCH   5   9
ENDBRANCH   2   4
ENDBRANCH   1   2
BRANCH   1  23
ATOM     23  C   UNL A   1      33.677  32.102  27.762  1.00  0.00     0.274 C 
BRANCH  23  24
ATOM     24  C   UNL A   1      35.024  32.628  28.256  1.00  0.00     0.275 C 
BRANCH  24  25
ATOM     25  O   UNL A   1      36.057  31.634  28.118  1.00  0.00    -0.458 OA
BRANCH  25  26
ATOM     26  C   UNL A   1      36.456  31.052  29.271  1.00  0.00     0.338 C 
ATOM     27  O   UNL A   1      35.883  31.078  30.349  1.00  0.00    -0.246 OA
BRANCH  26  28
ATOM     28  C   UNL A   1      37.687  30.279  29.053  1.00  0.00     0.060 A 
ATOM     29  C   UNL A   1      38.573  30.144  30.115  1.00  0.00     0.016 A 
ATOM     30  C   UNL A   1      38.056  29.854  27.778  1.00  0.00     0.016 A 
ATOM     31  C   UNL A   1      39.879  29.715  29.891  1.00  0.00     0.010 A 
ATOM     32  C   UNL A   1      39.331  29.307  27.578  1.00  0.00     0.010 A 
ATOM     33  C   UNL A   1      40.278  29.274  28.622  1.00  0.00    -0.014 A 
BRANCH  33  34
ATOM     34  C   UNL A   1      41.683  28.824  28.381  1.00  0.00     0.031 A 
ATOM     35  C   UNL A   1      42.825  29.805  28.498  1.00  0.00     0.074 A 
ATOM     36  C   UNL A   1      41.955  27.535  28.089  1.00  0.00     0.049 A 
ATOM     37  N   UNL A   1      44.075  29.668  28.132  1.00  0.00    -0.248 NA
ATOM     38  C   UNL A   1      42.520  31.114  29.098  1.00  0.00     0.031 C 
ATOM     39  C   UNL A   1      40.971  26.453  28.001  1.00  0.00     0.029 A 
ATOM     40  N   UNL A   1      43.150  26.910  27.823  1.00  0.00    -0.354 N 
ATOM     41  C   UNL A   1      44.689  30.888  28.399  1.00  0.00     0.074 A 
ATOM     42  C   UNL A   1      43.676  31.753  28.964  1.00  0.00     0.031 C 
ATOM     43  C   UNL A   1      41.604  25.297  27.752  1.00  0.00     0.029 A 
ATOM     44  C   UNL A   1      43.025  25.564  27.564  1.00  0.00     0.049 A 
ATOM     45  H   UNL A   1      44.015  27.380  27.818  1.00  0.00     0.167 HD
ATOM     46  C   UNL A   1      45.977  31.253  28.190  1.00  0.00     0.037 A 
ATOM     47  C   UNL A   1      43.936  24.652  27.172  1.00  0.00     0.037 A 
ATOM     48  C   UNL A   1      46.999  30.375  27.683  1.00  0.00     0.049 A 
ATOM     49  C   UNL A   1      45.353  25.087  26.920  1.00  0.00     0.074 A 
ATOM     50  C   UNL A   1      48.324  30.663  27.402  1.00  0.00     0.029 A 
ATOM     51  N   UNL A   1      46.819  29.027  27.412  1.00  0.00    -0.354 N 
ATOM     52  N   UNL A   1      45.888  26.274  27.067  1.00  0.00    -0.248 NA
ATOM     53  C   UNL A   1      46.282  24.063  26.419  1.00  0.00     0.031 C 
ATOM     54  C   UNL A   1      48.943  29.491  26.950  1.00  0.00     0.029 A 
ATOM     55  C   UNL A   1      48.009  28.468  26.976  1.00  0.00     0.049 A 
ATOM     56  H   UNL A   1      45.970  28.540  27.516  1.00  0.00     0.167 HD
ATOM     57  C   UNL A   1      47.217  26.139  26.683  1.00  0.00     0.074 A 
ATOM     58  C   UNL A   1      47.410  24.752  26.316  1.00  0.00     0.031 C 
ATOM     59  C   UNL A   1      48.187  27.083  26.628  1.00  0.00     0.037 A 
BRANCH  46  60
ATOM     60  C   UNL A   1      46.353  32.679  28.483  1.00  0.00     0.058 A 
ATOM     61  C   UNL A   1      46.854  33.072  29.733  1.00  0.00     0.135 A 
ATOM     62  C   UNL A   1      46.248  33.658  27.481  1.00  0.00     0.135 A 
ATOM     63  F   UNL A   1      46.957  32.179  30.730  1.00  0.00    -0.206 F 
ATOM     64  C   UNL A   1      47.218  34.391  29.986  1.00  0.00     0.059 A 
ATOM     65  C   UNL A   1      46.625  34.978  27.705  1.00  0.00     0.059 A 
ATOM     66  F   UNL A   1      45.775  33.334  26.267  1.00  0.00    -0.206 F 
ATOM     67  C   UNL A   1      47.097  35.338  28.967  1.00  0.00     0.060 A 
BRANCH  67  68
ATOM     68  S   UNL A   1      47.575  37.046  29.305  1.00  0.00     0.124 S 
ATOM     69  O   UNL A   1      47.947  36.968  30.714  1.00  0.00    -0.237 OA
ATOM     70  O   UNL A   1      48.677  37.257  28.371  1.00  0.00    -0.237 OA
ATOM     71  O   UNL A   1      46.360  37.801  29.017  1.00  0.00    -0.744 OA
ENDBRANCH  67  68
ENDBRANCH  46  60
BRANCH  47  72
ATOM     72  C   UNL A   1      43.529  23.241  26.939  1.00  0.00     0.058 A 
ATOM     73  C   UNL A   1      43.370  22.743  25.638  1.00  0.00     0.135 A 
ATOM     74  C   UNL A   1      43.287  22.368  28.009  1.00  0.00     0.135 A 
ATOM     75  F   UNL A   1      43.579  23.544  24.582  1.00  0.00    -0.206 F 
ATOM     76  C   UNL A   1      42.969  21.431  25.405  1.00  0.00     0.059 A 
ATOM     77  C   UNL A   1      42.911  21.045  27.803  1.00  0.00     0.059 A 
ATOM     78  F   UNL A   1      43.438  22.794  29.273  1.00  0.00    -0.206 F 
ATOM     79  C   UNL A   1      42.741  20.590  26.496  1.00  0.00     0.060 A 
BRANCH  79  80
ATOM     80  S   UNL A   1      42.266  18.874  26.195  1.00  0.00     0.124 S 
ATOM     81  O   UNL A   1      42.466  18.281  27.512  1.00  0.00    -0.237 OA
ATOM     82  O   UNL A   1      40.879  19.005  25.758  1.00  0.00    -0.237 OA
ATOM     83  O   UNL A   1      43.202  18.448  25.158  1.00  0.00    -0.744 OA
ENDBRANCH  79  80
ENDBRANCH  47  72
BRANCH  59  84
ATOM     84  C   UNL A   1      49.551  26.639  26.189  1.00  0.00     0.058 A 
ATOM     85  C   UNL A   1      49.975  26.784  24.859  1.00  0.00     0.135 A 
ATOM     86  C   UNL A   1      50.455  26.095  27.115  1.00  0.00     0.135 A 
ATOM     87  F   UNL A   1      49.143  27.291  23.936  1.00  0.00    -0.206 F 
ATOM     88  C   UNL A   1      51.246  26.388  24.458  1.00  0.00     0.059 A 
ATOM     89  C   UNL A   1      51.737  25.710  26.739  1.00  0.00     0.059 A 
ATOM     90  F   UNL A   1      50.096  25.942  28.399  1.00  0.00    -0.206 F 
ATOM     91  C   UNL A   1      52.120  25.850  25.405  1.00  0.00     0.060 A 
BRANCH  91  92
ATOM     92  S   UNL A   1      53.780  25.368  24.882  1.00  0.00     0.124 S 
ATOM     93  O   UNL A   1      53.881  26.028  23.585  1.00  0.00    -0.237 OA
ATOM     94  O   UNL A   1      54.619  25.921  25.942  1.00  0.00    -0.237 OA
ATOM     95  O   UNL A   1      53.712  23.911  24.844  1.00  0.00    -0.744 OA
ENDBRANCH  91  92
ENDBRANCH  59  84
ENDBRANCH  33  34
ENDBRANCH  26  28
ENDBRANCH  25  26
ENDBRANCH  24  25
ENDBRANCH  23  24
ENDBRANCH   1  23
TORSDOF 20
ENDMDL
MODEL 2
REMARK VINA RESULT:     -10.8      5.402     10.790
REMARK SMILES O=C(CCCNC(=O)N1CC[C@@H](C(=O)OCCOC(=O)c2ccc(-c3c4nc(c(-c5c(F)cc(S(=O)(=O)[O-])cc5F)c5ccc([nH]5)c(-c5c(F)cc(S(=O)(=O)[O-])cc5F)c5nc(c(-c6c(F)cc(S(=O)(=O)[O-])cc6F)c6ccc3[nH]6)C=C5)C=C4)cc2)C1)NC1CC1
REMARK SMILES IDX 15 1 13 2 14 3 12 4 9 5 10 6 87 7 11 8 7 9 6 10 8 12 5 13
REMARK SMILES IDX 4 14 3 15 2 16 1 17 88 18 89 20 90 21 91 22 16 23 17 24
REMARK SMILES IDX 18 25 19 26 20 27 21 28 22 29 86 30 23 31 85 32 24 33 25 34
REMARK SMILES IDX 26 35 79 36 27 37 84 38 78 39 80 40 28 41 83 42 77 43 76 44
REMARK SMILES IDX 29 46 63 47 42 48 62 49 43 50 46 51 61 52 81 53 44 54 45 55
REMARK SMILES IDX 60 57 82 58 47 59 30 60 31 61 40 62 32 63 33 64 39 65 41 66
REMARK SMILES IDX 34 67 35 68 36 69 37 70 38 71 64 72 65 73 74 74 66 75 67 76
REMARK SMILES IDX 73 77 75 78 68 79 69 80 70 81 71 82 72 83 48 84 49 85 58 86
REMARK SMILES IDX 50 87 51 88 57 89 59 90 52 91 53 92 54 93 55 94 56 95
REMARK H PARENT 6 11 88 19 80 45 46 56
REMARK Flexibility Score: inf
ROOT
ATOM      1  O   UNL A   1      35.629  22.351  25.209  1.00  0.00    -0.462 OA
ENDROOT
BRANCH   1   2
ATOM      2  C   UNL A   1      34.737  22.684  26.182  1.00  0.00     0.310 C 
ATOM      3  O   UNL A   1      34.278  21.900  27.000  1.00  0.00    -0.252 OA
BRANCH   2   4
ATOM      4  C   UNL A   1      34.382  24.156  26.111  1.00  0.00     0.120 C 
ATOM      5  N   UNL A   1      33.505  24.996  24.071  1.00  0.00    -0.324 N 
ATOM      6  C   UNL A   1      32.454  24.239  24.719  1.00  0.00     0.122 C 
ATOM      7  C   UNL A   1      34.773  24.737  24.749  1.00  0.00     0.136 C 
ATOM      8  C   UNL A   1      32.864  24.382  26.170  1.00  0.00     0.039 C 
BRANCH   5   9
ATOM      9  C   UNL A   1      33.445  25.827  23.002  1.00  0.00     0.317 C 
ATOM     10  N   UNL A   1      32.961  27.085  23.134  1.00  0.00    -0.338 N 
ATOM     11  H   UNL A   1      32.641  27.496  22.299  1.00  0.00     0.165 HD
ATOM     12  O   UNL A   1      33.871  25.498  21.893  1.00  0.00    -0.249 OA
BRANCH  10  13
ATOM     13  C   UNL A   1      32.841  27.922  24.318  1.00  0.00     0.118 C 
BRANCH  13  14
ATOM     14  C   UNL A   1      31.436  27.925  24.920  1.00  0.00     0.031 C 
BRANCH  14  15
ATOM     15  C   UNL A   1      30.306  27.516  23.982  1.00  0.00     0.102 C 
BRANCH  15  16
ATOM     16  C   UNL A   1      29.887  28.621  23.038  1.00  0.00     0.220 C 
ATOM     17  O   UNL A   1      29.902  28.465  21.821  1.00  0.00    -0.275 OA
ATOM     18  N   UNL A   1      29.482  29.780  23.667  1.00  0.00    -0.353 N 
ATOM     19  H   UNL A   1      29.509  29.820  24.650  1.00  0.00     0.163 HD
BRANCH  18  20
ATOM     20  C   UNL A   1      29.027  30.922  22.942  1.00  0.00     0.082 C 
ATOM     21  C   UNL A   1      27.677  31.518  23.235  1.00  0.00     0.027 C 
ATOM     22  C   UNL A   1      28.923  32.271  23.594  1.00  0.00     0.027 C 
ENDBRANCH  18  20
ENDBRANCH  15  16
ENDBRANCH  14  15
ENDBRANCH  13  14
ENDBRANCH  10  13
ENDBRANCH   5   9
ENDBRANCH   2   4
ENDBRANCH   1   2
BRANCH   1  23
ATOM     23  C   UNL A   1      36.407  21.161  25.449  1.00  0.00     0.274 C 
BRANCH  23  24
ATOM     24  C   UNL A   1      37.899  21.410  25.225  1.00  0.00     0.275 C 
BRANCH  24  25
ATOM     25  O   UNL A   1      38.245  22.784  25.483  1.00  0.00    -0.458 OA
BRANCH  25  26
ATOM     26  C   UNL A   1      39.468  22.978  26.025  1.00  0.00     0.338 C 
ATOM     27  O   UNL A   1      40.456  22.273  25.893  1.00  0.00    -0.246 OA
BRANCH  26  28
ATOM     28  C   UNL A   1      39.499  24.244  26.773  1.00  0.00     0.060 A 
ATOM     29  C   UNL A   1      40.374  25.236  26.346  1.00  0.00     0.016 A 
ATOM     30  C   UNL A   1      38.822  24.384  27.982  1.00  0.00     0.016 A 
ATOM     31  C   UNL A   1      40.685  26.306  27.181  1.00  0.00     0.010 A 
ATOM     32  C   UNL A   1      39.045  25.524  28.767  1.00  0.00     0.010 A 
ATOM     33  C   UNL A   1      40.015  26.478  28.400  1.00  0.00    -0.014 A 
BRANCH  33  34
ATOM     34  C   UNL A   1      40.358  27.621  29.301  1.00  0.00     0.031 A 
ATOM     35  C   UNL A   1      41.647  27.609  30.087  1.00  0.00     0.074 A 
ATOM     36  C   UNL A   1      39.541  28.692  29.400  1.00  0.00     0.049 A 
ATOM     37  N   UNL A   1      42.028  28.390  31.065  1.00  0.00    -0.248 NA
ATOM     38  C   UNL A   1      42.634  26.576  29.731  1.00  0.00     0.031 C 
ATOM     39  C   UNL A   1      38.292  28.884  28.660  1.00  0.00     0.029 A 
ATOM     40  N   UNL A   1      39.649  29.832  30.160  1.00  0.00    -0.354 N 
ATOM     41  C   UNL A   1      43.266  27.910  31.481  1.00  0.00     0.074 A 
ATOM     42  C   UNL A   1      43.576  26.770  30.645  1.00  0.00     0.031 C 
ATOM     43  C   UNL A   1      37.777  30.085  28.963  1.00  0.00     0.029 A 
ATOM     44  C   UNL A   1      38.602  30.709  29.991  1.00  0.00     0.049 A 
ATOM     45  H   UNL A   1      40.403  30.006  30.768  1.00  0.00     0.167 HD
ATOM     46  C   UNL A   1      44.067  28.373  32.471  1.00  0.00     0.037 A 
ATOM     47  C   UNL A   1      38.307  31.863  30.622  1.00  0.00     0.037 A 
ATOM     48  C   UNL A   1      43.787  29.542  33.263  1.00  0.00     0.049 A 
ATOM     49  C   UNL A   1      39.196  32.343  31.735  1.00  0.00     0.074 A 
ATOM     50  C   UNL A   1      44.519  30.070  34.313  1.00  0.00     0.029 A 
ATOM     51  N   UNL A   1      42.703  30.385  33.072  1.00  0.00    -0.354 N 
ATOM     52  N   UNL A   1      40.302  31.810  32.193  1.00  0.00    -0.248 NA
ATOM     53  C   UNL A   1      38.779  33.565  32.436  1.00  0.00     0.031 C 
ATOM     54  C   UNL A   1      43.871  31.227  34.765  1.00  0.00     0.029 A 
ATOM     55  C   UNL A   1      42.750  31.432  33.978  1.00  0.00     0.049 A 
ATOM     56  H   UNL A   1      42.002  30.257  32.392  1.00  0.00     0.167 HD
ATOM     57  C   UNL A   1      40.717  32.635  33.231  1.00  0.00     0.074 A 
ATOM     58  C   UNL A   1      39.754  33.713  33.322  1.00  0.00     0.031 C 
ATOM     59  C   UNL A   1      41.792  32.504  34.045  1.00  0.00     0.037 A 
BRANCH  46  60
ATOM     60  C   UNL A   1      45.318  27.598  32.775  1.00  0.00     0.058 A 
ATOM     61  C   UNL A   1      45.301  26.449  33.580  1.00  0.00     0.135 A 
ATOM     62  C   UNL A   1      46.546  27.990  32.217  1.00  0.00     0.135 A 
ATOM     63  F   UNL A   1      44.157  26.042  34.152  1.00  0.00    -0.206 F 
ATOM     64  C   UNL A   1      46.463  25.727  33.838  1.00  0.00     0.059 A 
ATOM     65  C   UNL A   1      47.716  27.273  32.444  1.00  0.00     0.059 A 
ATOM     66  F   UNL A   1      46.616  29.083  31.439  1.00  0.00    -0.206 F 
ATOM     67  C   UNL A   1      47.667  26.149  33.269  1.00  0.00     0.060 A 
BRANCH  67  68
ATOM     68  S   UNL A   1      49.168  25.204  33.607  1.00  0.00     0.124 S 
ATOM     69  O   UNL A   1      49.764  25.986  34.686  1.00  0.00    -0.237 OA
ATOM     70  O   UNL A   1      48.640  23.898  33.990  1.00  0.00    -0.237 OA
ATOM     71  O   UNL A   1      49.884  25.239  32.336  1.00  0.00    -0.744 OA
ENDBRANCH  67  68
ENDBRANCH  46  60
BRANCH  47  72
ATOM     72  C   UNL A   1      37.082  32.622  30.256  1.00  0.00     0.058 A 
ATOM     73  C   UNL A   1      35.869  32.400  30.923  1.00  0.00     0.135 A 
ATOM     74  C   UNL A   1      37.100  33.580  29.230  1.00  0.00     0.135 A 
ATOM     75  F   UNL A   1      35.801  31.486  31.903  1.00  0.00    -0.206 F 
ATOM     76  C   UNL A   1      34.711  33.089  30.578  1.00  0.00     0.059 A 
ATOM     77  C   UNL A   1      35.962  34.301  28.884  1.00  0.00     0.059 A 
ATOM     78  F   UNL A   1      38.239  33.838  28.570  1.00  0.00    -0.206 F 
ATOM     79  C   UNL A   1      34.768  34.037  29.555  1.00  0.00     0.060 A 
BRANCH  79  80
ATOM     80  S   UNL A   1      33.277  34.965  29.135  1.00  0.00     0.124 S 
ATOM     81  O   UNL A   1      33.841  36.218  28.647  1.00  0.00    -0.237 OA
ATOM     82  O   UNL A   1      32.650  34.112  28.130  1.00  0.00    -0.237 OA
ATOM     83  O   UNL A   1      32.566  35.042  30.408  1.00  0.00    -0.744 OA
ENDBRANCH  79  80
ENDBRANCH  47  72
BRANCH  59  84
ATOM     84  C   UNL A   1      42.003  33.571  35.078  1.00  0.00     0.058 A 
ATOM     85  C   UNL A   1      42.648  34.777  34.765  1.00  0.00     0.135 A 
ATOM     86  C   UNL A   1      41.522  33.399  36.386  1.00  0.00     0.135 A 
ATOM     87  F   UNL A   1      43.132  34.983  33.530  1.00  0.00    -0.206 F 
ATOM     88  C   UNL A   1      42.826  35.772  35.719  1.00  0.00     0.059 A 
ATOM     89  C   UNL A   1      41.674  34.389  37.352  1.00  0.00     0.059 A 
ATOM     90  F   UNL A   1      40.894  32.265  36.731  1.00  0.00    -0.206 F 
ATOM     91  C   UNL A   1      42.337  35.568  37.012  1.00  0.00     0.060 A 
BRANCH  91  92
ATOM     92  S   UNL A   1      42.544  36.878  38.237  1.00  0.00     0.124 S 
ATOM     93  O   UNL A   1      43.374  37.832  37.508  1.00  0.00    -0.237 OA
ATOM     94  O   UNL A   1      41.168  37.297  38.488  1.00  0.00    -0.237 OA
ATOM     95  O   UNL A   1      43.197  36.197  39.351  1.00  0.00    -0.744 OA
ENDBRANCH  91  92
ENDBRANCH  59  84
ENDBRANCH  33  34
ENDBRANCH  26  28
ENDBRANCH  25  26
ENDBRANCH  24  25
ENDBRANCH  23  24
ENDBRANCH   1  23
TORSDOF 20
ENDMDL
MODEL 3
REMARK VINA RESULT:     -10.7      2.370      4.043
REMARK SMILES O=C(CCCNC(=O)N1CC[C@@H](C(=O)OCCOC(=O)c2ccc(-c3c4nc(c(-c5c(F)cc(S(=O)(=O)[O-])cc5F)c5ccc([nH]5)c(-c5c(F)cc(S(=O)(=O)[O-])cc5F)c5nc(c(-c6c(F)cc(S(=O)(=O)[O-])cc6F)c6ccc3[nH]6)C=C5)C=C4)cc2)C1)NC1CC1
REMARK SMILES IDX 15 1 13 2 14 3 12 4 9 5 10 6 87 7 11 8 7 9 6 10 8 12 5 13
REMARK SMILES IDX 4 14 3 15 2 16 1 17 88 18 89 20 90 21 91 22 16 23 17 24
REMARK SMILES IDX 18 25 19 26 20 27 21 28 22 29 86 30 23 31 85 32 24 33 25 34
REMARK SMILES IDX 26 35 79 36 27 37 84 38 78 39 80 40 28 41 83 42 77 43 76 44
REMARK SMILES IDX 29 46 63 47 42 48 62 49 43 50 46 51 61 52 81 53 44 54 45 55
REMARK SMILES IDX 60 57 82 58 47 59 30 60 31 61 40 62 32 63 33 64 39 65 41 66
REMARK SMILES IDX 34 67 35 68 36 69 37 70 38 71 64 72 65 73 74 74 66 75 67 76
REMARK SMILES IDX 73 77 75 78 68 79 69 80 70 81 71 82 72 83 48 84 49 85 58 86
REMARK SMILES IDX 50 87 51 88 57 89 59 90 52 91 53 92 54 93 55 94 56 95
REMARK H PARENT 6 11 88 19 80 45 46 56
REMARK Flexibility Score: inf
ROOT
ATOM      1  O   UNL A   1      32.890  29.544  26.248  1.00  0.00    -0.462 OA
ENDROOT
BRANCH   1   2
ATOM      2  C   UNL A   1      32.535  28.374  26.844  1.00  0.00     0.310 C 
ATOM      3  O   UNL A   1      32.172  28.269  28.007  1.00  0.00    -0.252 OA
BRANCH   2   4
ATOM      4  C   UNL A   1      32.656  27.213  25.877  1.00  0.00     0.120 C 
ATOM      5  N   UNL A   1      31.040  25.479  26.007  1.00  0.00    -0.324 N 
ATOM      6  C   UNL A   1      30.407  26.619  25.374  1.00  0.00     0.122 C 
ATOM      7  C   UNL A   1      32.319  25.894  26.577  1.00  0.00     0.136 C 
ATOM      8  C   UNL A   1      31.612  27.294  24.753  1.00  0.00     0.039 C 
BRANCH   5   9
ATOM      9  C   UNL A   1      30.608  24.199  26.123  1.00  0.00     0.317 C 
ATOM     10  N   UNL A   1      30.690  23.347  25.075  1.00  0.00    -0.338 N 
ATOM     11  H   UNL A   1      30.078  22.578  25.117  1.00  0.00     0.165 HD
ATOM     12  O   UNL A   1      30.178  23.749  27.188  1.00  0.00    -0.249 OA
BRANCH  10  13
ATOM     13  C   UNL A   1      31.543  23.391  23.897  1.00  0.00     0.118 C 
BRANCH  13  14
ATOM     14  C   UNL A   1      32.734  22.437  23.973  1.00  0.00     0.031 C 
BRANCH  14  15
ATOM     15  C   UNL A   1      32.471  21.091  24.639  1.00  0.00     0.102 C 
BRANCH  15  16
ATOM     16  C   UNL A   1      33.652  20.148  24.561  1.00  0.00     0.220 C 
ATOM     17  O   UNL A   1      34.803  20.547  24.710  1.00  0.00    -0.275 OA
ATOM     18  N   UNL A   1      33.310  18.832  24.330  1.00  0.00    -0.353 N 
ATOM     19  H   UNL A   1      32.360  18.601  24.215  1.00  0.00     0.163 HD
BRANCH  18  20
ATOM     20  C   UNL A   1      34.287  17.794  24.251  1.00  0.00     0.082 C 
ATOM     21  C   UNL A   1      34.082  16.502  24.993  1.00  0.00     0.027 C 
ATOM     22  C   UNL A   1      34.018  16.524  23.495  1.00  0.00     0.027 C 
ENDBRANCH  18  20
ENDBRANCH  15  16
ENDBRANCH  14  15
ENDBRANCH  13  14
ENDBRANCH  10  13
ENDBRANCH   5   9
ENDBRANCH   2   4
ENDBRANCH   1   2
BRANCH   1  23
ATOM     23  C   UNL A   1      32.931  30.701  27.107  1.00  0.00     0.274 C 
BRANCH  23  24
ATOM     24  C   UNL A   1      34.366  31.082  27.470  1.00  0.00     0.275 C 
BRANCH  24  25
ATOM     25  O   UNL A   1      34.940  30.138  28.394  1.00  0.00    -0.458 OA
BRANCH  25  26
ATOM     26  C   UNL A   1      35.933  30.623  29.172  1.00  0.00     0.338 C 
ATOM     27  O   UNL A   1      35.841  31.472  30.045  1.00  0.00    -0.246 OA
BRANCH  26  28
ATOM     28  C   UNL A   1      37.194  29.922  28.886  1.00  0.00     0.060 A 
ATOM     29  C   UNL A   1      37.929  29.432  29.960  1.00  0.00     0.016 A 
ATOM     30  C   UNL A   1      37.739  29.911  27.604  1.00  0.00     0.016 A 
ATOM     31  C   UNL A   1      39.260  29.058  29.787  1.00  0.00     0.010 A 
ATOM     32  C   UNL A   1      39.037  29.419  27.413  1.00  0.00     0.010 A 
ATOM     33  C   UNL A   1      39.833  29.029  28.509  1.00  0.00    -0.014 A 
BRANCH  33  34
ATOM     34  C   UNL A   1      41.264  28.638  28.327  1.00  0.00     0.031 A 
ATOM     35  C   UNL A   1      42.361  29.661  28.507  1.00  0.00     0.074 A 
ATOM     36  C   UNL A   1      41.601  27.364  28.033  1.00  0.00     0.049 A 
ATOM     37  N   UNL A   1      43.630  29.578  28.197  1.00  0.00    -0.248 NA
ATOM     38  C   UNL A   1      41.977  30.949  29.107  1.00  0.00     0.031 C 
ATOM     39  C   UNL A   1      40.665  26.246  27.889  1.00  0.00     0.029 A 
ATOM     40  N   UNL A   1      42.830  26.790  27.816  1.00  0.00    -0.354 N 
ATOM     41  C   UNL A   1      44.183  30.817  28.506  1.00  0.00     0.074 A 
ATOM     42  C   UNL A   1      43.112  31.634  29.034  1.00  0.00     0.031 C 
ATOM     43  C   UNL A   1      41.354  25.118  27.656  1.00  0.00     0.029 A 
ATOM     44  C   UNL A   1      42.770  25.443  27.536  1.00  0.00     0.049 A 
ATOM     45  H   UNL A   1      43.675  27.293  27.855  1.00  0.00     0.167 HD
ATOM     46  C   UNL A   1      45.464  31.235  28.360  1.00  0.00     0.037 A 
ATOM     47  C   UNL A   1      43.733  24.573  27.176  1.00  0.00     0.037 A 
ATOM     48  C   UNL A   1      46.541  30.403  27.891  1.00  0.00     0.049 A 
ATOM     49  C   UNL A   1      45.142  25.065  26.994  1.00  0.00     0.074 A 
ATOM     50  C   UNL A   1      47.865  30.746  27.674  1.00  0.00     0.029 A 
ATOM     51  N   UNL A   1      46.427  29.054  27.597  1.00  0.00    -0.354 N 
ATOM     52  N   UNL A   1      45.622  26.271  27.178  1.00  0.00    -0.248 NA
ATOM     53  C   UNL A   1      46.132  24.086  26.525  1.00  0.00     0.031 C 
ATOM     54  C   UNL A   1      48.550  29.605  27.237  1.00  0.00     0.029 A 
ATOM     55  C   UNL A   1      47.657  28.547  27.209  1.00  0.00     0.049 A 
ATOM     56  H   UNL A   1      45.594  28.532  27.656  1.00  0.00     0.167 HD
ATOM     57  C   UNL A   1      46.972  26.193  26.854  1.00  0.00     0.074 A 
ATOM     58  C   UNL A   1      47.236  24.819  26.481  1.00  0.00     0.031 C 
ATOM     59  C   UNL A   1      47.905  27.174  26.855  1.00  0.00     0.037 A 
BRANCH  46  60
ATOM     60  C   UNL A   1      45.769  32.670  28.686  1.00  0.00     0.058 A 
ATOM     61  C   UNL A   1      45.548  33.704  27.764  1.00  0.00     0.135 A 
ATOM     62  C   UNL A   1      46.254  33.017  29.958  1.00  0.00     0.135 A 
ATOM     63  F   UNL A   1      45.103  33.423  26.529  1.00  0.00    -0.206 F 
ATOM     64  C   UNL A   1      45.815  35.031  28.085  1.00  0.00     0.059 A 
ATOM     65  C   UNL A   1      46.509  34.339  30.307  1.00  0.00     0.059 A 
ATOM     66  F   UNL A   1      46.483  32.066  30.877  1.00  0.00    -0.206 F 
ATOM     67  C   UNL A   1      46.300  35.339  29.358  1.00  0.00     0.060 A 
BRANCH  67  68
ATOM     68  S   UNL A   1      46.641  37.065  29.765  1.00  0.00     0.124 S 
ATOM     69  O   UNL A   1      46.123  37.148  31.127  1.00  0.00    -0.237 OA
ATOM     70  O   UNL A   1      48.093  37.140  29.635  1.00  0.00    -0.237 OA
ATOM     71  O   UNL A   1      45.886  37.806  28.760  1.00  0.00    -0.744 OA
ENDBRANCH  67  68
ENDBRANCH  46  60
BRANCH  47  72
ATOM     72  C   UNL A   1      43.393  23.150  26.908  1.00  0.00     0.058 A 
ATOM     73  C   UNL A   1      43.110  22.266  27.959  1.00  0.00     0.135 A 
ATOM     74  C   UNL A   1      43.350  22.647  25.599  1.00  0.00     0.135 A 
ATOM     75  F   UNL A   1      43.150  22.699  29.228  1.00  0.00    -0.206 F 
ATOM     76  C   UNL A   1      42.810  20.928  27.724  1.00  0.00     0.059 A 
ATOM     77  C   UNL A   1      43.027  21.320  25.336  1.00  0.00     0.059 A 
ATOM     78  F   UNL A   1      43.601  23.457  24.558  1.00  0.00    -0.206 F 
ATOM     79  C   UNL A   1      42.773  20.465  26.408  1.00  0.00     0.060 A 
BRANCH  79  80
ATOM     80  S   UNL A   1      42.340  18.739  26.097  1.00  0.00     0.124 S 
ATOM     81  O   UNL A   1      42.645  18.126  27.384  1.00  0.00    -0.237 OA
ATOM     82  O   UNL A   1      40.924  18.829  25.752  1.00  0.00    -0.237 OA
ATOM     83  O   UNL A   1      43.222  18.371  24.994  1.00  0.00    -0.744 OA
ENDBRANCH  79  80
ENDBRANCH  47  72
BRANCH  59  84
ATOM     84  C   UNL A   1      49.304  26.789  26.473  1.00  0.00     0.058 A 
ATOM     85  C   UNL A   1      49.781  26.966  25.165  1.00  0.00     0.135 A 
ATOM     86  C   UNL A   1      50.186  26.271  27.434  1.00  0.00     0.135 A 
ATOM     87  F   UNL A   1      48.972  27.451  24.211  1.00  0.00    -0.206 F 
ATOM     88  C   UNL A   1      51.084  26.626  24.818  1.00  0.00     0.059 A 
ATOM     89  C   UNL A   1      51.499  25.941  27.112  1.00  0.00     0.059 A 
ATOM     90  F   UNL A   1      49.777  26.089  28.699  1.00  0.00    -0.206 F 
ATOM     91  C   UNL A   1      51.935  26.111  25.799  1.00  0.00     0.060 A 
BRANCH  91  92
ATOM     92  S   UNL A   1      53.635  25.701  25.347  1.00  0.00     0.124 S 
ATOM     93  O   UNL A   1      53.856  24.480  26.115  1.00  0.00    -0.237 OA
ATOM     94  O   UNL A   1      53.546  25.532  23.900  1.00  0.00    -0.237 OA
ATOM     95  O   UNL A   1      54.392  26.869  25.789  1.00  0.00    -0.744 OA
ENDBRANCH  91  92
ENDBRANCH  59  84
ENDBRANCH  33  34
ENDBRANCH  26  28
ENDBRANCH  25  26
ENDBRANCH  24  25
ENDBRANCH  23  24
ENDBRANCH   1  23
TORSDOF 20
ENDMDL
