MODEL 1
REMARK VINA RESULT:     -12.3      0.000      0.000
REMARK SMILES CC[C@@H](NC(=O)N1CCO[C@H](CC(=O)OCCOC(=O)c2ccc(-c3c4nc(c(-c5c(F)cc(S(=O)(=O)[O-])cc5F)c5ccc([nH]5)c(-c5c(F)cc(S(=O)(=O)[O-])cc5F)c5nc(c(-c6c(F)cc(S(=O)(=O)[O-])cc6F)c6ccc3[nH]6)C=C5)C=C4)cc2)C1)c1cccs1
REMARK SMILES IDX 16 1 15 2 13 3 14 4 12 5 11 6 7 7 8 8 87 9 9 10 10 11 5 12
REMARK SMILES IDX 4 13 6 15 3 16 2 17 1 18 88 19 89 20 92 21 90 22 91 23 17 24
REMARK SMILES IDX 18 25 19 26 20 27 21 28 22 29 86 30 23 31 85 32 24 33 25 34
REMARK SMILES IDX 26 35 79 36 27 37 84 38 78 39 80 40 28 41 83 42 77 43 76 44
REMARK SMILES IDX 29 46 63 47 42 48 62 49 43 50 46 51 61 52 81 53 44 54 45 55
REMARK SMILES IDX 60 57 82 58 47 59 30 60 31 61 40 62 32 63 33 64 39 65 41 66
REMARK SMILES IDX 34 67 35 68 36 69 37 70 38 71 64 72 65 73 74 74 66 75 67 76
REMARK SMILES IDX 73 77 75 78 68 79 69 80 70 81 71 82 72 83 48 84 49 85 58 86
REMARK SMILES IDX 50 87 51 88 57 89 59 90 52 91 53 92 54 93 55 94 56 95
REMARK H PARENT 4 14 80 45 46 56
REMARK Flexibility Score: inf
ROOT
ATOM      1  C   UNL A   1      45.695  41.635  26.732  1.00  0.00     0.274 C 
ENDROOT
BRANCH   1   2
ATOM      2  O   UNL A   1      44.591  42.590  26.099  1.00  0.00    -0.462 OA
BRANCH   2   3
ATOM      3  C   UNL A   1      44.722  43.272  24.889  1.00  0.00     0.308 C 
ATOM      4  O   UNL A   1      43.782  43.931  24.438  1.00  0.00    -0.252 OA
BRANCH   3   5
ATOM      5  C   UNL A   1      46.154  43.295  24.080  1.00  0.00     0.156 C 
BRANCH   5   6
ATOM      6  C   UNL A   1      47.151  44.510  23.874  1.00  0.00     0.149 C 
ATOM      7  N   UNL A   1      47.149  44.277  21.685  1.00  0.00    -0.320 N 
ATOM      8  C   UNL A   1      48.381  44.851  21.232  1.00  0.00     0.150 C 
ATOM      9  C   UNL A   1      46.638  45.214  22.690  1.00  0.00     0.154 C 
ATOM     10  C   UNL A   1      49.270  44.770  22.461  1.00  0.00     0.182 C 
ATOM     11  O   UNL A   1      48.588  44.138  23.634  1.00  0.00    -0.374 OA
BRANCH   7  12
ATOM     12  C   UNL A   1      46.246  43.829  20.819  1.00  0.00     0.318 C 
ATOM     13  N   UNL A   1      44.690  44.340  21.025  1.00  0.00    -0.330 N 
ATOM     14  H   UNL A   1      44.642  45.151  21.581  1.00  0.00     0.166 HD
ATOM     15  O   UNL A   1      46.847  43.158  19.967  1.00  0.00    -0.249 OA
BRANCH  13  16
ATOM     16  C   UNL A   1      43.024  43.781  20.485  1.00  0.00     0.124 C 
BRANCH  16  17
ATOM     17  C   UNL A   1      42.659  42.364  21.028  1.00  0.00     0.027 C 
ATOM     18  C   UNL A   1      41.631  42.399  22.167  1.00  0.00     0.006 C 
ENDBRANCH  16  17
BRANCH  16  19
ATOM     19  C   UNL A   1      42.438  44.126  18.852  1.00  0.00     0.027 A 
ATOM     20  C   UNL A   1      41.225  44.683  18.353  1.00  0.00     0.017 A 
ATOM     21  S   UNL A   1      43.238  43.916  17.271  1.00  0.00    -0.147 S 
ATOM     22  C   UNL A   1      41.557  45.754  17.425  1.00  0.00     0.012 A 
ATOM     23  C   UNL A   1      42.805  45.552  16.883  1.00  0.00     0.065 A 
ENDBRANCH  16  19
ENDBRANCH  13  16
ENDBRANCH   7  12
ENDBRANCH   5   6
ENDBRANCH   3   5
ENDBRANCH   2   3
ENDBRANCH   1   2
BRANCH   1  24
ATOM     24  C   UNL A   1      45.685  39.769  26.665  1.00  0.00     0.275 C 
BRANCH  24  25
ATOM     25  O   UNL A   1      45.739  38.635  28.102  1.00  0.00    -0.458 OA
BRANCH  25  26
ATOM     26  C   UNL A   1      45.616  37.203  28.699  1.00  0.00     0.338 C 
ATOM     27  O   UNL A   1      44.820  37.109  29.650  1.00  0.00    -0.246 OA
BRANCH  26  28
ATOM     28  C   UNL A   1      46.290  35.665  28.387  1.00  0.00     0.060 A 
ATOM     29  C   UNL A   1      46.585  35.158  27.105  1.00  0.00     0.016 A 
ATOM     30  C   UNL A   1      46.320  34.617  29.314  1.00  0.00     0.016 A 
ATOM     31  C   UNL A   1      46.638  33.733  26.805  1.00  0.00     0.010 A 
ATOM     32  C   UNL A   1      46.320  33.232  29.069  1.00  0.00     0.010 A 
ATOM     33  C   UNL A   1      46.364  32.765  27.780  1.00  0.00    -0.014 A 
BRANCH  33  34
ATOM     34  C   UNL A   1      45.955  31.335  27.583  1.00  0.00     0.031 A 
ATOM     35  C   UNL A   1      44.566  30.903  28.035  1.00  0.00     0.074 A 
ATOM     36  C   UNL A   1      46.862  30.376  27.294  1.00  0.00     0.049 A 
ATOM     37  N   UNL A   1      43.993  29.724  27.990  1.00  0.00    -0.248 NA
ATOM     38  C   UNL A   1      43.726  31.941  28.659  1.00  0.00     0.031 C 
ATOM     39  C   UNL A   1      48.282  30.620  27.045  1.00  0.00     0.029 A 
ATOM     40  N   UNL A   1      46.744  29.006  27.214  1.00  0.00    -0.354 N 
ATOM     41  C   UNL A   1      42.717  29.888  28.533  1.00  0.00     0.074 A 
ATOM     42  C   UNL A   1      42.621  31.267  28.958  1.00  0.00     0.031 C 
ATOM     43  C   UNL A   1      48.904  29.445  26.844  1.00  0.00     0.029 A 
ATOM     44  C   UNL A   1      47.929  28.360  26.941  1.00  0.00     0.049 A 
ATOM     45  H   UNL A   1      45.890  28.533  27.340  1.00  0.00     0.167 HD
ATOM     46  C   UNL A   1      41.715  28.978  28.650  1.00  0.00     0.037 A 
ATOM     47  C   UNL A   1      48.200  27.049  26.769  1.00  0.00     0.037 A 
ATOM     48  C   UNL A   1      41.854  27.591  28.270  1.00  0.00     0.049 A 
ATOM     49  C   UNL A   1      47.069  26.058  26.824  1.00  0.00     0.074 A 
ATOM     50  C   UNL A   1      40.888  26.601  28.232  1.00  0.00     0.029 A 
ATOM     51  N   UNL A   1      43.050  26.993  27.894  1.00  0.00    -0.354 N 
ATOM     52  N   UNL A   1      45.812  26.265  27.143  1.00  0.00    -0.248 NA
ATOM     53  C   UNL A   1      47.377  24.667  26.464  1.00  0.00     0.031 C 
ATOM     54  C   UNL A   1      41.509  25.395  27.881  1.00  0.00     0.029 A 
ATOM     55  C   UNL A   1      42.851  25.645  27.646  1.00  0.00     0.049 A 
ATOM     56  H   UNL A   1      43.914  27.460  27.815  1.00  0.00     0.167 HD
ATOM     57  C   UNL A   1      45.175  25.037  27.003  1.00  0.00     0.074 A 
ATOM     58  C   UNL A   1      46.182  24.096  26.552  1.00  0.00     0.031 C 
ATOM     59  C   UNL A   1      43.874  24.719  27.220  1.00  0.00     0.037 A 
BRANCH  46  60
ATOM     60  C   UNL A   1      40.368  29.435  29.172  1.00  0.00     0.058 A 
ATOM     61  C   UNL A   1      40.151  29.651  30.544  1.00  0.00     0.135 A 
ATOM     62  C   UNL A   1      39.318  29.767  28.298  1.00  0.00     0.135 A 
ATOM     63  F   UNL A   1      41.113  29.362  31.434  1.00  0.00    -0.206 F 
ATOM     64  C   UNL A   1      38.945  30.157  31.029  1.00  0.00     0.059 A 
ATOM     65  C   UNL A   1      38.111  30.298  28.759  1.00  0.00     0.059 A 
ATOM     66  F   UNL A   1      39.461  29.597  26.974  1.00  0.00    -0.206 F 
ATOM     67  C   UNL A   1      37.930  30.482  30.128  1.00  0.00     0.060 A 
BRANCH  67  68
ATOM     68  S   UNL A   1      36.389  31.166  30.781  1.00  0.00     0.124 S 
ATOM     69  O   UNL A   1      36.013  30.159  31.764  1.00  0.00    -0.237 OA
ATOM     70  O   UNL A   1      36.813  32.449  31.314  1.00  0.00    -0.237 OA
ATOM     71  O   UNL A   1      35.522  31.237  29.597  1.00  0.00    -0.744 OA
ENDBRANCH  67  68
ENDBRANCH  46  60
BRANCH  47  72
ATOM     72  C   UNL A   1      49.591  26.626  26.441  1.00  0.00     0.058 A 
ATOM     73  C   UNL A   1      50.444  26.119  27.434  1.00  0.00     0.135 A 
ATOM     74  C   UNL A   1      50.066  26.638  25.120  1.00  0.00     0.135 A 
ATOM     75  F   UNL A   1      50.043  26.093  28.713  1.00  0.00    -0.206 F 
ATOM     76  C   UNL A   1      51.712  25.630  27.129  1.00  0.00     0.059 A 
ATOM     77  C   UNL A   1      51.321  26.134  24.787  1.00  0.00     0.059 A 
ATOM     78  F   UNL A   1      49.284  27.098  24.131  1.00  0.00    -0.206 F 
ATOM     79  C   UNL A   1      52.137  25.631  25.800  1.00  0.00     0.060 A 
BRANCH  79  80
ATOM     80  S   UNL A   1      53.745  24.904  25.407  1.00  0.00     0.124 S 
ATOM     81  O   UNL A   1      54.181  25.730  24.293  1.00  0.00    -0.237 OA
ATOM     82  O   UNL A   1      54.474  25.073  26.658  1.00  0.00    -0.237 OA
ATOM     83  O   UNL A   1      53.410  23.516  25.072  1.00  0.00    -0.744 OA
ENDBRANCH  79  80
ENDBRANCH  47  72
BRANCH  59  84
ATOM     84  C   UNL A   1      43.468  23.294  26.964  1.00  0.00     0.058 A 
ATOM     85  C   UNL A   1      43.347  22.786  25.661  1.00  0.00     0.135 A 
ATOM     86  C   UNL A   1      43.224  22.420  28.036  1.00  0.00     0.135 A 
ATOM     87  F   UNL A   1      43.565  23.583  24.603  1.00  0.00    -0.206 F 
ATOM     88  C   UNL A   1      42.960  21.471  25.428  1.00  0.00     0.059 A 
ATOM     89  C   UNL A   1      42.865  21.092  27.826  1.00  0.00     0.059 A 
ATOM     90  F   UNL A   1      43.338  22.851  29.301  1.00  0.00    -0.206 F 
ATOM     91  C   UNL A   1      42.719  20.631  26.518  1.00  0.00     0.060 A 
BRANCH  91  92
ATOM     92  S   UNL A   1      42.225  18.924  26.205  1.00  0.00     0.124 S 
ATOM     93  O   UNL A   1      43.196  18.520  25.191  1.00  0.00    -0.237 OA
ATOM     94  O   UNL A   1      42.391  18.305  27.519  1.00  0.00    -0.237 OA
ATOM     95  O   UNL A   1      40.849  19.045  25.745  1.00  0.00    -0.744 OA
ENDBRANCH  91  92
ENDBRANCH  59  84
ENDBRANCH  33  34
ENDBRANCH  26  28
ENDBRANCH  25  26
ENDBRANCH  24  25
ENDBRANCH   1  24
TORSDOF 19
ENDMDL
MODEL 2
REMARK VINA RESULT:     -12.2      1.331      3.079
REMARK SMILES CC[C@@H](NC(=O)N1CCO[C@H](CC(=O)OCCOC(=O)c2ccc(-c3c4nc(c(-c5c(F)cc(S(=O)(=O)[O-])cc5F)c5ccc([nH]5)c(-c5c(F)cc(S(=O)(=O)[O-])cc5F)c5nc(c(-c6c(F)cc(S(=O)(=O)[O-])cc6F)c6ccc3[nH]6)C=C5)C=C4)cc2)C1)c1cccs1
REMARK SMILES IDX 16 1 15 2 13 3 14 4 12 5 11 6 7 7 8 8 87 9 9 10 10 11 5 12
REMARK SMILES IDX 4 13 6 15 3 16 2 17 1 18 88 19 89 20 92 21 90 22 91 23 17 24
REMARK SMILES IDX 18 25 19 26 20 27 21 28 22 29 86 30 23 31 85 32 24 33 25 34
REMARK SMILES IDX 26 35 79 36 27 37 84 38 78 39 80 40 28 41 83 42 77 43 76 44
REMARK SMILES IDX 29 46 63 47 42 48 62 49 43 50 46 51 61 52 81 53 44 54 45 55
REMARK SMILES IDX 60 57 82 58 47 59 30 60 31 61 40 62 32 63 33 64 39 65 41 66
REMARK SMILES IDX 34 67 35 68 36 69 37 70 38 71 64 72 65 73 74 74 66 75 67 76
REMARK SMILES IDX 73 77 75 78 68 79 69 80 70 81 71 82 72 83 48 84 49 85 58 86
REMARK SMILES IDX 50 87 51 88 57 89 59 90 52 91 53 92 54 93 55 94 56 95
REMARK H PARENT 4 14 80 45 46 56
REMARK Flexibility Score: inf
ROOT
ATOM      1  C   UNL A   1      45.008  41.561  26.294  1.00  0.00     0.274 C 
ENDROOT
BRANCH   1   2
ATOM      2  O   UNL A   1      44.011  42.304  25.302  1.00  0.00    -0.462 OA
BRANCH   2   3
ATOM      3  C   UNL A   1      44.240  42.507  23.940  1.00  0.00     0.308 C 
ATOM      4  O   UNL A   1      45.289  42.120  23.419  1.00  0.00    -0.252 OA
BRANCH   3   5
ATOM      5  C   UNL A   1      43.087  43.177  22.977  1.00  0.00     0.156 C 
BRANCH   5   6
ATOM      6  C   UNL A   1      42.302  42.513  21.770  1.00  0.00     0.149 C 
ATOM      7  N   UNL A   1      43.463  43.623  20.266  1.00  0.00    -0.320 N 
ATOM      8  C   UNL A   1      42.633  43.683  19.100  1.00  0.00     0.150 C 
ATOM      9  C   UNL A   1      43.334  42.248  20.757  1.00  0.00     0.154 C 
ATOM     10  C   UNL A   1      41.235  43.504  19.666  1.00  0.00     0.182 C 
ATOM     11  O   UNL A   1      41.222  43.357  21.155  1.00  0.00    -0.374 OA
BRANCH   7  12
ATOM     12  C   UNL A   1      44.704  44.101  20.246  1.00  0.00     0.318 C 
ATOM     13  N   UNL A   1      45.000  45.458  21.137  1.00  0.00    -0.330 N 
ATOM     14  H   UNL A   1      44.310  45.603  21.824  1.00  0.00     0.166 HD
ATOM     15  O   UNL A   1      45.396  43.315  19.582  1.00  0.00    -0.249 OA
BRANCH  13  16
ATOM     16  C   UNL A   1      46.288  46.770  21.175  1.00  0.00     0.124 C 
BRANCH  16  17
ATOM     17  C   UNL A   1      46.262  47.676  19.905  1.00  0.00     0.027 C 
ATOM     18  C   UNL A   1      45.420  48.946  20.085  1.00  0.00     0.006 C 
ENDBRANCH  16  17
BRANCH  16  19
ATOM     19  C   UNL A   1      47.901  46.437  21.821  1.00  0.00     0.027 A 
ATOM     20  C   UNL A   1      48.866  47.246  22.487  1.00  0.00     0.017 A 
ATOM     21  S   UNL A   1      48.830  44.914  21.874  1.00  0.00    -0.147 S 
ATOM     22  C   UNL A   1      49.288  46.556  23.698  1.00  0.00     0.012 A 
ATOM     23  C   UNL A   1      49.114  45.198  23.563  1.00  0.00     0.065 A 
ENDBRANCH  16  19
ENDBRANCH  13  16
ENDBRANCH   7  12
ENDBRANCH   5   6
ENDBRANCH   3   5
ENDBRANCH   2   3
ENDBRANCH   1   2
BRANCH   1  24
ATOM     24  C   UNL A   1      45.178  39.711  26.479  1.00  0.00     0.275 C 
BRANCH  24  25
ATOM     25  O   UNL A   1      45.408  38.798  28.050  1.00  0.00    -0.458 OA
BRANCH  25  26
ATOM     26  C   UNL A   1      45.556  37.455  28.824  1.00  0.00     0.338 C 
ATOM     27  O   UNL A   1      45.065  37.465  29.966  1.00  0.00    -0.246 OA
BRANCH  26  28
ATOM     28  C   UNL A   1      46.221  35.912  28.519  1.00  0.00     0.060 A 
ATOM     29  C   UNL A   1      46.533  35.405  27.240  1.00  0.00     0.016 A 
ATOM     30  C   UNL A   1      46.225  34.861  29.443  1.00  0.00     0.016 A 
ATOM     31  C   UNL A   1      46.578  33.981  26.937  1.00  0.00     0.010 A 
ATOM     32  C   UNL A   1      46.215  33.477  29.193  1.00  0.00     0.010 A 
ATOM     33  C   UNL A   1      46.277  33.013  27.904  1.00  0.00    -0.014 A 
BRANCH  33  34
ATOM     34  C   UNL A   1      45.859  31.587  27.695  1.00  0.00     0.031 A 
ATOM     35  C   UNL A   1      44.482  31.152  28.179  1.00  0.00     0.074 A 
ATOM     36  C   UNL A   1      46.754  30.632  27.364  1.00  0.00     0.049 A 
ATOM     37  N   UNL A   1      43.904  29.976  28.130  1.00  0.00    -0.248 NA
ATOM     38  C   UNL A   1      43.663  32.182  28.843  1.00  0.00     0.031 C 
ATOM     39  C   UNL A   1      48.167  30.875  27.079  1.00  0.00     0.029 A 
ATOM     40  N   UNL A   1      46.629  29.263  27.265  1.00  0.00    -0.354 N 
ATOM     41  C   UNL A   1      42.644  30.134  28.712  1.00  0.00     0.074 A 
ATOM     42  C   UNL A   1      42.565  31.506  29.163  1.00  0.00     0.031 C 
ATOM     43  C   UNL A   1      48.779  29.703  26.841  1.00  0.00     0.029 A 
ATOM     44  C   UNL A   1      47.805  28.619  26.948  1.00  0.00     0.049 A 
ATOM     45  H   UNL A   1      45.778  28.790  27.407  1.00  0.00     0.167 HD
ATOM     46  C   UNL A   1      41.643  29.225  28.844  1.00  0.00     0.037 A 
ATOM     47  C   UNL A   1      48.066  27.310  26.747  1.00  0.00     0.037 A 
ATOM     48  C   UNL A   1      41.767  27.844  28.436  1.00  0.00     0.049 A 
ATOM     49  C   UNL A   1      46.934  26.321  26.818  1.00  0.00     0.074 A 
ATOM     50  C   UNL A   1      40.798  26.857  28.409  1.00  0.00     0.029 A 
ATOM     51  N   UNL A   1      42.950  27.249  28.017  1.00  0.00    -0.354 N 
ATOM     52  N   UNL A   1      45.687  26.526  27.176  1.00  0.00    -0.248 NA
ATOM     53  C   UNL A   1      47.227  24.935  26.426  1.00  0.00     0.031 C 
ATOM     54  C   UNL A   1      41.404  25.655  28.022  1.00  0.00     0.029 A 
ATOM     55  C   UNL A   1      42.740  25.906  27.753  1.00  0.00     0.049 A 
ATOM     56  H   UNL A   1      43.813  27.715  27.920  1.00  0.00     0.167 HD
ATOM     57  C   UNL A   1      45.043  25.303  27.033  1.00  0.00     0.074 A 
ATOM     58  C   UNL A   1      46.033  24.367  26.539  1.00  0.00     0.031 C 
ATOM     59  C   UNL A   1      43.747  24.985  27.282  1.00  0.00     0.037 A 
BRANCH  46  60
ATOM     60  C   UNL A   1      40.314  29.677  29.410  1.00  0.00     0.058 A 
ATOM     61  C   UNL A   1      40.156  29.941  30.782  1.00  0.00     0.135 A 
ATOM     62  C   UNL A   1      39.217  29.956  28.575  1.00  0.00     0.135 A 
ATOM     63  F   UNL A   1      41.164  29.704  31.636  1.00  0.00    -0.206 F 
ATOM     64  C   UNL A   1      38.964  30.444  31.305  1.00  0.00     0.059 A 
ATOM     65  C   UNL A   1      38.023  30.482  29.072  1.00  0.00     0.059 A 
ATOM     66  F   UNL A   1      39.302  29.738  27.253  1.00  0.00    -0.206 F 
ATOM     67  C   UNL A   1      37.902  30.715  30.441  1.00  0.00     0.060 A 
BRANCH  67  68
ATOM     68  S   UNL A   1      36.380  31.396  31.140  1.00  0.00     0.124 S 
ATOM     69  O   UNL A   1      36.853  32.650  31.713  1.00  0.00    -0.237 OA
ATOM     70  O   UNL A   1      35.520  31.511  29.976  1.00  0.00    -0.237 OA
ATOM     71  O   UNL A   1      35.973  30.378  32.119  1.00  0.00    -0.744 OA
ENDBRANCH  67  68
ENDBRANCH  46  60
BRANCH  47  72
ATOM     72  C   UNL A   1      49.446  26.888  26.372  1.00  0.00     0.058 A 
ATOM     73  C   UNL A   1      50.328  26.369  27.333  1.00  0.00     0.135 A 
ATOM     74  C   UNL A   1      49.880  26.914  25.037  1.00  0.00     0.135 A 
ATOM     75  F   UNL A   1      49.965  26.329  28.623  1.00  0.00    -0.206 F 
ATOM     76  C   UNL A   1      51.585  25.882  26.985  1.00  0.00     0.059 A 
ATOM     77  C   UNL A   1      51.124  26.412  24.662  1.00  0.00     0.059 A 
ATOM     78  F   UNL A   1      49.070  27.386  24.077  1.00  0.00    -0.206 F 
ATOM     79  C   UNL A   1      51.970  25.897  25.644  1.00  0.00     0.060 A 
BRANCH  79  80
ATOM     80  S   UNL A   1      53.564  25.172  25.194  1.00  0.00     0.124 S 
ATOM     81  O   UNL A   1      53.756  25.687  23.848  1.00  0.00    -0.237 OA
ATOM     82  O   UNL A   1      54.448  25.710  26.222  1.00  0.00    -0.237 OA
ATOM     83  O   UNL A   1      53.313  23.730  25.290  1.00  0.00    -0.744 OA
ENDBRANCH  79  80
ENDBRANCH  47  72
BRANCH  59  84
ATOM     84  C   UNL A   1      43.330  23.565  27.015  1.00  0.00     0.058 A 
ATOM     85  C   UNL A   1      43.095  22.657  28.060  1.00  0.00     0.135 A 
ATOM     86  C   UNL A   1      43.138  23.115  25.699  1.00  0.00     0.135 A 
ATOM     87  F   UNL A   1      43.270  23.037  29.336  1.00  0.00    -0.206 F 
ATOM     88  C   UNL A   1      42.721  21.342  27.809  1.00  0.00     0.059 A 
ATOM     89  C   UNL A   1      42.735  21.811  25.425  1.00  0.00     0.059 A 
ATOM     90  F   UNL A   1      43.336  23.945  24.663  1.00  0.00    -0.206 F 
ATOM     91  C   UNL A   1      42.546  20.927  26.487  1.00  0.00     0.060 A 
BRANCH  91  92
ATOM     92  S   UNL A   1      42.054  19.220  26.172  1.00  0.00     0.124 S 
ATOM     93  O   UNL A   1      42.445  18.567  27.419  1.00  0.00    -0.237 OA
ATOM     94  O   UNL A   1      40.613  19.346  25.951  1.00  0.00    -0.237 OA
ATOM     95  O   UNL A   1      42.831  18.851  24.998  1.00  0.00    -0.744 OA
ENDBRANCH  91  92
ENDBRANCH  59  84
ENDBRANCH  33  34
ENDBRANCH  26  28
ENDBRANCH  25  26
ENDBRANCH  24  25
ENDBRANCH   1  24
TORSDOF 19
ENDMDL
MODEL 3
REMARK VINA RESULT:     -11.9      9.469     17.563
REMARK SMILES CC[C@@H](NC(=O)N1CCO[C@H](CC(=O)OCCOC(=O)c2ccc(-c3c4nc(c(-c5c(F)cc(S(=O)(=O)[O-])cc5F)c5ccc([nH]5)c(-c5c(F)cc(S(=O)(=O)[O-])cc5F)c5nc(c(-c6c(F)cc(S(=O)(=O)[O-])cc6F)c6ccc3[nH]6)C=C5)C=C4)cc2)C1)c1cccs1
REMARK SMILES IDX 16 1 15 2 13 3 14 4 12 5 11 6 7 7 8 8 87 9 9 10 10 11 5 12
REMARK SMILES IDX 4 13 6 15 3 16 2 17 1 18 88 19 89 20 92 21 90 22 91 23 17 24
REMARK SMILES IDX 18 25 19 26 20 27 21 28 22 29 86 30 23 31 85 32 24 33 25 34
REMARK SMILES IDX 26 35 79 36 27 37 84 38 78 39 80 40 28 41 83 42 77 43 76 44
REMARK SMILES IDX 29 46 63 47 42 48 62 49 43 50 46 51 61 52 81 53 44 54 45 55
REMARK SMILES IDX 60 57 82 58 47 59 30 60 31 61 40 62 32 63 33 64 39 65 41 66
REMARK SMILES IDX 34 67 35 68 36 69 37 70 38 71 64 72 65 73 74 74 66 75 67 76
REMARK SMILES IDX 73 77 75 78 68 79 69 80 70 81 71 82 72 83 48 84 49 85 58 86
REMARK SMILES IDX 50 87 51 88 57 89 59 90 52 91 53 92 54 93 55 94 56 95
REMARK H PARENT 4 14 80 45 46 56
REMARK Flexibility Score: inf
ROOT
ATOM      1  C   UNL A   1      50.726  25.141  39.821  1.00  0.00     0.274 C 
ENDROOT
BRANCH   1   2
ATOM      2  O   UNL A   1      50.593  24.081  38.642  1.00  0.00    -0.462 OA
BRANCH   2   3
ATOM      3  C   UNL A   1      51.443  24.000  37.539  1.00  0.00     0.308 C 
ATOM      4  O   UNL A   1      52.013  25.008  37.113  1.00  0.00    -0.252 OA
BRANCH   3   5
ATOM      5  C   UNL A   1      51.785  22.552  36.837  1.00  0.00     0.156 C 
BRANCH   5   6
ATOM      6  C   UNL A   1      52.095  22.243  35.313  1.00  0.00     0.149 C 
ATOM      7  N   UNL A   1      50.654  20.581  35.248  1.00  0.00    -0.320 N 
ATOM      8  C   UNL A   1      51.094  19.726  34.187  1.00  0.00     0.150 C 
ATOM      9  C   UNL A   1      50.784  21.942  34.722  1.00  0.00     0.154 C 
ATOM     10  C   UNL A   1      52.572  20.057  34.069  1.00  0.00     0.182 C 
ATOM     11  O   UNL A   1      53.020  21.085  35.060  1.00  0.00    -0.374 OA
BRANCH   7  12
ATOM     12  C   UNL A   1      49.522  20.332  35.900  1.00  0.00     0.318 C 
ATOM     13  N   UNL A   1      48.114  20.735  35.139  1.00  0.00    -0.330 N 
ATOM     14  H   UNL A   1      48.240  20.841  34.169  1.00  0.00     0.166 HD
ATOM     15  O   UNL A   1      49.819  19.749  36.954  1.00  0.00    -0.249 OA
BRANCH  13  16
ATOM     16  C   UNL A   1      46.371  21.038  35.640  1.00  0.00     0.124 C 
BRANCH  16  17
ATOM     17  C   UNL A   1      45.398  19.929  35.132  1.00  0.00     0.027 C 
ATOM     18  C   UNL A   1      45.393  18.676  36.019  1.00  0.00     0.006 C 
ENDBRANCH  16  17
BRANCH  16  19
ATOM     19  C   UNL A   1      45.701  22.676  35.640  1.00  0.00     0.027 A 
ATOM     20  C   UNL A   1      46.243  23.946  35.988  1.00  0.00     0.017 A 
ATOM     21  S   UNL A   1      44.091  23.263  35.143  1.00  0.00    -0.147 S 
ATOM     22  C   UNL A   1      45.983  24.873  34.896  1.00  0.00     0.012 A 
ATOM     23  C   UNL A   1      44.879  24.473  34.178  1.00  0.00     0.065 A 
ENDBRANCH  16  19
ENDBRANCH  13  16
ENDBRANCH   7  12
ENDBRANCH   5   6
ENDBRANCH   3   5
ENDBRANCH   2   3
ENDBRANCH   1   2
BRANCH   1  24
ATOM     24  C   UNL A   1      49.632  26.634  40.069  1.00  0.00     0.275 C 
BRANCH  24  25
ATOM     25  O   UNL A   1      47.802  26.635  40.125  1.00  0.00    -0.458 OA
BRANCH  25  26
ATOM     26  C   UNL A   1      46.431  27.091  39.544  1.00  0.00     0.338 C 
ATOM     27  O   UNL A   1      45.591  27.414  40.402  1.00  0.00    -0.246 OA
BRANCH  26  28
ATOM     28  C   UNL A   1      45.744  27.289  37.993  1.00  0.00     0.060 A 
ATOM     29  C   UNL A   1      46.158  28.244  37.042  1.00  0.00     0.016 A 
ATOM     30  C   UNL A   1      44.502  26.769  37.612  1.00  0.00     0.016 A 
ATOM     31  C   UNL A   1      45.281  28.762  36.000  1.00  0.00     0.010 A 
ATOM     32  C   UNL A   1      43.603  27.267  36.652  1.00  0.00     0.010 A 
ATOM     33  C   UNL A   1      43.942  28.362  35.898  1.00  0.00    -0.014 A 
BRANCH  33  34
ATOM     34  C   UNL A   1      42.810  29.066  35.210  1.00  0.00     0.031 A 
ATOM     35  C   UNL A   1      42.513  28.723  33.756  1.00  0.00     0.074 A 
ATOM     36  C   UNL A   1      42.247  30.176  35.735  1.00  0.00     0.049 A 
ATOM     37  N   UNL A   1      41.604  29.208  32.945  1.00  0.00    -0.248 NA
ATOM     38  C   UNL A   1      43.391  27.722  33.125  1.00  0.00     0.031 C 
ATOM     39  C   UNL A   1      42.587  30.747  37.037  1.00  0.00     0.029 A 
ATOM     40  N   UNL A   1      41.315  31.052  35.224  1.00  0.00    -0.354 N 
ATOM     41  C   UNL A   1      41.770  28.541  31.729  1.00  0.00     0.074 A 
ATOM     42  C   UNL A   1      42.907  27.662  31.889  1.00  0.00     0.031 C 
ATOM     43  C   UNL A   1      41.882  31.876  37.223  1.00  0.00     0.029 A 
ATOM     44  C   UNL A   1      41.030  32.111  36.059  1.00  0.00     0.049 A 
ATOM     45  H   UNL A   1      40.892  30.933  34.344  1.00  0.00     0.167 HD
ATOM     46  C   UNL A   1      41.034  28.642  30.591  1.00  0.00     0.037 A 
ATOM     47  C   UNL A   1      40.170  33.141  35.915  1.00  0.00     0.037 A 
ATOM     48  C   UNL A   1      39.937  29.570  30.436  1.00  0.00     0.049 A 
ATOM     49  C   UNL A   1      39.303  33.199  34.686  1.00  0.00     0.074 A 
ATOM     50  C   UNL A   1      39.044  29.691  29.385  1.00  0.00     0.029 A 
ATOM     51  N   UNL A   1      39.607  30.562  31.351  1.00  0.00    -0.354 N 
ATOM     52  N   UNL A   1      39.334  32.429  33.623  1.00  0.00    -0.248 NA
ATOM     53  C   UNL A   1      38.263  34.237  34.647  1.00  0.00     0.031 C 
ATOM     54  C   UNL A   1      38.208  30.785  29.641  1.00  0.00     0.029 A 
ATOM     55  C   UNL A   1      38.543  31.312  30.879  1.00  0.00     0.049 A 
ATOM     56  H   UNL A   1      40.063  30.709  32.212  1.00  0.00     0.167 HD
ATOM     57  C   UNL A   1      38.307  32.875  32.798  1.00  0.00     0.074 A 
ATOM     58  C   UNL A   1      37.662  33.971  33.494  1.00  0.00     0.031 C 
ATOM     59  C   UNL A   1      37.929  32.415  31.578  1.00  0.00     0.037 A 
BRANCH  46  60
ATOM     60  C   UNL A   1      41.345  27.718  29.433  1.00  0.00     0.058 A 
ATOM     61  C   UNL A   1      42.512  27.875  28.665  1.00  0.00     0.135 A 
ATOM     62  C   UNL A   1      40.539  26.601  29.149  1.00  0.00     0.135 A 
ATOM     63  F   UNL A   1      43.331  28.916  28.887  1.00  0.00    -0.206 F 
ATOM     64  C   UNL A   1      42.857  26.979  27.654  1.00  0.00     0.059 A 
ATOM     65  C   UNL A   1      40.876  25.677  28.158  1.00  0.00     0.059 A 
ATOM     66  F   UNL A   1      39.415  26.383  29.851  1.00  0.00    -0.206 F 
ATOM     67  C   UNL A   1      42.034  25.878  27.409  1.00  0.00     0.060 A 
BRANCH  67  68
ATOM     68  S   UNL A   1      42.521  24.714  26.114  1.00  0.00     0.124 S 
ATOM     69  O   UNL A   1      42.424  25.544  24.920  1.00  0.00    -0.237 OA
ATOM     70  O   UNL A   1      43.863  24.333  26.519  1.00  0.00    -0.237 OA
ATOM     71  O   UNL A   1      41.511  23.651  26.218  1.00  0.00    -0.744 OA
ENDBRANCH  67  68
ENDBRANCH  46  60
BRANCH  47  72
ATOM     72  C   UNL A   1      40.035  34.141  37.012  1.00  0.00     0.058 A 
ATOM     73  C   UNL A   1      40.770  35.336  36.993  1.00  0.00     0.135 A 
ATOM     74  C   UNL A   1      39.108  33.963  38.051  1.00  0.00     0.135 A 
ATOM     75  F   UNL A   1      41.674  35.552  36.026  1.00  0.00    -0.206 F 
ATOM     76  C   UNL A   1      40.587  36.323  37.957  1.00  0.00     0.059 A 
ATOM     77  C   UNL A   1      38.891  34.946  39.015  1.00  0.00     0.059 A 
ATOM     78  F   UNL A   1      38.369  32.845  38.108  1.00  0.00    -0.206 F 
ATOM     79  C   UNL A   1      39.636  36.123  38.959  1.00  0.00     0.060 A 
BRANCH  79  80
ATOM     80  S   UNL A   1      39.339  37.454  40.146  1.00  0.00     0.124 S 
ATOM     81  O   UNL A   1      38.366  38.272  39.439  1.00  0.00    -0.237 OA
ATOM     82  O   UNL A   1      38.843  36.726  41.308  1.00  0.00    -0.237 OA
ATOM     83  O   UNL A   1      40.666  38.053  40.315  1.00  0.00    -0.744 OA
ENDBRANCH  79  80
ENDBRANCH  47  72
BRANCH  59  84
ATOM     84  C   UNL A   1      36.757  33.095  30.927  1.00  0.00     0.058 A 
ATOM     85  C   UNL A   1      36.922  33.961  29.835  1.00  0.00     0.135 A 
ATOM     86  C   UNL A   1      35.450  32.857  31.384  1.00  0.00     0.135 A 
ATOM     87  F   UNL A   1      38.151  34.226  29.363  1.00  0.00    -0.206 F 
ATOM     88  C   UNL A   1      35.837  34.597  29.242  1.00  0.00     0.059 A 
ATOM     89  C   UNL A   1      34.348  33.459  30.787  1.00  0.00     0.059 A 
ATOM     90  F   UNL A   1      35.235  32.027  32.416  1.00  0.00    -0.206 F 
ATOM     91  C   UNL A   1      34.553  34.342  29.727  1.00  0.00     0.060 A 
BRANCH  91  92
ATOM     92  S   UNL A   1      33.151  35.167  28.946  1.00  0.00     0.124 S 
ATOM     93  O   UNL A   1      32.711  34.155  27.991  1.00  0.00    -0.237 OA
ATOM     94  O   UNL A   1      32.254  35.398  30.079  1.00  0.00    -0.237 OA
ATOM     95  O   UNL A   1      33.739  36.366  28.367  1.00  0.00    -0.744 OA
ENDBRANCH  91  92
ENDBRANCH  59  84
ENDBRANCH  33  34
ENDBRANCH  26  28
ENDBRANCH  25  26
ENDBRANCH  24  25
ENDBRANCH   1  24
TORSDOF 19
ENDMDL
