MODEL 1
REMARK VINA RESULT:     -11.8      0.000      0.000
REMARK SMILES Nc1ncccc1C[N@@H+]1CC2(CC[NH2+]CC2)C[C@H]1C(=O)OCCOC(=O)c1ccc(-c2c3nc(c(-c4c(F)cc(S(=O)(=O)[O-])cc4F)c4ccc([nH]4)c(-c4c(F)cc(S(=O)(=O)[O-])cc4F)c4nc(c(-c5c(F)cc(S(=O)(=O)[O-])cc5F)c5ccc2[nH]5)C=C4)C=C3)cc1
REMARK SMILES IDX 22 1 21 2 19 3 20 4 18 5 9 6 10 7 11 9 17 10 12 11 16 12
REMARK SMILES IDX 13 13 15 14 14 15 8 18 7 19 2 20 3 21 4 22 6 23 5 24 1 25
REMARK SMILES IDX 23 28 24 29 25 30 26 31 27 32 28 33 92 34 29 35 91 36 30 37
REMARK SMILES IDX 31 38 32 39 85 40 33 41 90 42 84 43 86 44 34 45 89 46 83 47
REMARK SMILES IDX 82 48 35 50 69 51 48 52 68 53 49 54 52 55 67 56 87 57 50 58
REMARK SMILES IDX 51 59 66 61 88 62 53 63 36 64 37 65 46 66 38 67 39 68 45 69
REMARK SMILES IDX 47 70 40 71 41 72 42 73 43 74 44 75 70 76 71 77 80 78 72 79
REMARK SMILES IDX 73 80 79 81 81 82 74 83 75 84 76 85 77 86 78 87 54 88 55 89
REMARK SMILES IDX 64 90 56 91 57 92 63 93 65 94 58 95 59 96 60 97 61 98 62 99
REMARK H PARENT 9 8 14 16 14 17 1 26 1 27 86 49 52 60
REMARK Flexibility Score: inf
ROOT
ATOM      1  C   UNL A   1      37.504  22.617  25.296  1.00  0.00     0.274 C 
ENDROOT
BRANCH   1   2
ATOM      2  O   UNL A   1      36.578  21.602  25.721  1.00  0.00    -0.458 OA
BRANCH   2   3
ATOM      3  C   UNL A   1      35.302  22.008  25.965  1.00  0.00     0.365 C 
ATOM      4  O   UNL A   1      34.954  22.594  26.987  1.00  0.00    -0.245 OA
BRANCH   3   5
ATOM      5  C   UNL A   1      34.293  21.606  24.878  1.00  0.00     0.296 C 
ATOM      6  N   UNL A   1      32.895  21.969  25.188  1.00  0.00    -0.319 N 
ATOM      7  C   UNL A   1      32.608  23.267  24.576  1.00  0.00     0.270 C 
ATOM      8  H   UNL A   1      32.802  22.068  26.199  1.00  0.00     0.349 HD
ATOM      9  C   UNL A   1      33.736  23.589  23.566  1.00  0.00     0.036 C 
ATOM     10  C   UNL A   1      34.606  22.318  23.567  1.00  0.00     0.091 C 
ATOM     11  C   UNL A   1      34.567  24.822  23.997  1.00  0.00     0.074 C 
ATOM     12  C   UNL A   1      33.194  23.880  22.151  1.00  0.00     0.074 C 
ATOM     13  C   UNL A   1      33.799  26.136  23.836  1.00  0.00     0.261 C 
ATOM     14  C   UNL A   1      32.437  25.205  22.081  1.00  0.00     0.261 C 
ATOM     15  N   UNL A   1      33.295  26.321  22.474  1.00  0.00    -0.346 N 
ATOM     16  H   UNL A   1      34.085  26.377  21.831  1.00  0.00     0.346 HD
ATOM     17  H   UNL A   1      32.748  27.181  22.441  1.00  0.00     0.346 HD
BRANCH   6  18
ATOM     18  C   UNL A   1      31.896  20.906  24.949  1.00  0.00     0.303 C 
BRANCH  18  19
ATOM     19  C   UNL A   1      32.413  19.567  24.460  1.00  0.00     0.048 A 
ATOM     20  C   UNL A   1      32.979  18.616  25.312  1.00  0.00     0.132 A 
ATOM     21  N   UNL A   1      33.645  17.535  24.866  1.00  0.00    -0.239 NA
ATOM     22  C   UNL A   1      33.694  17.327  23.537  1.00  0.00     0.113 A 
ATOM     23  C   UNL A   1      32.397  19.262  23.094  1.00  0.00     0.015 A 
ATOM     24  C   UNL A   1      33.061  18.137  22.618  1.00  0.00     0.021 A 
BRANCH  20  25
ATOM     25  N   UNL A   1      32.919  18.711  26.688  1.00  0.00    -0.383 N 
ATOM     26  H   UNL A   1      33.748  18.758  27.215  1.00  0.00     0.158 HD
ATOM     27  H   UNL A   1      32.045  18.732  27.142  1.00  0.00     0.158 HD
ENDBRANCH  20  25
ENDBRANCH  18  19
ENDBRANCH   6  18
ENDBRANCH   3   5
ENDBRANCH   2   3
ENDBRANCH   1   2
BRANCH   1  28
ATOM     28  C   UNL A   1      38.548  22.895  26.376  1.00  0.00     0.275 C 
BRANCH  28  29
ATOM     29  O   UNL A   1      38.789  24.305  26.505  1.00  0.00    -0.458 OA
BRANCH  29  30
ATOM     30  C   UNL A   1      40.092  24.650  26.629  1.00  0.00     0.338 C 
ATOM     31  O   UNL A   1      41.021  24.326  25.912  1.00  0.00    -0.246 OA
BRANCH  30  32
ATOM     32  C   UNL A   1      40.234  25.585  27.754  1.00  0.00     0.060 A 
ATOM     33  C   UNL A   1      39.237  25.596  28.729  1.00  0.00     0.016 A 
ATOM     34  C   UNL A   1      41.286  26.499  27.799  1.00  0.00     0.016 A 
ATOM     35  C   UNL A   1      39.275  26.542  29.748  1.00  0.00     0.010 A 
ATOM     36  C   UNL A   1      41.324  27.447  28.827  1.00  0.00     0.010 A 
ATOM     37  C   UNL A   1      40.306  27.488  29.795  1.00  0.00    -0.014 A 
BRANCH  37  38
ATOM     38  C   UNL A   1      40.268  28.561  30.817  1.00  0.00     0.031 A 
ATOM     39  C   UNL A   1      41.229  28.516  31.974  1.00  0.00     0.074 A 
ATOM     40  C   UNL A   1      39.412  29.592  30.685  1.00  0.00     0.049 A 
ATOM     41  N   UNL A   1      41.301  29.296  33.020  1.00  0.00    -0.248 NA
ATOM     42  C   UNL A   1      42.248  27.454  31.944  1.00  0.00     0.031 C 
ATOM     43  C   UNL A   1      38.481  29.780  29.570  1.00  0.00     0.029 A 
ATOM     44  N   UNL A   1      39.188  30.676  31.493  1.00  0.00    -0.354 N 
ATOM     45  C   UNL A   1      42.363  28.819  33.778  1.00  0.00     0.074 A 
ATOM     46  C   UNL A   1      42.896  27.668  33.082  1.00  0.00     0.031 C 
ATOM     47  C   UNL A   1      37.782  30.910  29.770  1.00  0.00     0.029 A 
ATOM     48  C   UNL A   1      38.181  31.499  31.045  1.00  0.00     0.049 A 
ATOM     49  H   UNL A   1      39.698  30.850  32.318  1.00  0.00     0.167 HD
ATOM     50  C   UNL A   1      42.853  29.303  34.945  1.00  0.00     0.037 A 
ATOM     51  C   UNL A   1      37.625  32.585  31.615  1.00  0.00     0.037 A 
ATOM     52  C   UNL A   1      42.320  30.452  35.630  1.00  0.00     0.049 A 
ATOM     53  C   UNL A   1      38.135  33.054  32.953  1.00  0.00     0.074 A 
ATOM     54  C   UNL A   1      42.717  30.996  36.839  1.00  0.00     0.029 A 
ATOM     55  N   UNL A   1      41.282  31.241  35.158  1.00  0.00    -0.354 N 
ATOM     56  N   UNL A   1      39.108  32.562  33.682  1.00  0.00    -0.248 NA
ATOM     57  C   UNL A   1      37.466  34.218  33.549  1.00  0.00     0.031 C 
ATOM     58  C   UNL A   1      41.902  32.100  37.111  1.00  0.00     0.029 A 
ATOM     59  C   UNL A   1      41.022  32.265  36.053  1.00  0.00     0.049 A 
ATOM     60  H   UNL A   1      40.800  31.094  34.312  1.00  0.00     0.167 HD
ATOM     61  C   UNL A   1      39.184  33.373  34.809  1.00  0.00     0.074 A 
ATOM     62  C   UNL A   1      38.167  34.393  34.661  1.00  0.00     0.031 C 
ATOM     63  C   UNL A   1      40.018  33.282  35.874  1.00  0.00     0.037 A 
BRANCH  50  64
ATOM     64  C   UNL A   1      44.018  28.585  35.564  1.00  0.00     0.058 A 
ATOM     65  C   UNL A   1      43.830  27.531  36.471  1.00  0.00     0.135 A 
ATOM     66  C   UNL A   1      45.335  28.921  35.210  1.00  0.00     0.135 A 
ATOM     67  F   UNL A   1      42.592  27.185  36.859  1.00  0.00    -0.206 F 
ATOM     68  C   UNL A   1      44.909  26.838  37.013  1.00  0.00     0.059 A 
ATOM     69  C   UNL A   1      46.428  28.229  35.724  1.00  0.00     0.059 A 
ATOM     70  F   UNL A   1      45.568  29.925  34.351  1.00  0.00    -0.206 F 
ATOM     71  C   UNL A   1      46.204  27.195  36.632  1.00  0.00     0.060 A 
BRANCH  71  72
ATOM     72  S   UNL A   1      47.593  26.272  37.327  1.00  0.00     0.124 S 
ATOM     73  O   UNL A   1      46.901  25.282  38.149  1.00  0.00    -0.237 OA
ATOM     74  O   UNL A   1      48.253  25.754  36.135  1.00  0.00    -0.237 OA
ATOM     75  O   UNL A   1      48.339  27.286  38.065  1.00  0.00    -0.744 OA
ENDBRANCH  71  72
ENDBRANCH  50  64
BRANCH  51  76
ATOM     76  C   UNL A   1      36.494  33.288  30.952  1.00  0.00     0.058 A 
ATOM     77  C   UNL A   1      36.707  34.128  29.850  1.00  0.00     0.135 A 
ATOM     78  C   UNL A   1      35.182  33.164  31.436  1.00  0.00     0.135 A 
ATOM     79  F   UNL A   1      37.946  34.287  29.358  1.00  0.00    -0.206 F 
ATOM     80  C   UNL A   1      35.667  34.848  29.270  1.00  0.00     0.059 A 
ATOM     81  C   UNL A   1      34.121  33.852  30.856  1.00  0.00     0.059 A 
ATOM     82  F   UNL A   1      34.922  32.364  32.481  1.00  0.00    -0.206 F 
ATOM     83  C   UNL A   1      34.378  34.708  29.786  1.00  0.00     0.060 A 
BRANCH  83  84
ATOM     84  S   UNL A   1      33.029  35.641  29.031  1.00  0.00     0.124 S 
ATOM     85  O   UNL A   1      32.404  34.624  28.194  1.00  0.00    -0.237 OA
ATOM     86  O   UNL A   1      32.259  36.073  30.193  1.00  0.00    -0.237 OA
ATOM     87  O   UNL A   1      33.721  36.710  28.318  1.00  0.00    -0.744 OA
ENDBRANCH  83  84
ENDBRANCH  51  76
BRANCH  63  88
ATOM     88  C   UNL A   1      39.896  34.337  36.936  1.00  0.00     0.058 A 
ATOM     89  C   UNL A   1      40.586  35.555  36.845  1.00  0.00     0.135 A 
ATOM     90  C   UNL A   1      39.043  34.143  38.034  1.00  0.00     0.135 A 
ATOM     91  F   UNL A   1      41.418  35.786  35.817  1.00  0.00    -0.206 F 
ATOM     92  C   UNL A   1      40.450  36.540  37.819  1.00  0.00     0.059 A 
ATOM     93  C   UNL A   1      38.875  35.122  39.008  1.00  0.00     0.059 A 
ATOM     94  F   UNL A   1      38.354  32.999  38.160  1.00  0.00    -0.206 F 
ATOM     95  C   UNL A   1      39.593  36.313  38.897  1.00  0.00     0.060 A 
BRANCH  95  96
ATOM     96  S   UNL A   1      39.397  37.609  40.139  1.00  0.00     0.124 S 
ATOM     97  O   UNL A   1      40.766  38.099  40.269  1.00  0.00    -0.237 OA
ATOM     98  O   UNL A   1      38.456  38.521  39.498  1.00  0.00    -0.237 OA
ATOM     99  O   UNL A   1      38.875  36.892  41.298  1.00  0.00    -0.744 OA
ENDBRANCH  95  96
ENDBRANCH  63  88
ENDBRANCH  37  38
ENDBRANCH  30  32
ENDBRANCH  29  30
ENDBRANCH  28  29
ENDBRANCH   1  28
TORSDOF 17
ENDMDL
MODEL 2
REMARK VINA RESULT:     -11.8      3.263      5.000
REMARK SMILES Nc1ncccc1C[N@@H+]1CC2(CC[NH2+]CC2)C[C@H]1C(=O)OCCOC(=O)c1ccc(-c2c3nc(c(-c4c(F)cc(S(=O)(=O)[O-])cc4F)c4ccc([nH]4)c(-c4c(F)cc(S(=O)(=O)[O-])cc4F)c4nc(c(-c5c(F)cc(S(=O)(=O)[O-])cc5F)c5ccc2[nH]5)C=C4)C=C3)cc1
REMARK SMILES IDX 22 1 21 2 19 3 20 4 18 5 9 6 10 7 11 9 17 10 12 11 16 12
REMARK SMILES IDX 13 13 15 14 14 15 8 18 7 19 2 20 3 21 4 22 6 23 5 24 1 25
REMARK SMILES IDX 23 28 24 29 25 30 26 31 27 32 28 33 92 34 29 35 91 36 30 37
REMARK SMILES IDX 31 38 32 39 85 40 33 41 90 42 84 43 86 44 34 45 89 46 83 47
REMARK SMILES IDX 82 48 35 50 69 51 48 52 68 53 49 54 52 55 67 56 87 57 50 58
REMARK SMILES IDX 51 59 66 61 88 62 53 63 36 64 37 65 46 66 38 67 39 68 45 69
REMARK SMILES IDX 47 70 40 71 41 72 42 73 43 74 44 75 70 76 71 77 80 78 72 79
REMARK SMILES IDX 73 80 79 81 81 82 74 83 75 84 76 85 77 86 78 87 54 88 55 89
REMARK SMILES IDX 64 90 56 91 57 92 63 93 65 94 58 95 59 96 60 97 61 98 62 99
REMARK H PARENT 9 8 14 16 14 17 1 26 1 27 86 49 52 60
REMARK Flexibility Score: inf
ROOT
ATOM      1  C   UNL A   1      35.023  24.351  25.341  1.00  0.00     0.274 C 
ENDROOT
BRANCH   1   2
ATOM      2  O   UNL A   1      34.516  24.874  24.100  1.00  0.00    -0.458 OA
BRANCH   2   3
ATOM      3  C   UNL A   1      33.168  25.054  24.023  1.00  0.00     0.365 C 
ATOM      4  O   UNL A   1      32.345  24.220  24.388  1.00  0.00    -0.245 OA
BRANCH   3   5
ATOM      5  C   UNL A   1      32.745  26.376  23.363  1.00  0.00     0.296 C 
ATOM      6  N   UNL A   1      31.330  26.734  23.582  1.00  0.00    -0.319 N 
ATOM      7  C   UNL A   1      31.251  27.618  24.746  1.00  0.00     0.270 C 
ATOM      8  H   UNL A   1      30.809  25.882  23.796  1.00  0.00     0.349 HD
ATOM      9  C   UNL A   1      32.680  28.113  25.077  1.00  0.00     0.036 C 
ATOM     10  C   UNL A   1      33.542  27.541  23.937  1.00  0.00     0.091 C 
ATOM     11  C   UNL A   1      33.172  27.591  26.450  1.00  0.00     0.074 C 
ATOM     12  C   UNL A   1      32.775  29.652  25.117  1.00  0.00     0.074 C 
ATOM     13  C   UNL A   1      32.466  28.272  27.626  1.00  0.00     0.261 C 
ATOM     14  C   UNL A   1      32.040  30.249  26.317  1.00  0.00     0.261 C 
ATOM     15  N   UNL A   1      32.580  29.731  27.573  1.00  0.00    -0.346 N 
ATOM     16  H   UNL A   1      33.564  29.992  27.646  1.00  0.00     0.346 HD
ATOM     17  H   UNL A   1      32.048  30.129  28.346  1.00  0.00     0.346 HD
BRANCH   6  18
ATOM     18  C   UNL A   1      30.594  27.181  22.381  1.00  0.00     0.303 C 
BRANCH  18  19
ATOM     19  C   UNL A   1      29.614  28.324  22.555  1.00  0.00     0.048 A 
ATOM     20  C   UNL A   1      29.949  29.656  22.296  1.00  0.00     0.132 A 
ATOM     21  N   UNL A   1      29.173  30.692  22.663  1.00  0.00    -0.239 NA
ATOM     22  C   UNL A   1      27.985  30.421  23.235  1.00  0.00     0.113 A 
ATOM     23  C   UNL A   1      28.330  28.082  23.057  1.00  0.00     0.015 A 
ATOM     24  C   UNL A   1      27.507  29.142  23.421  1.00  0.00     0.021 A 
BRANCH  20  25
ATOM     25  N   UNL A   1      31.114  30.025  21.653  1.00  0.00    -0.383 N 
ATOM     26  H   UNL A   1      31.851  30.429  22.164  1.00  0.00     0.158 HD
ATOM     27  H   UNL A   1      31.206  29.884  20.683  1.00  0.00     0.158 HD
ENDBRANCH  20  25
ENDBRANCH  18  19
ENDBRANCH   6  18
ENDBRANCH   3   5
ENDBRANCH   2   3
ENDBRANCH   1   2
BRANCH   1  28
ATOM     28  C   UNL A   1      36.095  23.292  25.092  1.00  0.00     0.275 C 
BRANCH  28  29
ATOM     29  O   UNL A   1      37.398  23.891  25.017  1.00  0.00    -0.458 OA
BRANCH  29  30
ATOM     30  C   UNL A   1      38.337  23.310  25.800  1.00  0.00     0.338 C 
ATOM     31  O   UNL A   1      38.699  22.147  25.795  1.00  0.00    -0.246 OA
BRANCH  30  32
ATOM     32  C   UNL A   1      38.957  24.339  26.646  1.00  0.00     0.060 A 
ATOM     33  C   UNL A   1      38.558  24.420  27.980  1.00  0.00     0.016 A 
ATOM     34  C   UNL A   1      39.851  25.266  26.111  1.00  0.00     0.016 A 
ATOM     35  C   UNL A   1      39.035  25.451  28.784  1.00  0.00     0.010 A 
ATOM     36  C   UNL A   1      40.332  26.299  26.923  1.00  0.00     0.010 A 
ATOM     37  C   UNL A   1      39.909  26.410  28.259  1.00  0.00    -0.014 A 
BRANCH  37  38
ATOM     38  C   UNL A   1      40.316  27.565  29.094  1.00  0.00     0.031 A 
ATOM     39  C   UNL A   1      41.646  27.540  29.795  1.00  0.00     0.074 A 
ATOM     40  C   UNL A   1      39.520  28.647  29.185  1.00  0.00     0.049 A 
ATOM     41  N   UNL A   1      42.151  28.398  30.642  1.00  0.00    -0.248 NA
ATOM     42  C   UNL A   1      42.529  26.400  29.496  1.00  0.00     0.031 C 
ATOM     43  C   UNL A   1      38.239  28.815  28.495  1.00  0.00     0.029 A 
ATOM     44  N   UNL A   1      39.672  29.811  29.894  1.00  0.00    -0.354 N 
ATOM     45  C   UNL A   1      43.403  27.902  30.986  1.00  0.00     0.074 A 
ATOM     46  C   UNL A   1      43.575  26.656  30.271  1.00  0.00     0.031 C 
ATOM     47  C   UNL A   1      37.721  30.011  28.821  1.00  0.00     0.029 A 
ATOM     48  C   UNL A   1      38.606  30.672  29.775  1.00  0.00     0.049 A 
ATOM     49  H   UNL A   1      40.469  30.012  30.438  1.00  0.00     0.167 HD
ATOM     50  C   UNL A   1      44.326  28.442  31.818  1.00  0.00     0.037 A 
ATOM     51  C   UNL A   1      38.361  31.844  30.391  1.00  0.00     0.037 A 
ATOM     52  C   UNL A   1      44.149  29.684  32.523  1.00  0.00     0.049 A 
ATOM     53  C   UNL A   1      39.368  32.381  31.374  1.00  0.00     0.074 A 
ATOM     54  C   UNL A   1      45.005  30.295  33.423  1.00  0.00     0.029 A 
ATOM     55  N   UNL A   1      43.043  30.512  32.399  1.00  0.00    -0.354 N 
ATOM     56  N   UNL A   1      40.526  31.876  31.727  1.00  0.00    -0.248 NA
ATOM     57  C   UNL A   1      39.032  33.643  32.048  1.00  0.00     0.031 C 
ATOM     58  C   UNL A   1      44.407  31.481  33.861  1.00  0.00     0.029 A 
ATOM     59  C   UNL A   1      43.194  31.626  33.207  1.00  0.00     0.049 A 
ATOM     60  H   UNL A   1      42.266  30.334  31.822  1.00  0.00     0.167 HD
ATOM     61  C   UNL A   1      41.067  32.771  32.643  1.00  0.00     0.074 A 
ATOM     62  C   UNL A   1      40.115  33.854  32.783  1.00  0.00     0.031 C 
ATOM     63  C   UNL A   1      42.243  32.703  33.314  1.00  0.00     0.037 A 
BRANCH  50  64
ATOM     64  C   UNL A   1      45.608  27.687  32.022  1.00  0.00     0.058 A 
ATOM     65  C   UNL A   1      45.755  26.762  33.067  1.00  0.00     0.135 A 
ATOM     66  C   UNL A   1      46.684  27.852  31.134  1.00  0.00     0.135 A 
ATOM     67  F   UNL A   1      44.765  26.582  33.955  1.00  0.00    -0.206 F 
ATOM     68  C   UNL A   1      46.929  26.032  33.231  1.00  0.00     0.059 A 
ATOM     69  C   UNL A   1      47.859  27.118  31.267  1.00  0.00     0.059 A 
ATOM     70  F   UNL A   1      46.596  28.728  30.122  1.00  0.00    -0.206 F 
ATOM     71  C   UNL A   1      47.975  26.217  32.325  1.00  0.00     0.060 A 
BRANCH  71  72
ATOM     72  S   UNL A   1      49.483  25.246  32.538  1.00  0.00     0.124 S 
ATOM     73  O   UNL A   1      50.374  26.225  33.154  1.00  0.00    -0.237 OA
ATOM     74  O   UNL A   1      49.038  24.161  33.406  1.00  0.00    -0.237 OA
ATOM     75  O   UNL A   1      49.829  24.853  31.176  1.00  0.00    -0.744 OA
ENDBRANCH  71  72
ENDBRANCH  50  64
BRANCH  51  76
ATOM     76  C   UNL A   1      37.093  32.577  30.136  1.00  0.00     0.058 A 
ATOM     77  C   UNL A   1      37.008  33.556  29.135  1.00  0.00     0.135 A 
ATOM     78  C   UNL A   1      35.950  32.342  30.918  1.00  0.00     0.135 A 
ATOM     79  F   UNL A   1      38.077  33.824  28.368  1.00  0.00    -0.206 F 
ATOM     80  C   UNL A   1      35.849  34.300  28.939  1.00  0.00     0.059 A 
ATOM     81  C   UNL A   1      34.771  33.053  30.723  1.00  0.00     0.059 A 
ATOM     82  F   UNL A   1      35.975  31.408  31.881  1.00  0.00    -0.206 F 
ATOM     83  C   UNL A   1      34.737  34.045  29.743  1.00  0.00     0.060 A 
BRANCH  83  84
ATOM     84  S   UNL A   1      33.233  35.010  29.486  1.00  0.00     0.124 S 
ATOM     85  O   UNL A   1      32.562  34.233  28.452  1.00  0.00    -0.237 OA
ATOM     86  O   UNL A   1      32.614  34.982  30.808  1.00  0.00    -0.237 OA
ATOM     87  O   UNL A   1      33.740  36.314  29.069  1.00  0.00    -0.744 OA
ENDBRANCH  83  84
ENDBRANCH  51  76
BRANCH  63  88
ATOM     88  C   UNL A   1      42.586  33.851  34.220  1.00  0.00     0.058 A 
ATOM     89  C   UNL A   1      42.363  33.788  35.603  1.00  0.00     0.135 A 
ATOM     90  C   UNL A   1      43.188  35.009  33.701  1.00  0.00     0.135 A 
ATOM     91  F   UNL A   1      41.785  32.704  36.146  1.00  0.00    -0.206 F 
ATOM     92  C   UNL A   1      42.706  34.844  36.442  1.00  0.00     0.059 A 
ATOM     93  C   UNL A   1      43.559  36.068  34.523  1.00  0.00     0.059 A 
ATOM     94  F   UNL A   1      43.431  35.112  32.386  1.00  0.00    -0.206 F 
ATOM     95  C   UNL A   1      43.302  35.980  35.892  1.00  0.00     0.060 A 
BRANCH  95  96
ATOM     96  S   UNL A   1      43.775  37.332  36.991  1.00  0.00     0.124 S 
ATOM     97  O   UNL A   1      44.935  36.764  37.671  1.00  0.00    -0.237 OA
ATOM     98  O   UNL A   1      44.058  38.415  36.056  1.00  0.00    -0.237 OA
ATOM     99  O   UNL A   1      42.591  37.522  37.822  1.00  0.00    -0.744 OA
ENDBRANCH  95  96
ENDBRANCH  63  88
ENDBRANCH  37  38
ENDBRANCH  30  32
ENDBRANCH  29  30
ENDBRANCH  28  29
ENDBRANCH   1  28
TORSDOF 17
ENDMDL
MODEL 3
REMARK VINA RESULT:     -11.8      7.062     11.959
REMARK SMILES Nc1ncccc1C[N@@H+]1CC2(CC[NH2+]CC2)C[C@H]1C(=O)OCCOC(=O)c1ccc(-c2c3nc(c(-c4c(F)cc(S(=O)(=O)[O-])cc4F)c4ccc([nH]4)c(-c4c(F)cc(S(=O)(=O)[O-])cc4F)c4nc(c(-c5c(F)cc(S(=O)(=O)[O-])cc5F)c5ccc2[nH]5)C=C4)C=C3)cc1
REMARK SMILES IDX 22 1 21 2 19 3 20 4 18 5 9 6 10 7 11 9 17 10 12 11 16 12
REMARK SMILES IDX 13 13 15 14 14 15 8 18 7 19 2 20 3 21 4 22 6 23 5 24 1 25
REMARK SMILES IDX 23 28 24 29 25 30 26 31 27 32 28 33 92 34 29 35 91 36 30 37
REMARK SMILES IDX 31 38 32 39 85 40 33 41 90 42 84 43 86 44 34 45 89 46 83 47
REMARK SMILES IDX 82 48 35 50 69 51 48 52 68 53 49 54 52 55 67 56 87 57 50 58
REMARK SMILES IDX 51 59 66 61 88 62 53 63 36 64 37 65 46 66 38 67 39 68 45 69
REMARK SMILES IDX 47 70 40 71 41 72 42 73 43 74 44 75 70 76 71 77 80 78 72 79
REMARK SMILES IDX 73 80 79 81 81 82 74 83 75 84 76 85 77 86 78 87 54 88 55 89
REMARK SMILES IDX 64 90 56 91 57 92 63 93 65 94 58 95 59 96 60 97 61 98 62 99
REMARK H PARENT 9 8 14 16 14 17 1 26 1 27 86 49 52 60
REMARK Flexibility Score: inf
ROOT
ATOM      1  C   UNL A   1      33.523  30.200  27.184  1.00  0.00     0.274 C 
ENDROOT
BRANCH   1   2
ATOM      2  O   UNL A   1      32.421  29.374  26.768  1.00  0.00    -0.458 OA
BRANCH   2   3
ATOM      3  C   UNL A   1      32.325  29.118  25.434  1.00  0.00     0.365 C 
ATOM      4  O   UNL A   1      32.949  29.731  24.572  1.00  0.00    -0.245 OA
BRANCH   3   5
ATOM      5  C   UNL A   1      31.300  28.030  25.073  1.00  0.00     0.296 C 
ATOM      6  N   UNL A   1      31.498  27.436  23.736  1.00  0.00    -0.319 N 
ATOM      7  C   UNL A   1      32.308  26.225  23.882  1.00  0.00     0.270 C 
ATOM      8  H   UNL A   1      32.019  28.098  23.160  1.00  0.00     0.349 HD
ATOM      9  C   UNL A   1      32.347  25.846  25.383  1.00  0.00     0.036 C 
ATOM     10  C   UNL A   1      31.396  26.861  26.045  1.00  0.00     0.091 C 
ATOM     11  C   UNL A   1      33.773  25.965  25.975  1.00  0.00     0.074 C 
ATOM     12  C   UNL A   1      31.870  24.401  25.637  1.00  0.00     0.074 C 
ATOM     13  C   UNL A   1      34.710  24.858  25.483  1.00  0.00     0.261 C 
ATOM     14  C   UNL A   1      32.859  23.362  25.110  1.00  0.00     0.261 C 
ATOM     15  N   UNL A   1      34.170  23.521  25.737  1.00  0.00    -0.346 N 
ATOM     16  H   UNL A   1      34.078  23.384  26.743  1.00  0.00     0.346 HD
ATOM     17  H   UNL A   1      34.807  22.830  25.340  1.00  0.00     0.346 HD
BRANCH   6  18
ATOM     18  C   UNL A   1      30.276  27.300  22.915  1.00  0.00     0.303 C 
BRANCH  18  19
ATOM     19  C   UNL A   1      29.422  28.540  22.736  1.00  0.00     0.048 A 
ATOM     20  C   UNL A   1      29.934  29.753  22.271  1.00  0.00     0.132 A 
ATOM     21  N   UNL A   1      29.247  30.909  22.327  1.00  0.00    -0.239 NA
ATOM     22  C   UNL A   1      27.980  30.871  22.781  1.00  0.00     0.113 A 
ATOM     23  C   UNL A   1      28.070  28.523  23.102  1.00  0.00     0.015 A 
ATOM     24  C   UNL A   1      27.340  29.705  23.145  1.00  0.00     0.021 A 
BRANCH  20  25
ATOM     25  N   UNL A   1      31.197  29.875  21.728  1.00  0.00    -0.383 N 
ATOM     26  H   UNL A   1      31.307  30.205  20.808  1.00  0.00     0.158 HD
ATOM     27  H   UNL A   1      31.987  29.632  22.262  1.00  0.00     0.158 HD
ENDBRANCH  20  25
ENDBRANCH  18  19
ENDBRANCH   6  18
ENDBRANCH   3   5
ENDBRANCH   2   3
ENDBRANCH   1   2
BRANCH   1  28
ATOM     28  C   UNL A   1      34.698  29.349  27.660  1.00  0.00     0.275 C 
BRANCH  28  29
ATOM     29  O   UNL A   1      35.787  30.177  28.096  1.00  0.00    -0.458 OA
BRANCH  29  30
ATOM     30  C   UNL A   1      36.397  29.763  29.232  1.00  0.00     0.338 C 
ATOM     31  O   UNL A   1      35.876  29.443  30.285  1.00  0.00    -0.246 OA
BRANCH  30  32
ATOM     32  C   UNL A   1      37.842  29.661  28.988  1.00  0.00     0.060 A 
ATOM     33  C   UNL A   1      38.284  29.623  27.666  1.00  0.00     0.016 A 
ATOM     34  C   UNL A   1      38.740  29.517  30.045  1.00  0.00     0.016 A 
ATOM     35  C   UNL A   1      39.632  29.414  27.392  1.00  0.00     0.010 A 
ATOM     36  C   UNL A   1      40.096  29.311  29.767  1.00  0.00     0.010 A 
ATOM     37  C   UNL A   1      40.546  29.236  28.437  1.00  0.00    -0.014 A 
BRANCH  37  38
ATOM     38  C   UNL A   1      41.956  28.898  28.128  1.00  0.00     0.031 A 
ATOM     39  C   UNL A   1      42.324  27.476  27.807  1.00  0.00     0.074 A 
ATOM     40  C   UNL A   1      42.890  29.867  28.087  1.00  0.00     0.049 A 
ATOM     41  N   UNL A   1      43.504  26.953  27.602  1.00  0.00    -0.248 NA
ATOM     42  C   UNL A   1      41.213  26.515  27.696  1.00  0.00     0.031 C 
ATOM     43  C   UNL A   1      42.640  31.293  28.313  1.00  0.00     0.029 A 
ATOM     44  N   UNL A   1      44.237  29.800  27.842  1.00  0.00    -0.354 N 
ATOM     45  C   UNL A   1      43.284  25.605  27.347  1.00  0.00     0.074 A 
ATOM     46  C   UNL A   1      41.857  25.384  27.442  1.00  0.00     0.031 C 
ATOM     47  C   UNL A   1      43.799  31.963  28.200  1.00  0.00     0.029 A 
ATOM     48  C   UNL A   1      44.877  31.013  27.942  1.00  0.00     0.049 A 
ATOM     49  H   UNL A   1      44.704  28.962  27.616  1.00  0.00     0.167 HD
ATOM     50  C   UNL A   1      44.190  24.642  27.053  1.00  0.00     0.037 A 
ATOM     51  C   UNL A   1      46.187  31.316  27.865  1.00  0.00     0.037 A 
ATOM     52  C   UNL A   1      45.608  24.869  26.956  1.00  0.00     0.049 A 
ATOM     53  C   UNL A   1      47.182  30.212  27.618  1.00  0.00     0.074 A 
ATOM     54  C   UNL A   1      46.614  23.952  26.708  1.00  0.00     0.029 A 
ATOM     55  N   UNL A   1      46.220  26.107  27.092  1.00  0.00    -0.354 N 
ATOM     56  N   UNL A   1      46.963  28.932  27.428  1.00  0.00    -0.248 NA
ATOM     57  C   UNL A   1      48.601  30.591  27.584  1.00  0.00     0.031 C 
ATOM     58  C   UNL A   1      47.838  24.631  26.717  1.00  0.00     0.029 A 
ATOM     59  C   UNL A   1      47.590  25.976  26.936  1.00  0.00     0.049 A 
ATOM     60  H   UNL A   1      45.751  26.953  27.275  1.00  0.00     0.167 HD
ATOM     61  C   UNL A   1      48.214  28.360  27.227  1.00  0.00     0.074 A 
ATOM     62  C   UNL A   1      49.184  29.432  27.307  1.00  0.00     0.031 C 
ATOM     63  C   UNL A   1      48.534  27.062  26.999  1.00  0.00     0.037 A 
BRANCH  50  64
ATOM     64  C   UNL A   1      43.679  23.248  26.826  1.00  0.00     0.058 A 
ATOM     65  C   UNL A   1      43.683  22.665  25.549  1.00  0.00     0.135 A 
ATOM     66  C   UNL A   1      43.226  22.467  27.903  1.00  0.00     0.135 A 
ATOM     67  F   UNL A   1      44.086  23.375  24.483  1.00  0.00    -0.206 F 
ATOM     68  C   UNL A   1      43.249  21.359  25.345  1.00  0.00     0.059 A 
ATOM     69  C   UNL A   1      42.806  21.153  27.725  1.00  0.00     0.059 A 
ATOM     70  F   UNL A   1      43.198  22.980  29.142  1.00  0.00    -0.206 F 
ATOM     71  C   UNL A   1      42.813  20.610  26.440  1.00  0.00     0.060 A 
BRANCH  71  72
ATOM     72  S   UNL A   1      42.272  18.910  26.163  1.00  0.00     0.124 S 
ATOM     73  O   UNL A   1      42.509  18.312  27.475  1.00  0.00    -0.237 OA
ATOM     74  O   UNL A   1      40.873  19.081  25.790  1.00  0.00    -0.237 OA
ATOM     75  O   UNL A   1      43.151  18.444  25.095  1.00  0.00    -0.744 OA
ENDBRANCH  71  72
ENDBRANCH  50  64
BRANCH  51  76
ATOM     76  C   UNL A   1      46.649  32.715  28.063  1.00  0.00     0.058 A 
ATOM     77  C   UNL A   1      47.087  33.165  29.317  1.00  0.00     0.135 A 
ATOM     78  C   UNL A   1      46.623  33.643  27.009  1.00  0.00     0.135 A 
ATOM     79  F   UNL A   1      47.120  32.318  30.358  1.00  0.00    -0.206 F 
ATOM     80  C   UNL A   1      47.450  34.491  29.530  1.00  0.00     0.059 A 
ATOM     81  C   UNL A   1      47.007  34.967  27.190  1.00  0.00     0.059 A 
ATOM     82  F   UNL A   1      46.223  33.261  25.786  1.00  0.00    -0.206 F 
ATOM     83  C   UNL A   1      47.400  35.386  28.461  1.00  0.00     0.060 A 
BRANCH  83  84
ATOM     84  S   UNL A   1      47.873  37.106  28.739  1.00  0.00     0.124 S 
ATOM     85  O   UNL A   1      47.003  37.803  27.800  1.00  0.00    -0.237 OA
ATOM     86  O   UNL A   1      47.564  37.291  30.153  1.00  0.00    -0.237 OA
ATOM     87  O   UNL A   1      49.296  37.117  28.410  1.00  0.00    -0.744 OA
ENDBRANCH  83  84
ENDBRANCH  51  76
BRANCH  63  88
ATOM     88  C   UNL A   1      49.984  26.740  26.774  1.00  0.00     0.058 A 
ATOM     89  C   UNL A   1      50.853  26.475  27.844  1.00  0.00     0.135 A 
ATOM     90  C   UNL A   1      50.498  26.651  25.471  1.00  0.00     0.135 A 
ATOM     91  F   UNL A   1      50.410  26.553  29.109  1.00  0.00    -0.206 F 
ATOM     92  C   UNL A   1      52.189  26.152  27.629  1.00  0.00     0.059 A 
ATOM     93  C   UNL A   1      51.825  26.310  25.232  1.00  0.00     0.059 A 
ATOM     94  F   UNL A   1      49.704  26.887  24.415  1.00  0.00    -0.206 F 
ATOM     95  C   UNL A   1      52.665  26.074  26.319  1.00  0.00     0.060 A 
BRANCH  95  96
ATOM     96  S   UNL A   1      54.393  25.621  26.049  1.00  0.00     0.124 S 
ATOM     97  O   UNL A   1      54.795  25.190  27.384  1.00  0.00    -0.237 OA
ATOM     98  O   UNL A   1      54.289  24.566  25.047  1.00  0.00    -0.237 OA
ATOM     99  O   UNL A   1      54.999  26.864  25.582  1.00  0.00    -0.744 OA
ENDBRANCH  95  96
ENDBRANCH  63  88
ENDBRANCH  37  38
ENDBRANCH  30  32
ENDBRANCH  29  30
ENDBRANCH  28  29
ENDBRANCH   1  28
TORSDOF 17
ENDMDL
