MODEL 1
REMARK VINA RESULT:     -13.9      0.000      0.000
REMARK SMILES O=C(OCCOC(=O)c1ccc(-c2c3nc(c(-c4c(F)cc(S(=O)(=O)[O-])cc4F)c4ccc([nH]4)c(-c4c(F)cc(S(=O)(=O)[O-])cc4F)c4nc(c(-c5c(F)cc(S(=O)(=O)[O-])cc5F)c5ccc2[nH]5)C=C4)C=C3)cc1)C1=Cc2cc(Cl)cc(C#Cc3ccccc3)c2O[C@@H]1C(F)(F)F
REMARK SMILES IDX 5 1 4 2 3 3 2 4 1 5 75 6 76 7 93 8 77 9 92 10 78 11 91 12
REMARK SMILES IDX 79 13 82 14 80 15 81 16 94 17 95 18 96 19 97 20 83 21 84 22
REMARK SMILES IDX 85 23 86 24 90 25 87 26 89 27 88 28 6 29 7 30 8 31 9 32
REMARK SMILES IDX 10 33 74 34 11 35 73 36 12 37 13 38 14 39 67 40 15 41 72 42
REMARK SMILES IDX 66 43 68 44 16 45 71 46 65 47 64 48 17 50 51 51 30 52 50 53
REMARK SMILES IDX 31 54 34 55 49 56 69 57 32 58 33 59 48 61 70 62 35 63 18 64
REMARK SMILES IDX 19 65 28 66 20 67 21 68 27 69 29 70 22 71 23 72 24 73 25 74
REMARK SMILES IDX 26 75 52 76 53 77 62 78 54 79 55 80 61 81 63 82 56 83 57 84
REMARK SMILES IDX 58 85 59 86 60 87 36 88 37 89 46 90 38 91 39 92 45 93 47 94
REMARK SMILES IDX 40 95 41 96 42 97 43 98 44 99
REMARK H PARENT 68 49 34 60
REMARK Flexibility Score: inf
ROOT
ATOM      1  C   UNL A   1      32.480  30.052  26.522  1.00  0.00     0.275 C 
ENDROOT
BRANCH   1   2
ATOM      2  C   UNL A   1      31.885  27.978  26.177  1.00  0.00     0.275 C 
BRANCH   2   3
ATOM      3  O   UNL A   1      32.413  26.749  26.866  1.00  0.00    -0.459 OA
BRANCH   3   4
ATOM      4  C   UNL A   1      32.028  25.636  26.239  1.00  0.00     0.338 C 
ATOM      5  O   UNL A   1      31.394  24.717  26.698  1.00  0.00    -0.246 OA
BRANCH   4   6
ATOM      6  C   UNL A   1      32.993  25.671  25.137  1.00  0.00     0.087 C 
ATOM      7  C   UNL A   1      34.374  25.514  25.488  1.00  0.00     0.027 C 
ATOM      8  C   UNL A   1      31.960  24.398  24.159  1.00  0.00     0.316 C 
ATOM      9  C   UNL A   1      35.300  24.025  25.282  1.00  0.00     0.020 A 
ATOM     10  O   UNL A   1      32.871  22.662  24.085  1.00  0.00    -0.474 OA
ATOM     11  C   UNL A   1      36.601  24.060  25.691  1.00  0.00     0.032 A 
ATOM     12  C   UNL A   1      34.587  22.537  24.758  1.00  0.00     0.143 A 
ATOM     13  C   UNL A   1      37.232  22.819  25.713  1.00  0.00     0.043 A 
ATOM     14  C   UNL A   1      35.276  21.365  24.868  1.00  0.00     0.069 A 
ATOM     15  Cl  UNL A   1      38.874  22.799  26.271  1.00  0.00    -0.084 Cl
ATOM     16  C   UNL A   1      36.607  21.554  25.357  1.00  0.00     0.041 A 
BRANCH   8  17
ATOM     17  C   UNL A   1      31.727  25.692  23.087  1.00  0.00     0.430 C 
ATOM     18  F   UNL A   1      32.851  26.338  22.825  1.00  0.00    -0.167 F 
ATOM     19  F   UNL A   1      31.403  25.227  21.834  1.00  0.00    -0.167 F 
ATOM     20  F   UNL A   1      30.730  26.569  23.340  1.00  0.00    -0.167 F 
ENDBRANCH   8  17
BRANCH  14  21
ATOM     21  C   UNL A   1      34.792  20.043  24.709  1.00  0.00    -0.058 C 
ATOM     22  C   UNL A   1      34.314  18.949  24.774  1.00  0.00    -0.062 C 
BRANCH  22  23
ATOM     23  C   UNL A   1      33.800  17.629  24.962  1.00  0.00     0.025 A 
ATOM     24  C   UNL A   1      32.486  17.416  25.387  1.00  0.00     0.017 A 
ATOM     25  C   UNL A   1      34.657  16.548  24.763  1.00  0.00     0.017 A 
ATOM     26  C   UNL A   1      32.034  16.114  25.612  1.00  0.00     0.001 A 
ATOM     27  C   UNL A   1      34.205  15.250  24.990  1.00  0.00     0.001 A 
ATOM     28  C   UNL A   1      32.895  15.033  25.416  1.00  0.00     0.000 A 
ENDBRANCH  22  23
ENDBRANCH  14  21
ENDBRANCH   4   6
ENDBRANCH   3   4
ENDBRANCH   2   3
ENDBRANCH   1   2
BRANCH   1  29
ATOM     29  O   UNL A   1      33.390  30.540  27.967  1.00  0.00    -0.458 OA
BRANCH  29  30
ATOM     30  C   UNL A   1      34.539  31.233  28.348  1.00  0.00     0.338 C 
ATOM     31  O   UNL A   1      34.642  32.315  28.899  1.00  0.00    -0.246 OA
BRANCH  30  32
ATOM     32  C   UNL A   1      35.656  30.236  28.396  1.00  0.00     0.060 A 
ATOM     33  C   UNL A   1      36.519  30.104  27.282  1.00  0.00     0.016 A 
ATOM     34  C   UNL A   1      36.058  29.782  29.645  1.00  0.00     0.016 A 
ATOM     35  C   UNL A   1      37.877  29.769  27.493  1.00  0.00     0.010 A 
ATOM     36  C   UNL A   1      37.399  29.461  29.849  1.00  0.00     0.010 A 
ATOM     37  C   UNL A   1      38.339  29.533  28.799  1.00  0.00    -0.014 A 
BRANCH  37  38
ATOM     38  C   UNL A   1      39.698  28.998  29.077  1.00  0.00     0.031 A 
ATOM     39  C   UNL A   1      40.637  30.041  29.599  1.00  0.00     0.074 A 
ATOM     40  C   UNL A   1      40.143  27.765  28.750  1.00  0.00     0.049 A 
ATOM     41  N   UNL A   1      41.935  30.030  29.690  1.00  0.00    -0.248 NA
ATOM     42  C   UNL A   1      40.005  31.318  29.985  1.00  0.00     0.031 C 
ATOM     43  C   UNL A   1      39.342  26.661  28.222  1.00  0.00     0.029 A 
ATOM     44  N   UNL A   1      41.420  27.243  28.795  1.00  0.00    -0.354 N 
ATOM     45  C   UNL A   1      42.265  31.311  30.102  1.00  0.00     0.074 A 
ATOM     46  C   UNL A   1      41.057  32.094  30.134  1.00  0.00     0.031 C 
ATOM     47  C   UNL A   1      40.145  25.600  27.991  1.00  0.00     0.029 A 
ATOM     48  C   UNL A   1      41.528  25.952  28.315  1.00  0.00     0.049 A 
ATOM     49  H   UNL A   1      42.191  27.749  29.140  1.00  0.00     0.167 HD
ATOM     50  C   UNL A   1      43.470  31.794  30.464  1.00  0.00     0.037 A 
ATOM     51  C   UNL A   1      42.620  25.169  28.148  1.00  0.00     0.037 A 
ATOM     52  C   UNL A   1      44.665  31.011  30.420  1.00  0.00     0.049 A 
ATOM     53  C   UNL A   1      43.980  25.731  28.520  1.00  0.00     0.074 A 
ATOM     54  C   UNL A   1      45.944  31.379  30.779  1.00  0.00     0.029 A 
ATOM     55  N   UNL A   1      44.721  29.697  29.974  1.00  0.00    -0.354 N 
ATOM     56  N   UNL A   1      44.284  26.930  28.968  1.00  0.00    -0.248 NA
ATOM     57  C   UNL A   1      45.146  24.846  28.368  1.00  0.00     0.031 C 
ATOM     58  C   UNL A   1      46.790  30.308  30.482  1.00  0.00     0.029 A 
ATOM     59  C   UNL A   1      46.023  29.244  30.025  1.00  0.00     0.049 A 
ATOM     60  H   UNL A   1      43.949  29.170  29.665  1.00  0.00     0.167 HD
ATOM     61  C   UNL A   1      45.658  26.924  29.195  1.00  0.00     0.074 A 
ATOM     62  C   UNL A   1      46.133  25.607  28.824  1.00  0.00     0.031 C 
ATOM     63  C   UNL A   1      46.455  27.912  29.677  1.00  0.00     0.037 A 
BRANCH  50  64
ATOM     64  C   UNL A   1      43.508  33.232  30.888  1.00  0.00     0.058 A 
ATOM     65  C   UNL A   1      43.828  34.263  29.985  1.00  0.00     0.135 A 
ATOM     66  C   UNL A   1      43.331  33.570  32.236  1.00  0.00     0.135 A 
ATOM     67  F   UNL A   1      44.055  33.986  28.690  1.00  0.00    -0.206 F 
ATOM     68  C   UNL A   1      44.038  35.565  30.417  1.00  0.00     0.059 A 
ATOM     69  C   UNL A   1      43.486  34.877  32.682  1.00  0.00     0.059 A 
ATOM     70  F   UNL A   1      43.046  32.622  33.142  1.00  0.00    -0.206 F 
ATOM     71  C   UNL A   1      43.866  35.861  31.769  1.00  0.00     0.060 A 
BRANCH  71  72
ATOM     72  S   UNL A   1      44.154  37.554  32.317  1.00  0.00     0.124 S 
ATOM     73  O   UNL A   1      45.586  37.530  32.596  1.00  0.00    -0.237 OA
ATOM     74  O   UNL A   1      43.748  38.328  31.148  1.00  0.00    -0.237 OA
ATOM     75  O   UNL A   1      43.288  37.684  33.484  1.00  0.00    -0.744 OA
ENDBRANCH  71  72
ENDBRANCH  50  64
BRANCH  51  76
ATOM     76  C   UNL A   1      42.500  23.770  27.623  1.00  0.00     0.058 A 
ATOM     77  C   UNL A   1      42.532  23.499  26.243  1.00  0.00     0.135 A 
ATOM     78  C   UNL A   1      42.337  22.671  28.483  1.00  0.00     0.135 A 
ATOM     79  F   UNL A   1      42.649  24.508  25.367  1.00  0.00    -0.206 F 
ATOM     80  C   UNL A   1      42.417  22.203  25.738  1.00  0.00     0.059 A 
ATOM     81  C   UNL A   1      42.243  21.362  28.004  1.00  0.00     0.059 A 
ATOM     82  F   UNL A   1      42.280  22.859  29.810  1.00  0.00    -0.206 F 
ATOM     83  C   UNL A   1      42.287  21.137  26.629  1.00  0.00     0.060 A 
BRANCH  83  84
ATOM     84  S   UNL A   1      42.233  19.453  25.968  1.00  0.00     0.124 S 
ATOM     85  O   UNL A   1      43.147  19.545  24.835  1.00  0.00    -0.237 OA
ATOM     86  O   UNL A   1      42.702  18.666  27.103  1.00  0.00    -0.237 OA
ATOM     87  O   UNL A   1      40.825  19.269  25.626  1.00  0.00    -0.744 OA
ENDBRANCH  83  84
ENDBRANCH  51  76
BRANCH  63  88
ATOM     88  C   UNL A   1      47.909  27.608  29.922  1.00  0.00     0.058 A 
ATOM     89  C   UNL A   1      48.905  27.895  28.979  1.00  0.00     0.135 A 
ATOM     90  C   UNL A   1      48.315  27.165  31.193  1.00  0.00     0.135 A 
ATOM     91  F   UNL A   1      48.570  28.324  27.750  1.00  0.00    -0.206 F 
ATOM     92  C   UNL A   1      50.254  27.753  29.285  1.00  0.00     0.059 A 
ATOM     93  C   UNL A   1      49.658  27.050  31.533  1.00  0.00     0.059 A 
ATOM     94  F   UNL A   1      47.402  26.895  32.139  1.00  0.00    -0.206 F 
ATOM     95  C   UNL A   1      50.620  27.344  30.570  1.00  0.00     0.060 A 
BRANCH  95  96
ATOM     96  S   UNL A   1      52.375  27.241  30.979  1.00  0.00     0.124 S 
ATOM     97  O   UNL A   1      52.590  25.798  30.994  1.00  0.00    -0.237 OA
ATOM     98  O   UNL A   1      52.994  27.964  29.872  1.00  0.00    -0.237 OA
ATOM     99  O   UNL A   1      52.463  27.901  32.278  1.00  0.00    -0.744 OA
ENDBRANCH  95  96
ENDBRANCH  63  88
ENDBRANCH  37  38
ENDBRANCH  30  32
ENDBRANCH  29  30
ENDBRANCH   1  29
TORSDOF 17
ENDMDL
MODEL 2
REMARK VINA RESULT:     -13.8      3.563     10.010
REMARK SMILES O=C(OCCOC(=O)c1ccc(-c2c3nc(c(-c4c(F)cc(S(=O)(=O)[O-])cc4F)c4ccc([nH]4)c(-c4c(F)cc(S(=O)(=O)[O-])cc4F)c4nc(c(-c5c(F)cc(S(=O)(=O)[O-])cc5F)c5ccc2[nH]5)C=C4)C=C3)cc1)C1=Cc2cc(Cl)cc(C#Cc3ccccc3)c2O[C@@H]1C(F)(F)F
REMARK SMILES IDX 5 1 4 2 3 3 2 4 1 5 75 6 76 7 93 8 77 9 92 10 78 11 91 12
REMARK SMILES IDX 79 13 82 14 80 15 81 16 94 17 95 18 96 19 97 20 83 21 84 22
REMARK SMILES IDX 85 23 86 24 90 25 87 26 89 27 88 28 6 29 7 30 8 31 9 32
REMARK SMILES IDX 10 33 74 34 11 35 73 36 12 37 13 38 14 39 67 40 15 41 72 42
REMARK SMILES IDX 66 43 68 44 16 45 71 46 65 47 64 48 17 50 51 51 30 52 50 53
REMARK SMILES IDX 31 54 34 55 49 56 69 57 32 58 33 59 48 61 70 62 35 63 18 64
REMARK SMILES IDX 19 65 28 66 20 67 21 68 27 69 29 70 22 71 23 72 24 73 25 74
REMARK SMILES IDX 26 75 52 76 53 77 62 78 54 79 55 80 61 81 63 82 56 83 57 84
REMARK SMILES IDX 58 85 59 86 60 87 36 88 37 89 46 90 38 91 39 92 45 93 47 94
REMARK SMILES IDX 40 95 41 96 42 97 43 98 44 99
REMARK H PARENT 68 49 34 60
REMARK Flexibility Score: inf
ROOT
ATOM      1  C   UNL A   1      37.477  21.429  24.951  1.00  0.00     0.275 C 
ENDROOT
BRANCH   1   2
ATOM      2  C   UNL A   1      35.701  22.563  24.374  1.00  0.00     0.275 C 
BRANCH   2   3
ATOM      3  O   UNL A   1      35.621  24.028  24.038  1.00  0.00    -0.459 OA
BRANCH   3   4
ATOM      4  C   UNL A   1      34.399  24.366  23.621  1.00  0.00     0.338 C 
ATOM      5  O   UNL A   1      34.086  24.792  22.536  1.00  0.00    -0.246 OA
BRANCH   4   6
ATOM      6  C   UNL A   1      33.773  24.547  24.933  1.00  0.00     0.087 C 
ATOM      7  C   UNL A   1      34.265  25.628  25.736  1.00  0.00     0.027 C 
ATOM      8  C   UNL A   1      32.037  24.472  24.142  1.00  0.00     0.316 C 
ATOM      9  C   UNL A   1      33.445  27.178  25.945  1.00  0.00     0.020 A 
ATOM     10  O   UNL A   1      31.174  26.233  24.173  1.00  0.00    -0.474 OA
ATOM     11  C   UNL A   1      34.076  28.094  26.734  1.00  0.00     0.032 A 
ATOM     12  C   UNL A   1      32.011  27.610  25.077  1.00  0.00     0.143 A 
ATOM     13  C   UNL A   1      33.513  29.368  26.702  1.00  0.00     0.043 A 
ATOM     14  C   UNL A   1      31.570  28.901  25.071  1.00  0.00     0.069 A 
ATOM     15  Cl  UNL A   1      34.305  30.584  27.651  1.00  0.00    -0.084 Cl
ATOM     16  C   UNL A   1      32.360  29.754  25.903  1.00  0.00     0.041 A 
BRANCH   8  17
ATOM     17  C   UNL A   1      31.898  23.037  25.037  1.00  0.00     0.430 C 
ATOM     18  F   UNL A   1      30.639  22.705  25.264  1.00  0.00    -0.167 F 
ATOM     19  F   UNL A   1      32.314  21.960  24.289  1.00  0.00    -0.167 F 
ATOM     20  F   UNL A   1      32.629  22.908  26.167  1.00  0.00    -0.167 F 
ENDBRANCH   8  17
BRANCH  14  21
ATOM     21  C   UNL A   1      30.570  29.484  24.254  1.00  0.00    -0.058 C 
ATOM     22  C   UNL A   1      29.886  30.080  23.476  1.00  0.00    -0.062 C 
BRANCH  22  23
ATOM     23  C   UNL A   1      29.130  30.897  22.579  1.00  0.00     0.025 A 
ATOM     24  C   UNL A   1      28.762  30.435  21.313  1.00  0.00     0.017 A 
ATOM     25  C   UNL A   1      28.810  32.196  22.973  1.00  0.00     0.017 A 
ATOM     26  C   UNL A   1      28.070  31.280  20.442  1.00  0.00     0.001 A 
ATOM     27  C   UNL A   1      28.122  33.037  22.102  1.00  0.00     0.001 A 
ATOM     28  C   UNL A   1      27.754  32.581  20.837  1.00  0.00     0.000 A 
ENDBRANCH  22  23
ENDBRANCH  14  21
ENDBRANCH   4   6
ENDBRANCH   3   4
ENDBRANCH   2   3
ENDBRANCH   1   2
BRANCH   1  29
ATOM     29  O   UNL A   1      38.634  22.041  26.151  1.00  0.00    -0.458 OA
BRANCH  29  30
ATOM     30  C   UNL A   1      39.908  22.600  26.249  1.00  0.00     0.338 C 
ATOM     31  O   UNL A   1      40.964  22.203  25.787  1.00  0.00    -0.246 OA
BRANCH  30  32
ATOM     32  C   UNL A   1      39.729  24.036  26.635  1.00  0.00     0.060 A 
ATOM     33  C   UNL A   1      38.859  24.366  27.702  1.00  0.00     0.016 A 
ATOM     34  C   UNL A   1      40.704  24.936  26.229  1.00  0.00     0.016 A 
ATOM     35  C   UNL A   1      39.158  25.479  28.522  1.00  0.00     0.010 A 
ATOM     36  C   UNL A   1      41.001  26.026  27.045  1.00  0.00     0.010 A 
ATOM     37  C   UNL A   1      40.291  26.262  28.242  1.00  0.00    -0.014 A 
BRANCH  37  38
ATOM     38  C   UNL A   1      40.562  27.545  28.942  1.00  0.00     0.031 A 
ATOM     39  C   UNL A   1      41.833  27.518  29.734  1.00  0.00     0.074 A 
ATOM     40  C   UNL A   1      39.711  28.590  29.033  1.00  0.00     0.049 A 
ATOM     41  N   UNL A   1      42.253  28.317  30.670  1.00  0.00    -0.248 NA
ATOM     42  C   UNL A   1      42.703  26.352  29.483  1.00  0.00     0.031 C 
ATOM     43  C   UNL A   1      38.438  28.741  28.328  1.00  0.00     0.029 A 
ATOM     44  N   UNL A   1      39.790  29.734  29.802  1.00  0.00    -0.354 N 
ATOM     45  C   UNL A   1      43.413  27.721  31.141  1.00  0.00     0.074 A 
ATOM     46  C   UNL A   1      43.564  26.454  30.472  1.00  0.00     0.031 C 
ATOM     47  C   UNL A   1      37.859  29.903  28.700  1.00  0.00     0.029 A 
ATOM     48  C   UNL A   1      38.695  30.570  29.699  1.00  0.00     0.049 A 
ATOM     49  H   UNL A   1      40.564  29.938  30.376  1.00  0.00     0.167 HD
ATOM     50  C   UNL A   1      44.305  28.200  32.030  1.00  0.00     0.037 A 
ATOM     51  C   UNL A   1      38.408  31.721  30.352  1.00  0.00     0.037 A 
ATOM     52  C   UNL A   1      44.141  29.455  32.693  1.00  0.00     0.049 A 
ATOM     53  C   UNL A   1      39.398  32.237  31.381  1.00  0.00     0.074 A 
ATOM     54  C   UNL A   1      44.983  30.062  33.600  1.00  0.00     0.029 A 
ATOM     55  N   UNL A   1      43.043  30.289  32.525  1.00  0.00    -0.354 N 
ATOM     56  N   UNL A   1      40.529  31.698  31.783  1.00  0.00    -0.248 NA
ATOM     57  C   UNL A   1      39.083  33.512  32.047  1.00  0.00     0.031 C 
ATOM     58  C   UNL A   1      44.361  31.233  34.037  1.00  0.00     0.029 A 
ATOM     59  C   UNL A   1      43.175  31.400  33.333  1.00  0.00     0.049 A 
ATOM     60  H   UNL A   1      42.285  30.114  31.922  1.00  0.00     0.167 HD
ATOM     61  C   UNL A   1      41.077  32.586  32.706  1.00  0.00     0.074 A 
ATOM     62  C   UNL A   1      40.151  33.695  32.814  1.00  0.00     0.031 C 
ATOM     63  C   UNL A   1      42.245  32.502  33.392  1.00  0.00     0.037 A 
BRANCH  50  64
ATOM     64  C   UNL A   1      45.484  27.323  32.324  1.00  0.00     0.058 A 
ATOM     65  C   UNL A   1      45.479  26.407  33.394  1.00  0.00     0.135 A 
ATOM     66  C   UNL A   1      46.673  27.479  31.599  1.00  0.00     0.135 A 
ATOM     67  F   UNL A   1      44.379  26.255  34.150  1.00  0.00    -0.206 F 
ATOM     68  C   UNL A   1      46.629  25.730  33.773  1.00  0.00     0.059 A 
ATOM     69  C   UNL A   1      47.823  26.772  31.930  1.00  0.00     0.059 A 
ATOM     70  F   UNL A   1      46.739  28.354  30.584  1.00  0.00    -0.206 F 
ATOM     71  C   UNL A   1      47.796  25.921  33.035  1.00  0.00     0.060 A 
BRANCH  71  72
ATOM     72  S   UNL A   1      49.285  25.043  33.549  1.00  0.00     0.124 S 
ATOM     73  O   UNL A   1      48.721  23.840  34.152  1.00  0.00    -0.237 OA
ATOM     74  O   UNL A   1      49.981  24.851  32.281  1.00  0.00    -0.237 OA
ATOM     75  O   UNL A   1      49.923  25.972  34.477  1.00  0.00    -0.744 OA
ENDBRANCH  71  72
ENDBRANCH  50  64
BRANCH  51  76
ATOM     76  C   UNL A   1      37.153  32.486  30.063  1.00  0.00     0.058 A 
ATOM     77  C   UNL A   1      37.125  33.515  29.104  1.00  0.00     0.135 A 
ATOM     78  C   UNL A   1      35.953  32.221  30.745  1.00  0.00     0.135 A 
ATOM     79  F   UNL A   1      38.245  33.843  28.444  1.00  0.00    -0.206 F 
ATOM     80  C   UNL A   1      35.964  34.241  28.828  1.00  0.00     0.059 A 
ATOM     81  C   UNL A   1      34.774  32.916  30.470  1.00  0.00     0.059 A 
ATOM     82  F   UNL A   1      35.914  31.265  31.685  1.00  0.00    -0.206 F 
ATOM     83  C   UNL A   1      34.788  33.924  29.507  1.00  0.00     0.060 A 
BRANCH  83  84
ATOM     84  S   UNL A   1      33.269  34.807  29.073  1.00  0.00     0.124 S 
ATOM     85  O   UNL A   1      32.670  33.911  28.090  1.00  0.00    -0.237 OA
ATOM     86  O   UNL A   1      32.586  34.888  30.359  1.00  0.00    -0.237 OA
ATOM     87  O   UNL A   1      33.756  36.080  28.548  1.00  0.00    -0.744 OA
ENDBRANCH  83  84
ENDBRANCH  51  76
BRANCH  63  88
ATOM     88  C   UNL A   1      42.655  33.660  34.262  1.00  0.00     0.058 A 
ATOM     89  C   UNL A   1      42.390  33.695  35.638  1.00  0.00     0.135 A 
ATOM     90  C   UNL A   1      43.463  34.676  33.721  1.00  0.00     0.135 A 
ATOM     91  F   UNL A   1      41.625  32.747  36.205  1.00  0.00    -0.206 F 
ATOM     92  C   UNL A   1      42.913  34.697  36.449  1.00  0.00     0.059 A 
ATOM     93  C   UNL A   1      44.024  35.666  34.519  1.00  0.00     0.059 A 
ATOM     94  F   UNL A   1      43.762  34.678  32.413  1.00  0.00    -0.206 F 
ATOM     95  C   UNL A   1      43.740  35.669  35.882  1.00  0.00     0.060 A 
BRANCH  95  96
ATOM     96  S   UNL A   1      44.476  36.916  36.960  1.00  0.00     0.124 S 
ATOM     97  O   UNL A   1      45.020  37.860  35.989  1.00  0.00    -0.237 OA
ATOM     98  O   UNL A   1      43.323  37.384  37.723  1.00  0.00    -0.237 OA
ATOM     99  O   UNL A   1      45.466  36.166  37.726  1.00  0.00    -0.744 OA
ENDBRANCH  95  96
ENDBRANCH  63  88
ENDBRANCH  37  38
ENDBRANCH  30  32
ENDBRANCH  29  30
ENDBRANCH   1  29
TORSDOF 17
ENDMDL
MODEL 3
REMARK VINA RESULT:     -13.5      2.113      2.811
REMARK SMILES O=C(OCCOC(=O)c1ccc(-c2c3nc(c(-c4c(F)cc(S(=O)(=O)[O-])cc4F)c4ccc([nH]4)c(-c4c(F)cc(S(=O)(=O)[O-])cc4F)c4nc(c(-c5c(F)cc(S(=O)(=O)[O-])cc5F)c5ccc2[nH]5)C=C4)C=C3)cc1)C1=Cc2cc(Cl)cc(C#Cc3ccccc3)c2O[C@@H]1C(F)(F)F
REMARK SMILES IDX 5 1 4 2 3 3 2 4 1 5 75 6 76 7 93 8 77 9 92 10 78 11 91 12
REMARK SMILES IDX 79 13 82 14 80 15 81 16 94 17 95 18 96 19 97 20 83 21 84 22
REMARK SMILES IDX 85 23 86 24 90 25 87 26 89 27 88 28 6 29 7 30 8 31 9 32
REMARK SMILES IDX 10 33 74 34 11 35 73 36 12 37 13 38 14 39 67 40 15 41 72 42
REMARK SMILES IDX 66 43 68 44 16 45 71 46 65 47 64 48 17 50 51 51 30 52 50 53
REMARK SMILES IDX 31 54 34 55 49 56 69 57 32 58 33 59 48 61 70 62 35 63 18 64
REMARK SMILES IDX 19 65 28 66 20 67 21 68 27 69 29 70 22 71 23 72 24 73 25 74
REMARK SMILES IDX 26 75 52 76 53 77 62 78 54 79 55 80 61 81 63 82 56 83 57 84
REMARK SMILES IDX 58 85 59 86 60 87 36 88 37 89 46 90 38 91 39 92 45 93 47 94
REMARK SMILES IDX 40 95 41 96 42 97 43 98 44 99
REMARK H PARENT 68 49 34 60
REMARK Flexibility Score: inf
ROOT
ATOM      1  C   UNL A   1      34.424  29.236  26.965  1.00  0.00     0.275 C 
ENDROOT
BRANCH   1   2
ATOM      2  C   UNL A   1      32.584  28.078  27.166  1.00  0.00     0.275 C 
BRANCH   2   3
ATOM      3  O   UNL A   1      31.793  27.418  26.069  1.00  0.00    -0.459 OA
BRANCH   3   4
ATOM      4  C   UNL A   1      32.006  26.101  26.038  1.00  0.00     0.338 C 
ATOM      5  O   UNL A   1      31.760  25.297  26.904  1.00  0.00    -0.246 OA
BRANCH   4   6
ATOM      6  C   UNL A   1      33.013  26.077  24.974  1.00  0.00     0.087 C 
ATOM      7  C   UNL A   1      34.372  25.866  25.381  1.00  0.00     0.027 C 
ATOM      8  C   UNL A   1      31.964  24.833  23.976  1.00  0.00     0.316 C 
ATOM      9  C   UNL A   1      35.240  24.336  25.233  1.00  0.00     0.020 A 
ATOM     10  O   UNL A   1      32.801  23.059  23.963  1.00  0.00    -0.474 OA
ATOM     11  C   UNL A   1      36.524  24.322  25.692  1.00  0.00     0.032 A 
ATOM     12  C   UNL A   1      34.483  22.871  24.704  1.00  0.00     0.143 A 
ATOM     13  C   UNL A   1      37.100  23.055  25.757  1.00  0.00     0.043 A 
ATOM     14  C   UNL A   1      35.116  21.673  24.858  1.00  0.00     0.069 A 
ATOM     15  Cl  UNL A   1      38.716  22.975  26.378  1.00  0.00    -0.084 Cl
ATOM     16  C   UNL A   1      36.434  21.813  25.395  1.00  0.00     0.041 A 
BRANCH   8  17
ATOM     17  C   UNL A   1      31.829  26.118  22.876  1.00  0.00     0.430 C 
ATOM     18  F   UNL A   1      33.001  26.651  22.577  1.00  0.00    -0.167 F 
ATOM     19  F   UNL A   1      31.438  25.656  21.641  1.00  0.00    -0.167 F 
ATOM     20  F   UNL A   1      30.922  27.089  23.126  1.00  0.00    -0.167 F 
ENDBRANCH   8  17
BRANCH  14  21
ATOM     21  C   UNL A   1      34.581  20.370  24.701  1.00  0.00    -0.058 C 
ATOM     22  C   UNL A   1      34.148  19.259  24.778  1.00  0.00    -0.062 C 
BRANCH  22  23
ATOM     23  C   UNL A   1      33.729  17.902  24.944  1.00  0.00     0.025 A 
ATOM     24  C   UNL A   1      32.528  17.588  25.585  1.00  0.00     0.017 A 
ATOM     25  C   UNL A   1      34.573  16.887  24.499  1.00  0.00     0.017 A 
ATOM     26  C   UNL A   1      32.175  16.250  25.778  1.00  0.00     0.001 A 
ATOM     27  C   UNL A   1      34.220  15.554  24.693  1.00  0.00     0.001 A 
ATOM     28  C   UNL A   1      33.024  15.235  25.334  1.00  0.00     0.000 A 
ENDBRANCH  22  23
ENDBRANCH  14  21
ENDBRANCH   4   6
ENDBRANCH   3   4
ENDBRANCH   2   3
ENDBRANCH   1   2
BRANCH   1  29
ATOM     29  O   UNL A   1      35.486  29.562  28.351  1.00  0.00    -0.458 OA
BRANCH  29  30
ATOM     30  C   UNL A   1      36.021  30.617  29.089  1.00  0.00     0.338 C 
ATOM     31  O   UNL A   1      35.530  31.243  30.012  1.00  0.00    -0.246 OA
BRANCH  30  32
ATOM     32  C   UNL A   1      37.505  30.587  28.883  1.00  0.00     0.060 A 
ATOM     33  C   UNL A   1      38.365  30.684  30.004  1.00  0.00     0.016 A 
ATOM     34  C   UNL A   1      37.977  30.062  27.688  1.00  0.00     0.016 A 
ATOM     35  C   UNL A   1      39.603  30.001  29.989  1.00  0.00     0.010 A 
ATOM     36  C   UNL A   1      39.194  29.383  27.681  1.00  0.00     0.010 A 
ATOM     37  C   UNL A   1      39.978  29.270  28.849  1.00  0.00    -0.014 A 
BRANCH  37  38
ATOM     38  C   UNL A   1      41.336  28.686  28.691  1.00  0.00     0.031 A 
ATOM     39  C   UNL A   1      42.419  29.719  28.713  1.00  0.00     0.074 A 
ATOM     40  C   UNL A   1      41.612  27.400  28.384  1.00  0.00     0.049 A 
ATOM     41  N   UNL A   1      43.663  29.639  28.339  1.00  0.00    -0.248 NA
ATOM     42  C   UNL A   1      41.991  31.068  29.136  1.00  0.00     0.031 C 
ATOM     43  C   UNL A   1      40.655  26.295  28.316  1.00  0.00     0.029 A 
ATOM     44  N   UNL A   1      42.811  26.807  28.038  1.00  0.00    -0.354 N 
ATOM     45  C   UNL A   1      44.143  30.935  28.445  1.00  0.00     0.074 A 
ATOM     46  C   UNL A   1      43.040  31.789  28.806  1.00  0.00     0.031 C 
ATOM     47  C   UNL A   1      41.302  25.168  27.948  1.00  0.00     0.029 A 
ATOM     48  C   UNL A   1      42.715  25.468  27.716  1.00  0.00     0.049 A 
ATOM     49  H   UNL A   1      43.663  27.300  28.022  1.00  0.00     0.167 HD
ATOM     50  C   UNL A   1      45.406  31.380  28.294  1.00  0.00     0.037 A 
ATOM     51  C   UNL A   1      43.660  24.605  27.271  1.00  0.00     0.037 A 
ATOM     52  C   UNL A   1      46.490  30.524  27.927  1.00  0.00     0.049 A 
ATOM     53  C   UNL A   1      45.073  25.121  27.065  1.00  0.00     0.074 A 
ATOM     54  C   UNL A   1      47.819  30.850  27.761  1.00  0.00     0.029 A 
ATOM     55  N   UNL A   1      46.358  29.169  27.657  1.00  0.00    -0.354 N 
ATOM     56  N   UNL A   1      45.539  26.340  27.223  1.00  0.00    -0.248 NA
ATOM     57  C   UNL A   1      46.090  24.154  26.620  1.00  0.00     0.031 C 
ATOM     58  C   UNL A   1      48.483  29.703  27.319  1.00  0.00     0.029 A 
ATOM     59  C   UNL A   1      47.584  28.644  27.300  1.00  0.00     0.049 A 
ATOM     60  H   UNL A   1      45.517  28.659  27.710  1.00  0.00     0.167 HD
ATOM     61  C   UNL A   1      46.903  26.274  26.947  1.00  0.00     0.074 A 
ATOM     62  C   UNL A   1      47.189  24.898  26.599  1.00  0.00     0.031 C 
ATOM     63  C   UNL A   1      47.838  27.258  26.989  1.00  0.00     0.037 A 
BRANCH  50  64
ATOM     64  C   UNL A   1      45.619  32.850  28.495  1.00  0.00     0.058 A 
ATOM     65  C   UNL A   1      45.881  33.394  29.766  1.00  0.00     0.135 A 
ATOM     66  C   UNL A   1      45.447  33.736  27.423  1.00  0.00     0.135 A 
ATOM     67  F   UNL A   1      46.007  32.591  30.835  1.00  0.00    -0.206 F 
ATOM     68  C   UNL A   1      45.899  34.766  29.977  1.00  0.00     0.059 A 
ATOM     69  C   UNL A   1      45.511  35.112  27.603  1.00  0.00     0.059 A 
ATOM     70  F   UNL A   1      45.173  33.271  26.194  1.00  0.00    -0.206 F 
ATOM     71  C   UNL A   1      45.711  35.616  28.888  1.00  0.00     0.060 A 
BRANCH  71  72
ATOM     72  S   UNL A   1      45.724  37.395  29.181  1.00  0.00     0.124 S 
ATOM     73  O   UNL A   1      45.499  37.914  27.835  1.00  0.00    -0.237 OA
ATOM     74  O   UNL A   1      44.618  37.560  30.118  1.00  0.00    -0.237 OA
ATOM     75  O   UNL A   1      47.053  37.638  29.734  1.00  0.00    -0.744 OA
ENDBRANCH  71  72
ENDBRANCH  50  64
BRANCH  51  76
ATOM     76  C   UNL A   1      43.334  23.168  27.001  1.00  0.00     0.058 A 
ATOM     77  C   UNL A   1      43.237  22.672  25.688  1.00  0.00     0.135 A 
ATOM     78  C   UNL A   1      43.099  22.256  28.043  1.00  0.00     0.135 A 
ATOM     79  F   UNL A   1      43.415  23.499  24.647  1.00  0.00    -0.206 F 
ATOM     80  C   UNL A   1      42.930  21.337  25.419  1.00  0.00     0.059 A 
ATOM     81  C   UNL A   1      42.812  20.911  27.801  1.00  0.00     0.059 A 
ATOM     82  F   UNL A   1      43.157  22.666  29.319  1.00  0.00    -0.206 F 
ATOM     83  C   UNL A   1      42.733  20.458  26.485  1.00  0.00     0.060 A 
BRANCH  83  84
ATOM     84  S   UNL A   1      42.428  18.711  26.126  1.00  0.00     0.124 S 
ATOM     85  O   UNL A   1      43.369  18.457  25.041  1.00  0.00    -0.237 OA
ATOM     86  O   UNL A   1      42.743  18.079  27.403  1.00  0.00    -0.237 OA
ATOM     87  O   UNL A   1      41.016  18.684  25.753  1.00  0.00    -0.744 OA
ENDBRANCH  83  84
ENDBRANCH  51  76
BRANCH  63  88
ATOM     88  C   UNL A   1      49.277  26.895  26.739  1.00  0.00     0.058 A 
ATOM     89  C   UNL A   1      50.148  26.524  27.773  1.00  0.00     0.135 A 
ATOM     90  C   UNL A   1      49.736  26.771  25.416  1.00  0.00     0.135 A 
ATOM     91  F   UNL A   1      49.757  26.621  29.055  1.00  0.00    -0.206 F 
ATOM     92  C   UNL A   1      51.425  26.042  27.505  1.00  0.00     0.059 A 
ATOM     93  C   UNL A   1      50.995  26.259  25.124  1.00  0.00     0.059 A 
ATOM     94  F   UNL A   1      48.935  27.095  24.389  1.00  0.00    -0.206 F 
ATOM     95  C   UNL A   1      51.833  25.900  26.177  1.00  0.00     0.060 A 
BRANCH  95  96
ATOM     96  S   UNL A   1      53.462  25.199  25.841  1.00  0.00     0.124 S 
ATOM     97  O   UNL A   1      53.114  23.884  25.312  1.00  0.00    -0.237 OA
ATOM     98  O   UNL A   1      54.013  26.145  24.876  1.00  0.00    -0.237 OA
ATOM     99  O   UNL A   1      54.110  25.197  27.149  1.00  0.00    -0.744 OA
ENDBRANCH  95  96
ENDBRANCH  63  88
ENDBRANCH  37  38
ENDBRANCH  30  32
ENDBRANCH  29  30
ENDBRANCH   1  29
TORSDOF 17
ENDMDL
