MODEL 1
REMARK VINA RESULT:     -12.2      0.000      0.000
REMARK SMILES CCn1nc(C(=O)OCCOC(=O)c2ccc(-c3c4nc(c(-c5c(F)cc(S(=O)(=O)[O-])cc5F)c5ccc([nH]5)c(-c5c(F)cc(S(=O)(=O)[O-])cc5F)c5nc(c(-c6c(F)cc(S(=O)(=O)[O-])cc6F)c6ccc3[nH]6)C=C5)C=C4)cc2)c2c1CC[C@H]([NH2+]Cc1nn(CC)c3ccccc13)C2
REMARK SMILES IDX 9 1 8 2 6 3 7 4 5 5 3 6 4 7 81 8 80 9 82 10 98 11 83 12
REMARK SMILES IDX 84 13 2 14 1 15 85 16 86 19 87 20 88 21 97 22 89 23 92 24
REMARK SMILES IDX 96 25 93 26 95 27 94 28 90 29 91 30 10 31 11 32 12 33 13 34
REMARK SMILES IDX 14 35 15 36 79 37 16 38 78 39 17 40 18 41 19 42 72 43 20 44
REMARK SMILES IDX 77 45 71 46 73 47 21 48 76 49 70 50 69 51 22 53 56 54 35 55
REMARK SMILES IDX 55 56 36 57 39 58 54 59 74 60 37 61 38 62 53 64 75 65 40 66
REMARK SMILES IDX 23 67 24 68 33 69 25 70 26 71 32 72 34 73 27 74 28 75 29 76
REMARK SMILES IDX 30 77 31 78 57 79 58 80 67 81 59 82 60 83 66 84 68 85 61 86
REMARK SMILES IDX 62 87 63 88 64 89 65 90 41 91 42 92 51 93 43 94 44 95 50 96
REMARK SMILES IDX 52 97 45 98 46 99 47 100 48 101 49 102
REMARK H PARENT 85 17 85 18 73 52 39 63
REMARK Flexibility Score: inf
ROOT
ATOM      1  C   UNL A   1      37.272  21.913  25.594  1.00  0.00     0.275 C 
ENDROOT
BRANCH   1   2
ATOM      2  O   UNL A   1      36.230  22.864  25.864  1.00  0.00    -0.457 OA
BRANCH   2   3
ATOM      3  C   UNL A   1      35.042  22.574  26.476  1.00  0.00     0.359 C 
ATOM      4  O   UNL A   1      34.722  22.947  27.601  1.00  0.00    -0.244 OA
BRANCH   3   5
ATOM      5  C   UNL A   1      34.267  21.654  25.631  1.00  0.00     0.174 A 
ATOM      6  N   UNL A   1      33.535  19.965  24.535  1.00  0.00    -0.269 N 
ATOM      7  N   UNL A   1      34.412  20.320  25.517  1.00  0.00    -0.165 NA
ATOM      8  C   UNL A   1      32.952  21.052  23.938  1.00  0.00     0.043 A 
ATOM      9  C   UNL A   1      33.329  22.124  24.689  1.00  0.00     0.014 A 
ATOM     10  C   UNL A   1      32.167  21.206  22.693  1.00  0.00     0.062 C 
ATOM     11  C   UNL A   1      32.999  23.524  24.395  1.00  0.00     0.105 C 
ATOM     12  C   UNL A   1      32.577  22.564  22.026  1.00  0.00     0.072 C 
ATOM     13  C   UNL A   1      32.573  23.826  22.961  1.00  0.00     0.187 C 
BRANCH   6  14
ATOM     14  C   UNL A   1      33.370  18.568  24.170  1.00  0.00     0.141 C 
ATOM     15  C   UNL A   1      34.629  17.710  24.249  1.00  0.00     0.029 C 
ENDBRANCH   6  14
BRANCH  13  16
ATOM     16  N   UNL A   1      33.403  24.931  22.373  1.00  0.00    -0.338 N 
ATOM     17  H   UNL A   1      34.125  24.506  21.790  1.00  0.00     0.346 HD
ATOM     18  H   UNL A   1      33.774  25.458  23.164  1.00  0.00     0.346 HD
BRANCH  16  19
ATOM     19  C   UNL A   1      32.653  25.917  21.534  1.00  0.00     0.320 C 
BRANCH  19  20
ATOM     20  C   UNL A   1      31.961  27.021  22.351  1.00  0.00     0.124 A 
ATOM     21  N   UNL A   1      30.778  27.553  21.979  1.00  0.00    -0.171 NA
ATOM     22  C   UNL A   1      32.479  27.697  23.507  1.00  0.00     0.029 A 
ATOM     23  N   UNL A   1      30.589  28.594  22.835  1.00  0.00    -0.265 N 
ATOM     24  C   UNL A   1      31.492  28.613  23.872  1.00  0.00     0.069 A 
ATOM     25  C   UNL A   1      33.684  27.687  24.243  1.00  0.00     0.012 A 
ATOM     26  C   UNL A   1      31.584  29.402  25.030  1.00  0.00     0.028 A 
ATOM     27  C   UNL A   1      33.833  28.559  25.334  1.00  0.00     0.001 A 
ATOM     28  C   UNL A   1      32.783  29.376  25.742  1.00  0.00     0.002 A 
BRANCH  23  29
ATOM     29  C   UNL A   1      29.549  29.578  22.558  1.00  0.00     0.141 C 
ATOM     30  C   UNL A   1      28.102  29.161  22.838  1.00  0.00     0.029 C 
ENDBRANCH  23  29
ENDBRANCH  19  20
ENDBRANCH  16  19
ENDBRANCH  13  16
ENDBRANCH   3   5
ENDBRANCH   2   3
ENDBRANCH   1   2
BRANCH   1  31
ATOM     31  C   UNL A   1      38.625  22.372  26.105  1.00  0.00     0.275 C 
BRANCH  31  32
ATOM     32  O   UNL A   1      38.673  23.772  25.929  1.00  0.00    -0.458 OA
BRANCH  32  33
ATOM     33  C   UNL A   1      39.179  24.394  27.032  1.00  0.00     0.338 C 
ATOM     34  O   UNL A   1      38.643  24.494  28.108  1.00  0.00    -0.246 OA
BRANCH  33  35
ATOM     35  C   UNL A   1      40.565  24.859  26.711  1.00  0.00     0.060 A 
ATOM     36  C   UNL A   1      41.340  24.783  27.858  1.00  0.00     0.016 A 
ATOM     37  C   UNL A   1      40.611  25.968  25.858  1.00  0.00     0.016 A 
ATOM     38  C   UNL A   1      41.520  25.980  28.490  1.00  0.00     0.010 A 
ATOM     39  C   UNL A   1      40.754  27.174  26.484  1.00  0.00     0.010 A 
ATOM     40  C   UNL A   1      41.080  27.140  27.835  1.00  0.00    -0.014 A 
BRANCH  40  41
ATOM     41  C   UNL A   1      41.004  28.326  28.636  1.00  0.00     0.031 A 
ATOM     42  C   UNL A   1      42.169  29.192  28.448  1.00  0.00     0.074 A 
ATOM     43  C   UNL A   1      39.969  28.615  29.438  1.00  0.00     0.049 A 
ATOM     44  N   UNL A   1      43.138  29.406  29.271  1.00  0.00    -0.248 NA
ATOM     45  C   UNL A   1      42.364  29.730  27.095  1.00  0.00     0.031 C 
ATOM     46  C   UNL A   1      38.635  28.012  29.476  1.00  0.00     0.029 A 
ATOM     47  N   UNL A   1      39.889  29.624  30.340  1.00  0.00    -0.354 N 
ATOM     48  C   UNL A   1      43.967  30.291  28.606  1.00  0.00     0.074 A 
ATOM     49  C   UNL A   1      43.556  30.304  27.224  1.00  0.00     0.031 C 
ATOM     50  C   UNL A   1      37.820  28.815  30.201  1.00  0.00     0.029 A 
ATOM     51  C   UNL A   1      38.606  29.902  30.765  1.00  0.00     0.049 A 
ATOM     52  H   UNL A   1      40.679  30.115  30.663  1.00  0.00     0.167 HD
ATOM     53  C   UNL A   1      44.755  31.165  29.277  1.00  0.00     0.037 A 
ATOM     54  C   UNL A   1      38.231  31.023  31.425  1.00  0.00     0.037 A 
ATOM     55  C   UNL A   1      44.966  30.786  30.647  1.00  0.00     0.049 A 
ATOM     56  C   UNL A   1      39.452  31.609  32.047  1.00  0.00     0.074 A 
ATOM     57  C   UNL A   1      45.505  29.676  31.267  1.00  0.00     0.029 A 
ATOM     58  N   UNL A   1      44.254  31.450  31.617  1.00  0.00    -0.354 N 
ATOM     59  N   UNL A   1      40.137  31.043  33.006  1.00  0.00    -0.248 NA
ATOM     60  C   UNL A   1      40.162  32.657  31.325  1.00  0.00     0.031 C 
ATOM     61  C   UNL A   1      44.745  29.498  32.459  1.00  0.00     0.029 A 
ATOM     62  C   UNL A   1      43.785  30.511  32.504  1.00  0.00     0.049 A 
ATOM     63  H   UNL A   1      44.106  32.422  31.667  1.00  0.00     0.167 HD
ATOM     64  C   UNL A   1      41.462  31.379  32.759  1.00  0.00     0.074 A 
ATOM     65  C   UNL A   1      41.400  32.464  31.786  1.00  0.00     0.031 C 
ATOM     66  C   UNL A   1      42.491  30.571  33.157  1.00  0.00     0.037 A 
BRANCH  53  67
ATOM     67  C   UNL A   1      45.003  32.538  28.738  1.00  0.00     0.058 A 
ATOM     68  C   UNL A   1      46.310  32.972  28.486  1.00  0.00     0.135 A 
ATOM     69  C   UNL A   1      43.988  33.523  28.676  1.00  0.00     0.135 A 
ATOM     70  F   UNL A   1      47.338  32.114  28.569  1.00  0.00    -0.206 F 
ATOM     71  C   UNL A   1      46.595  34.307  28.210  1.00  0.00     0.059 A 
ATOM     72  C   UNL A   1      44.239  34.841  28.336  1.00  0.00     0.059 A 
ATOM     73  F   UNL A   1      42.722  33.263  29.036  1.00  0.00    -0.206 F 
ATOM     74  C   UNL A   1      45.553  35.233  28.148  1.00  0.00     0.060 A 
BRANCH  74  75
ATOM     75  S   UNL A   1      45.921  36.977  27.907  1.00  0.00     0.124 S 
ATOM     76  O   UNL A   1      44.976  37.595  28.831  1.00  0.00    -0.237 OA
ATOM     77  O   UNL A   1      47.329  37.050  28.286  1.00  0.00    -0.237 OA
ATOM     78  O   UNL A   1      45.649  37.181  26.487  1.00  0.00    -0.744 OA
ENDBRANCH  74  75
ENDBRANCH  53  67
BRANCH  54  79
ATOM     79  C   UNL A   1      36.974  31.782  31.206  1.00  0.00     0.058 A 
ATOM     80  C   UNL A   1      36.124  32.112  32.272  1.00  0.00     0.135 A 
ATOM     81  C   UNL A   1      36.698  32.407  29.970  1.00  0.00     0.135 A 
ATOM     82  F   UNL A   1      36.344  31.599  33.492  1.00  0.00    -0.206 F 
ATOM     83  C   UNL A   1      35.070  33.020  32.127  1.00  0.00     0.059 A 
ATOM     84  C   UNL A   1      35.643  33.297  29.797  1.00  0.00     0.059 A 
ATOM     85  F   UNL A   1      37.499  32.239  28.908  1.00  0.00    -0.206 F 
ATOM     86  C   UNL A   1      34.842  33.614  30.885  1.00  0.00     0.060 A 
BRANCH  86  87
ATOM     87  S   UNL A   1      33.562  34.877  30.721  1.00  0.00     0.124 S 
ATOM     88  O   UNL A   1      32.870  34.448  29.510  1.00  0.00    -0.237 OA
ATOM     89  O   UNL A   1      32.821  34.728  31.968  1.00  0.00    -0.237 OA
ATOM     90  O   UNL A   1      34.322  36.118  30.597  1.00  0.00    -0.744 OA
ENDBRANCH  86  87
ENDBRANCH  54  79
BRANCH  66  91
ATOM     91  C   UNL A   1      42.181  29.473  34.142  1.00  0.00     0.058 A 
ATOM     92  C   UNL A   1      41.719  28.200  33.763  1.00  0.00     0.135 A 
ATOM     93  C   UNL A   1      42.515  29.655  35.492  1.00  0.00     0.135 A 
ATOM     94  F   UNL A   1      41.480  27.914  32.475  1.00  0.00    -0.206 F 
ATOM     95  C   UNL A   1      41.560  27.167  34.688  1.00  0.00     0.059 A 
ATOM     96  C   UNL A   1      42.391  28.630  36.429  1.00  0.00     0.059 A 
ATOM     97  F   UNL A   1      43.025  30.827  35.907  1.00  0.00    -0.206 F 
ATOM     98  C   UNL A   1      41.903  27.389  36.021  1.00  0.00     0.060 A 
BRANCH  98  99
ATOM     99  S   UNL A   1      41.798  26.019  37.194  1.00  0.00     0.124 S 
ATOM    100  O   UNL A   1      40.412  26.101  37.642  1.00  0.00    -0.237 OA
ATOM    101  O   UNL A   1      42.130  24.861  36.369  1.00  0.00    -0.237 OA
ATOM    102  O   UNL A   1      42.800  26.357  38.204  1.00  0.00    -0.744 OA
ENDBRANCH  98  99
ENDBRANCH  66  91
ENDBRANCH  40  41
ENDBRANCH  33  35
ENDBRANCH  32  33
ENDBRANCH  31  32
ENDBRANCH   1  31
TORSDOF 19
ENDMDL
MODEL 2
REMARK VINA RESULT:     -11.7      1.478      2.102
REMARK SMILES CCn1nc(C(=O)OCCOC(=O)c2ccc(-c3c4nc(c(-c5c(F)cc(S(=O)(=O)[O-])cc5F)c5ccc([nH]5)c(-c5c(F)cc(S(=O)(=O)[O-])cc5F)c5nc(c(-c6c(F)cc(S(=O)(=O)[O-])cc6F)c6ccc3[nH]6)C=C5)C=C4)cc2)c2c1CC[C@H]([NH2+]Cc1nn(CC)c3ccccc13)C2
REMARK SMILES IDX 9 1 8 2 6 3 7 4 5 5 3 6 4 7 81 8 80 9 82 10 98 11 83 12
REMARK SMILES IDX 84 13 2 14 1 15 85 16 86 19 87 20 88 21 97 22 89 23 92 24
REMARK SMILES IDX 96 25 93 26 95 27 94 28 90 29 91 30 10 31 11 32 12 33 13 34
REMARK SMILES IDX 14 35 15 36 79 37 16 38 78 39 17 40 18 41 19 42 72 43 20 44
REMARK SMILES IDX 77 45 71 46 73 47 21 48 76 49 70 50 69 51 22 53 56 54 35 55
REMARK SMILES IDX 55 56 36 57 39 58 54 59 74 60 37 61 38 62 53 64 75 65 40 66
REMARK SMILES IDX 23 67 24 68 33 69 25 70 26 71 32 72 34 73 27 74 28 75 29 76
REMARK SMILES IDX 30 77 31 78 57 79 58 80 67 81 59 82 60 83 66 84 68 85 61 86
REMARK SMILES IDX 62 87 63 88 64 89 65 90 41 91 42 92 51 93 43 94 44 95 50 96
REMARK SMILES IDX 52 97 45 98 46 99 47 100 48 101 49 102
REMARK H PARENT 85 17 85 18 73 52 39 63
REMARK Flexibility Score: inf
ROOT
ATOM      1  C   UNL A   1      39.481  21.779  26.108  1.00  0.00     0.275 C 
ENDROOT
BRANCH   1   2
ATOM      2  O   UNL A   1      38.111  21.351  26.097  1.00  0.00    -0.457 OA
BRANCH   2   3
ATOM      3  C   UNL A   1      37.189  21.695  25.148  1.00  0.00     0.359 C 
ATOM      4  O   UNL A   1      37.192  22.748  24.515  1.00  0.00    -0.244 OA
BRANCH   3   5
ATOM      5  C   UNL A   1      36.136  20.671  25.093  1.00  0.00     0.174 A 
ATOM      6  N   UNL A   1      34.930  18.961  24.635  1.00  0.00    -0.269 N 
ATOM      7  N   UNL A   1      36.185  19.471  24.484  1.00  0.00    -0.165 NA
ATOM      8  C   UNL A   1      34.064  19.864  25.196  1.00  0.00     0.043 A 
ATOM      9  C   UNL A   1      34.837  20.915  25.585  1.00  0.00     0.014 A 
ATOM     10  C   UNL A   1      32.589  19.889  25.318  1.00  0.00     0.062 C 
ATOM     11  C   UNL A   1      34.339  22.161  26.180  1.00  0.00     0.105 C 
ATOM     12  C   UNL A   1      32.112  21.369  25.118  1.00  0.00     0.072 C 
ATOM     13  C   UNL A   1      32.858  22.461  25.967  1.00  0.00     0.187 C 
BRANCH   6  14
ATOM     14  C   UNL A   1      34.615  17.630  24.144  1.00  0.00     0.141 C 
ATOM     15  C   UNL A   1      34.564  16.531  25.200  1.00  0.00     0.029 C 
ENDBRANCH   6  14
BRANCH  13  16
ATOM     16  N   UNL A   1      32.663  23.827  25.374  1.00  0.00    -0.338 N 
ATOM     17  H   UNL A   1      31.863  23.785  24.744  1.00  0.00     0.346 HD
ATOM     18  H   UNL A   1      33.540  24.059  24.907  1.00  0.00     0.346 HD
BRANCH  16  19
ATOM     19  C   UNL A   1      32.417  24.923  26.362  1.00  0.00     0.320 C 
BRANCH  19  20
ATOM     20  C   UNL A   1      32.203  26.301  25.713  1.00  0.00     0.124 A 
ATOM     21  N   UNL A   1      33.029  27.341  25.951  1.00  0.00    -0.171 NA
ATOM     22  C   UNL A   1      31.100  26.708  24.889  1.00  0.00     0.029 A 
ATOM     23  N   UNL A   1      32.420  28.402  25.354  1.00  0.00    -0.265 N 
ATOM     24  C   UNL A   1      31.355  28.040  24.562  1.00  0.00     0.069 A 
ATOM     25  C   UNL A   1      29.892  26.131  24.438  1.00  0.00     0.012 A 
ATOM     26  C   UNL A   1      30.547  28.769  23.675  1.00  0.00     0.028 A 
ATOM     27  C   UNL A   1      29.018  26.893  23.647  1.00  0.00     0.001 A 
ATOM     28  C   UNL A   1      29.360  28.180  23.242  1.00  0.00     0.002 A 
BRANCH  23  29
ATOM     29  C   UNL A   1      32.881  29.755  25.640  1.00  0.00     0.141 C 
ATOM     30  C   UNL A   1      33.116  30.116  27.110  1.00  0.00     0.029 C 
ENDBRANCH  23  29
ENDBRANCH  19  20
ENDBRANCH  16  19
ENDBRANCH  13  16
ENDBRANCH   3   5
ENDBRANCH   2   3
ENDBRANCH   1   2
BRANCH   1  31
ATOM     31  C   UNL A   1      39.801  22.676  27.290  1.00  0.00     0.275 C 
BRANCH  31  32
ATOM     32  O   UNL A   1      40.318  23.878  26.759  1.00  0.00    -0.458 OA
BRANCH  32  33
ATOM     33  C   UNL A   1      41.438  24.274  27.428  1.00  0.00     0.338 C 
ATOM     34  O   UNL A   1      41.803  23.885  28.510  1.00  0.00    -0.246 OA
BRANCH  33  35
ATOM     35  C   UNL A   1      42.198  25.216  26.547  1.00  0.00     0.060 A 
ATOM     36  C   UNL A   1      43.299  25.690  27.244  1.00  0.00     0.016 A 
ATOM     37  C   UNL A   1      41.387  26.061  25.781  1.00  0.00     0.016 A 
ATOM     38  C   UNL A   1      43.136  26.945  27.758  1.00  0.00     0.010 A 
ATOM     39  C   UNL A   1      41.188  27.307  26.307  1.00  0.00     0.010 A 
ATOM     40  C   UNL A   1      41.993  27.665  27.382  1.00  0.00    -0.014 A 
BRANCH  40  41
ATOM     41  C   UNL A   1      41.698  28.832  28.161  1.00  0.00     0.031 A 
ATOM     42  C   UNL A   1      42.782  29.814  28.111  1.00  0.00     0.074 A 
ATOM     43  C   UNL A   1      40.549  29.007  28.828  1.00  0.00     0.049 A 
ATOM     44  N   UNL A   1      43.616  30.122  29.044  1.00  0.00    -0.248 NA
ATOM     45  C   UNL A   1      43.084  30.378  26.788  1.00  0.00     0.031 C 
ATOM     46  C   UNL A   1      39.289  28.269  28.708  1.00  0.00     0.029 A 
ATOM     47  N   UNL A   1      40.256  29.996  29.708  1.00  0.00    -0.354 N 
ATOM     48  C   UNL A   1      44.424  31.091  28.480  1.00  0.00     0.074 A 
ATOM     49  C   UNL A   1      44.186  31.071  27.058  1.00  0.00     0.031 C 
ATOM     50  C   UNL A   1      38.314  28.979  29.322  1.00  0.00     0.029 A 
ATOM     51  C   UNL A   1      38.908  30.138  29.971  1.00  0.00     0.049 A 
ATOM     52  H   UNL A   1      40.945  30.564  30.122  1.00  0.00     0.167 HD
ATOM     53  C   UNL A   1      45.030  32.038  29.236  1.00  0.00     0.037 A 
ATOM     54  C   UNL A   1      38.343  31.210  30.573  1.00  0.00     0.037 A 
ATOM     55  C   UNL A   1      45.110  31.674  30.624  1.00  0.00     0.049 A 
ATOM     56  C   UNL A   1      39.412  31.915  31.336  1.00  0.00     0.074 A 
ATOM     57  C   UNL A   1      45.681  30.621  31.313  1.00  0.00     0.029 A 
ATOM     58  N   UNL A   1      44.220  32.254  31.495  1.00  0.00    -0.354 N 
ATOM     59  N   UNL A   1      40.029  31.417  32.375  1.00  0.00    -0.248 NA
ATOM     60  C   UNL A   1      40.093  33.035  30.699  1.00  0.00     0.031 C 
ATOM     61  C   UNL A   1      44.804  30.358  32.404  1.00  0.00     0.029 A 
ATOM     62  C   UNL A   1      43.746  31.266  32.325  1.00  0.00     0.049 A 
ATOM     63  H   UNL A   1      43.968  33.206  31.522  1.00  0.00     0.167 HD
ATOM     64  C   UNL A   1      41.333  31.889  32.289  1.00  0.00     0.074 A 
ATOM     65  C   UNL A   1      41.278  32.968  31.310  1.00  0.00     0.031 C 
ATOM     66  C   UNL A   1      42.383  31.189  32.815  1.00  0.00     0.037 A 
BRANCH  53  67
ATOM     67  C   UNL A   1      45.199  33.432  28.723  1.00  0.00     0.058 A 
ATOM     68  C   UNL A   1      46.472  34.012  28.661  1.00  0.00     0.135 A 
ATOM     69  C   UNL A   1      44.100  34.297  28.500  1.00  0.00     0.135 A 
ATOM     70  F   UNL A   1      47.567  33.276  28.904  1.00  0.00    -0.206 F 
ATOM     71  C   UNL A   1      46.643  35.373  28.414  1.00  0.00     0.059 A 
ATOM     72  C   UNL A   1      44.249  35.636  28.184  1.00  0.00     0.059 A 
ATOM     73  F   UNL A   1      42.832  33.894  28.673  1.00  0.00    -0.206 F 
ATOM     74  C   UNL A   1      45.524  36.175  28.187  1.00  0.00     0.060 A 
BRANCH  74  75
ATOM     75  S   UNL A   1      45.725  37.950  27.982  1.00  0.00     0.124 S 
ATOM     76  O   UNL A   1      44.340  38.402  28.058  1.00  0.00    -0.237 OA
ATOM     77  O   UNL A   1      46.576  38.298  29.116  1.00  0.00    -0.237 OA
ATOM     78  O   UNL A   1      46.360  38.064  26.672  1.00  0.00    -0.744 OA
ENDBRANCH  74  75
ENDBRANCH  53  67
BRANCH  54  79
ATOM     79  C   UNL A   1      37.051  31.837  30.197  1.00  0.00     0.058 A 
ATOM     80  C   UNL A   1      36.126  32.245  31.171  1.00  0.00     0.135 A 
ATOM     81  C   UNL A   1      36.797  32.267  28.877  1.00  0.00     0.135 A 
ATOM     82  F   UNL A   1      36.315  31.919  32.458  1.00  0.00    -0.206 F 
ATOM     83  C   UNL A   1      35.021  33.043  30.857  1.00  0.00     0.059 A 
ATOM     84  C   UNL A   1      35.695  33.044  28.537  1.00  0.00     0.059 A 
ATOM     85  F   UNL A   1      37.662  32.016  27.883  1.00  0.00    -0.206 F 
ATOM     86  C   UNL A   1      34.819  33.445  29.535  1.00  0.00     0.060 A 
BRANCH  86  87
ATOM     87  S   UNL A   1      33.466  34.576  29.143  1.00  0.00     0.124 S 
ATOM     88  O   UNL A   1      32.658  33.773  28.232  1.00  0.00    -0.237 OA
ATOM     89  O   UNL A   1      32.887  34.829  30.458  1.00  0.00    -0.237 OA
ATOM     90  O   UNL A   1      34.143  35.718  28.534  1.00  0.00    -0.744 OA
ENDBRANCH  86  87
ENDBRANCH  54  79
BRANCH  66  91
ATOM     91  C   UNL A   1      42.070  30.058  33.762  1.00  0.00     0.058 A 
ATOM     92  C   UNL A   1      41.779  28.750  33.336  1.00  0.00     0.135 A 
ATOM     93  C   UNL A   1      42.230  30.261  35.140  1.00  0.00     0.135 A 
ATOM     94  F   UNL A   1      41.717  28.452  32.030  1.00  0.00    -0.206 F 
ATOM     95  C   UNL A   1      41.616  27.699  34.241  1.00  0.00     0.059 A 
ATOM     96  C   UNL A   1      42.099  29.221  36.060  1.00  0.00     0.059 A 
ATOM     97  F   UNL A   1      42.574  31.473  35.607  1.00  0.00    -0.206 F 
ATOM     98  C   UNL A   1      41.782  27.943  35.603  1.00  0.00     0.060 A 
BRANCH  98  99
ATOM     99  S   UNL A   1      41.677  26.560  36.761  1.00  0.00     0.124 S 
ATOM    100  O   UNL A   1      42.914  26.700  37.523  1.00  0.00    -0.237 OA
ATOM    101  O   UNL A   1      40.447  26.845  37.494  1.00  0.00    -0.237 OA
ATOM    102  O   UNL A   1      41.612  25.389  35.889  1.00  0.00    -0.744 OA
ENDBRANCH  98  99
ENDBRANCH  66  91
ENDBRANCH  40  41
ENDBRANCH  33  35
ENDBRANCH  32  33
ENDBRANCH  31  32
ENDBRANCH   1  31
TORSDOF 19
ENDMDL
MODEL 3
REMARK VINA RESULT:     -11.5      2.881      8.215
REMARK SMILES CCn1nc(C(=O)OCCOC(=O)c2ccc(-c3c4nc(c(-c5c(F)cc(S(=O)(=O)[O-])cc5F)c5ccc([nH]5)c(-c5c(F)cc(S(=O)(=O)[O-])cc5F)c5nc(c(-c6c(F)cc(S(=O)(=O)[O-])cc6F)c6ccc3[nH]6)C=C5)C=C4)cc2)c2c1CC[C@H]([NH2+]Cc1nn(CC)c3ccccc13)C2
REMARK SMILES IDX 9 1 8 2 6 3 7 4 5 5 3 6 4 7 81 8 80 9 82 10 98 11 83 12
REMARK SMILES IDX 84 13 2 14 1 15 85 16 86 19 87 20 88 21 97 22 89 23 92 24
REMARK SMILES IDX 96 25 93 26 95 27 94 28 90 29 91 30 10 31 11 32 12 33 13 34
REMARK SMILES IDX 14 35 15 36 79 37 16 38 78 39 17 40 18 41 19 42 72 43 20 44
REMARK SMILES IDX 77 45 71 46 73 47 21 48 76 49 70 50 69 51 22 53 56 54 35 55
REMARK SMILES IDX 55 56 36 57 39 58 54 59 74 60 37 61 38 62 53 64 75 65 40 66
REMARK SMILES IDX 23 67 24 68 33 69 25 70 26 71 32 72 34 73 27 74 28 75 29 76
REMARK SMILES IDX 30 77 31 78 57 79 58 80 67 81 59 82 60 83 66 84 68 85 61 86
REMARK SMILES IDX 62 87 63 88 64 89 65 90 41 91 42 92 51 93 43 94 44 95 50 96
REMARK SMILES IDX 52 97 45 98 46 99 47 100 48 101 49 102
REMARK H PARENT 85 17 85 18 73 52 39 63
REMARK Flexibility Score: inf
ROOT
ATOM      1  C   UNL A   1      33.960  28.736  27.354  1.00  0.00     0.275 C 
ENDROOT
BRANCH   1   2
ATOM      2  O   UNL A   1      32.564  29.016  27.173  1.00  0.00    -0.457 OA
BRANCH   2   3
ATOM      3  C   UNL A   1      31.627  28.109  26.764  1.00  0.00     0.359 C 
ATOM      4  O   UNL A   1      31.069  27.296  27.496  1.00  0.00    -0.244 OA
BRANCH   3   5
ATOM      5  C   UNL A   1      31.485  28.176  25.303  1.00  0.00     0.174 A 
ATOM      6  N   UNL A   1      30.885  28.634  23.297  1.00  0.00    -0.269 N 
ATOM      7  N   UNL A   1      30.784  29.074  24.584  1.00  0.00    -0.165 NA
ATOM      8  C   UNL A   1      31.508  27.416  23.210  1.00  0.00     0.043 A 
ATOM      9  C   UNL A   1      31.984  27.161  24.460  1.00  0.00     0.014 A 
ATOM     10  C   UNL A   1      31.619  26.428  22.113  1.00  0.00     0.062 C 
ATOM     11  C   UNL A   1      32.670  25.931  24.872  1.00  0.00     0.105 C 
ATOM     12  C   UNL A   1      31.531  24.995  22.742  1.00  0.00     0.072 C 
ATOM     13  C   UNL A   1      32.469  24.716  23.971  1.00  0.00     0.187 C 
BRANCH   6  14
ATOM     14  C   UNL A   1      30.289  29.396  22.212  1.00  0.00     0.141 C 
ATOM     15  C   UNL A   1      28.767  29.489  22.229  1.00  0.00     0.029 C 
ENDBRANCH   6  14
BRANCH  13  16
ATOM     16  N   UNL A   1      31.982  23.534  24.759  1.00  0.00    -0.338 N 
ATOM     17  H   UNL A   1      31.052  23.753  25.113  1.00  0.00     0.346 HD
ATOM     18  H   UNL A   1      32.674  23.380  25.494  1.00  0.00     0.346 HD
BRANCH  16  19
ATOM     19  C   UNL A   1      31.896  22.249  23.996  1.00  0.00     0.320 C 
BRANCH  19  20
ATOM     20  C   UNL A   1      33.027  21.260  24.324  1.00  0.00     0.124 A 
ATOM     21  N   UNL A   1      34.166  21.649  24.933  1.00  0.00    -0.171 NA
ATOM     22  C   UNL A   1      33.095  19.872  23.961  1.00  0.00     0.029 A 
ATOM     23  N   UNL A   1      34.969  20.551  24.886  1.00  0.00    -0.265 N 
ATOM     24  C   UNL A   1      34.311  19.416  24.470  1.00  0.00     0.069 A 
ATOM     25  C   UNL A   1      32.307  18.971  23.210  1.00  0.00     0.012 A 
ATOM     26  C   UNL A   1      34.699  18.069  24.407  1.00  0.00     0.028 A 
ATOM     27  C   UNL A   1      32.747  17.648  23.041  1.00  0.00     0.001 A 
ATOM     28  C   UNL A   1      33.907  17.197  23.662  1.00  0.00     0.002 A 
BRANCH  23  29
ATOM     29  C   UNL A   1      36.387  20.678  25.199  1.00  0.00     0.141 C 
ATOM     30  C   UNL A   1      37.118  21.903  24.641  1.00  0.00     0.029 C 
ENDBRANCH  23  29
ENDBRANCH  19  20
ENDBRANCH  16  19
ENDBRANCH  13  16
ENDBRANCH   3   5
ENDBRANCH   2   3
ENDBRANCH   1   2
BRANCH   1  31
ATOM     31  C   UNL A   1      34.823  29.980  27.251  1.00  0.00     0.275 C 
BRANCH  31  32
ATOM     32  O   UNL A   1      34.453  30.820  28.324  1.00  0.00    -0.458 OA
BRANCH  32  33
ATOM     33  C   UNL A   1      33.844  31.955  27.878  1.00  0.00     0.338 C 
ATOM     34  O   UNL A   1      33.040  32.033  26.981  1.00  0.00    -0.246 OA
BRANCH  33  35
ATOM     35  C   UNL A   1      34.273  33.091  28.754  1.00  0.00     0.060 A 
ATOM     36  C   UNL A   1      35.194  33.865  28.064  1.00  0.00     0.016 A 
ATOM     37  C   UNL A   1      34.460  32.737  30.095  1.00  0.00     0.016 A 
ATOM     38  C   UNL A   1      36.493  33.634  28.418  1.00  0.00     0.010 A 
ATOM     39  C   UNL A   1      35.752  32.468  30.449  1.00  0.00     0.010 A 
ATOM     40  C   UNL A   1      36.735  32.810  29.526  1.00  0.00    -0.014 A 
BRANCH  40  41
ATOM     41  C   UNL A   1      38.081  32.345  29.686  1.00  0.00     0.031 A 
ATOM     42  C   UNL A   1      38.218  30.930  29.337  1.00  0.00     0.074 A 
ATOM     43  C   UNL A   1      39.095  33.129  30.079  1.00  0.00     0.049 A 
ATOM     44  N   UNL A   1      38.404  29.933  30.132  1.00  0.00    -0.248 NA
ATOM     45  C   UNL A   1      37.919  30.575  27.943  1.00  0.00     0.031 C 
ATOM     46  C   UNL A   1      39.158  34.590  30.150  1.00  0.00     0.029 A 
ATOM     47  N   UNL A   1      40.351  32.739  30.406  1.00  0.00    -0.354 N 
ATOM     48  C   UNL A   1      38.459  28.831  29.297  1.00  0.00     0.074 A 
ATOM     49  C   UNL A   1      37.968  29.248  28.007  1.00  0.00     0.031 C 
ATOM     50  C   UNL A   1      40.454  34.959  30.285  1.00  0.00     0.029 A 
ATOM     51  C   UNL A   1      41.274  33.766  30.431  1.00  0.00     0.049 A 
ATOM     52  H   UNL A   1      40.585  31.804  30.608  1.00  0.00     0.167 HD
ATOM     53  C   UNL A   1      39.161  27.722  29.633  1.00  0.00     0.037 A 
ATOM     54  C   UNL A   1      42.617  33.604  30.444  1.00  0.00     0.037 A 
ATOM     55  C   UNL A   1      39.437  27.642  31.041  1.00  0.00     0.049 A 
ATOM     56  C   UNL A   1      42.901  32.228  30.940  1.00  0.00     0.074 A 
ATOM     57  C   UNL A   1      38.649  27.603  32.176  1.00  0.00     0.029 A 
ATOM     58  N   UNL A   1      40.700  27.968  31.471  1.00  0.00    -0.354 N 
ATOM     59  N   UNL A   1      42.647  31.813  32.154  1.00  0.00    -0.248 NA
ATOM     60  C   UNL A   1      43.103  31.167  29.962  1.00  0.00     0.031 C 
ATOM     61  C   UNL A   1      39.376  28.323  33.168  1.00  0.00     0.029 A 
ATOM     62  C   UNL A   1      40.568  28.759  32.588  1.00  0.00     0.049 A 
ATOM     63  H   UNL A   1      41.547  27.687  31.055  1.00  0.00     0.167 HD
ATOM     64  C   UNL A   1      42.278  30.481  32.018  1.00  0.00     0.074 A 
ATOM     65  C   UNL A   1      42.690  30.112  30.669  1.00  0.00     0.031 C 
ATOM     66  C   UNL A   1      41.432  29.879  32.908  1.00  0.00     0.037 A 
BRANCH  53  67
ATOM     67  C   UNL A   1      39.887  26.934  28.590  1.00  0.00     0.058 A 
ATOM     68  C   UNL A   1      39.667  25.558  28.463  1.00  0.00     0.135 A 
ATOM     69  C   UNL A   1      40.972  27.469  27.853  1.00  0.00     0.135 A 
ATOM     70  F   UNL A   1      38.689  24.960  29.161  1.00  0.00    -0.206 F 
ATOM     71  C   UNL A   1      40.486  24.756  27.671  1.00  0.00     0.059 A 
ATOM     72  C   UNL A   1      41.756  26.705  27.007  1.00  0.00     0.059 A 
ATOM     73  F   UNL A   1      41.373  28.741  28.001  1.00  0.00    -0.206 F 
ATOM     74  C   UNL A   1      41.533  25.339  26.956  1.00  0.00     0.060 A 
BRANCH  74  75
ATOM     75  S   UNL A   1      42.665  24.300  26.024  1.00  0.00     0.124 S 
ATOM     76  O   UNL A   1      41.860  23.097  25.843  1.00  0.00    -0.237 OA
ATOM     77  O   UNL A   1      42.901  25.099  24.825  1.00  0.00    -0.237 OA
ATOM     78  O   UNL A   1      43.811  24.170  26.919  1.00  0.00    -0.744 OA
ENDBRANCH  74  75
ENDBRANCH  53  67
BRANCH  54  79
ATOM     79  C   UNL A   1      43.599  34.426  29.693  1.00  0.00     0.058 A 
ATOM     80  C   UNL A   1      43.878  34.177  28.340  1.00  0.00     0.135 A 
ATOM     81  C   UNL A   1      44.112  35.629  30.224  1.00  0.00     0.135 A 
ATOM     82  F   UNL A   1      43.390  33.079  27.743  1.00  0.00    -0.206 F 
ATOM     83  C   UNL A   1      44.612  35.074  27.556  1.00  0.00     0.059 A 
ATOM     84  C   UNL A   1      44.861  36.526  29.470  1.00  0.00     0.059 A 
ATOM     85  F   UNL A   1      43.829  36.015  31.477  1.00  0.00    -0.206 F 
ATOM     86  C   UNL A   1      45.092  36.251  28.130  1.00  0.00     0.060 A 
BRANCH  86  87
ATOM     87  S   UNL A   1      45.933  37.470  27.096  1.00  0.00     0.124 S 
ATOM     88  O   UNL A   1      44.846  38.385  26.764  1.00  0.00    -0.237 OA
ATOM     89  O   UNL A   1      46.953  37.990  28.001  1.00  0.00    -0.237 OA
ATOM     90  O   UNL A   1      46.442  36.677  25.980  1.00  0.00    -0.744 OA
ENDBRANCH  86  87
ENDBRANCH  54  79
BRANCH  66  91
ATOM     91  C   UNL A   1      41.159  30.590  34.209  1.00  0.00     0.058 A 
ATOM     92  C   UNL A   1      41.973  30.460  35.348  1.00  0.00     0.135 A 
ATOM     93  C   UNL A   1      40.143  31.556  34.257  1.00  0.00     0.135 A 
ATOM     94  F   UNL A   1      43.031  29.636  35.343  1.00  0.00    -0.206 F 
ATOM     95  C   UNL A   1      41.765  31.226  36.496  1.00  0.00     0.059 A 
ATOM     96  C   UNL A   1      39.933  32.352  35.383  1.00  0.00     0.059 A 
ATOM     97  F   UNL A   1      39.373  31.777  33.178  1.00  0.00    -0.206 F 
ATOM     98  C   UNL A   1      40.743  32.175  36.504  1.00  0.00     0.060 A 
BRANCH  98  99
ATOM     99  S   UNL A   1      40.544  33.239  37.951  1.00  0.00     0.124 S 
ATOM    100  O   UNL A   1      41.041  32.390  39.028  1.00  0.00    -0.237 OA
ATOM    101  O   UNL A   1      41.375  34.393  37.619  1.00  0.00    -0.237 OA
ATOM    102  O   UNL A   1      39.108  33.508  37.981  1.00  0.00    -0.744 OA
ENDBRANCH  98  99
ENDBRANCH  66  91
ENDBRANCH  40  41
ENDBRANCH  33  35
ENDBRANCH  32  33
ENDBRANCH  31  32
ENDBRANCH   1  31
TORSDOF 19
ENDMDL
