MODEL 1
REMARK VINA RESULT:     -11.0      0.000      0.000
REMARK SMILES O=C(COCCNC(=O)c1cc(Cl)c2c(c1)OCCO2)OCCOC(=O)c1ccc(-c2c3nc(c(-c4c(F)cc(S(=O)(=O)[O-])cc4F)c4ccc([nH]4)c(-c4c(F)cc(S(=O)(=O)[O-])cc4F)c4nc(c(-c5c(F)cc(S(=O)(=O)[O-])cc5F)c5ccc2[nH]5)C=C4)C=C3)cc1
REMARK SMILES IDX 22 1 21 2 2 3 1 4 3 5 4 6 5 7 6 8 7 9 8 10 9 12 10 13 11 14
REMARK SMILES IDX 16 15 12 16 15 17 13 18 14 19 17 20 20 21 18 22 19 23 23 24
REMARK SMILES IDX 24 25 25 26 26 27 27 28 28 29 92 30 29 31 91 32 30 33 31 34
REMARK SMILES IDX 32 35 85 36 33 37 90 38 84 39 86 40 34 41 89 42 83 43 82 44
REMARK SMILES IDX 35 46 69 47 48 48 68 49 49 50 52 51 67 52 87 53 50 54 51 55
REMARK SMILES IDX 66 57 88 58 53 59 36 60 37 61 46 62 38 63 39 64 45 65 47 66
REMARK SMILES IDX 40 67 41 68 42 69 43 70 44 71 70 72 71 73 80 74 72 75 73 76
REMARK SMILES IDX 79 77 81 78 74 79 75 80 76 81 77 82 78 83 54 84 55 85 64 86
REMARK SMILES IDX 56 87 57 88 63 89 65 90 58 91 59 92 60 93 61 94 62 95
REMARK H PARENT 7 11 86 45 52 56
REMARK Flexibility Score: inf
ROOT
ATOM      1  C   UNL A   1      44.017  22.274  25.549  1.00  0.00     0.274 C 
ENDROOT
BRANCH   1   2
ATOM      2  O   UNL A   1      42.664  21.803  25.381  1.00  0.00    -0.460 OA
BRANCH   2   3
ATOM      3  C   UNL A   1      42.040  20.908  26.178  1.00  0.00     0.332 C 
ATOM      4  O   UNL A   1      42.155  19.706  25.941  1.00  0.00    -0.250 OA
BRANCH   3   5
ATOM      5  C   UNL A   1      41.243  21.397  27.393  1.00  0.00     0.282 C 
BRANCH   5   6
ATOM      6  O   UNL A   1      39.832  21.434  27.265  1.00  0.00    -0.368 OA
BRANCH   6   7
ATOM      7  C   UNL A   1      39.323  21.439  25.925  1.00  0.00     0.182 C 
BRANCH   7   8
ATOM      8  C   UNL A   1      37.979  22.168  25.760  1.00  0.00     0.144 C 
BRANCH   8   9
ATOM      9  N   UNL A   1      37.710  22.591  24.388  1.00  0.00    -0.350 N 
ATOM     10  C   UNL A   1      36.531  22.778  23.719  1.00  0.00     0.251 C 
ATOM     11  H   UNL A   1      38.516  22.774  23.852  1.00  0.00     0.163 HD
ATOM     12  O   UNL A   1      36.526  23.041  22.520  1.00  0.00    -0.269 OA
BRANCH  10  13
ATOM     13  C   UNL A   1      35.255  22.618  24.431  1.00  0.00     0.045 A 
ATOM     14  C   UNL A   1      34.621  21.376  24.493  1.00  0.00     0.038 A 
ATOM     15  C   UNL A   1      34.684  23.747  25.021  1.00  0.00     0.064 A 
ATOM     16  C   UNL A   1      33.353  21.287  25.066  1.00  0.00     0.087 A 
ATOM     17  C   UNL A   1      33.419  23.651  25.589  1.00  0.00     0.163 A 
ATOM     18  Cl  UNL A   1      32.555  19.756  25.050  1.00  0.00    -0.080 Cl
ATOM     19  C   UNL A   1      32.740  22.423  25.610  1.00  0.00     0.179 A 
ATOM     20  O   UNL A   1      32.892  24.814  26.089  1.00  0.00    -0.486 OA
ATOM     21  O   UNL A   1      31.471  22.297  26.121  1.00  0.00    -0.485 OA
ATOM     22  C   UNL A   1      31.473  24.720  26.238  1.00  0.00     0.271 C 
ATOM     23  C   UNL A   1      31.094  23.419  26.920  1.00  0.00     0.271 C 
ENDBRANCH  10  13
ENDBRANCH   8   9
ENDBRANCH   7   8
ENDBRANCH   6   7
ENDBRANCH   5   6
ENDBRANCH   3   5
ENDBRANCH   2   3
ENDBRANCH   1   2
BRANCH   1  24
ATOM     24  C   UNL A   1      44.043  23.779  25.815  1.00  0.00     0.275 C 
BRANCH  24  25
ATOM     25  O   UNL A   1      42.805  24.202  26.416  1.00  0.00    -0.458 OA
BRANCH  25  26
ATOM     26  C   UNL A   1      42.339  25.418  26.017  1.00  0.00     0.338 C 
ATOM     27  O   UNL A   1      42.025  25.744  24.895  1.00  0.00    -0.246 OA
BRANCH  26  28
ATOM     28  C   UNL A   1      42.120  26.257  27.220  1.00  0.00     0.060 A 
ATOM     29  C   UNL A   1      41.029  25.958  28.041  1.00  0.00     0.016 A 
ATOM     30  C   UNL A   1      42.979  27.312  27.546  1.00  0.00     0.016 A 
ATOM     31  C   UNL A   1      40.805  26.707  29.200  1.00  0.00     0.010 A 
ATOM     32  C   UNL A   1      42.733  28.079  28.692  1.00  0.00     0.010 A 
ATOM     33  C   UNL A   1      41.642  27.785  29.523  1.00  0.00    -0.014 A 
BRANCH  33  34
ATOM     34  C   UNL A   1      41.277  28.685  30.645  1.00  0.00     0.031 A 
ATOM     35  C   UNL A   1      42.035  28.566  31.938  1.00  0.00     0.074 A 
ATOM     36  C   UNL A   1      40.294  29.598  30.526  1.00  0.00     0.049 A 
ATOM     37  N   UNL A   1      41.954  29.305  33.013  1.00  0.00    -0.248 NA
ATOM     38  C   UNL A   1      43.019  27.474  32.030  1.00  0.00     0.031 C 
ATOM     39  C   UNL A   1      39.478  29.819  29.334  1.00  0.00     0.029 A 
ATOM     40  N   UNL A   1      39.812  30.509  31.434  1.00  0.00    -0.354 N 
ATOM     41  C   UNL A   1      42.908  28.801  33.889  1.00  0.00     0.074 A 
ATOM     42  C   UNL A   1      43.525  27.666  33.239  1.00  0.00     0.031 C 
ATOM     43  C   UNL A   1      38.580  30.789  29.592  1.00  0.00     0.029 A 
ATOM     44  C   UNL A   1      38.757  31.258  30.966  1.00  0.00     0.049 A 
ATOM     45  H   UNL A   1      40.187  30.616  32.339  1.00  0.00     0.167 HD
ATOM     46  C   UNL A   1      43.252  29.254  35.115  1.00  0.00     0.037 A 
ATOM     47  C   UNL A   1      38.017  32.204  31.580  1.00  0.00     0.037 A 
ATOM     48  C   UNL A   1      42.614  30.353  35.784  1.00  0.00     0.049 A 
ATOM     49  C   UNL A   1      38.341  32.608  32.998  1.00  0.00     0.074 A 
ATOM     50  C   UNL A   1      42.932  30.913  37.010  1.00  0.00     0.029 A 
ATOM     51  N   UNL A   1      41.509  31.037  35.304  1.00  0.00    -0.354 N 
ATOM     52  N   UNL A   1      39.321  32.201  33.766  1.00  0.00    -0.248 NA
ATOM     53  C   UNL A   1      37.455  33.598  33.632  1.00  0.00     0.031 C 
ATOM     54  C   UNL A   1      41.982  31.898  37.296  1.00  0.00     0.029 A 
ATOM     55  C   UNL A   1      41.097  31.975  36.233  1.00  0.00     0.049 A 
ATOM     56  H   UNL A   1      41.081  30.877  34.432  1.00  0.00     0.167 HD
ATOM     57  C   UNL A   1      39.181  32.895  34.965  1.00  0.00     0.074 A 
ATOM     58  C   UNL A   1      38.025  33.755  34.820  1.00  0.00     0.031 C 
ATOM     59  C   UNL A   1      39.944  32.825  36.083  1.00  0.00     0.037 A 
BRANCH  46  60
ATOM     60  C   UNL A   1      44.377  28.560  35.819  1.00  0.00     0.058 A 
ATOM     61  C   UNL A   1      44.130  27.486  36.688  1.00  0.00     0.135 A 
ATOM     62  C   UNL A   1      45.709  28.925  35.579  1.00  0.00     0.135 A 
ATOM     63  F   UNL A   1      42.870  27.113  36.960  1.00  0.00    -0.206 F 
ATOM     64  C   UNL A   1      45.171  26.795  37.298  1.00  0.00     0.059 A 
ATOM     65  C   UNL A   1      46.767  28.238  36.166  1.00  0.00     0.059 A 
ATOM     66  F   UNL A   1      45.991  29.953  34.764  1.00  0.00    -0.206 F 
ATOM     67  C   UNL A   1      46.486  27.178  37.028  1.00  0.00     0.060 A 
BRANCH  67  68
ATOM     68  S   UNL A   1      47.826  26.251  37.805  1.00  0.00     0.124 S 
ATOM     69  O   UNL A   1      47.124  25.061  38.274  1.00  0.00    -0.237 OA
ATOM     70  O   UNL A   1      48.749  26.046  36.694  1.00  0.00    -0.237 OA
ATOM     71  O   UNL A   1      48.301  27.151  38.851  1.00  0.00    -0.744 OA
ENDBRANCH  67  68
ENDBRANCH  46  60
BRANCH  47  72
ATOM     72  C   UNL A   1      36.873  32.835  30.873  1.00  0.00     0.058 A 
ATOM     73  C   UNL A   1      37.076  33.820  29.895  1.00  0.00     0.135 A 
ATOM     74  C   UNL A   1      35.550  32.492  31.192  1.00  0.00     0.135 A 
ATOM     75  F   UNL A   1      38.322  34.192  29.568  1.00  0.00    -0.206 F 
ATOM     76  C   UNL A   1      36.007  34.458  29.272  1.00  0.00     0.059 A 
ATOM     77  C   UNL A   1      34.465  33.103  30.571  1.00  0.00     0.059 A 
ATOM     78  F   UNL A   1      35.303  31.551  32.117  1.00  0.00    -0.206 F 
ATOM     79  C   UNL A   1      34.705  34.095  29.620  1.00  0.00     0.060 A 
BRANCH  79  80
ATOM     80  S   UNL A   1      33.323  34.915  28.794  1.00  0.00     0.124 S 
ATOM     81  O   UNL A   1      32.467  35.257  29.924  1.00  0.00    -0.237 OA
ATOM     82  O   UNL A   1      33.983  36.035  28.129  1.00  0.00    -0.237 OA
ATOM     83  O   UNL A   1      32.807  33.882  27.900  1.00  0.00    -0.744 OA
ENDBRANCH  79  80
ENDBRANCH  47  72
BRANCH  59  84
ATOM     84  C   UNL A   1      39.566  33.681  37.259  1.00  0.00     0.058 A 
ATOM     85  C   UNL A   1      38.758  33.179  38.290  1.00  0.00     0.135 A 
ATOM     86  C   UNL A   1      40.119  34.962  37.421  1.00  0.00     0.135 A 
ATOM     87  F   UNL A   1      38.198  31.964  38.179  1.00  0.00    -0.206 F 
ATOM     88  C   UNL A   1      38.523  33.912  39.449  1.00  0.00     0.059 A 
ATOM     89  C   UNL A   1      39.913  35.704  38.580  1.00  0.00     0.059 A 
ATOM     90  F   UNL A   1      40.905  35.484  36.465  1.00  0.00    -0.206 F 
ATOM     91  C   UNL A   1      39.116  35.168  39.590  1.00  0.00     0.060 A 
BRANCH  91  92
ATOM     92  S   UNL A   1      38.884  36.063  41.143  1.00  0.00     0.124 S 
ATOM     93  O   UNL A   1      38.730  37.435  40.672  1.00  0.00    -0.237 OA
ATOM     94  O   UNL A   1      37.681  35.440  41.685  1.00  0.00    -0.237 OA
ATOM     95  O   UNL A   1      40.112  35.787  41.882  1.00  0.00    -0.744 OA
ENDBRANCH  91  92
ENDBRANCH  59  84
ENDBRANCH  33  34
ENDBRANCH  26  28
ENDBRANCH  25  26
ENDBRANCH  24  25
ENDBRANCH   1  24
TORSDOF 19
ENDMDL
MODEL 2
REMARK VINA RESULT:     -10.8      6.362     12.606
REMARK SMILES O=C(COCCNC(=O)c1cc(Cl)c2c(c1)OCCO2)OCCOC(=O)c1ccc(-c2c3nc(c(-c4c(F)cc(S(=O)(=O)[O-])cc4F)c4ccc([nH]4)c(-c4c(F)cc(S(=O)(=O)[O-])cc4F)c4nc(c(-c5c(F)cc(S(=O)(=O)[O-])cc5F)c5ccc2[nH]5)C=C4)C=C3)cc1
REMARK SMILES IDX 22 1 21 2 2 3 1 4 3 5 4 6 5 7 6 8 7 9 8 10 9 12 10 13 11 14
REMARK SMILES IDX 16 15 12 16 15 17 13 18 14 19 17 20 20 21 18 22 19 23 23 24
REMARK SMILES IDX 24 25 25 26 26 27 27 28 28 29 92 30 29 31 91 32 30 33 31 34
REMARK SMILES IDX 32 35 85 36 33 37 90 38 84 39 86 40 34 41 89 42 83 43 82 44
REMARK SMILES IDX 35 46 69 47 48 48 68 49 49 50 52 51 67 52 87 53 50 54 51 55
REMARK SMILES IDX 66 57 88 58 53 59 36 60 37 61 46 62 38 63 39 64 45 65 47 66
REMARK SMILES IDX 40 67 41 68 42 69 43 70 44 71 70 72 71 73 80 74 72 75 73 76
REMARK SMILES IDX 79 77 81 78 74 79 75 80 76 81 77 82 78 83 54 84 55 85 64 86
REMARK SMILES IDX 56 87 57 88 63 89 65 90 58 91 59 92 60 93 61 94 62 95
REMARK H PARENT 7 11 86 45 52 56
REMARK Flexibility Score: inf
ROOT
ATOM      1  C   UNL A   1      36.072  34.133  30.502  1.00  0.00     0.274 C 
ENDROOT
BRANCH   1   2
ATOM      2  O   UNL A   1      35.391  34.170  29.231  1.00  0.00    -0.460 OA
BRANCH   2   3
ATOM      3  C   UNL A   1      34.095  33.846  29.024  1.00  0.00     0.332 C 
ATOM      4  O   UNL A   1      33.212  34.524  29.548  1.00  0.00    -0.250 OA
BRANCH   3   5
ATOM      5  C   UNL A   1      33.743  32.673  28.102  1.00  0.00     0.282 C 
BRANCH   5   6
ATOM      6  O   UNL A   1      34.819  32.027  27.444  1.00  0.00    -0.368 OA
BRANCH   6   7
ATOM      7  C   UNL A   1      35.092  30.682  27.857  1.00  0.00     0.182 C 
BRANCH   7   8
ATOM      8  C   UNL A   1      34.373  29.605  27.029  1.00  0.00     0.144 C 
BRANCH   8   9
ATOM      9  N   UNL A   1      33.285  28.947  27.747  1.00  0.00    -0.350 N 
ATOM     10  C   UNL A   1      32.261  28.156  27.300  1.00  0.00     0.251 C 
ATOM     11  H   UNL A   1      33.289  29.097  28.720  1.00  0.00     0.163 HD
ATOM     12  O   UNL A   1      31.379  27.781  28.067  1.00  0.00    -0.269 OA
BRANCH  10  13
ATOM     13  C   UNL A   1      32.191  27.787  25.880  1.00  0.00     0.045 A 
ATOM     14  C   UNL A   1      31.337  28.463  25.006  1.00  0.00     0.038 A 
ATOM     15  C   UNL A   1      32.982  26.728  25.434  1.00  0.00     0.064 A 
ATOM     16  C   UNL A   1      31.201  28.006  23.696  1.00  0.00     0.087 A 
ATOM     17  C   UNL A   1      32.841  26.276  24.126  1.00  0.00     0.163 A 
ATOM     18  Cl  UNL A   1      30.072  28.806  22.664  1.00  0.00    -0.080 Cl
ATOM     19  C   UNL A   1      31.945  26.906  23.249  1.00  0.00     0.179 A 
ATOM     20  O   UNL A   1      33.601  25.189  23.778  1.00  0.00    -0.486 OA
ATOM     21  O   UNL A   1      31.743  26.461  21.965  1.00  0.00    -0.485 OA
ATOM     22  C   UNL A   1      33.082  24.545  22.612  1.00  0.00     0.271 C 
ATOM     23  C   UNL A   1      32.768  25.565  21.533  1.00  0.00     0.271 C 
ENDBRANCH  10  13
ENDBRANCH   8   9
ENDBRANCH   7   8
ENDBRANCH   6   7
ENDBRANCH   5   6
ENDBRANCH   3   5
ENDBRANCH   2   3
ENDBRANCH   1   2
BRANCH   1  24
ATOM     24  C   UNL A   1      35.725  32.858  31.271  1.00  0.00     0.275 C 
BRANCH  24  25
ATOM     25  O   UNL A   1      36.927  32.186  31.691  1.00  0.00    -0.458 OA
BRANCH  25  26
ATOM     26  C   UNL A   1      36.965  30.844  31.462  1.00  0.00     0.338 C 
ATOM     27  O   UNL A   1      36.043  30.064  31.555  1.00  0.00    -0.246 OA
BRANCH  26  28
ATOM     28  C   UNL A   1      38.298  30.495  30.916  1.00  0.00     0.060 A 
ATOM     29  C   UNL A   1      38.449  30.450  29.526  1.00  0.00     0.016 A 
ATOM     30  C   UNL A   1      39.388  30.230  31.751  1.00  0.00     0.016 A 
ATOM     31  C   UNL A   1      39.698  30.154  28.972  1.00  0.00     0.010 A 
ATOM     32  C   UNL A   1      40.629  29.904  31.192  1.00  0.00     0.010 A 
ATOM     33  C   UNL A   1      40.791  29.859  29.799  1.00  0.00    -0.014 A 
BRANCH  33  34
ATOM     34  C   UNL A   1      42.052  29.359  29.196  1.00  0.00     0.031 A 
ATOM     35  C   UNL A   1      43.189  30.323  29.004  1.00  0.00     0.074 A 
ATOM     36  C   UNL A   1      42.195  28.072  28.826  1.00  0.00     0.049 A 
ATOM     37  N   UNL A   1      44.406  30.092  28.587  1.00  0.00    -0.248 NA
ATOM     38  C   UNL A   1      42.922  31.735  29.329  1.00  0.00     0.031 C 
ATOM     39  C   UNL A   1      41.175  27.032  28.952  1.00  0.00     0.029 A 
ATOM     40  N   UNL A   1      43.265  27.423  28.258  1.00  0.00    -0.354 N 
ATOM     41  C   UNL A   1      45.063  31.314  28.648  1.00  0.00     0.074 A 
ATOM     42  C   UNL A   1      44.099  32.295  29.097  1.00  0.00     0.031 C 
ATOM     43  C   UNL A   1      41.662  25.880  28.455  1.00  0.00     0.029 A 
ATOM     44  C   UNL A   1      43.027  26.099  27.975  1.00  0.00     0.049 A 
ATOM     45  H   UNL A   1      44.124  27.867  28.071  1.00  0.00     0.167 HD
ATOM     46  C   UNL A   1      46.357  31.592  28.372  1.00  0.00     0.037 A 
ATOM     47  C   UNL A   1      43.817  25.175  27.390  1.00  0.00     0.037 A 
ATOM     48  C   UNL A   1      47.308  30.634  27.884  1.00  0.00     0.049 A 
ATOM     49  C   UNL A   1      45.221  25.542  26.974  1.00  0.00     0.074 A 
ATOM     50  C   UNL A   1      48.655  30.817  27.624  1.00  0.00     0.029 A 
ATOM     51  N   UNL A   1      47.009  29.324  27.547  1.00  0.00    -0.354 N 
ATOM     52  N   UNL A   1      45.861  26.672  27.148  1.00  0.00    -0.248 NA
ATOM     53  C   UNL A   1      46.007  24.509  26.281  1.00  0.00     0.031 C 
ATOM     54  C   UNL A   1      49.157  29.633  27.077  1.00  0.00     0.029 A 
ATOM     55  C   UNL A   1      48.131  28.703  27.030  1.00  0.00     0.049 A 
ATOM     56  H   UNL A   1      46.127  28.899  27.660  1.00  0.00     0.167 HD
ATOM     57  C   UNL A   1      47.128  26.481  26.602  1.00  0.00     0.074 A 
ATOM     58  C   UNL A   1      47.168  25.125  26.099  1.00  0.00     0.031 C 
ATOM     59  C   UNL A   1      48.162  27.353  26.528  1.00  0.00     0.037 A 
BRANCH  46  60
ATOM     60  C   UNL A   1      46.826  32.997  28.594  1.00  0.00     0.058 A 
ATOM     61  C   UNL A   1      46.765  33.949  27.564  1.00  0.00     0.135 A 
ATOM     62  C   UNL A   1      47.278  33.414  29.854  1.00  0.00     0.135 A 
ATOM     63  F   UNL A   1      46.355  33.591  26.337  1.00  0.00    -0.206 F 
ATOM     64  C   UNL A   1      47.140  35.270  27.778  1.00  0.00     0.059 A 
ATOM     65  C   UNL A   1      47.643  34.734  30.095  1.00  0.00     0.059 A 
ATOM     66  F   UNL A   1      47.362  32.534  30.866  1.00  0.00    -0.206 F 
ATOM     67  C   UNL A   1      47.575  35.653  29.048  1.00  0.00     0.060 A 
BRANCH  67  68
ATOM     68  S   UNL A   1      48.029  37.380  29.316  1.00  0.00     0.124 S 
ATOM     69  O   UNL A   1      49.119  37.546  28.360  1.00  0.00    -0.237 OA
ATOM     70  O   UNL A   1      46.790  38.082  28.994  1.00  0.00    -0.237 OA
ATOM     71  O   UNL A   1      48.418  37.416  30.722  1.00  0.00    -0.744 OA
ENDBRANCH  67  68
ENDBRANCH  46  60
BRANCH  47  72
ATOM     72  C   UNL A   1      43.302  23.804  27.133  1.00  0.00     0.058 A 
ATOM     73  C   UNL A   1      43.362  22.809  28.119  1.00  0.00     0.135 A 
ATOM     74  C   UNL A   1      42.778  23.454  25.879  1.00  0.00     0.135 A 
ATOM     75  F   UNL A   1      43.869  23.093  29.328  1.00  0.00    -0.206 F 
ATOM     76  C   UNL A   1      42.938  21.508  27.866  1.00  0.00     0.059 A 
ATOM     77  C   UNL A   1      42.332  22.164  25.608  1.00  0.00     0.059 A 
ATOM     78  F   UNL A   1      42.695  24.372  24.904  1.00  0.00    -0.206 F 
ATOM     79  C   UNL A   1      42.428  21.194  26.605  1.00  0.00     0.060 A 
BRANCH  79  80
ATOM     80  S   UNL A   1      41.863  19.507  26.290  1.00  0.00     0.124 S 
ATOM     81  O   UNL A   1      42.629  19.159  25.099  1.00  0.00    -0.237 OA
ATOM     82  O   UNL A   1      42.246  18.820  27.520  1.00  0.00    -0.237 OA
ATOM     83  O   UNL A   1      40.425  19.668  26.092  1.00  0.00    -0.744 OA
ENDBRANCH  79  80
ENDBRANCH  47  72
BRANCH  59  84
ATOM     84  C   UNL A   1      49.434  26.897  25.870  1.00  0.00     0.058 A 
ATOM     85  C   UNL A   1      49.692  27.177  24.520  1.00  0.00     0.135 A 
ATOM     86  C   UNL A   1      50.454  26.292  26.623  1.00  0.00     0.135 A 
ATOM     87  F   UNL A   1      48.746  27.745  23.755  1.00  0.00    -0.206 F 
ATOM     88  C   UNL A   1      50.924  26.888  23.942  1.00  0.00     0.059 A 
ATOM     89  C   UNL A   1      51.700  26.012  26.070  1.00  0.00     0.059 A 
ATOM     90  F   UNL A   1      50.259  26.010  27.921  1.00  0.00    -0.206 F 
ATOM     91  C   UNL A   1      51.926  26.318  24.729  1.00  0.00     0.060 A 
BRANCH  91  92
ATOM     92  S   UNL A   1      53.552  26.041  23.990  1.00  0.00     0.124 S 
ATOM     93  O   UNL A   1      53.966  24.803  24.641  1.00  0.00    -0.237 OA
ATOM     94  O   UNL A   1      53.236  25.936  22.569  1.00  0.00    -0.237 OA
ATOM     95  O   UNL A   1      54.306  27.232  24.371  1.00  0.00    -0.744 OA
ENDBRANCH  91  92
ENDBRANCH  59  84
ENDBRANCH  33  34
ENDBRANCH  26  28
ENDBRANCH  25  26
ENDBRANCH  24  25
ENDBRANCH   1  24
TORSDOF 19
ENDMDL
MODEL 3
REMARK VINA RESULT:     -10.8      1.343      2.038
REMARK SMILES O=C(COCCNC(=O)c1cc(Cl)c2c(c1)OCCO2)OCCOC(=O)c1ccc(-c2c3nc(c(-c4c(F)cc(S(=O)(=O)[O-])cc4F)c4ccc([nH]4)c(-c4c(F)cc(S(=O)(=O)[O-])cc4F)c4nc(c(-c5c(F)cc(S(=O)(=O)[O-])cc5F)c5ccc2[nH]5)C=C4)C=C3)cc1
REMARK SMILES IDX 22 1 21 2 2 3 1 4 3 5 4 6 5 7 6 8 7 9 8 10 9 12 10 13 11 14
REMARK SMILES IDX 16 15 12 16 15 17 13 18 14 19 17 20 20 21 18 22 19 23 23 24
REMARK SMILES IDX 24 25 25 26 26 27 27 28 28 29 92 30 29 31 91 32 30 33 31 34
REMARK SMILES IDX 32 35 85 36 33 37 90 38 84 39 86 40 34 41 89 42 83 43 82 44
REMARK SMILES IDX 35 46 69 47 48 48 68 49 49 50 52 51 67 52 87 53 50 54 51 55
REMARK SMILES IDX 66 57 88 58 53 59 36 60 37 61 46 62 38 63 39 64 45 65 47 66
REMARK SMILES IDX 40 67 41 68 42 69 43 70 44 71 70 72 71 73 80 74 72 75 73 76
REMARK SMILES IDX 79 77 81 78 74 79 75 80 76 81 77 82 78 83 54 84 55 85 64 86
REMARK SMILES IDX 56 87 57 88 63 89 65 90 58 91 59 92 60 93 61 94 62 95
REMARK H PARENT 7 11 86 45 52 56
REMARK Flexibility Score: inf
ROOT
ATOM      1  C   UNL A   1      44.151  22.342  25.554  1.00  0.00     0.274 C 
ENDROOT
BRANCH   1   2
ATOM      2  O   UNL A   1      42.810  21.860  25.329  1.00  0.00    -0.460 OA
BRANCH   2   3
ATOM      3  C   UNL A   1      42.193  20.892  26.044  1.00  0.00     0.332 C 
ATOM      4  O   UNL A   1      42.691  19.768  26.093  1.00  0.00    -0.250 OA
BRANCH   3   5
ATOM      5  C   UNL A   1      40.915  21.221  26.824  1.00  0.00     0.282 C 
BRANCH   5   6
ATOM      6  O   UNL A   1      39.777  21.594  26.066  1.00  0.00    -0.368 OA
BRANCH   6   7
ATOM      7  C   UNL A   1      39.028  22.710  26.563  1.00  0.00     0.182 C 
BRANCH   7   8
ATOM      8  C   UNL A   1      37.770  23.045  25.745  1.00  0.00     0.144 C 
BRANCH   8   9
ATOM      9  N   UNL A   1      36.637  22.168  26.032  1.00  0.00    -0.350 N 
ATOM     10  C   UNL A   1      35.293  22.342  25.839  1.00  0.00     0.251 C 
ATOM     11  H   UNL A   1      36.883  21.303  26.433  1.00  0.00     0.163 HD
ATOM     12  O   UNL A   1      34.489  21.512  26.251  1.00  0.00    -0.269 OA
BRANCH  10  13
ATOM     13  C   UNL A   1      34.804  23.557  25.173  1.00  0.00     0.045 A 
ATOM     14  C   UNL A   1      34.553  24.722  25.901  1.00  0.00     0.038 A 
ATOM     15  C   UNL A   1      34.573  23.506  23.797  1.00  0.00     0.064 A 
ATOM     16  C   UNL A   1      33.970  25.814  25.259  1.00  0.00     0.087 A 
ATOM     17  C   UNL A   1      33.990  24.599  23.164  1.00  0.00     0.163 A 
ATOM     18  Cl  UNL A   1      33.590  27.208  26.203  1.00  0.00    -0.080 Cl
ATOM     19  C   UNL A   1      33.678  25.757  23.890  1.00  0.00     0.179 A 
ATOM     20  O   UNL A   1      33.730  24.453  21.826  1.00  0.00    -0.486 OA
ATOM     21  O   UNL A   1      33.059  26.840  23.311  1.00  0.00    -0.485 OA
ATOM     22  C   UNL A   1      32.765  25.407  21.377  1.00  0.00     0.271 C 
ATOM     23  C   UNL A   1      33.110  26.794  21.885  1.00  0.00     0.271 C 
ENDBRANCH  10  13
ENDBRANCH   8   9
ENDBRANCH   7   8
ENDBRANCH   6   7
ENDBRANCH   5   6
ENDBRANCH   3   5
ENDBRANCH   2   3
ENDBRANCH   1   2
BRANCH   1  24
ATOM     24  C   UNL A   1      44.146  23.831  25.899  1.00  0.00     0.275 C 
BRANCH  24  25
ATOM     25  O   UNL A   1      42.913  24.190  26.548  1.00  0.00    -0.458 OA
BRANCH  25  26
ATOM     26  C   UNL A   1      42.360  25.371  26.157  1.00  0.00     0.338 C 
ATOM     27  O   UNL A   1      41.981  25.663  25.045  1.00  0.00    -0.246 OA
BRANCH  26  28
ATOM     28  C   UNL A   1      42.143  26.212  27.358  1.00  0.00     0.060 A 
ATOM     29  C   UNL A   1      41.051  25.916  28.180  1.00  0.00     0.016 A 
ATOM     30  C   UNL A   1      43.003  27.266  27.682  1.00  0.00     0.016 A 
ATOM     31  C   UNL A   1      40.829  26.667  29.338  1.00  0.00     0.010 A 
ATOM     32  C   UNL A   1      42.759  28.035  28.827  1.00  0.00     0.010 A 
ATOM     33  C   UNL A   1      41.668  27.743  29.659  1.00  0.00    -0.014 A 
BRANCH  33  34
ATOM     34  C   UNL A   1      41.305  28.646  30.781  1.00  0.00     0.031 A 
ATOM     35  C   UNL A   1      42.053  28.518  32.078  1.00  0.00     0.074 A 
ATOM     36  C   UNL A   1      40.331  29.568  30.657  1.00  0.00     0.049 A 
ATOM     37  N   UNL A   1      41.972  29.255  33.154  1.00  0.00    -0.248 NA
ATOM     38  C   UNL A   1      43.026  27.415  32.175  1.00  0.00     0.031 C 
ATOM     39  C   UNL A   1      39.525  29.799  29.459  1.00  0.00     0.029 A 
ATOM     40  N   UNL A   1      39.852  30.483  31.563  1.00  0.00    -0.354 N 
ATOM     41  C   UNL A   1      42.916  28.741  34.035  1.00  0.00     0.074 A 
ATOM     42  C   UNL A   1      43.526  27.600  33.388  1.00  0.00     0.031 C 
ATOM     43  C   UNL A   1      38.636  30.777  29.713  1.00  0.00     0.029 A 
ATOM     44  C   UNL A   1      38.808  31.242  31.090  1.00  0.00     0.049 A 
ATOM     45  H   UNL A   1      40.223  30.585  32.470  1.00  0.00     0.167 HD
ATOM     46  C   UNL A   1      43.256  29.189  35.264  1.00  0.00     0.037 A 
ATOM     47  C   UNL A   1      38.074  32.196  31.700  1.00  0.00     0.037 A 
ATOM     48  C   UNL A   1      42.625  30.292  35.931  1.00  0.00     0.049 A 
ATOM     49  C   UNL A   1      38.392  32.594  33.121  1.00  0.00     0.074 A 
ATOM     50  C   UNL A   1      42.940  30.847  37.159  1.00  0.00     0.029 A 
ATOM     51  N   UNL A   1      41.530  30.988  35.445  1.00  0.00    -0.354 N 
ATOM     52  N   UNL A   1      39.364  32.176  33.894  1.00  0.00    -0.248 NA
ATOM     53  C   UNL A   1      37.512  33.591  33.751  1.00  0.00     0.031 C 
ATOM     54  C   UNL A   1      41.999  31.842  37.441  1.00  0.00     0.029 A 
ATOM     55  C   UNL A   1      41.122  31.929  36.372  1.00  0.00     0.049 A 
ATOM     56  H   UNL A   1      41.106  30.834  34.569  1.00  0.00     0.167 HD
ATOM     57  C   UNL A   1      39.223  32.870  35.094  1.00  0.00     0.074 A 
ATOM     58  C   UNL A   1      38.077  33.741  34.942  1.00  0.00     0.031 C 
ATOM     59  C   UNL A   1      39.978  32.790  36.216  1.00  0.00     0.037 A 
BRANCH  46  60
ATOM     60  C   UNL A   1      44.370  28.482  35.974  1.00  0.00     0.058 A 
ATOM     61  C   UNL A   1      44.110  27.389  36.816  1.00  0.00     0.135 A 
ATOM     62  C   UNL A   1      45.706  28.855  35.766  1.00  0.00     0.135 A 
ATOM     63  F   UNL A   1      42.845  27.008  37.056  1.00  0.00    -0.206 F 
ATOM     64  C   UNL A   1      45.141  26.688  37.430  1.00  0.00     0.059 A 
ATOM     65  C   UNL A   1      46.754  28.158  36.359  1.00  0.00     0.059 A 
ATOM     66  F   UNL A   1      46.000  29.901  34.978  1.00  0.00    -0.206 F 
ATOM     67  C   UNL A   1      46.460  27.080  37.192  1.00  0.00     0.060 A 
BRANCH  67  68
ATOM     68  S   UNL A   1      47.788  26.140  37.975  1.00  0.00     0.124 S 
ATOM     69  O   UNL A   1      48.734  27.198  38.315  1.00  0.00    -0.237 OA
ATOM     70  O   UNL A   1      47.105  25.514  39.102  1.00  0.00    -0.237 OA
ATOM     71  O   UNL A   1      48.223  25.225  36.924  1.00  0.00    -0.744 OA
ENDBRANCH  67  68
ENDBRANCH  46  60
BRANCH  47  72
ATOM     72  C   UNL A   1      36.940  32.838  30.986  1.00  0.00     0.058 A 
ATOM     73  C   UNL A   1      35.613  32.468  31.248  1.00  0.00     0.135 A 
ATOM     74  C   UNL A   1      37.166  33.809  29.997  1.00  0.00     0.135 A 
ATOM     75  F   UNL A   1      35.348  31.534  32.174  1.00  0.00    -0.206 F 
ATOM     76  C   UNL A   1      34.549  33.022  30.541  1.00  0.00     0.059 A 
ATOM     77  C   UNL A   1      36.119  34.389  29.289  1.00  0.00     0.059 A 
ATOM     78  F   UNL A   1      38.418  34.200  29.713  1.00  0.00    -0.206 F 
ATOM     79  C   UNL A   1      34.814  33.979  29.560  1.00  0.00     0.060 A 
BRANCH  79  80
ATOM     80  S   UNL A   1      33.427  34.707  28.659  1.00  0.00     0.124 S 
ATOM     81  O   UNL A   1      32.462  34.922  29.731  1.00  0.00    -0.237 OA
ATOM     82  O   UNL A   1      34.028  35.910  28.091  1.00  0.00    -0.237 OA
ATOM     83  O   UNL A   1      33.077  33.673  27.691  1.00  0.00    -0.744 OA
ENDBRANCH  79  80
ENDBRANCH  47  72
BRANCH  59  84
ATOM     84  C   UNL A   1      39.601  33.648  37.391  1.00  0.00     0.058 A 
ATOM     85  C   UNL A   1      38.737  33.171  38.388  1.00  0.00     0.135 A 
ATOM     86  C   UNL A   1      40.206  34.900  37.588  1.00  0.00     0.135 A 
ATOM     87  F   UNL A   1      38.126  31.985  38.242  1.00  0.00    -0.206 F 
ATOM     88  C   UNL A   1      38.497  33.900  39.549  1.00  0.00     0.059 A 
ATOM     89  C   UNL A   1      39.997  35.637  38.750  1.00  0.00     0.059 A 
ATOM     90  F   UNL A   1      41.046  35.397  36.666  1.00  0.00    -0.206 F 
ATOM     91  C   UNL A   1      39.143  35.125  39.727  1.00  0.00     0.060 A 
BRANCH  91  92
ATOM     92  S   UNL A   1      38.900  36.011  41.283  1.00  0.00     0.124 S 
ATOM     93  O   UNL A   1      40.125  35.682  42.004  1.00  0.00    -0.237 OA
ATOM     94  O   UNL A   1      38.779  37.395  40.840  1.00  0.00    -0.237 OA
ATOM     95  O   UNL A   1      37.678  35.422  41.823  1.00  0.00    -0.744 OA
ENDBRANCH  91  92
ENDBRANCH  59  84
ENDBRANCH  33  34
ENDBRANCH  26  28
ENDBRANCH  25  26
ENDBRANCH  24  25
ENDBRANCH   1  24
TORSDOF 19
ENDMDL
