MODEL 1
REMARK VINA RESULT:     -11.3      0.000      0.000
REMARK SMILES Cc1c(Cl)cccc1S(=O)(=O)N[C@H]1C=C[C@@H](C(=O)OCCOC(=O)c2ccc(-c3c4nc(c(-c5c(F)cc(S(=O)(=O)[O-])cc5F)c5ccc([nH]5)c(-c5c(F)cc(S(=O)(=O)[O-])cc5F)c5nc(c(-c6c(F)cc(S(=O)(=O)[O-])cc6F)c6ccc3[nH]6)C=C5)C=C4)cc2)C1
REMARK SMILES IDX 20 1 19 2 17 3 18 4 16 5 13 6 14 7 91 8 15 9 12 10 9 12
REMARK SMILES IDX 10 13 11 14 8 15 1 16 2 17 3 18 4 19 5 20 7 21 6 22 21 23
REMARK SMILES IDX 22 24 23 25 24 26 25 27 26 28 90 29 27 30 89 31 28 32 29 33
REMARK SMILES IDX 30 34 83 35 31 36 88 37 82 38 84 39 32 40 87 41 81 42 80 43
REMARK SMILES IDX 33 45 67 46 46 47 66 48 47 49 50 50 65 51 85 52 48 53 49 54
REMARK SMILES IDX 64 56 86 57 51 58 34 59 35 60 44 61 36 62 37 63 43 64 45 65
REMARK SMILES IDX 38 66 39 67 40 68 41 69 42 70 68 71 69 72 78 73 70 74 71 75
REMARK SMILES IDX 77 76 79 77 72 78 73 79 74 80 75 81 76 82 52 83 53 84 62 85
REMARK SMILES IDX 54 86 55 87 61 88 63 89 56 90 57 91 58 92 59 93 60 94
REMARK H PARENT 12 11 84 44 50 55
REMARK Flexibility Score: inf
ROOT
ATOM      1  C   UNL A   1      40.165  21.555  26.239  1.00  0.00     0.274 C 
ENDROOT
BRANCH   1   2
ATOM      2  O   UNL A   1      38.817  22.043  26.407  1.00  0.00    -0.462 OA
BRANCH   2   3
ATOM      3  C   UNL A   1      37.971  21.822  25.367  1.00  0.00     0.312 C 
ATOM      4  O   UNL A   1      37.722  20.715  24.903  1.00  0.00    -0.252 OA
BRANCH   3   5
ATOM      5  C   UNL A   1      37.372  23.095  24.774  1.00  0.00     0.123 C 
ATOM      6  C   UNL A   1      35.229  23.638  23.669  1.00  0.00     0.093 C 
ATOM      7  C   UNL A   1      35.275  24.081  25.099  1.00  0.00    -0.011 C 
ATOM      8  C   UNL A   1      36.583  22.955  23.460  1.00  0.00     0.043 C 
ATOM      9  C   UNL A   1      36.420  23.763  25.708  1.00  0.00    -0.015 C 
BRANCH   6  10
ATOM     10  N   UNL A   1      34.125  22.692  23.564  1.00  0.00    -0.204 NA
ATOM     11  H   UNL A   1      34.540  21.783  23.361  1.00  0.00     0.142 HD
BRANCH  10  12
ATOM     12  S   UNL A   1      32.902  22.918  22.444  1.00  0.00     0.241 S 
ATOM     13  O   UNL A   1      32.066  21.735  22.461  1.00  0.00    -0.207 OA
ATOM     14  O   UNL A   1      33.558  23.348  21.229  1.00  0.00    -0.207 OA
BRANCH  12  15
ATOM     15  C   UNL A   1      31.931  24.307  23.006  1.00  0.00     0.086 A 
ATOM     16  C   UNL A   1      31.296  23.180  25.210  1.00  0.00     0.047 C 
ATOM     17  C   UNL A   1      31.272  24.341  24.256  1.00  0.00    -0.012 A 
ATOM     18  C   UNL A   1      30.536  25.505  24.568  1.00  0.00     0.045 A 
ATOM     19  Cl  UNL A   1      29.642  25.671  26.044  1.00  0.00    -0.084 Cl
ATOM     20  C   UNL A   1      30.508  26.605  23.702  1.00  0.00     0.021 A 
ATOM     21  C   UNL A   1      31.913  25.425  22.153  1.00  0.00     0.022 A 
ATOM     22  C   UNL A   1      31.210  26.573  22.504  1.00  0.00     0.003 A 
ENDBRANCH  12  15
ENDBRANCH  10  12
ENDBRANCH   6  10
ENDBRANCH   3   5
ENDBRANCH   2   3
ENDBRANCH   1   2
BRANCH   1  23
ATOM     23  C   UNL A   1      41.206  22.649  26.496  1.00  0.00     0.275 C 
BRANCH  23  24
ATOM     24  O   UNL A   1      40.603  23.950  26.591  1.00  0.00    -0.458 OA
BRANCH  24  25
ATOM     25  C   UNL A   1      41.438  24.982  26.332  1.00  0.00     0.338 C 
ATOM     26  O   UNL A   1      42.057  25.199  25.305  1.00  0.00    -0.246 OA
BRANCH  25  27
ATOM     27  C   UNL A   1      41.400  25.941  27.437  1.00  0.00     0.060 A 
ATOM     28  C   UNL A   1      40.379  25.807  28.380  1.00  0.00     0.016 A 
ATOM     29  C   UNL A   1      42.294  27.008  27.497  1.00  0.00     0.016 A 
ATOM     30  C   UNL A   1      40.246  26.737  29.399  1.00  0.00     0.010 A 
ATOM     31  C   UNL A   1      42.174  27.933  28.536  1.00  0.00     0.010 A 
ATOM     32  C   UNL A   1      41.152  27.799  29.492  1.00  0.00    -0.014 A 
BRANCH  32  33
ATOM     33  C   UNL A   1      41.040  28.746  30.622  1.00  0.00     0.031 A 
ATOM     34  C   UNL A   1      41.959  28.630  31.799  1.00  0.00     0.074 A 
ATOM     35  C   UNL A   1      40.106  29.714  30.562  1.00  0.00     0.049 A 
ATOM     36  N   UNL A   1      41.950  29.303  32.919  1.00  0.00    -0.248 NA
ATOM     37  C   UNL A   1      43.029  27.623  31.707  1.00  0.00     0.031 C 
ATOM     38  C   UNL A   1      39.195  29.934  29.434  1.00  0.00     0.029 A 
ATOM     39  N   UNL A   1      39.763  30.687  31.461  1.00  0.00    -0.354 N 
ATOM     40  C   UNL A   1      42.996  28.793  33.676  1.00  0.00     0.074 A 
ATOM     41  C   UNL A   1      43.611  27.741  32.893  1.00  0.00     0.031 C 
ATOM     42  C   UNL A   1      38.398  30.977  29.712  1.00  0.00     0.029 A 
ATOM     43  C   UNL A   1      38.699  31.458  31.055  1.00  0.00     0.049 A 
ATOM     44  H   UNL A   1      40.232  30.822  32.317  1.00  0.00     0.167 HD
ATOM     45  C   UNL A   1      43.397  29.171  34.913  1.00  0.00     0.037 A 
ATOM     46  C   UNL A   1      38.018  32.416  31.711  1.00  0.00     0.037 A 
ATOM     47  C   UNL A   1      42.768  30.225  35.669  1.00  0.00     0.049 A 
ATOM     48  C   UNL A   1      38.439  32.770  33.109  1.00  0.00     0.074 A 
ATOM     49  C   UNL A   1      43.099  30.699  36.925  1.00  0.00     0.029 A 
ATOM     50  N   UNL A   1      41.672  30.963  35.239  1.00  0.00    -0.354 N 
ATOM     51  N   UNL A   1      39.431  32.279  33.816  1.00  0.00    -0.248 NA
ATOM     52  C   UNL A   1      37.651  33.795  33.803  1.00  0.00     0.031 C 
ATOM     53  C   UNL A   1      42.175  31.689  37.275  1.00  0.00     0.029 A 
ATOM     54  C   UNL A   1      41.299  31.870  36.217  1.00  0.00     0.049 A 
ATOM     55  H   UNL A   1      41.227  30.857  34.368  1.00  0.00     0.167 HD
ATOM     56  C   UNL A   1      39.395  32.948  35.034  1.00  0.00     0.074 A 
ATOM     57  C   UNL A   1      38.294  33.888  34.960  1.00  0.00     0.031 C 
ATOM     58  C   UNL A   1      40.198  32.798  36.115  1.00  0.00     0.037 A 
BRANCH  45  59
ATOM     59  C   UNL A   1      44.541  28.422  35.539  1.00  0.00     0.058 A 
ATOM     60  C   UNL A   1      44.335  27.307  36.367  1.00  0.00     0.135 A 
ATOM     61  C   UNL A   1      45.868  28.808  35.282  1.00  0.00     0.135 A 
ATOM     62  F   UNL A   1      43.089  26.904  36.660  1.00  0.00    -0.206 F 
ATOM     63  C   UNL A   1      45.401  26.618  36.937  1.00  0.00     0.059 A 
ATOM     64  C   UNL A   1      46.950  28.117  35.820  1.00  0.00     0.059 A 
ATOM     65  F   UNL A   1      46.123  29.868  34.500  1.00  0.00    -0.206 F 
ATOM     66  C   UNL A   1      46.706  27.031  36.659  1.00  0.00     0.060 A 
BRANCH  66  67
ATOM     67  S   UNL A   1      48.077  26.128  37.409  1.00  0.00     0.124 S 
ATOM     68  O   UNL A   1      47.793  24.761  36.982  1.00  0.00    -0.237 OA
ATOM     69  O   UNL A   1      49.241  26.755  36.790  1.00  0.00    -0.237 OA
ATOM     70  O   UNL A   1      47.915  26.385  38.837  1.00  0.00    -0.744 OA
ENDBRANCH  66  67
ENDBRANCH  45  59
BRANCH  46  71
ATOM     71  C   UNL A   1      36.853  33.073  31.060  1.00  0.00     0.058 A 
ATOM     72  C   UNL A   1      37.029  33.966  29.993  1.00  0.00     0.135 A 
ATOM     73  C   UNL A   1      35.540  32.800  31.474  1.00  0.00     0.135 A 
ATOM     74  F   UNL A   1      38.264  34.265  29.565  1.00  0.00    -0.206 F 
ATOM     75  C   UNL A   1      35.945  34.572  29.365  1.00  0.00     0.059 A 
ATOM     76  C   UNL A   1      34.439  33.371  30.845  1.00  0.00     0.059 A 
ATOM     77  F   UNL A   1      35.316  31.941  32.481  1.00  0.00    -0.206 F 
ATOM     78  C   UNL A   1      34.653  34.265  29.797  1.00  0.00     0.060 A 
BRANCH  78  79
ATOM     79  S   UNL A   1      33.252  35.019  28.943  1.00  0.00     0.124 S 
ATOM     80  O   UNL A   1      32.885  33.972  27.998  1.00  0.00    -0.237 OA
ATOM     81  O   UNL A   1      32.313  35.250  30.038  1.00  0.00    -0.237 OA
ATOM     82  O   UNL A   1      33.826  36.226  28.356  1.00  0.00    -0.744 OA
ENDBRANCH  78  79
ENDBRANCH  46  71
BRANCH  58  83
ATOM     83  C   UNL A   1      39.932  33.686  37.297  1.00  0.00     0.058 A 
ATOM     84  C   UNL A   1      40.549  34.939  37.428  1.00  0.00     0.135 A 
ATOM     85  C   UNL A   1      38.998  33.307  38.275  1.00  0.00     0.135 A 
ATOM     86  F   UNL A   1      41.457  35.343  36.526  1.00  0.00    -0.206 F 
ATOM     87  C   UNL A   1      40.259  35.782  38.496  1.00  0.00     0.059 A 
ATOM     88  C   UNL A   1      38.673  34.144  39.336  1.00  0.00     0.059 A 
ATOM     89  F   UNL A   1      38.375  32.120  38.191  1.00  0.00    -0.206 F 
ATOM     90  C   UNL A   1      39.314  35.378  39.442  1.00  0.00     0.060 A 
BRANCH  90  91
ATOM     91  S   UNL A   1      38.907  36.505  40.791  1.00  0.00     0.124 S 
ATOM     92  O   UNL A   1      37.932  35.723  41.544  1.00  0.00    -0.237 OA
ATOM     93  O   UNL A   1      40.200  36.698  41.438  1.00  0.00    -0.237 OA
ATOM     94  O   UNL A   1      38.375  37.678  40.105  1.00  0.00    -0.744 OA
ENDBRANCH  90  91
ENDBRANCH  58  83
ENDBRANCH  32  33
ENDBRANCH  25  27
ENDBRANCH  24  25
ENDBRANCH  23  24
ENDBRANCH   1  23
TORSDOF 17
ENDMDL
MODEL 2
REMARK VINA RESULT:     -11.3      6.872     12.211
REMARK SMILES Cc1c(Cl)cccc1S(=O)(=O)N[C@H]1C=C[C@@H](C(=O)OCCOC(=O)c2ccc(-c3c4nc(c(-c5c(F)cc(S(=O)(=O)[O-])cc5F)c5ccc([nH]5)c(-c5c(F)cc(S(=O)(=O)[O-])cc5F)c5nc(c(-c6c(F)cc(S(=O)(=O)[O-])cc6F)c6ccc3[nH]6)C=C5)C=C4)cc2)C1
REMARK SMILES IDX 20 1 19 2 17 3 18 4 16 5 13 6 14 7 91 8 15 9 12 10 9 12
REMARK SMILES IDX 10 13 11 14 8 15 1 16 2 17 3 18 4 19 5 20 7 21 6 22 21 23
REMARK SMILES IDX 22 24 23 25 24 26 25 27 26 28 90 29 27 30 89 31 28 32 29 33
REMARK SMILES IDX 30 34 83 35 31 36 88 37 82 38 84 39 32 40 87 41 81 42 80 43
REMARK SMILES IDX 33 45 67 46 46 47 66 48 47 49 50 50 65 51 85 52 48 53 49 54
REMARK SMILES IDX 64 56 86 57 51 58 34 59 35 60 44 61 36 62 37 63 43 64 45 65
REMARK SMILES IDX 38 66 39 67 40 68 41 69 42 70 68 71 69 72 78 73 70 74 71 75
REMARK SMILES IDX 77 76 79 77 72 78 73 79 74 80 75 81 76 82 52 83 53 84 62 85
REMARK SMILES IDX 54 86 55 87 61 88 63 89 56 90 57 91 58 92 59 93 60 94
REMARK H PARENT 12 11 84 44 50 55
REMARK Flexibility Score: inf
ROOT
ATOM      1  C   UNL A   1      33.658  30.132  26.777  1.00  0.00     0.274 C 
ENDROOT
BRANCH   1   2
ATOM      2  O   UNL A   1      32.352  29.773  27.277  1.00  0.00    -0.462 OA
BRANCH   2   3
ATOM      3  C   UNL A   1      31.995  28.472  27.126  1.00  0.00     0.312 C 
ATOM      4  O   UNL A   1      31.467  27.794  28.001  1.00  0.00    -0.252 OA
BRANCH   3   5
ATOM      5  C   UNL A   1      32.352  27.884  25.763  1.00  0.00     0.123 C 
ATOM      6  C   UNL A   1      33.304  25.730  25.011  1.00  0.00     0.093 C 
ATOM      7  C   UNL A   1      31.820  25.811  24.817  1.00  0.00    -0.011 C 
ATOM      8  C   UNL A   1      33.653  27.069  25.667  1.00  0.00     0.043 C 
ATOM      9  C   UNL A   1      31.298  26.961  25.250  1.00  0.00    -0.015 C 
BRANCH   6  10
ATOM     10  N   UNL A   1      33.543  24.609  25.909  1.00  0.00    -0.204 NA
ATOM     11  H   UNL A   1      33.736  25.008  26.827  1.00  0.00     0.142 HD
BRANCH  10  12
ATOM     12  S   UNL A   1      34.766  23.506  25.603  1.00  0.00     0.241 S 
ATOM     13  O   UNL A   1      35.513  23.326  26.830  1.00  0.00    -0.207 OA
ATOM     14  O   UNL A   1      35.415  23.968  24.396  1.00  0.00    -0.207 OA
BRANCH  12  15
ATOM     15  C   UNL A   1      33.979  21.959  25.186  1.00  0.00     0.086 A 
ATOM     16  C   UNL A   1      36.192  20.696  24.996  1.00  0.00     0.047 C 
ATOM     17  C   UNL A   1      34.691  20.761  24.954  1.00  0.00    -0.012 A 
ATOM     18  C   UNL A   1      33.937  19.612  24.629  1.00  0.00     0.045 A 
ATOM     19  Cl  UNL A   1      34.677  18.084  24.276  1.00  0.00    -0.084 Cl
ATOM     20  C   UNL A   1      32.538  19.643  24.595  1.00  0.00     0.021 A 
ATOM     21  C   UNL A   1      32.572  21.974  25.169  1.00  0.00     0.022 A 
ATOM     22  C   UNL A   1      31.854  20.817  24.882  1.00  0.00     0.003 A 
ENDBRANCH  12  15
ENDBRANCH  10  12
ENDBRANCH   6  10
ENDBRANCH   3   5
ENDBRANCH   2   3
ENDBRANCH   1   2
BRANCH   1  23
ATOM     23  C   UNL A   1      34.551  30.719  27.876  1.00  0.00     0.275 C 
BRANCH  23  24
ATOM     24  O   UNL A   1      35.475  29.745  28.390  1.00  0.00    -0.458 OA
BRANCH  24  25
ATOM     25  C   UNL A   1      36.329  30.215  29.328  1.00  0.00     0.338 C 
ATOM     26  O   UNL A   1      36.052  30.790  30.366  1.00  0.00    -0.246 OA
BRANCH  25  27
ATOM     27  C   UNL A   1      37.696  29.804  29.005  1.00  0.00     0.060 A 
ATOM     28  C   UNL A   1      38.591  29.632  30.063  1.00  0.00     0.016 A 
ATOM     29  C   UNL A   1      38.119  29.680  27.683  1.00  0.00     0.016 A 
ATOM     30  C   UNL A   1      39.919  29.326  29.809  1.00  0.00     0.010 A 
ATOM     31  C   UNL A   1      39.452  29.351  27.427  1.00  0.00     0.010 A 
ATOM     32  C   UNL A   1      40.355  29.168  28.489  1.00  0.00    -0.014 A 
BRANCH  32  33
ATOM     33  C   UNL A   1      41.757  28.777  28.234  1.00  0.00     0.031 A 
ATOM     34  C   UNL A   1      42.843  29.809  28.239  1.00  0.00     0.074 A 
ATOM     35  C   UNL A   1      42.034  27.478  28.007  1.00  0.00     0.049 A 
ATOM     36  N   UNL A   1      44.108  29.673  27.943  1.00  0.00    -0.248 NA
ATOM     37  C   UNL A   1      42.455  31.175  28.626  1.00  0.00     0.031 C 
ATOM     38  C   UNL A   1      41.048  26.394  28.027  1.00  0.00     0.029 A 
ATOM     39  N   UNL A   1      43.214  26.850  27.714  1.00  0.00    -0.354 N 
ATOM     40  C   UNL A   1      44.669  30.936  28.087  1.00  0.00     0.074 A 
ATOM     41  C   UNL A   1      43.600  31.829  28.484  1.00  0.00     0.031 C 
ATOM     42  C   UNL A   1      41.667  25.234  27.758  1.00  0.00     0.029 A 
ATOM     43  C   UNL A   1      43.074  25.501  27.488  1.00  0.00     0.049 A 
ATOM     44  H   UNL A   1      44.079  27.318  27.669  1.00  0.00     0.167 HD
ATOM     45  C   UNL A   1      45.957  31.306  27.901  1.00  0.00     0.037 A 
ATOM     46  C   UNL A   1      43.974  24.591  27.068  1.00  0.00     0.037 A 
ATOM     47  C   UNL A   1      47.002  30.393  27.509  1.00  0.00     0.049 A 
ATOM     48  C   UNL A   1      45.382  25.042  26.802  1.00  0.00     0.074 A 
ATOM     49  C   UNL A   1      48.344  30.658  27.303  1.00  0.00     0.029 A 
ATOM     50  N   UNL A   1      46.818  29.040  27.257  1.00  0.00    -0.354 N 
ATOM     51  N   UNL A   1      45.901  26.240  26.941  1.00  0.00    -0.248 NA
ATOM     52  C   UNL A   1      46.324  24.028  26.314  1.00  0.00     0.031 C 
ATOM     53  C   UNL A   1      48.961  29.476  26.879  1.00  0.00     0.029 A 
ATOM     54  C   UNL A   1      48.016  28.462  26.872  1.00  0.00     0.049 A 
ATOM     55  H   UNL A   1      45.962  28.561  27.341  1.00  0.00     0.167 HD
ATOM     56  C   UNL A   1      47.236  26.120  26.572  1.00  0.00     0.074 A 
ATOM     57  C   UNL A   1      47.447  24.729  26.220  1.00  0.00     0.031 C 
ATOM     58  C   UNL A   1      48.199  27.072  26.528  1.00  0.00     0.037 A 
BRANCH  45  59
ATOM     59  C   UNL A   1      46.303  32.759  28.080  1.00  0.00     0.058 A 
ATOM     60  C   UNL A   1      46.150  33.693  27.043  1.00  0.00     0.135 A 
ATOM     61  C   UNL A   1      46.765  33.231  29.320  1.00  0.00     0.135 A 
ATOM     62  F   UNL A   1      45.728  33.296  25.833  1.00  0.00    -0.206 F 
ATOM     63  C   UNL A   1      46.467  35.036  27.222  1.00  0.00     0.059 A 
ATOM     64  C   UNL A   1      47.064  34.574  29.529  1.00  0.00     0.059 A 
ATOM     65  F   UNL A   1      46.932  32.381  30.346  1.00  0.00    -0.206 F 
ATOM     66  C   UNL A   1      46.925  35.467  28.469  1.00  0.00     0.060 A 
BRANCH  66  67
ATOM     67  S   UNL A   1      47.336  37.213  28.682  1.00  0.00     0.124 S 
ATOM     68  O   UNL A   1      48.793  37.178  28.616  1.00  0.00    -0.237 OA
ATOM     69  O   UNL A   1      46.665  37.834  27.544  1.00  0.00    -0.237 OA
ATOM     70  O   UNL A   1      46.775  37.537  29.990  1.00  0.00    -0.744 OA
ENDBRANCH  66  67
ENDBRANCH  45  59
BRANCH  46  71
ATOM     71  C   UNL A   1      43.552  23.182  26.846  1.00  0.00     0.058 A 
ATOM     72  C   UNL A   1      43.296  22.325  27.926  1.00  0.00     0.135 A 
ATOM     73  C   UNL A   1      43.372  22.673  25.550  1.00  0.00     0.135 A 
ATOM     74  F   UNL A   1      43.461  22.761  29.183  1.00  0.00    -0.206 F 
ATOM     75  C   UNL A   1      42.884  21.010  27.729  1.00  0.00     0.059 A 
ATOM     76  C   UNL A   1      42.934  21.373  25.328  1.00  0.00     0.059 A 
ATOM     77  F   UNL A   1      43.589  23.458  24.483  1.00  0.00    -0.206 F 
ATOM     78  C   UNL A   1      42.702  20.545  26.424  1.00  0.00     0.060 A 
BRANCH  78  79
ATOM     79  S   UNL A   1      42.120  18.853  26.181  1.00  0.00     0.124 S 
ATOM     80  O   UNL A   1      40.744  19.074  25.753  1.00  0.00    -0.237 OA
ATOM     81  O   UNL A   1      43.036  18.357  25.158  1.00  0.00    -0.237 OA
ATOM     82  O   UNL A   1      42.281  18.249  27.501  1.00  0.00    -0.744 OA
ENDBRANCH  78  79
ENDBRANCH  46  71
BRANCH  58  83
ATOM     83  C   UNL A   1      49.574  26.639  26.106  1.00  0.00     0.058 A 
ATOM     84  C   UNL A   1      50.038  26.839  24.797  1.00  0.00     0.135 A 
ATOM     85  C   UNL A   1      50.459  26.079  27.040  1.00  0.00     0.135 A 
ATOM     86  F   UNL A   1      49.226  27.361  23.864  1.00  0.00    -0.206 F 
ATOM     87  C   UNL A   1      51.331  26.485  24.425  1.00  0.00     0.059 A 
ATOM     88  C   UNL A   1      51.765  25.743  26.697  1.00  0.00     0.059 A 
ATOM     89  F   UNL A   1      50.065  25.874  28.308  1.00  0.00    -0.206 F 
ATOM     90  C   UNL A   1      52.189  25.944  25.384  1.00  0.00     0.060 A 
BRANCH  90  91
ATOM     91  S   UNL A   1      53.881  25.543  24.901  1.00  0.00     0.124 S 
ATOM     92  O   UNL A   1      53.892  25.953  23.501  1.00  0.00    -0.237 OA
ATOM     93  O   UNL A   1      54.669  26.368  25.811  1.00  0.00    -0.237 OA
ATOM     94  O   UNL A   1      53.969  24.105  25.135  1.00  0.00    -0.744 OA
ENDBRANCH  90  91
ENDBRANCH  58  83
ENDBRANCH  32  33
ENDBRANCH  25  27
ENDBRANCH  24  25
ENDBRANCH  23  24
ENDBRANCH   1  23
TORSDOF 17
ENDMDL
MODEL 3
REMARK VINA RESULT:     -11.3      5.033     10.696
REMARK SMILES Cc1c(Cl)cccc1S(=O)(=O)N[C@H]1C=C[C@@H](C(=O)OCCOC(=O)c2ccc(-c3c4nc(c(-c5c(F)cc(S(=O)(=O)[O-])cc5F)c5ccc([nH]5)c(-c5c(F)cc(S(=O)(=O)[O-])cc5F)c5nc(c(-c6c(F)cc(S(=O)(=O)[O-])cc6F)c6ccc3[nH]6)C=C5)C=C4)cc2)C1
REMARK SMILES IDX 20 1 19 2 17 3 18 4 16 5 13 6 14 7 91 8 15 9 12 10 9 12
REMARK SMILES IDX 10 13 11 14 8 15 1 16 2 17 3 18 4 19 5 20 7 21 6 22 21 23
REMARK SMILES IDX 22 24 23 25 24 26 25 27 26 28 90 29 27 30 89 31 28 32 29 33
REMARK SMILES IDX 30 34 83 35 31 36 88 37 82 38 84 39 32 40 87 41 81 42 80 43
REMARK SMILES IDX 33 45 67 46 46 47 66 48 47 49 50 50 65 51 85 52 48 53 49 54
REMARK SMILES IDX 64 56 86 57 51 58 34 59 35 60 44 61 36 62 37 63 43 64 45 65
REMARK SMILES IDX 38 66 39 67 40 68 41 69 42 70 68 71 69 72 78 73 70 74 71 75
REMARK SMILES IDX 77 76 79 77 72 78 73 79 74 80 75 81 76 82 52 83 53 84 62 85
REMARK SMILES IDX 54 86 55 87 61 88 63 89 56 90 57 91 58 92 59 93 60 94
REMARK H PARENT 12 11 84 44 50 55
REMARK Flexibility Score: inf
ROOT
ATOM      1  C   UNL A   1      32.257  29.674  25.683  1.00  0.00     0.274 C 
ENDROOT
BRANCH   1   2
ATOM      2  O   UNL A   1      31.820  28.522  24.931  1.00  0.00    -0.462 OA
BRANCH   2   3
ATOM      3  C   UNL A   1      30.832  28.742  24.026  1.00  0.00     0.312 C 
ATOM      4  O   UNL A   1      30.244  29.810  23.891  1.00  0.00    -0.252 OA
BRANCH   3   5
ATOM      5  C   UNL A   1      30.463  27.514  23.197  1.00  0.00     0.123 C 
ATOM      6  C   UNL A   1      31.256  25.174  23.137  1.00  0.00     0.093 C 
ATOM      7  C   UNL A   1      29.955  25.329  23.863  1.00  0.00    -0.011 C 
ATOM      8  C   UNL A   1      31.616  26.607  22.734  1.00  0.00     0.043 C 
ATOM      9  C   UNL A   1      29.538  26.596  23.923  1.00  0.00    -0.015 C 
BRANCH   6  10
ATOM     10  N   UNL A   1      32.204  24.630  24.101  1.00  0.00    -0.204 NA
ATOM     11  H   UNL A   1      33.135  24.853  23.750  1.00  0.00     0.142 HD
BRANCH  10  12
ATOM     12  S   UNL A   1      32.213  22.997  24.471  1.00  0.00     0.241 S 
ATOM     13  O   UNL A   1      31.790  22.276  23.289  1.00  0.00    -0.207 OA
ATOM     14  O   UNL A   1      31.490  22.875  25.718  1.00  0.00    -0.207 OA
BRANCH  12  15
ATOM     15  C   UNL A   1      33.905  22.554  24.830  1.00  0.00     0.086 A 
ATOM     16  C   UNL A   1      34.549  24.924  25.535  1.00  0.00     0.047 C 
ATOM     17  C   UNL A   1      34.864  23.471  25.317  1.00  0.00    -0.012 A 
ATOM     18  C   UNL A   1      36.167  22.981  25.552  1.00  0.00     0.045 A 
ATOM     19  Cl  UNL A   1      37.456  23.999  26.108  1.00  0.00    -0.084 Cl
ATOM     20  C   UNL A   1      36.483  21.630  25.369  1.00  0.00     0.021 A 
ATOM     21  C   UNL A   1      34.228  21.194  24.668  1.00  0.00     0.022 A 
ATOM     22  C   UNL A   1      35.511  20.733  24.944  1.00  0.00     0.003 A 
ENDBRANCH  12  15
ENDBRANCH  10  12
ENDBRANCH   6  10
ENDBRANCH   3   5
ENDBRANCH   2   3
ENDBRANCH   1   2
BRANCH   1  23
ATOM     23  C   UNL A   1      32.489  29.339  27.160  1.00  0.00     0.275 C 
BRANCH  23  24
ATOM     24  O   UNL A   1      33.886  29.185  27.461  1.00  0.00    -0.458 OA
BRANCH  24  25
ATOM     25  C   UNL A   1      34.467  30.269  28.024  1.00  0.00     0.338 C 
ATOM     26  O   UNL A   1      33.930  31.308  28.366  1.00  0.00    -0.246 OA
BRANCH  25  27
ATOM     27  C   UNL A   1      35.870  29.980  28.325  1.00  0.00     0.060 A 
ATOM     28  C   UNL A   1      36.784  30.024  27.271  1.00  0.00     0.016 A 
ATOM     29  C   UNL A   1      36.267  29.581  29.600  1.00  0.00     0.016 A 
ATOM     30  C   UNL A   1      38.109  29.676  27.482  1.00  0.00     0.010 A 
ATOM     31  C   UNL A   1      37.606  29.252  29.819  1.00  0.00     0.010 A 
ATOM     32  C   UNL A   1      38.532  29.302  28.762  1.00  0.00    -0.014 A 
BRANCH  32  33
ATOM     33  C   UNL A   1      39.961  28.998  28.990  1.00  0.00     0.031 A 
ATOM     34  C   UNL A   1      40.882  30.053  29.522  1.00  0.00     0.074 A 
ATOM     35  C   UNL A   1      40.408  27.757  28.719  1.00  0.00     0.049 A 
ATOM     36  N   UNL A   1      42.176  30.003  29.695  1.00  0.00    -0.248 NA
ATOM     37  C   UNL A   1      40.269  31.333  29.910  1.00  0.00     0.031 C 
ATOM     38  C   UNL A   1      39.575  26.650  28.240  1.00  0.00     0.029 A 
ATOM     39  N   UNL A   1      41.663  27.218  28.801  1.00  0.00    -0.354 N 
ATOM     40  C   UNL A   1      42.540  31.248  30.193  1.00  0.00     0.074 A 
ATOM     41  C   UNL A   1      41.329  32.038  30.281  1.00  0.00     0.031 C 
ATOM     42  C   UNL A   1      40.344  25.564  28.071  1.00  0.00     0.029 A 
ATOM     43  C   UNL A   1      41.728  25.913  28.371  1.00  0.00     0.049 A 
ATOM     44  H   UNL A   1      42.445  27.715  29.135  1.00  0.00     0.167 HD
ATOM     45  C   UNL A   1      43.774  31.684  30.539  1.00  0.00     0.037 A 
ATOM     46  C   UNL A   1      42.791  25.106  28.198  1.00  0.00     0.037 A 
ATOM     47  C   UNL A   1      44.963  30.873  30.444  1.00  0.00     0.049 A 
ATOM     48  C   UNL A   1      44.158  25.636  28.524  1.00  0.00     0.074 A 
ATOM     49  C   UNL A   1      46.262  31.209  30.779  1.00  0.00     0.029 A 
ATOM     50  N   UNL A   1      44.995  29.567  29.974  1.00  0.00    -0.354 N 
ATOM     51  N   UNL A   1      44.491  26.816  28.993  1.00  0.00    -0.248 NA
ATOM     52  C   UNL A   1      45.294  24.737  28.290  1.00  0.00     0.031 C 
ATOM     53  C   UNL A   1      47.087  30.123  30.464  1.00  0.00     0.029 A 
ATOM     54  C   UNL A   1      46.296  29.092  29.984  1.00  0.00     0.049 A 
ATOM     55  H   UNL A   1      44.209  29.054  29.677  1.00  0.00     0.167 HD
ATOM     56  C   UNL A   1      45.874  26.795  29.126  1.00  0.00     0.074 A 
ATOM     57  C   UNL A   1      46.313  25.480  28.703  1.00  0.00     0.031 C 
ATOM     58  C   UNL A   1      46.705  27.775  29.558  1.00  0.00     0.037 A 
BRANCH  45  59
ATOM     59  C   UNL A   1      43.909  33.104  31.014  1.00  0.00     0.058 A 
ATOM     60  C   UNL A   1      44.110  34.170  30.123  1.00  0.00     0.135 A 
ATOM     61  C   UNL A   1      43.805  33.408  32.382  1.00  0.00     0.135 A 
ATOM     62  F   UNL A   1      44.234  33.937  28.807  1.00  0.00    -0.206 F 
ATOM     63  C   UNL A   1      44.228  35.482  30.573  1.00  0.00     0.059 A 
ATOM     64  C   UNL A   1      43.894  34.715  32.852  1.00  0.00     0.059 A 
ATOM     65  F   UNL A   1      43.615  32.428  33.279  1.00  0.00    -0.206 F 
ATOM     66  C   UNL A   1      44.120  35.745  31.941  1.00  0.00     0.060 A 
BRANCH  66  67
ATOM     67  S   UNL A   1      44.279  37.451  32.508  1.00  0.00     0.124 S 
ATOM     68  O   UNL A   1      43.225  37.521  33.516  1.00  0.00    -0.237 OA
ATOM     69  O   UNL A   1      45.646  37.485  33.019  1.00  0.00    -0.237 OA
ATOM     70  O   UNL A   1      44.044  38.236  31.300  1.00  0.00    -0.744 OA
ENDBRANCH  66  67
ENDBRANCH  45  59
BRANCH  46  71
ATOM     71  C   UNL A   1      42.596  23.732  27.661  1.00  0.00     0.058 A 
ATOM     72  C   UNL A   1      42.635  23.481  26.282  1.00  0.00     0.135 A 
ATOM     73  C   UNL A   1      42.396  22.639  28.519  1.00  0.00     0.135 A 
ATOM     74  F   UNL A   1      42.817  24.493  25.421  1.00  0.00    -0.206 F 
ATOM     75  C   UNL A   1      42.472  22.197  25.772  1.00  0.00     0.059 A 
ATOM     76  C   UNL A   1      42.259  21.343  28.035  1.00  0.00     0.059 A 
ATOM     77  F   UNL A   1      42.366  22.823  29.849  1.00  0.00    -0.206 F 
ATOM     78  C   UNL A   1      42.289  21.133  26.658  1.00  0.00     0.060 A 
BRANCH  78  79
ATOM     79  S   UNL A   1      42.128  19.464  25.987  1.00  0.00     0.124 S 
ATOM     80  O   UNL A   1      40.696  19.388  25.728  1.00  0.00    -0.237 OA
ATOM     81  O   UNL A   1      42.989  19.522  24.810  1.00  0.00    -0.237 OA
ATOM     82  O   UNL A   1      42.619  18.618  27.071  1.00  0.00    -0.744 OA
ENDBRANCH  78  79
ENDBRANCH  46  71
BRANCH  58  83
ATOM     83  C   UNL A   1      48.172  27.453  29.618  1.00  0.00     0.058 A 
ATOM     84  C   UNL A   1      49.026  27.718  28.537  1.00  0.00     0.135 A 
ATOM     85  C   UNL A   1      48.738  26.937  30.794  1.00  0.00     0.135 A 
ATOM     86  F   UNL A   1      48.531  28.202  27.387  1.00  0.00    -0.206 F 
ATOM     87  C   UNL A   1      50.392  27.469  28.616  1.00  0.00     0.059 A 
ATOM     88  C   UNL A   1      50.105  26.706  30.904  1.00  0.00     0.059 A 
ATOM     89  F   UNL A   1      47.963  26.673  31.858  1.00  0.00    -0.206 F 
ATOM     90  C   UNL A   1      50.923  26.969  29.806  1.00  0.00     0.060 A 
BRANCH  90  91
ATOM     91  S   UNL A   1      52.705  26.704  29.913  1.00  0.00     0.124 S 
ATOM     92  O   UNL A   1      52.796  25.759  31.020  1.00  0.00    -0.237 OA
ATOM     93  O   UNL A   1      53.020  26.167  28.593  1.00  0.00    -0.237 OA
ATOM     94  O   UNL A   1      53.231  28.039  30.181  1.00  0.00    -0.744 OA
ENDBRANCH  90  91
ENDBRANCH  58  83
ENDBRANCH  32  33
ENDBRANCH  25  27
ENDBRANCH  24  25
ENDBRANCH  23  24
ENDBRANCH   1  23
TORSDOF 17
ENDMDL
