MODEL 1
REMARK VINA RESULT:     -12.6      0.000      0.000
REMARK SMILES Cc1cc2c(=O)c3ccccc3oc2c(C(=O)OCCOC(=O)c2ccc(-c3c4nc(c(-c5c(F)cc(S(=O)(=O)[O-])cc5F)c5ccc([nH]5)c(-c5c(F)cc(S(=O)(=O)[O-])cc5F)c5nc(c(-c6c(F)cc(S(=O)(=O)[O-])cc6F)c6ccc3[nH]6)C=C5)C=C4)cc2)c1C
REMARK SMILES IDX 21 1 20 2 19 3 18 4 16 5 17 6 15 7 1 8 2 9 3 10 90 11 4 12
REMARK SMILES IDX 91 13 5 14 14 15 6 16 7 17 13 18 8 19 12 20 9 21 11 22 10 23
REMARK SMILES IDX 22 24 23 25 24 26 25 27 89 28 26 29 88 30 27 31 28 32 29 33
REMARK SMILES IDX 82 34 30 35 87 36 81 37 83 38 31 39 86 40 80 41 79 42 32 44
REMARK SMILES IDX 66 45 45 46 65 47 46 48 49 49 64 50 84 51 47 52 48 53 63 55
REMARK SMILES IDX 85 56 50 57 33 58 34 59 43 60 35 61 36 62 42 63 44 64 37 65
REMARK SMILES IDX 38 66 39 67 40 68 41 69 67 70 68 71 77 72 69 73 70 74 76 75
REMARK SMILES IDX 78 76 71 77 72 78 73 79 74 80 75 81 51 82 52 83 61 84 53 85
REMARK SMILES IDX 54 86 60 87 62 88 55 89 56 90 57 91 58 92 59 93
REMARK H PARENT 83 43 49 54
REMARK Flexibility Score: inf
ROOT
ATOM      1  O   UNL A   1      35.612  29.707  28.493  1.00  0.00    -0.458 OA
ENDROOT
BRANCH   1   2
ATOM      2  C   UNL A   1      34.769  30.779  28.043  1.00  0.00     0.275 C 
BRANCH   2   3
ATOM      3  C   UNL A   1      33.584  30.218  27.254  1.00  0.00     0.275 C 
BRANCH   3   4
ATOM      4  O   UNL A   1      33.746  28.802  27.028  1.00  0.00    -0.458 OA
BRANCH   4   5
ATOM      5  C   UNL A   1      32.644  28.058  26.751  1.00  0.00     0.342 C 
ATOM      6  O   UNL A   1      31.861  27.631  27.581  1.00  0.00    -0.246 OA
BRANCH   5   7
ATOM      7  C   UNL A   1      32.515  27.847  25.266  1.00  0.00     0.106 A 
ATOM      8  C   UNL A   1      30.826  29.318  22.111  1.00  0.00     0.044 C 
ATOM      9  C   UNL A   1      31.606  28.445  23.057  1.00  0.00    -0.046 A 
ATOM     10  C   UNL A   1      32.227  27.315  22.522  1.00  0.00     0.019 A 
ATOM     11  C   UNL A   1      31.710  28.703  24.448  1.00  0.00    -0.030 A 
ATOM     12  C   UNL A   1      33.007  26.487  23.323  1.00  0.00     0.067 A 
ATOM     13  C   UNL A   1      30.940  29.864  25.036  1.00  0.00     0.046 C 
ATOM     14  C   UNL A   1      33.565  25.262  22.733  1.00  0.00     0.200 A 
ATOM     15  C   UNL A   1      33.220  26.773  24.672  1.00  0.00     0.153 A 
ATOM     16  O   UNL A   1      33.373  24.970  21.561  1.00  0.00    -0.288 OA
ATOM     17  C   UNL A   1      34.349  24.408  23.619  1.00  0.00     0.065 A 
ATOM     18  O   UNL A   1      34.118  26.039  25.423  1.00  0.00    -0.455 OA
ATOM     19  C   UNL A   1      34.778  23.145  23.197  1.00  0.00     0.016 A 
ATOM     20  C   UNL A   1      34.664  24.896  24.881  1.00  0.00     0.138 A 
ATOM     21  C   UNL A   1      35.571  22.376  24.042  1.00  0.00     0.001 A 
ATOM     22  C   UNL A   1      35.533  24.160  25.684  1.00  0.00     0.048 A 
ATOM     23  C   UNL A   1      35.976  22.899  25.268  1.00  0.00     0.004 A 
ENDBRANCH   5   7
ENDBRANCH   4   5
ENDBRANCH   3   4
ENDBRANCH   2   3
ENDBRANCH   1   2
BRANCH   1  24
ATOM     24  C   UNL A   1      36.310  29.972  29.622  1.00  0.00     0.338 C 
ATOM     25  O   UNL A   1      35.853  30.274  30.714  1.00  0.00    -0.246 OA
BRANCH  24  26
ATOM     26  C   UNL A   1      37.725  29.627  29.395  1.00  0.00     0.060 A 
ATOM     27  C   UNL A   1      38.609  29.327  30.438  1.00  0.00     0.016 A 
ATOM     28  C   UNL A   1      38.168  29.621  28.073  1.00  0.00     0.016 A 
ATOM     29  C   UNL A   1      39.955  29.060  30.150  1.00  0.00     0.010 A 
ATOM     30  C   UNL A   1      39.503  29.353  27.794  1.00  0.00     0.010 A 
ATOM     31  C   UNL A   1      40.417  29.101  28.826  1.00  0.00    -0.014 A 
BRANCH  31  32
ATOM     32  C   UNL A   1      41.811  28.755  28.459  1.00  0.00     0.031 A 
ATOM     33  C   UNL A   1      42.907  29.784  28.442  1.00  0.00     0.074 A 
ATOM     34  C   UNL A   1      42.041  27.516  27.992  1.00  0.00     0.049 A 
ATOM     35  N   UNL A   1      44.147  29.662  28.040  1.00  0.00    -0.248 NA
ATOM     36  C   UNL A   1      42.548  31.142  28.870  1.00  0.00     0.031 C 
ATOM     37  C   UNL A   1      41.025  26.470  27.867  1.00  0.00     0.029 A 
ATOM     38  N   UNL A   1      43.189  26.931  27.529  1.00  0.00    -0.354 N 
ATOM     39  C   UNL A   1      44.705  30.936  28.109  1.00  0.00     0.074 A 
ATOM     40  C   UNL A   1      43.654  31.818  28.575  1.00  0.00     0.031 C 
ATOM     41  C   UNL A   1      41.605  25.356  27.396  1.00  0.00     0.029 A 
ATOM     42  C   UNL A   1      43.027  25.611  27.186  1.00  0.00     0.049 A 
ATOM     43  H   UNL A   1      44.046  27.409  27.450  1.00  0.00     0.167 HD
ATOM     44  C   UNL A   1      45.971  31.319  27.802  1.00  0.00     0.037 A 
ATOM     45  C   UNL A   1      43.932  24.700  26.786  1.00  0.00     0.037 A 
ATOM     46  C   UNL A   1      47.019  30.394  27.429  1.00  0.00     0.049 A 
ATOM     47  C   UNL A   1      45.373  25.100  26.661  1.00  0.00     0.074 A 
ATOM     48  C   UNL A   1      48.369  30.652  27.249  1.00  0.00     0.029 A 
ATOM     49  N   UNL A   1      46.846  29.036  27.202  1.00  0.00    -0.354 N 
ATOM     50  N   UNL A   1      45.911  26.287  26.808  1.00  0.00    -0.248 NA
ATOM     51  C   UNL A   1      46.334  24.037  26.336  1.00  0.00     0.031 C 
ATOM     52  C   UNL A   1      49.004  29.460  26.887  1.00  0.00     0.029 A 
ATOM     53  C   UNL A   1      48.061  28.445  26.891  1.00  0.00     0.049 A 
ATOM     54  H   UNL A   1      45.984  28.562  27.253  1.00  0.00     0.167 HD
ATOM     55  C   UNL A   1      47.276  26.110  26.614  1.00  0.00     0.074 A 
ATOM     56  C   UNL A   1      47.484  24.700  26.359  1.00  0.00     0.031 C 
ATOM     57  C   UNL A   1      48.264  27.038  26.644  1.00  0.00     0.037 A 
BRANCH  44  58
ATOM     58  C   UNL A   1      46.337  32.785  27.889  1.00  0.00     0.058 A 
ATOM     59  C   UNL A   1      46.030  33.690  26.860  1.00  0.00     0.135 A 
ATOM     60  C   UNL A   1      46.900  33.318  29.065  1.00  0.00     0.135 A 
ATOM     61  F   UNL A   1      45.484  33.251  25.715  1.00  0.00    -0.206 F 
ATOM     62  C   UNL A   1      46.290  35.052  26.978  1.00  0.00     0.059 A 
ATOM     63  C   UNL A   1      47.130  34.685  29.222  1.00  0.00     0.059 A 
ATOM     64  F   UNL A   1      47.207  32.511  30.094  1.00  0.00    -0.206 F 
ATOM     65  C   UNL A   1      46.832  35.543  28.167  1.00  0.00     0.060 A 
BRANCH  65  66
ATOM     66  S   UNL A   1      47.114  37.321  28.311  1.00  0.00     0.124 S 
ATOM     67  O   UNL A   1      46.444  37.621  29.572  1.00  0.00    -0.237 OA
ATOM     68  O   UNL A   1      48.571  37.404  28.333  1.00  0.00    -0.237 OA
ATOM     69  O   UNL A   1      46.475  37.866  27.117  1.00  0.00    -0.744 OA
ENDBRANCH  65  66
ENDBRANCH  44  58
BRANCH  45  70
ATOM     70  C   UNL A   1      43.502  23.289  26.623  1.00  0.00     0.058 A 
ATOM     71  C   UNL A   1      43.503  22.703  25.350  1.00  0.00     0.135 A 
ATOM     72  C   UNL A   1      43.171  22.482  27.721  1.00  0.00     0.135 A 
ATOM     73  F   UNL A   1      43.822  23.438  24.273  1.00  0.00    -0.206 F 
ATOM     74  C   UNL A   1      43.183  21.364  25.166  1.00  0.00     0.059 A 
ATOM     75  C   UNL A   1      42.871  21.131  27.565  1.00  0.00     0.059 A 
ATOM     76  F   UNL A   1      43.189  22.992  28.962  1.00  0.00    -0.206 F 
ATOM     77  C   UNL A   1      42.876  20.585  26.282  1.00  0.00     0.060 A 
BRANCH  77  78
ATOM     78  S   UNL A   1      42.528  18.832  26.027  1.00  0.00     0.124 S 
ATOM     79  O   UNL A   1      41.115  18.862  25.670  1.00  0.00    -0.237 OA
ATOM     80  O   UNL A   1      43.451  18.494  24.948  1.00  0.00    -0.237 OA
ATOM     81  O   UNL A   1      42.840  18.236  27.321  1.00  0.00    -0.744 OA
ENDBRANCH  77  78
ENDBRANCH  45  70
BRANCH  57  82
ATOM     82  C   UNL A   1      49.676  26.570  26.407  1.00  0.00     0.058 A 
ATOM     83  C   UNL A   1      50.459  26.040  27.444  1.00  0.00     0.135 A 
ATOM     84  C   UNL A   1      50.218  26.569  25.111  1.00  0.00     0.135 A 
ATOM     85  F   UNL A   1      49.992  26.024  28.703  1.00  0.00    -0.206 F 
ATOM     86  C   UNL A   1      51.731  25.531  27.206  1.00  0.00     0.059 A 
ATOM     87  C   UNL A   1      51.478  26.042  24.846  1.00  0.00     0.059 A 
ATOM     88  F   UNL A   1      49.509  27.060  24.082  1.00  0.00    -0.206 F 
ATOM     89  C   UNL A   1      52.229  25.526  25.902  1.00  0.00     0.060 A 
BRANCH  89  90
ATOM     90  S   UNL A   1      53.857  24.804  25.604  1.00  0.00     0.124 S 
ATOM     91  O   UNL A   1      54.522  25.034  26.881  1.00  0.00    -0.237 OA
ATOM     92  O   UNL A   1      53.527  23.415  25.301  1.00  0.00    -0.237 OA
ATOM     93  O   UNL A   1      54.374  25.579  24.479  1.00  0.00    -0.744 OA
ENDBRANCH  89  90
ENDBRANCH  57  82
ENDBRANCH  31  32
ENDBRANCH  24  26
ENDBRANCH   1  24
TORSDOF 14
ENDMDL
MODEL 2
REMARK VINA RESULT:     -12.4      6.992     12.481
REMARK SMILES Cc1cc2c(=O)c3ccccc3oc2c(C(=O)OCCOC(=O)c2ccc(-c3c4nc(c(-c5c(F)cc(S(=O)(=O)[O-])cc5F)c5ccc([nH]5)c(-c5c(F)cc(S(=O)(=O)[O-])cc5F)c5nc(c(-c6c(F)cc(S(=O)(=O)[O-])cc6F)c6ccc3[nH]6)C=C5)C=C4)cc2)c1C
REMARK SMILES IDX 21 1 20 2 19 3 18 4 16 5 17 6 15 7 1 8 2 9 3 10 90 11 4 12
REMARK SMILES IDX 91 13 5 14 14 15 6 16 7 17 13 18 8 19 12 20 9 21 11 22 10 23
REMARK SMILES IDX 22 24 23 25 24 26 25 27 89 28 26 29 88 30 27 31 28 32 29 33
REMARK SMILES IDX 82 34 30 35 87 36 81 37 83 38 31 39 86 40 80 41 79 42 32 44
REMARK SMILES IDX 66 45 45 46 65 47 46 48 49 49 64 50 84 51 47 52 48 53 63 55
REMARK SMILES IDX 85 56 50 57 33 58 34 59 43 60 35 61 36 62 42 63 44 64 37 65
REMARK SMILES IDX 38 66 39 67 40 68 41 69 67 70 68 71 77 72 69 73 70 74 76 75
REMARK SMILES IDX 78 76 71 77 72 78 73 79 74 80 75 81 51 82 52 83 61 84 53 85
REMARK SMILES IDX 54 86 60 87 62 88 55 89 56 90 57 91 58 92 59 93
REMARK H PARENT 83 43 49 54
REMARK Flexibility Score: inf
ROOT
ATOM      1  O   UNL A   1      39.374  24.325  26.482  1.00  0.00    -0.458 OA
ENDROOT
BRANCH   1   2
ATOM      2  C   UNL A   1      39.413  22.925  26.796  1.00  0.00     0.275 C 
BRANCH   2   3
ATOM      3  C   UNL A   1      38.633  22.130  25.745  1.00  0.00     0.275 C 
BRANCH   3   4
ATOM      4  O   UNL A   1      37.214  22.355  25.886  1.00  0.00    -0.458 OA
BRANCH   4   5
ATOM      5  C   UNL A   1      36.438  22.319  24.772  1.00  0.00     0.342 C 
ATOM      6  O   UNL A   1      36.813  22.607  23.649  1.00  0.00    -0.246 OA
BRANCH   5   7
ATOM      7  C   UNL A   1      35.047  21.859  25.116  1.00  0.00     0.106 A 
ATOM      8  C   UNL A   1      32.895  18.665  25.483  1.00  0.00     0.044 C 
ATOM      9  C   UNL A   1      33.354  20.098  25.418  1.00  0.00    -0.046 A 
ATOM     10  C   UNL A   1      32.399  21.088  25.653  1.00  0.00     0.019 A 
ATOM     11  C   UNL A   1      34.686  20.473  25.107  1.00  0.00    -0.030 A 
ATOM     12  C   UNL A   1      32.758  22.432  25.660  1.00  0.00     0.067 A 
ATOM     13  C   UNL A   1      35.684  19.398  24.743  1.00  0.00     0.046 C 
ATOM     14  C   UNL A   1      31.701  23.440  25.822  1.00  0.00     0.200 A 
ATOM     15  C   UNL A   1      34.080  22.832  25.466  1.00  0.00     0.153 A 
ATOM     16  O   UNL A   1      30.528  23.122  25.966  1.00  0.00    -0.288 OA
ATOM     17  C   UNL A   1      32.118  24.838  25.791  1.00  0.00     0.065 A 
ATOM     18  O   UNL A   1      34.457  24.151  25.628  1.00  0.00    -0.455 OA
ATOM     19  C   UNL A   1      31.170  25.866  25.768  1.00  0.00     0.016 A 
ATOM     20  C   UNL A   1      33.481  25.108  25.798  1.00  0.00     0.138 A 
ATOM     21  C   UNL A   1      31.598  27.189  25.795  1.00  0.00     0.001 A 
ATOM     22  C   UNL A   1      33.899  26.432  25.918  1.00  0.00     0.048 A 
ATOM     23  C   UNL A   1      32.958  27.470  25.905  1.00  0.00     0.004 A 
ENDBRANCH   5   7
ENDBRANCH   4   5
ENDBRANCH   3   4
ENDBRANCH   2   3
ENDBRANCH   1   2
BRANCH   1  24
ATOM     24  C   UNL A   1      40.581  24.937  26.470  1.00  0.00     0.338 C 
ATOM     25  O   UNL A   1      41.454  24.821  25.623  1.00  0.00    -0.246 OA
BRANCH  24  26
ATOM     26  C   UNL A   1      40.608  25.951  27.539  1.00  0.00     0.060 A 
ATOM     27  C   UNL A   1      41.551  26.985  27.580  1.00  0.00     0.016 A 
ATOM     28  C   UNL A   1      39.646  25.836  28.541  1.00  0.00     0.016 A 
ATOM     29  C   UNL A   1      41.550  27.882  28.657  1.00  0.00     0.010 A 
ATOM     30  C   UNL A   1      39.648  26.732  29.605  1.00  0.00     0.010 A 
ATOM     31  C   UNL A   1      40.614  27.741  29.693  1.00  0.00    -0.014 A 
BRANCH  31  32
ATOM     32  C   UNL A   1      40.522  28.705  30.816  1.00  0.00     0.031 A 
ATOM     33  C   UNL A   1      41.403  28.599  32.029  1.00  0.00     0.074 A 
ATOM     34  C   UNL A   1      39.516  29.596  30.789  1.00  0.00     0.049 A 
ATOM     35  N   UNL A   1      41.369  29.295  33.137  1.00  0.00    -0.248 NA
ATOM     36  C   UNL A   1      42.411  27.532  32.024  1.00  0.00     0.031 C 
ATOM     37  C   UNL A   1      38.537  29.715  29.707  1.00  0.00     0.029 A 
ATOM     38  N   UNL A   1      39.143  30.556  31.691  1.00  0.00    -0.354 N 
ATOM     39  C   UNL A   1      42.307  28.718  33.988  1.00  0.00     0.074 A 
ATOM     40  C   UNL A   1      42.880  27.599  33.266  1.00  0.00     0.031 C 
ATOM     41  C   UNL A   1      37.697  30.721  29.991  1.00  0.00     0.029 A 
ATOM     42  C   UNL A   1      38.077  31.312  31.271  1.00  0.00     0.049 A 
ATOM     43  H   UNL A   1      39.594  30.691  32.555  1.00  0.00     0.167 HD
ATOM     44  C   UNL A   1      42.644  29.090  35.250  1.00  0.00     0.037 A 
ATOM     45  C   UNL A   1      37.498  32.388  31.835  1.00  0.00     0.037 A 
ATOM     46  C   UNL A   1      42.117  30.269  35.903  1.00  0.00     0.049 A 
ATOM     47  C   UNL A   1      38.032  32.912  33.136  1.00  0.00     0.074 A 
ATOM     48  C   UNL A   1      42.502  30.826  37.113  1.00  0.00     0.029 A 
ATOM     49  N   UNL A   1      41.115  31.086  35.397  1.00  0.00    -0.354 N 
ATOM     50  N   UNL A   1      38.976  32.413  33.897  1.00  0.00    -0.248 NA
ATOM     51  C   UNL A   1      37.440  34.156  33.647  1.00  0.00     0.031 C 
ATOM     52  C   UNL A   1      41.716  31.958  37.350  1.00  0.00     0.029 A 
ATOM     53  C   UNL A   1      40.875  32.140  36.265  1.00  0.00     0.049 A 
ATOM     54  H   UNL A   1      40.643  30.937  34.546  1.00  0.00     0.167 HD
ATOM     55  C   UNL A   1      39.105  33.291  34.966  1.00  0.00     0.074 A 
ATOM     56  C   UNL A   1      38.158  34.364  34.744  1.00  0.00     0.031 C 
ATOM     57  C   UNL A   1      39.935  33.210  36.035  1.00  0.00     0.037 A 
BRANCH  44  58
ATOM     58  C   UNL A   1      43.652  28.264  36.018  1.00  0.00     0.058 A 
ATOM     59  C   UNL A   1      45.027  28.547  35.980  1.00  0.00     0.135 A 
ATOM     60  C   UNL A   1      43.230  27.245  36.894  1.00  0.00     0.135 A 
ATOM     61  F   UNL A   1      45.497  29.511  35.174  1.00  0.00    -0.206 F 
ATOM     62  C   UNL A   1      45.943  27.840  36.754  1.00  0.00     0.059 A 
ATOM     63  C   UNL A   1      44.125  26.553  37.710  1.00  0.00     0.059 A 
ATOM     64  F   UNL A   1      41.928  26.931  36.989  1.00  0.00    -0.206 F 
ATOM     65  C   UNL A   1      45.483  26.850  37.623  1.00  0.00     0.060 A 
BRANCH  65  66
ATOM     66  S   UNL A   1      46.689  25.982  38.650  1.00  0.00     0.124 S 
ATOM     67  O   UNL A   1      45.825  25.341  39.635  1.00  0.00    -0.237 OA
ATOM     68  O   UNL A   1      47.328  25.087  37.690  1.00  0.00    -0.237 OA
ATOM     69  O   UNL A   1      47.536  27.055  39.163  1.00  0.00    -0.744 OA
ENDBRANCH  65  66
ENDBRANCH  44  58
BRANCH  45  70
ATOM     70  C   UNL A   1      36.444  33.111  31.081  1.00  0.00     0.058 A 
ATOM     71  C   UNL A   1      35.122  33.101  31.549  1.00  0.00     0.135 A 
ATOM     72  C   UNL A   1      36.739  33.886  29.951  1.00  0.00     0.135 A 
ATOM     73  F   UNL A   1      34.800  32.379  32.633  1.00  0.00    -0.206 F 
ATOM     74  C   UNL A   1      34.123  33.829  30.917  1.00  0.00     0.059 A 
ATOM     75  C   UNL A   1      35.759  34.643  29.314  1.00  0.00     0.059 A 
ATOM     76  F   UNL A   1      37.997  33.951  29.488  1.00  0.00    -0.206 F 
ATOM     77  C   UNL A   1      34.454  34.603  29.804  1.00  0.00     0.060 A 
BRANCH  77  78
ATOM     78  S   UNL A   1      33.153  35.593  29.039  1.00  0.00     0.124 S 
ATOM     79  O   UNL A   1      32.406  36.047  30.205  1.00  0.00    -0.237 OA
ATOM     80  O   UNL A   1      33.923  36.615  28.337  1.00  0.00    -0.237 OA
ATOM     81  O   UNL A   1      32.463  34.636  28.180  1.00  0.00    -0.744 OA
ENDBRANCH  77  78
ENDBRANCH  45  70
BRANCH  57  82
ATOM     82  C   UNL A   1      39.877  34.317  37.055  1.00  0.00     0.058 A 
ATOM     83  C   UNL A   1      40.636  35.488  36.914  1.00  0.00     0.135 A 
ATOM     84  C   UNL A   1      38.985  34.240  38.139  1.00  0.00     0.135 A 
ATOM     85  F   UNL A   1      41.508  35.611  35.902  1.00  0.00    -0.206 F 
ATOM     86  C   UNL A   1      40.518  36.543  37.813  1.00  0.00     0.059 A 
ATOM     87  C   UNL A   1      38.832  35.294  39.035  1.00  0.00     0.059 A 
ATOM     88  F   UNL A   1      38.232  33.144  38.317  1.00  0.00    -0.206 F 
ATOM     89  C   UNL A   1      39.605  36.442  38.865  1.00  0.00     0.060 A 
BRANCH  89  90
ATOM     90  S   UNL A   1      39.421  37.847  39.984  1.00  0.00     0.124 S 
ATOM     91  O   UNL A   1      38.164  38.429  39.526  1.00  0.00    -0.237 OA
ATOM     92  O   UNL A   1      39.381  37.196  41.291  1.00  0.00    -0.237 OA
ATOM     93  O   UNL A   1      40.614  38.648  39.726  1.00  0.00    -0.744 OA
ENDBRANCH  89  90
ENDBRANCH  57  82
ENDBRANCH  31  32
ENDBRANCH  24  26
ENDBRANCH   1  24
TORSDOF 14
ENDMDL
MODEL 3
REMARK VINA RESULT:     -12.4      1.266      2.991
REMARK SMILES Cc1cc2c(=O)c3ccccc3oc2c(C(=O)OCCOC(=O)c2ccc(-c3c4nc(c(-c5c(F)cc(S(=O)(=O)[O-])cc5F)c5ccc([nH]5)c(-c5c(F)cc(S(=O)(=O)[O-])cc5F)c5nc(c(-c6c(F)cc(S(=O)(=O)[O-])cc6F)c6ccc3[nH]6)C=C5)C=C4)cc2)c1C
REMARK SMILES IDX 21 1 20 2 19 3 18 4 16 5 17 6 15 7 1 8 2 9 3 10 90 11 4 12
REMARK SMILES IDX 91 13 5 14 14 15 6 16 7 17 13 18 8 19 12 20 9 21 11 22 10 23
REMARK SMILES IDX 22 24 23 25 24 26 25 27 89 28 26 29 88 30 27 31 28 32 29 33
REMARK SMILES IDX 82 34 30 35 87 36 81 37 83 38 31 39 86 40 80 41 79 42 32 44
REMARK SMILES IDX 66 45 45 46 65 47 46 48 49 49 64 50 84 51 47 52 48 53 63 55
REMARK SMILES IDX 85 56 50 57 33 58 34 59 43 60 35 61 36 62 42 63 44 64 37 65
REMARK SMILES IDX 38 66 39 67 40 68 41 69 67 70 68 71 77 72 69 73 70 74 76 75
REMARK SMILES IDX 78 76 71 77 72 78 73 79 74 80 75 81 51 82 52 83 61 84 53 85
REMARK SMILES IDX 54 86 60 87 62 88 55 89 56 90 57 91 58 92 59 93
REMARK H PARENT 83 43 49 54
REMARK Flexibility Score: inf
ROOT
ATOM      1  O   UNL A   1      35.482  29.501  28.318  1.00  0.00    -0.458 OA
ENDROOT
BRANCH   1   2
ATOM      2  C   UNL A   1      34.670  30.474  27.644  1.00  0.00     0.275 C 
BRANCH   2   3
ATOM      3  C   UNL A   1      33.617  29.773  26.784  1.00  0.00     0.275 C 
BRANCH   3   4
ATOM      4  O   UNL A   1      34.142  28.546  26.233  1.00  0.00    -0.458 OA
BRANCH   4   5
ATOM      5  C   UNL A   1      33.836  28.228  24.948  1.00  0.00     0.342 C 
ATOM      6  O   UNL A   1      34.383  28.690  23.964  1.00  0.00    -0.246 OA
BRANCH   5   7
ATOM      7  C   UNL A   1      32.731  27.206  24.912  1.00  0.00     0.106 A 
ATOM      8  C   UNL A   1      32.027  23.451  25.518  1.00  0.00     0.044 C 
ATOM      9  C   UNL A   1      31.889  24.906  25.155  1.00  0.00    -0.046 A 
ATOM     10  C   UNL A   1      30.642  25.338  24.703  1.00  0.00     0.019 A 
ATOM     11  C   UNL A   1      32.963  25.829  25.228  1.00  0.00    -0.030 A 
ATOM     12  C   UNL A   1      30.424  26.678  24.397  1.00  0.00     0.067 A 
ATOM     13  C   UNL A   1      34.337  25.327  25.610  1.00  0.00     0.046 C 
ATOM     14  C   UNL A   1      29.121  27.068  23.838  1.00  0.00     0.200 A 
ATOM     15  C   UNL A   1      31.427  27.633  24.562  1.00  0.00     0.153 A 
ATOM     16  O   UNL A   1      28.231  26.248  23.656  1.00  0.00    -0.288 OA
ATOM     17  C   UNL A   1      28.948  28.477  23.502  1.00  0.00     0.065 A 
ATOM     18  O   UNL A   1      31.161  28.980  24.406  1.00  0.00    -0.455 OA
ATOM     19  C   UNL A   1      27.811  28.913  22.814  1.00  0.00     0.016 A 
ATOM     20  C   UNL A   1      29.940  29.365  23.900  1.00  0.00     0.138 A 
ATOM     21  C   UNL A   1      27.647  30.269  22.556  1.00  0.00     0.001 A 
ATOM     22  C   UNL A   1      29.724  30.730  23.720  1.00  0.00     0.048 A 
ATOM     23  C   UNL A   1      28.585  31.178  23.040  1.00  0.00     0.004 A 
ENDBRANCH   5   7
ENDBRANCH   4   5
ENDBRANCH   3   4
ENDBRANCH   2   3
ENDBRANCH   1   2
BRANCH   1  24
ATOM     24  C   UNL A   1      36.198  29.985  29.361  1.00  0.00     0.338 C 
ATOM     25  O   UNL A   1      35.757  30.471  30.392  1.00  0.00    -0.246 OA
BRANCH  24  26
ATOM     26  C   UNL A   1      37.616  29.639  29.161  1.00  0.00     0.060 A 
ATOM     27  C   UNL A   1      38.475  29.318  30.220  1.00  0.00     0.016 A 
ATOM     28  C   UNL A   1      38.091  29.654  27.851  1.00  0.00     0.016 A 
ATOM     29  C   UNL A   1      39.826  29.052  29.960  1.00  0.00     0.010 A 
ATOM     30  C   UNL A   1      39.432  29.385  27.599  1.00  0.00     0.010 A 
ATOM     31  C   UNL A   1      40.319  29.113  28.647  1.00  0.00    -0.014 A 
BRANCH  31  32
ATOM     32  C   UNL A   1      41.721  28.769  28.309  1.00  0.00     0.031 A 
ATOM     33  C   UNL A   1      42.812  29.802  28.293  1.00  0.00     0.074 A 
ATOM     34  C   UNL A   1      41.964  27.524  27.864  1.00  0.00     0.049 A 
ATOM     35  N   UNL A   1      44.059  29.680  27.913  1.00  0.00    -0.248 NA
ATOM     36  C   UNL A   1      42.440  31.164  28.695  1.00  0.00     0.031 C 
ATOM     37  C   UNL A   1      40.955  26.470  27.739  1.00  0.00     0.029 A 
ATOM     38  N   UNL A   1      43.122  26.937  27.428  1.00  0.00    -0.354 N 
ATOM     39  C   UNL A   1      44.610  30.957  27.971  1.00  0.00     0.074 A 
ATOM     40  C   UNL A   1      43.548  31.841  28.408  1.00  0.00     0.031 C 
ATOM     41  C   UNL A   1      41.547  25.352  27.294  1.00  0.00     0.029 A 
ATOM     42  C   UNL A   1      42.972  25.612  27.102  1.00  0.00     0.049 A 
ATOM     43  H   UNL A   1      43.978  27.418  27.355  1.00  0.00     0.167 HD
ATOM     44  C   UNL A   1      45.879  31.342  27.679  1.00  0.00     0.037 A 
ATOM     45  C   UNL A   1      43.886  24.698  26.730  1.00  0.00     0.037 A 
ATOM     46  C   UNL A   1      46.937  30.417  27.337  1.00  0.00     0.049 A 
ATOM     47  C   UNL A   1      45.328  25.104  26.622  1.00  0.00     0.074 A 
ATOM     48  C   UNL A   1      48.289  30.678  27.175  1.00  0.00     0.029 A 
ATOM     49  N   UNL A   1      46.774  29.055  27.127  1.00  0.00    -0.354 N 
ATOM     50  N   UNL A   1      45.858  26.295  26.760  1.00  0.00    -0.248 NA
ATOM     51  C   UNL A   1      46.299  24.041  26.329  1.00  0.00     0.031 C 
ATOM     52  C   UNL A   1      48.934  29.484  26.840  1.00  0.00     0.029 A 
ATOM     53  C   UNL A   1      47.996  28.465  26.845  1.00  0.00     0.049 A 
ATOM     54  H   UNL A   1      45.913  28.577  27.172  1.00  0.00     0.167 HD
ATOM     55  C   UNL A   1      47.227  26.122  26.591  1.00  0.00     0.074 A 
ATOM     56  C   UNL A   1      47.445  24.710  26.360  1.00  0.00     0.031 C 
ATOM     57  C   UNL A   1      48.209  27.055  26.622  1.00  0.00     0.037 A 
BRANCH  44  58
ATOM     58  C   UNL A   1      46.237  32.811  27.750  1.00  0.00     0.058 A 
ATOM     59  C   UNL A   1      46.897  33.362  28.859  1.00  0.00     0.135 A 
ATOM     60  C   UNL A   1      46.021  33.658  26.645  1.00  0.00     0.135 A 
ATOM     61  F   UNL A   1      47.143  32.609  29.943  1.00  0.00    -0.206 F 
ATOM     62  C   UNL A   1      47.302  34.694  28.886  1.00  0.00     0.059 A 
ATOM     63  C   UNL A   1      46.456  34.983  26.632  1.00  0.00     0.059 A 
ATOM     64  F   UNL A   1      45.407  33.192  25.546  1.00  0.00    -0.206 F 
ATOM     65  C   UNL A   1      47.086  35.495  27.764  1.00  0.00     0.060 A 
BRANCH  65  66
ATOM     66  S   UNL A   1      47.665  37.206  27.808  1.00  0.00     0.124 S 
ATOM     67  O   UNL A   1      46.705  37.815  28.722  1.00  0.00    -0.237 OA
ATOM     68  O   UNL A   1      49.024  37.060  28.322  1.00  0.00    -0.237 OA
ATOM     69  O   UNL A   1      47.567  37.636  26.417  1.00  0.00    -0.744 OA
ENDBRANCH  65  66
ENDBRANCH  44  58
BRANCH  45  70
ATOM     70  C   UNL A   1      43.465  23.283  26.582  1.00  0.00     0.058 A 
ATOM     71  C   UNL A   1      43.471  22.684  25.315  1.00  0.00     0.135 A 
ATOM     72  C   UNL A   1      43.140  22.485  27.688  1.00  0.00     0.135 A 
ATOM     73  F   UNL A   1      43.784  23.411  24.231  1.00  0.00    -0.206 F 
ATOM     74  C   UNL A   1      43.159  21.342  25.144  1.00  0.00     0.059 A 
ATOM     75  C   UNL A   1      42.848  21.132  27.546  1.00  0.00     0.059 A 
ATOM     76  F   UNL A   1      43.155  23.008  28.924  1.00  0.00    -0.206 F 
ATOM     77  C   UNL A   1      42.857  20.572  26.268  1.00  0.00     0.060 A 
BRANCH  77  78
ATOM     78  S   UNL A   1      42.521  18.815  26.031  1.00  0.00     0.124 S 
ATOM     79  O   UNL A   1      41.119  18.836  25.629  1.00  0.00    -0.237 OA
ATOM     80  O   UNL A   1      43.478  18.460  24.989  1.00  0.00    -0.237 OA
ATOM     81  O   UNL A   1      42.792  18.240  27.345  1.00  0.00    -0.744 OA
ENDBRANCH  77  78
ENDBRANCH  45  70
BRANCH  57  82
ATOM     82  C   UNL A   1      49.627  26.590  26.415  1.00  0.00     0.058 A 
ATOM     83  C   UNL A   1      50.392  26.070  27.470  1.00  0.00     0.135 A 
ATOM     84  C   UNL A   1      50.193  26.583  25.129  1.00  0.00     0.135 A 
ATOM     85  F   UNL A   1      49.902  26.059  28.719  1.00  0.00    -0.206 F 
ATOM     86  C   UNL A   1      51.671  25.564  27.259  1.00  0.00     0.059 A 
ATOM     87  C   UNL A   1      51.460  26.058  24.891  1.00  0.00     0.059 A 
ATOM     88  F   UNL A   1      49.502  27.065  24.084  1.00  0.00    -0.206 F 
ATOM     89  C   UNL A   1      52.193  25.552  25.964  1.00  0.00     0.060 A 
BRANCH  89  90
ATOM     90  S   UNL A   1      53.829  24.834  25.702  1.00  0.00     0.124 S 
ATOM     91  O   UNL A   1      54.449  25.023  27.008  1.00  0.00    -0.237 OA
ATOM     92  O   UNL A   1      53.506  23.455  25.345  1.00  0.00    -0.237 OA
ATOM     93  O   UNL A   1      54.387  25.640  24.620  1.00  0.00    -0.744 OA
ENDBRANCH  89  90
ENDBRANCH  57  82
ENDBRANCH  31  32
ENDBRANCH  24  26
ENDBRANCH   1  24
TORSDOF 14
ENDMDL
