MODEL 1
REMARK VINA RESULT:     -12.4      0.000      0.000
REMARK SMILES O=C(OCCOC(=O)c1cc(N2C(=O)[C@H]3[C@@H]4C=C[C@@H]([C@@H]5C[C@H]45)[C@@H]3C2=O)ccc1Cl)c1ccc(-c2c3nc(c(-c4c(F)cc(S(=O)(=O)[O-])cc4F)c4ccc([nH]4)c(-c4c(F)cc(S(=O)(=O)[O-])cc4F)c4nc(c(-c5c(F)cc(S(=O)(=O)[O-])cc5F)c5ccc2[nH]5)C=C4)C=C3)cc1
REMARK SMILES IDX 4 1 3 2 2 3 1 4 30 5 31 6 95 7 32 8 94 9 33 10 34 11 35 12
REMARK SMILES IDX 88 13 36 14 93 15 87 16 89 17 37 18 92 19 86 20 85 21 38 23
REMARK SMILES IDX 72 24 51 25 71 26 52 27 55 28 70 29 90 30 53 31 54 32 69 34
REMARK SMILES IDX 91 35 56 36 39 37 40 38 49 39 41 40 42 41 48 42 50 43 43 44
REMARK SMILES IDX 44 45 45 46 46 47 47 48 73 49 74 50 83 51 75 52 76 53 82 54
REMARK SMILES IDX 84 55 77 56 78 57 79 58 80 59 81 60 57 61 58 62 67 63 59 64
REMARK SMILES IDX 60 65 66 66 68 67 61 68 62 69 63 70 64 71 65 72 5 73 6 74
REMARK SMILES IDX 7 75 8 76 9 77 10 78 28 79 11 80 27 81 29 82 26 83 12 84
REMARK SMILES IDX 13 85 24 86 14 87 15 88 23 89 25 90 16 91 19 92 17 93 22 94
REMARK SMILES IDX 18 95 20 96 21 97
REMARK H PARENT 89 22 55 33
REMARK Flexibility Score: inf
ROOT
ATOM      1  C   UNL A   1      43.431  23.396  26.983  1.00  0.00     0.275 C 
ENDROOT
BRANCH   1   2
ATOM      2  O   UNL A   1      43.362  24.542  26.120  1.00  0.00    -0.458 OA
BRANCH   2   3
ATOM      3  C   UNL A   1      42.454  25.543  26.063  1.00  0.00     0.338 C 
ATOM      4  O   UNL A   1      42.035  25.871  24.951  1.00  0.00    -0.246 OA
BRANCH   3   5
ATOM      5  C   UNL A   1      41.998  26.351  27.245  1.00  0.00     0.060 A 
ATOM      6  C   UNL A   1      40.893  26.106  28.059  1.00  0.00     0.016 A 
ATOM      7  C   UNL A   1      42.796  27.462  27.571  1.00  0.00     0.016 A 
ATOM      8  C   UNL A   1      40.636  26.884  29.192  1.00  0.00     0.010 A 
ATOM      9  C   UNL A   1      42.561  28.233  28.714  1.00  0.00     0.010 A 
ATOM     10  C   UNL A   1      41.475  27.944  29.535  1.00  0.00    -0.014 A 
BRANCH  10  11
ATOM     11  C   UNL A   1      41.128  28.789  30.698  1.00  0.00     0.031 A 
ATOM     12  C   UNL A   1      41.952  28.674  31.944  1.00  0.00     0.074 A 
ATOM     13  C   UNL A   1      40.157  29.715  30.587  1.00  0.00     0.049 A 
ATOM     14  N   UNL A   1      41.923  29.417  33.015  1.00  0.00    -0.248 NA
ATOM     15  C   UNL A   1      42.966  27.606  31.975  1.00  0.00     0.031 C 
ATOM     16  C   UNL A   1      39.345  29.929  29.391  1.00  0.00     0.029 A 
ATOM     17  N   UNL A   1      39.697  30.658  31.468  1.00  0.00    -0.354 N 
ATOM     18  C   UNL A   1      42.948  28.945  33.823  1.00  0.00     0.074 A 
ATOM     19  C   UNL A   1      43.532  27.804  33.155  1.00  0.00     0.031 C 
ATOM     20  C   UNL A   1      38.469  30.922  29.616  1.00  0.00     0.029 A 
ATOM     21  C   UNL A   1      38.664  31.420  30.972  1.00  0.00     0.049 A 
ATOM     22  H   UNL A   1      40.071  30.779  32.370  1.00  0.00     0.167 HD
ATOM     23  C   UNL A   1      43.386  29.450  34.998  1.00  0.00     0.037 A 
ATOM     24  C   UNL A   1      37.963  32.415  31.549  1.00  0.00     0.037 A 
ATOM     25  C   UNL A   1      42.764  30.562  35.665  1.00  0.00     0.049 A 
ATOM     26  C   UNL A   1      38.395  32.878  32.916  1.00  0.00     0.074 A 
ATOM     27  C   UNL A   1      43.087  31.129  36.883  1.00  0.00     0.029 A 
ATOM     28  N   UNL A   1      41.676  31.269  35.167  1.00  0.00    -0.354 N 
ATOM     29  N   UNL A   1      39.390  32.441  33.654  1.00  0.00    -0.248 NA
ATOM     30  C   UNL A   1      37.637  33.981  33.517  1.00  0.00     0.031 C 
ATOM     31  C   UNL A   1      42.166  32.150  37.143  1.00  0.00     0.029 A 
ATOM     32  C   UNL A   1      41.301  32.254  36.064  1.00  0.00     0.049 A 
ATOM     33  H   UNL A   1      41.238  31.095  34.302  1.00  0.00     0.167 HD
ATOM     34  C   UNL A   1      39.397  33.237  34.792  1.00  0.00     0.074 A 
ATOM     35  C   UNL A   1      38.320  34.193  34.634  1.00  0.00     0.031 C 
ATOM     36  C   UNL A   1      40.218  33.187  35.873  1.00  0.00     0.037 A 
BRANCH  23  37
ATOM     37  C   UNL A   1      44.582  28.792  35.623  1.00  0.00     0.058 A 
ATOM     38  C   UNL A   1      45.888  29.224  35.334  1.00  0.00     0.135 A 
ATOM     39  C   UNL A   1      44.428  27.723  36.518  1.00  0.00     0.135 A 
ATOM     40  F   UNL A   1      46.091  30.223  34.460  1.00  0.00    -0.206 F 
ATOM     41  C   UNL A   1      46.999  28.609  35.899  1.00  0.00     0.059 A 
ATOM     42  C   UNL A   1      45.526  27.106  37.112  1.00  0.00     0.059 A 
ATOM     43  F   UNL A   1      43.203  27.261  36.816  1.00  0.00    -0.206 F 
ATOM     44  C   UNL A   1      46.808  27.551  36.789  1.00  0.00     0.060 A 
BRANCH  44  45
ATOM     45  S   UNL A   1      48.261  26.774  37.526  1.00  0.00     0.124 S 
ATOM     46  O   UNL A   1      48.490  25.658  36.614  1.00  0.00    -0.237 OA
ATOM     47  O   UNL A   1      49.247  27.848  37.473  1.00  0.00    -0.237 OA
ATOM     48  O   UNL A   1      47.809  26.406  38.865  1.00  0.00    -0.744 OA
ENDBRANCH  44  45
ENDBRANCH  23  37
BRANCH  24  49
ATOM     49  C   UNL A   1      36.796  33.027  30.855  1.00  0.00     0.058 A 
ATOM     50  C   UNL A   1      36.953  33.957  29.815  1.00  0.00     0.135 A 
ATOM     51  C   UNL A   1      35.484  32.716  31.250  1.00  0.00     0.135 A 
ATOM     52  F   UNL A   1      38.182  34.289  29.393  1.00  0.00    -0.206 F 
ATOM     53  C   UNL A   1      35.859  34.588  29.225  1.00  0.00     0.059 A 
ATOM     54  C   UNL A   1      34.374  33.312  30.659  1.00  0.00     0.059 A 
ATOM     55  F   UNL A   1      35.271  31.816  32.224  1.00  0.00    -0.206 F 
ATOM     56  C   UNL A   1      34.573  34.265  29.661  1.00  0.00     0.060 A 
BRANCH  56  57
ATOM     57  S   UNL A   1      33.161  35.098  28.903  1.00  0.00     0.124 S 
ATOM     58  O   UNL A   1      33.785  36.304  28.369  1.00  0.00    -0.237 OA
ATOM     59  O   UNL A   1      32.719  34.116  27.917  1.00  0.00    -0.237 OA
ATOM     60  O   UNL A   1      32.251  35.304  30.025  1.00  0.00    -0.744 OA
ENDBRANCH  56  57
ENDBRANCH  24  49
BRANCH  36  61
ATOM     61  C   UNL A   1      39.984  34.209  36.947  1.00  0.00     0.058 A 
ATOM     62  C   UNL A   1      39.214  33.917  38.084  1.00  0.00     0.135 A 
ATOM     63  C   UNL A   1      40.561  35.485  36.851  1.00  0.00     0.135 A 
ATOM     64  F   UNL A   1      38.637  32.712  38.218  1.00  0.00    -0.206 F 
ATOM     65  C   UNL A   1      38.991  34.870  39.071  1.00  0.00     0.059 A 
ATOM     66  C   UNL A   1      40.378  36.442  37.842  1.00  0.00     0.059 A 
ATOM     67  F   UNL A   1      41.318  35.808  35.790  1.00  0.00    -0.206 F 
ATOM     68  C   UNL A   1      39.577  36.130  38.939  1.00  0.00     0.060 A 
BRANCH  68  69
ATOM     69  S   UNL A   1      39.290  37.353  40.235  1.00  0.00     0.124 S 
ATOM     70  O   UNL A   1      38.516  38.361  39.518  1.00  0.00    -0.237 OA
ATOM     71  O   UNL A   1      38.559  36.583  41.236  1.00  0.00    -0.237 OA
ATOM     72  O   UNL A   1      40.639  37.755  40.624  1.00  0.00    -0.744 OA
ENDBRANCH  68  69
ENDBRANCH  36  61
ENDBRANCH  10  11
ENDBRANCH   3   5
ENDBRANCH   2   3
ENDBRANCH   1   2
BRANCH   1  73
ATOM     73  C   UNL A   1      42.685  22.164  26.467  1.00  0.00     0.275 C 
BRANCH  73  74
ATOM     74  O   UNL A   1      41.432  22.477  25.843  1.00  0.00    -0.458 OA
BRANCH  74  75
ATOM     75  C   UNL A   1      40.333  22.358  26.630  1.00  0.00     0.339 C 
ATOM     76  O   UNL A   1      40.112  22.947  27.674  1.00  0.00    -0.246 OA
BRANCH  75  77
ATOM     77  C   UNL A   1      39.344  21.485  25.972  1.00  0.00     0.080 A 
ATOM     78  C   UNL A   1      38.157  22.082  25.499  1.00  0.00     0.044 A 
ATOM     79  C   UNL A   1      39.537  20.104  25.854  1.00  0.00     0.055 A 
ATOM     80  C   UNL A   1      37.172  21.288  24.906  1.00  0.00     0.053 A 
ATOM     81  C   UNL A   1      38.564  19.324  25.225  1.00  0.00     0.023 A 
ATOM     82  Cl  UNL A   1      40.918  19.292  26.502  1.00  0.00    -0.083 Cl
ATOM     83  C   UNL A   1      37.388  19.912  24.759  1.00  0.00     0.028 A 
BRANCH  80  84
ATOM     84  N   UNL A   1      35.956  21.838  24.459  1.00  0.00    -0.250 N 
ATOM     85  C   UNL A   1      34.813  21.933  25.270  1.00  0.00     0.238 C 
ATOM     86  C   UNL A   1      35.911  22.776  23.408  1.00  0.00     0.238 C 
ATOM     87  O   UNL A   1      34.610  21.565  26.409  1.00  0.00    -0.274 OA
ATOM     88  C   UNL A   1      33.848  22.688  24.425  1.00  0.00     0.100 C 
ATOM     89  C   UNL A   1      34.835  23.707  23.853  1.00  0.00     0.100 C 
ATOM     90  O   UNL A   1      36.663  22.926  22.464  1.00  0.00    -0.274 OA
ATOM     91  C   UNL A   1      32.531  23.385  24.796  1.00  0.00     0.028 C 
ATOM     92  C   UNL A   1      34.050  24.859  23.242  1.00  0.00     0.028 C 
ATOM     93  C   UNL A   1      31.956  23.621  23.376  1.00  0.00    -0.026 C 
ATOM     94  C   UNL A   1      32.670  24.796  25.387  1.00  0.00     0.001 C 
ATOM     95  C   UNL A   1      32.775  24.330  22.563  1.00  0.00    -0.026 C 
ATOM     96  C   UNL A   1      33.545  25.680  24.487  1.00  0.00     0.001 C 
ATOM     97  C   UNL A   1      33.897  25.442  25.957  1.00  0.00     0.009 C 
ENDBRANCH  80  84
ENDBRANCH  75  77
ENDBRANCH  74  75
ENDBRANCH  73  74
ENDBRANCH   1  73
TORSDOF 15
ENDMDL
MODEL 2
REMARK VINA RESULT:     -12.4      5.154     10.302
REMARK SMILES O=C(OCCOC(=O)c1cc(N2C(=O)[C@H]3[C@@H]4C=C[C@@H]([C@@H]5C[C@H]45)[C@@H]3C2=O)ccc1Cl)c1ccc(-c2c3nc(c(-c4c(F)cc(S(=O)(=O)[O-])cc4F)c4ccc([nH]4)c(-c4c(F)cc(S(=O)(=O)[O-])cc4F)c4nc(c(-c5c(F)cc(S(=O)(=O)[O-])cc5F)c5ccc2[nH]5)C=C4)C=C3)cc1
REMARK SMILES IDX 4 1 3 2 2 3 1 4 30 5 31 6 95 7 32 8 94 9 33 10 34 11 35 12
REMARK SMILES IDX 88 13 36 14 93 15 87 16 89 17 37 18 92 19 86 20 85 21 38 23
REMARK SMILES IDX 72 24 51 25 71 26 52 27 55 28 70 29 90 30 53 31 54 32 69 34
REMARK SMILES IDX 91 35 56 36 39 37 40 38 49 39 41 40 42 41 48 42 50 43 43 44
REMARK SMILES IDX 44 45 45 46 46 47 47 48 73 49 74 50 83 51 75 52 76 53 82 54
REMARK SMILES IDX 84 55 77 56 78 57 79 58 80 59 81 60 57 61 58 62 67 63 59 64
REMARK SMILES IDX 60 65 66 66 68 67 61 68 62 69 63 70 64 71 65 72 5 73 6 74
REMARK SMILES IDX 7 75 8 76 9 77 10 78 28 79 11 80 27 81 29 82 26 83 12 84
REMARK SMILES IDX 13 85 24 86 14 87 15 88 23 89 25 90 16 91 19 92 17 93 22 94
REMARK SMILES IDX 18 95 20 96 21 97
REMARK H PARENT 89 22 55 33
REMARK Flexibility Score: inf
ROOT
ATOM      1  C   UNL A   1      32.417  29.265  26.764  1.00  0.00     0.275 C 
ENDROOT
BRANCH   1   2
ATOM      2  O   UNL A   1      33.707  29.130  27.382  1.00  0.00    -0.458 OA
BRANCH   2   3
ATOM      3  C   UNL A   1      34.495  30.056  27.976  1.00  0.00     0.338 C 
ATOM      4  O   UNL A   1      34.046  31.197  28.092  1.00  0.00    -0.246 OA
BRANCH   3   5
ATOM      5  C   UNL A   1      35.914  29.818  28.409  1.00  0.00     0.060 A 
ATOM      6  C   UNL A   1      36.356  29.421  29.671  1.00  0.00     0.016 A 
ATOM      7  C   UNL A   1      36.895  29.995  27.417  1.00  0.00     0.016 A 
ATOM      8  C   UNL A   1      37.703  29.139  29.915  1.00  0.00     0.010 A 
ATOM      9  C   UNL A   1      38.242  29.694  27.644  1.00  0.00     0.010 A 
ATOM     10  C   UNL A   1      38.654  29.260  28.901  1.00  0.00    -0.014 A 
BRANCH  10  11
ATOM     11  C   UNL A   1      40.078  29.024  29.218  1.00  0.00     0.031 A 
ATOM     12  C   UNL A   1      40.661  27.671  28.949  1.00  0.00     0.074 A 
ATOM     13  C   UNL A   1      40.849  30.045  29.637  1.00  0.00     0.049 A 
ATOM     14  N   UNL A   1      41.908  27.292  29.006  1.00  0.00    -0.248 NA
ATOM     15  C   UNL A   1      39.726  26.614  28.525  1.00  0.00     0.031 C 
ATOM     16  C   UNL A   1      40.371  31.407  29.871  1.00  0.00     0.029 A 
ATOM     17  N   UNL A   1      42.187  30.115  29.922  1.00  0.00    -0.354 N 
ATOM     18  C   UNL A   1      41.916  25.973  28.573  1.00  0.00     0.074 A 
ATOM     19  C   UNL A   1      40.544  25.592  28.329  1.00  0.00     0.031 C 
ATOM     20  C   UNL A   1      41.391  32.175  30.287  1.00  0.00     0.029 A 
ATOM     21  C   UNL A   1      42.598  31.360  30.341  1.00  0.00     0.049 A 
ATOM     22  H   UNL A   1      42.796  29.347  29.835  1.00  0.00     0.167 HD
ATOM     23  C   UNL A   1      42.983  25.170  28.360  1.00  0.00     0.037 A 
ATOM     24  C   UNL A   1      43.818  31.792  30.717  1.00  0.00     0.037 A 
ATOM     25  C   UNL A   1      44.337  25.557  28.648  1.00  0.00     0.049 A 
ATOM     26  C   UNL A   1      44.974  30.834  30.586  1.00  0.00     0.074 A 
ATOM     27  C   UNL A   1      45.494  24.810  28.521  1.00  0.00     0.029 A 
ATOM     28  N   UNL A   1      44.713  26.802  29.135  1.00  0.00    -0.354 N 
ATOM     29  N   UNL A   1      44.968  29.597  30.142  1.00  0.00    -0.248 NA
ATOM     30  C   UNL A   1      46.299  31.330  30.974  1.00  0.00     0.031 C 
ATOM     31  C   UNL A   1      46.564  25.590  28.975  1.00  0.00     0.029 A 
ATOM     32  C   UNL A   1      46.082  26.839  29.337  1.00  0.00     0.049 A 
ATOM     33  H   UNL A   1      44.095  27.549  29.311  1.00  0.00     0.167 HD
ATOM     34  C   UNL A   1      46.292  29.178  30.168  1.00  0.00     0.074 A 
ATOM     35  C   UNL A   1      47.071  30.301  30.651  1.00  0.00     0.031 C 
ATOM     36  C   UNL A   1      46.822  27.977  29.824  1.00  0.00     0.037 A 
BRANCH  23  37
ATOM     37  C   UNL A   1      42.709  23.804  27.800  1.00  0.00     0.058 A 
ATOM     38  C   UNL A   1      42.552  22.688  28.639  1.00  0.00     0.135 A 
ATOM     39  C   UNL A   1      42.599  23.605  26.415  1.00  0.00     0.135 A 
ATOM     40  F   UNL A   1      42.678  22.819  29.969  1.00  0.00    -0.206 F 
ATOM     41  C   UNL A   1      42.312  21.419  28.124  1.00  0.00     0.059 A 
ATOM     42  C   UNL A   1      42.337  22.347  25.879  1.00  0.00     0.059 A 
ATOM     43  F   UNL A   1      42.755  24.635  25.569  1.00  0.00    -0.206 F 
ATOM     44  C   UNL A   1      42.204  21.259  26.741  1.00  0.00     0.060 A 
BRANCH  44  45
ATOM     45  S   UNL A   1      41.877  19.607  26.091  1.00  0.00     0.124 S 
ATOM     46  O   UNL A   1      42.269  18.766  27.217  1.00  0.00    -0.237 OA
ATOM     47  O   UNL A   1      40.446  19.663  25.809  1.00  0.00    -0.237 OA
ATOM     48  O   UNL A   1      42.743  19.526  24.917  1.00  0.00    -0.744 OA
ENDBRANCH  44  45
ENDBRANCH  23  37
BRANCH  24  49
ATOM     49  C   UNL A   1      44.008  33.170  31.249  1.00  0.00     0.058 A 
ATOM     50  C   UNL A   1      43.812  33.477  32.605  1.00  0.00     0.135 A 
ATOM     51  C   UNL A   1      44.360  34.226  30.392  1.00  0.00     0.135 A 
ATOM     52  F   UNL A   1      43.479  32.508  33.470  1.00  0.00    -0.206 F 
ATOM     53  C   UNL A   1      43.911  34.782  33.081  1.00  0.00     0.059 A 
ATOM     54  C   UNL A   1      44.492  35.533  30.848  1.00  0.00     0.059 A 
ATOM     55  F   UNL A   1      44.584  33.988  29.089  1.00  0.00    -0.206 F 
ATOM     56  C   UNL A   1      44.243  35.806  32.193  1.00  0.00     0.060 A 
BRANCH  56  57
ATOM     57  S   UNL A   1      44.355  37.499  32.815  1.00  0.00     0.124 S 
ATOM     58  O   UNL A   1      45.774  37.598  33.139  1.00  0.00    -0.237 OA
ATOM     59  O   UNL A   1      43.906  38.277  31.665  1.00  0.00    -0.237 OA
ATOM     60  O   UNL A   1      43.446  37.497  33.956  1.00  0.00    -0.744 OA
ENDBRANCH  56  57
ENDBRANCH  24  49
BRANCH  36  61
ATOM     61  C   UNL A   1      48.312  27.835  29.943  1.00  0.00     0.058 A 
ATOM     62  C   UNL A   1      48.909  27.291  31.091  1.00  0.00     0.135 A 
ATOM     63  C   UNL A   1      49.150  28.224  28.886  1.00  0.00     0.135 A 
ATOM     64  F   UNL A   1      48.150  26.910  32.131  1.00  0.00    -0.206 F 
ATOM     65  C   UNL A   1      50.289  27.172  31.203  1.00  0.00     0.059 A 
ATOM     66  C   UNL A   1      50.530  28.083  28.963  1.00  0.00     0.059 A 
ATOM     67  F   UNL A   1      48.627  28.737  27.761  1.00  0.00    -0.206 F 
ATOM     68  C   UNL A   1      51.090  27.573  30.132  1.00  0.00     0.060 A 
BRANCH  68  69
ATOM     69  S   UNL A   1      52.881  27.400  30.285  1.00  0.00     0.124 S 
ATOM     70  O   UNL A   1      53.283  27.287  28.887  1.00  0.00    -0.237 OA
ATOM     71  O   UNL A   1      53.258  28.640  30.956  1.00  0.00    -0.237 OA
ATOM     72  O   UNL A   1      53.037  26.189  31.084  1.00  0.00    -0.744 OA
ENDBRANCH  68  69
ENDBRANCH  36  61
ENDBRANCH  10  11
ENDBRANCH   3   5
ENDBRANCH   2   3
ENDBRANCH   1   2
BRANCH   1  73
ATOM     73  C   UNL A   1      32.421  30.037  25.444  1.00  0.00     0.275 C 
BRANCH  73  74
ATOM     74  O   UNL A   1      31.218  29.867  24.681  1.00  0.00    -0.458 OA
BRANCH  74  75
ATOM     75  C   UNL A   1      31.326  29.096  23.570  1.00  0.00     0.339 C 
ATOM     76  O   UNL A   1      31.973  29.343  22.566  1.00  0.00    -0.246 OA
BRANCH  75  77
ATOM     77  C   UNL A   1      30.635  27.811  23.787  1.00  0.00     0.080 A 
ATOM     78  C   UNL A   1      31.409  26.719  24.232  1.00  0.00     0.044 A 
ATOM     79  C   UNL A   1      29.270  27.650  23.522  1.00  0.00     0.055 A 
ATOM     80  C   UNL A   1      30.806  25.472  24.412  1.00  0.00     0.053 A 
ATOM     81  C   UNL A   1      28.669  26.409  23.741  1.00  0.00     0.023 A 
ATOM     82  Cl  UNL A   1      28.286  28.915  22.877  1.00  0.00    -0.083 Cl
ATOM     83  C   UNL A   1      29.432  25.327  24.178  1.00  0.00     0.028 A 
BRANCH  80  84
ATOM     84  N   UNL A   1      31.551  24.347  24.814  1.00  0.00    -0.250 N 
ATOM     85  C   UNL A   1      32.407  23.645  23.949  1.00  0.00     0.238 C 
ATOM     86  C   UNL A   1      31.912  24.143  26.161  1.00  0.00     0.238 C 
ATOM     87  O   UNL A   1      32.648  23.796  22.769  1.00  0.00    -0.274 OA
ATOM     88  C   UNL A   1      33.059  22.648  24.840  1.00  0.00     0.100 C 
ATOM     89  C   UNL A   1      33.282  23.566  26.044  1.00  0.00     0.100 C 
ATOM     90  O   UNL A   1      31.356  24.504  27.181  1.00  0.00    -0.274 OA
ATOM     91  C   UNL A   1      34.300  21.771  24.615  1.00  0.00     0.028 C 
ATOM     92  C   UNL A   1      34.288  22.912  26.980  1.00  0.00     0.028 C 
ATOM     93  C   UNL A   1      34.137  20.786  25.801  1.00  0.00    -0.026 C 
ATOM     94  C   UNL A   1      35.652  22.453  24.873  1.00  0.00     0.001 C 
ATOM     95  C   UNL A   1      34.071  21.390  27.011  1.00  0.00    -0.026 C 
ATOM     96  C   UNL A   1      35.671  23.118  26.257  1.00  0.00     0.001 C 
ATOM     97  C   UNL A   1      35.940  23.920  24.983  1.00  0.00     0.009 C 
ENDBRANCH  80  84
ENDBRANCH  75  77
ENDBRANCH  74  75
ENDBRANCH  73  74
ENDBRANCH   1  73
TORSDOF 15
ENDMDL
MODEL 3
REMARK VINA RESULT:     -12.4      1.635      2.906
REMARK SMILES O=C(OCCOC(=O)c1cc(N2C(=O)[C@H]3[C@@H]4C=C[C@@H]([C@@H]5C[C@H]45)[C@@H]3C2=O)ccc1Cl)c1ccc(-c2c3nc(c(-c4c(F)cc(S(=O)(=O)[O-])cc4F)c4ccc([nH]4)c(-c4c(F)cc(S(=O)(=O)[O-])cc4F)c4nc(c(-c5c(F)cc(S(=O)(=O)[O-])cc5F)c5ccc2[nH]5)C=C4)C=C3)cc1
REMARK SMILES IDX 4 1 3 2 2 3 1 4 30 5 31 6 95 7 32 8 94 9 33 10 34 11 35 12
REMARK SMILES IDX 88 13 36 14 93 15 87 16 89 17 37 18 92 19 86 20 85 21 38 23
REMARK SMILES IDX 72 24 51 25 71 26 52 27 55 28 70 29 90 30 53 31 54 32 69 34
REMARK SMILES IDX 91 35 56 36 39 37 40 38 49 39 41 40 42 41 48 42 50 43 43 44
REMARK SMILES IDX 44 45 45 46 46 47 47 48 73 49 74 50 83 51 75 52 76 53 82 54
REMARK SMILES IDX 84 55 77 56 78 57 79 58 80 59 81 60 57 61 58 62 67 63 59 64
REMARK SMILES IDX 60 65 66 66 68 67 61 68 62 69 63 70 64 71 65 72 5 73 6 74
REMARK SMILES IDX 7 75 8 76 9 77 10 78 28 79 11 80 27 81 29 82 26 83 12 84
REMARK SMILES IDX 13 85 24 86 14 87 15 88 23 89 25 90 16 91 19 92 17 93 22 94
REMARK SMILES IDX 18 95 20 96 21 97
REMARK H PARENT 89 22 55 33
REMARK Flexibility Score: inf
ROOT
ATOM      1  C   UNL A   1      39.743  22.925  26.957  1.00  0.00     0.275 C 
ENDROOT
BRANCH   1   2
ATOM      2  O   UNL A   1      40.779  23.732  26.374  1.00  0.00    -0.458 OA
BRANCH   2   3
ATOM      3  C   UNL A   1      40.948  25.075  26.376  1.00  0.00     0.338 C 
ATOM      4  O   UNL A   1      41.482  25.584  25.389  1.00  0.00    -0.246 OA
BRANCH   3   5
ATOM      5  C   UNL A   1      40.628  25.974  27.537  1.00  0.00     0.060 A 
ATOM      6  C   UNL A   1      39.553  25.862  28.419  1.00  0.00     0.016 A 
ATOM      7  C   UNL A   1      41.531  27.026  27.764  1.00  0.00     0.016 A 
ATOM      8  C   UNL A   1      39.425  26.712  29.521  1.00  0.00     0.010 A 
ATOM      9  C   UNL A   1      41.425  27.868  28.876  1.00  0.00     0.010 A 
ATOM     10  C   UNL A   1      40.366  27.712  29.766  1.00  0.00    -0.014 A 
BRANCH  10  11
ATOM     11  C   UNL A   1      40.155  28.637  30.900  1.00  0.00     0.031 A 
ATOM     12  C   UNL A   1      40.995  28.472  32.129  1.00  0.00     0.074 A 
ATOM     13  C   UNL A   1      39.299  29.668  30.772  1.00  0.00     0.049 A 
ATOM     14  N   UNL A   1      41.084  29.255  33.169  1.00  0.00    -0.248 NA
ATOM     15  C   UNL A   1      41.874  27.292  32.182  1.00  0.00     0.031 C 
ATOM     16  C   UNL A   1      38.485  29.932  29.587  1.00  0.00     0.029 A 
ATOM     17  N   UNL A   1      38.980  30.694  31.623  1.00  0.00    -0.354 N 
ATOM     18  C   UNL A   1      42.068  28.695  33.972  1.00  0.00     0.074 A 
ATOM     19  C   UNL A   1      42.492  27.467  33.339  1.00  0.00     0.031 C 
ATOM     20  C   UNL A   1      37.741  31.031  29.790  1.00  0.00     0.029 A 
ATOM     21  C   UNL A   1      38.032  31.555  31.119  1.00  0.00     0.049 A 
ATOM     22  H   UNL A   1      39.391  30.804  32.510  1.00  0.00     0.167 HD
ATOM     23  C   UNL A   1      42.596  29.190  35.114  1.00  0.00     0.037 A 
ATOM     24  C   UNL A   1      37.471  32.649  31.670  1.00  0.00     0.037 A 
ATOM     25  C   UNL A   1      42.130  30.394  35.747  1.00  0.00     0.049 A 
ATOM     26  C   UNL A   1      37.993  33.110  33.006  1.00  0.00     0.074 A 
ATOM     27  C   UNL A   1      42.553  30.965  36.933  1.00  0.00     0.029 A 
ATOM     28  N   UNL A   1      41.121  31.207  35.246  1.00  0.00    -0.354 N 
ATOM     29  N   UNL A   1      38.950  32.585  33.738  1.00  0.00    -0.248 NA
ATOM     30  C   UNL A   1      37.390  34.318  33.577  1.00  0.00     0.031 C 
ATOM     31  C   UNL A   1      41.768  32.099  37.171  1.00  0.00     0.029 A 
ATOM     32  C   UNL A   1      40.891  32.264  36.109  1.00  0.00     0.049 A 
ATOM     33  H   UNL A   1      40.641  31.053  34.400  1.00  0.00     0.167 HD
ATOM     34  C   UNL A   1      39.084  33.418  34.841  1.00  0.00     0.074 A 
ATOM     35  C   UNL A   1      38.124  34.491  34.668  1.00  0.00     0.031 C 
ATOM     36  C   UNL A   1      39.923  33.312  35.903  1.00  0.00     0.037 A 
BRANCH  23  37
ATOM     37  C   UNL A   1      43.722  28.417  35.738  1.00  0.00     0.058 A 
ATOM     38  C   UNL A   1      43.477  27.379  36.653  1.00  0.00     0.135 A 
ATOM     39  C   UNL A   1      45.057  28.709  35.420  1.00  0.00     0.135 A 
ATOM     40  F   UNL A   1      42.219  27.079  37.014  1.00  0.00    -0.206 F 
ATOM     41  C   UNL A   1      44.516  26.669  37.243  1.00  0.00     0.059 A 
ATOM     42  C   UNL A   1      46.112  27.997  35.983  1.00  0.00     0.059 A 
ATOM     43  F   UNL A   1      45.346  29.701  34.563  1.00  0.00    -0.206 F 
ATOM     44  C   UNL A   1      45.832  26.984  36.900  1.00  0.00     0.060 A 
BRANCH  44  45
ATOM     45  S   UNL A   1      47.169  26.042  37.664  1.00  0.00     0.124 S 
ATOM     46  O   UNL A   1      46.443  24.909  38.228  1.00  0.00    -0.237 OA
ATOM     47  O   UNL A   1      48.028  25.742  36.524  1.00  0.00    -0.237 OA
ATOM     48  O   UNL A   1      47.728  26.976  38.639  1.00  0.00    -0.744 OA
ENDBRANCH  44  45
ENDBRANCH  23  37
BRANCH  24  49
ATOM     49  C   UNL A   1      36.366  33.370  30.977  1.00  0.00     0.058 A 
ATOM     50  C   UNL A   1      36.592  34.161  29.841  1.00  0.00     0.135 A 
ATOM     51  C   UNL A   1      35.052  33.308  31.471  1.00  0.00     0.135 A 
ATOM     52  F   UNL A   1      37.826  34.254  29.323  1.00  0.00    -0.206 F 
ATOM     53  C   UNL A   1      35.570  34.898  29.247  1.00  0.00     0.059 A 
ATOM     54  C   UNL A   1      34.008  34.013  30.879  1.00  0.00     0.059 A 
ATOM     55  F   UNL A   1      34.770  32.548  32.542  1.00  0.00    -0.206 F 
ATOM     56  C   UNL A   1      34.282  34.824  29.779  1.00  0.00     0.060 A 
BRANCH  56  57
ATOM     57  S   UNL A   1      32.964  35.795  29.014  1.00  0.00     0.124 S 
ATOM     58  O   UNL A   1      32.355  34.811  28.126  1.00  0.00    -0.237 OA
ATOM     59  O   UNL A   1      32.167  36.194  30.169  1.00  0.00    -0.237 OA
ATOM     60  O   UNL A   1      33.686  36.878  28.353  1.00  0.00    -0.744 OA
ENDBRANCH  56  57
ENDBRANCH  24  49
BRANCH  36  61
ATOM     61  C   UNL A   1      39.843  34.396  36.939  1.00  0.00     0.058 A 
ATOM     62  C   UNL A   1      40.575  35.587  36.814  1.00  0.00     0.135 A 
ATOM     63  C   UNL A   1      39.004  34.253  38.055  1.00  0.00     0.135 A 
ATOM     64  F   UNL A   1      41.397  35.768  35.767  1.00  0.00    -0.206 F 
ATOM     65  C   UNL A   1      40.508  36.583  37.780  1.00  0.00     0.059 A 
ATOM     66  C   UNL A   1      38.895  35.251  39.016  1.00  0.00     0.059 A 
ATOM     67  F   UNL A   1      38.271  33.138  38.213  1.00  0.00    -0.206 F 
ATOM     68  C   UNL A   1      39.665  36.404  38.878  1.00  0.00     0.060 A 
BRANCH  68  69
ATOM     69  S   UNL A   1      39.576  37.712  40.118  1.00  0.00     0.124 S 
ATOM     70  O   UNL A   1      40.916  38.282  40.038  1.00  0.00    -0.237 OA
ATOM     71  O   UNL A   1      38.496  38.553  39.610  1.00  0.00    -0.237 OA
ATOM     72  O   UNL A   1      39.273  36.989  41.350  1.00  0.00    -0.744 OA
ENDBRANCH  68  69
ENDBRANCH  36  61
ENDBRANCH  10  11
ENDBRANCH   3   5
ENDBRANCH   2   3
ENDBRANCH   1   2
BRANCH   1  73
ATOM     73  C   UNL A   1      39.102  21.922  25.996  1.00  0.00     0.275 C 
BRANCH  73  74
ATOM     74  O   UNL A   1      37.705  22.159  25.774  1.00  0.00    -0.458 OA
BRANCH  74  75
ATOM     75  C   UNL A   1      37.044  21.198  25.081  1.00  0.00     0.339 C 
ATOM     76  O   UNL A   1      37.446  20.079  24.815  1.00  0.00    -0.246 OA
BRANCH  75  77
ATOM     77  C   UNL A   1      35.672  21.654  24.785  1.00  0.00     0.080 A 
ATOM     78  C   UNL A   1      35.438  23.044  24.751  1.00  0.00     0.044 A 
ATOM     79  C   UNL A   1      34.619  20.753  24.590  1.00  0.00     0.055 A 
ATOM     80  C   UNL A   1      34.146  23.522  24.516  1.00  0.00     0.053 A 
ATOM     81  C   UNL A   1      33.339  21.240  24.319  1.00  0.00     0.023 A 
ATOM     82  Cl  UNL A   1      34.813  19.041  24.722  1.00  0.00    -0.083 Cl
ATOM     83  C   UNL A   1      33.104  22.615  24.286  1.00  0.00     0.028 A 
BRANCH  80  84
ATOM     84  N   UNL A   1      33.862  24.901  24.514  1.00  0.00    -0.250 N 
ATOM     85  C   UNL A   1      33.803  25.670  23.340  1.00  0.00     0.238 C 
ATOM     86  C   UNL A   1      33.127  25.505  25.554  1.00  0.00     0.238 C 
ATOM     87  O   UNL A   1      34.003  25.373  22.181  1.00  0.00    -0.274 OA
ATOM     88  C   UNL A   1      33.348  27.003  23.821  1.00  0.00     0.100 C 
ATOM     89  C   UNL A   1      32.303  26.510  24.824  1.00  0.00     0.100 C 
ATOM     90  O   UNL A   1      33.026  25.188  26.724  1.00  0.00    -0.274 OA
ATOM     91  C   UNL A   1      32.799  28.208  23.043  1.00  0.00     0.028 C 
ATOM     92  C   UNL A   1      31.396  27.674  25.197  1.00  0.00     0.028 C 
ATOM     93  C   UNL A   1      32.888  29.290  24.150  1.00  0.00    -0.026 C 
ATOM     94  C   UNL A   1      31.305  28.149  22.692  1.00  0.00     0.001 C 
ATOM     95  C   UNL A   1      32.210  28.976  25.280  1.00  0.00    -0.026 C 
ATOM     96  C   UNL A   1      30.463  27.849  23.941  1.00  0.00     0.001 C 
ATOM     97  C   UNL A   1      30.401  26.953  22.702  1.00  0.00     0.009 C 
ENDBRANCH  80  84
ENDBRANCH  75  77
ENDBRANCH  74  75
ENDBRANCH  73  74
ENDBRANCH   1  73
TORSDOF 15
ENDMDL
