MODEL 1
REMARK VINA RESULT:     -10.6      0.000      0.000
REMARK SMILES CC[C@@H](C)SCc1cc(F)cc(/C=C/C(=O)OCCOC(=O)c2ccc(-c3c4nc(c(-c5c(F)cc(S(=O)(=O)[O-])cc5F)c5ccc([nH]5)c(-c5c(F)cc(S(=O)(=O)[O-])cc5F)c5nc(c(-c6c(F)cc(S(=O)(=O)[O-])cc6F)c6ccc3[nH]6)C=C5)C=C4)cc2)c1
REMARK SMILES IDX 18 1 17 2 15 3 16 4 14 5 13 6 12 7 7 8 8 9 89 10 9 11 10 12
REMARK SMILES IDX 11 13 6 14 5 15 3 16 4 17 2 18 1 19 19 20 20 21 21 22 22 23
REMARK SMILES IDX 23 24 24 25 88 26 25 27 87 28 26 29 27 30 28 31 81 32 29 33
REMARK SMILES IDX 86 34 80 35 82 36 30 37 85 38 79 39 78 40 31 42 65 43 44 44
REMARK SMILES IDX 64 45 45 46 48 47 63 48 83 49 46 50 47 51 62 53 84 54 49 55
REMARK SMILES IDX 32 56 33 57 42 58 34 59 35 60 41 61 43 62 36 63 37 64 38 65
REMARK SMILES IDX 39 66 40 67 66 68 67 69 76 70 68 71 69 72 75 73 77 74 70 75
REMARK SMILES IDX 71 76 72 77 73 78 74 79 50 80 51 81 60 82 52 83 53 84 59 85
REMARK SMILES IDX 61 86 54 87 55 88 56 89 57 90 58 91
REMARK H PARENT 82 41 48 52
REMARK Flexibility Score: inf
ROOT
ATOM      1  C   UNL A   1      40.430  22.049  26.919  1.00  0.00     0.275 C 
ENDROOT
BRANCH   1   2
ATOM      2  O   UNL A   1      39.196  22.158  26.185  1.00  0.00    -0.459 OA
BRANCH   2   3
ATOM      3  C   UNL A   1      38.749  21.011  25.620  1.00  0.00     0.330 C 
ATOM      4  O   UNL A   1      39.342  19.942  25.595  1.00  0.00    -0.247 OA
BRANCH   3   5
ATOM      5  C   UNL A   1      37.397  21.144  25.044  1.00  0.00     0.094 C 
ATOM      6  C   UNL A   1      36.837  22.288  24.617  1.00  0.00     0.016 C 
BRANCH   6   7
ATOM      7  C   UNL A   1      35.448  22.373  24.136  1.00  0.00    -0.022 A 
ATOM      8  C   UNL A   1      33.227  21.347  23.956  1.00  0.00    -0.035 A 
ATOM      9  C   UNL A   1      32.815  22.414  23.147  1.00  0.00     0.043 A 
ATOM     10  C   UNL A   1      34.542  21.351  24.463  1.00  0.00     0.013 A 
ATOM     11  C   UNL A   1      33.715  23.416  22.813  1.00  0.00     0.124 A 
ATOM     12  F   UNL A   1      33.321  24.403  21.998  1.00  0.00    -0.207 F 
ATOM     13  C   UNL A   1      35.022  23.399  23.284  1.00  0.00     0.047 A 
BRANCH   8  14
ATOM     14  C   UNL A   1      32.276  20.220  24.256  1.00  0.00     0.105 C 
BRANCH  14  15
ATOM     15  S   UNL A   1      32.484  18.739  23.211  1.00  0.00    -0.154 SA
BRANCH  15  16
ATOM     16  C   UNL A   1      33.456  17.583  24.275  1.00  0.00     0.043 C 
ATOM     17  C   UNL A   1      34.098  16.448  23.480  1.00  0.00     0.019 C 
BRANCH  16  18
ATOM     18  C   UNL A   1      32.663  17.110  25.501  1.00  0.00     0.011 C 
ATOM     19  C   UNL A   1      32.775  15.608  25.738  1.00  0.00     0.005 C 
ENDBRANCH  16  18
ENDBRANCH  15  16
ENDBRANCH  14  15
ENDBRANCH   8  14
ENDBRANCH   6   7
ENDBRANCH   3   5
ENDBRANCH   2   3
ENDBRANCH   1   2
BRANCH   1  20
ATOM     20  C   UNL A   1      41.605  22.641  26.133  1.00  0.00     0.275 C 
BRANCH  20  21
ATOM     21  O   UNL A   1      42.307  23.651  26.880  1.00  0.00    -0.458 OA
BRANCH  21  22
ATOM     22  C   UNL A   1      42.222  24.903  26.370  1.00  0.00     0.338 C 
ATOM     23  O   UNL A   1      42.344  25.227  25.200  1.00  0.00    -0.246 OA
BRANCH  22  24
ATOM     24  C   UNL A   1      41.840  25.858  27.428  1.00  0.00     0.060 A 
ATOM     25  C   UNL A   1      42.629  26.999  27.596  1.00  0.00     0.016 A 
ATOM     26  C   UNL A   1      40.768  25.606  28.289  1.00  0.00     0.016 A 
ATOM     27  C   UNL A   1      42.351  27.894  28.628  1.00  0.00     0.010 A 
ATOM     28  C   UNL A   1      40.493  26.504  29.328  1.00  0.00     0.010 A 
ATOM     29  C   UNL A   1      41.288  27.648  29.510  1.00  0.00    -0.014 A 
BRANCH  29  30
ATOM     30  C   UNL A   1      41.038  28.576  30.640  1.00  0.00     0.031 A 
ATOM     31  C   UNL A   1      41.898  28.512  31.872  1.00  0.00     0.074 A 
ATOM     32  C   UNL A   1      40.062  29.499  30.545  1.00  0.00     0.049 A 
ATOM     33  N   UNL A   1      41.821  29.218  32.970  1.00  0.00    -0.248 NA
ATOM     34  C   UNL A   1      42.993  27.529  31.863  1.00  0.00     0.031 C 
ATOM     35  C   UNL A   1      39.190  29.686  29.385  1.00  0.00     0.029 A 
ATOM     36  N   UNL A   1      39.646  30.459  31.434  1.00  0.00    -0.354 N 
ATOM     37  C   UNL A   1      42.853  28.770  33.784  1.00  0.00     0.074 A 
ATOM     38  C   UNL A   1      43.527  27.710  33.064  1.00  0.00     0.031 C 
ATOM     39  C   UNL A   1      38.351  30.706  29.629  1.00  0.00     0.029 A 
ATOM     40  C   UNL A   1      38.598  31.220  30.975  1.00  0.00     0.049 A 
ATOM     41  H   UNL A   1      40.060  30.589  32.319  1.00  0.00     0.167 HD
ATOM     42  C   UNL A   1      43.213  29.210  35.014  1.00  0.00     0.037 A 
ATOM     43  C   UNL A   1      37.907  32.209  31.573  1.00  0.00     0.037 A 
ATOM     44  C   UNL A   1      42.540  30.267  35.725  1.00  0.00     0.049 A 
ATOM     45  C   UNL A   1      38.277  32.629  32.970  1.00  0.00     0.074 A 
ATOM     46  C   UNL A   1      42.828  30.777  36.980  1.00  0.00     0.029 A 
ATOM     47  N   UNL A   1      41.448  30.977  35.247  1.00  0.00    -0.354 N 
ATOM     48  N   UNL A   1      39.247  32.185  33.733  1.00  0.00    -0.248 NA
ATOM     49  C   UNL A   1      37.455  33.677  33.592  1.00  0.00     0.031 C 
ATOM     50  C   UNL A   1      41.889  31.770  37.276  1.00  0.00     0.029 A 
ATOM     51  C   UNL A   1      41.040  31.908  36.189  1.00  0.00     0.049 A 
ATOM     52  H   UNL A   1      41.025  30.839  34.370  1.00  0.00     0.167 HD
ATOM     53  C   UNL A   1      39.163  32.910  34.916  1.00  0.00     0.074 A 
ATOM     54  C   UNL A   1      38.054  33.830  34.767  1.00  0.00     0.031 C 
ATOM     55  C   UNL A   1      39.936  32.819  36.026  1.00  0.00     0.037 A 
BRANCH  42  56
ATOM     56  C   UNL A   1      44.385  28.548  35.681  1.00  0.00     0.058 A 
ATOM     57  C   UNL A   1      44.203  27.408  36.479  1.00  0.00     0.135 A 
ATOM     58  C   UNL A   1      45.680  29.082  35.586  1.00  0.00     0.135 A 
ATOM     59  F   UNL A   1      42.987  26.854  36.599  1.00  0.00    -0.206 F 
ATOM     60  C   UNL A   1      45.261  26.829  37.172  1.00  0.00     0.059 A 
ATOM     61  C   UNL A   1      46.756  28.508  36.254  1.00  0.00     0.059 A 
ATOM     62  F   UNL A   1      45.911  30.160  34.819  1.00  0.00    -0.206 F 
ATOM     63  C   UNL A   1      46.535  27.389  37.057  1.00  0.00     0.060 A 
BRANCH  63  64
ATOM     64  S   UNL A   1      47.903  26.608  37.940  1.00  0.00     0.124 S 
ATOM     65  O   UNL A   1      47.376  25.271  38.189  1.00  0.00    -0.237 OA
ATOM     66  O   UNL A   1      48.987  26.694  36.964  1.00  0.00    -0.237 OA
ATOM     67  O   UNL A   1      48.068  27.451  39.120  1.00  0.00    -0.744 OA
ENDBRANCH  63  64
ENDBRANCH  42  56
BRANCH  43  68
ATOM     68  C   UNL A   1      36.789  32.870  30.849  1.00  0.00     0.058 A 
ATOM     69  C   UNL A   1      37.033  33.846  29.871  1.00  0.00     0.135 A 
ATOM     70  C   UNL A   1      35.453  32.553  31.139  1.00  0.00     0.135 A 
ATOM     71  F   UNL A   1      38.293  34.186  29.558  1.00  0.00    -0.206 F 
ATOM     72  C   UNL A   1      35.993  34.505  29.225  1.00  0.00     0.059 A 
ATOM     73  C   UNL A   1      34.396  33.183  30.489  1.00  0.00     0.059 A 
ATOM     74  F   UNL A   1      35.172  31.613  32.054  1.00  0.00    -0.206 F 
ATOM     75  C   UNL A   1      34.677  34.171  29.546  1.00  0.00     0.060 A 
BRANCH  75  76
ATOM     76  S   UNL A   1      33.340  35.042  28.701  1.00  0.00     0.124 S 
ATOM     77  O   UNL A   1      32.537  35.507  29.828  1.00  0.00    -0.237 OA
ATOM     78  O   UNL A   1      34.062  36.077  27.966  1.00  0.00    -0.237 OA
ATOM     79  O   UNL A   1      32.727  34.004  27.878  1.00  0.00    -0.744 OA
ENDBRANCH  75  76
ENDBRANCH  43  68
BRANCH  55  80
ATOM     80  C   UNL A   1      39.629  33.746  37.169  1.00  0.00     0.058 A 
ATOM     81  C   UNL A   1      40.272  34.990  37.270  1.00  0.00     0.135 A 
ATOM     82  C   UNL A   1      38.763  33.369  38.206  1.00  0.00     0.135 A 
ATOM     83  F   UNL A   1      41.114  35.398  36.307  1.00  0.00    -0.206 F 
ATOM     84  C   UNL A   1      40.084  35.819  38.370  1.00  0.00     0.059 A 
ATOM     85  C   UNL A   1      38.541  34.192  39.306  1.00  0.00     0.059 A 
ATOM     86  F   UNL A   1      38.114  32.195  38.149  1.00  0.00    -0.206 F 
ATOM     87  C   UNL A   1      39.221  35.408  39.389  1.00  0.00     0.060 A 
BRANCH  87  88
ATOM     88  S   UNL A   1      38.985  36.495  40.810  1.00  0.00     0.124 S 
ATOM     89  O   UNL A   1      40.334  36.561  41.363  1.00  0.00    -0.237 OA
ATOM     90  O   UNL A   1      38.494  37.720  40.188  1.00  0.00    -0.237 OA
ATOM     91  O   UNL A   1      38.006  35.781  41.625  1.00  0.00    -0.744 OA
ENDBRANCH  87  88
ENDBRANCH  55  80
ENDBRANCH  29  30
ENDBRANCH  22  24
ENDBRANCH  21  22
ENDBRANCH  20  21
ENDBRANCH   1  20
TORSDOF 19
ENDMDL
MODEL 2
REMARK VINA RESULT:     -10.5      1.271      2.441
REMARK SMILES CC[C@@H](C)SCc1cc(F)cc(/C=C/C(=O)OCCOC(=O)c2ccc(-c3c4nc(c(-c5c(F)cc(S(=O)(=O)[O-])cc5F)c5ccc([nH]5)c(-c5c(F)cc(S(=O)(=O)[O-])cc5F)c5nc(c(-c6c(F)cc(S(=O)(=O)[O-])cc6F)c6ccc3[nH]6)C=C5)C=C4)cc2)c1
REMARK SMILES IDX 18 1 17 2 15 3 16 4 14 5 13 6 12 7 7 8 8 9 89 10 9 11 10 12
REMARK SMILES IDX 11 13 6 14 5 15 3 16 4 17 2 18 1 19 19 20 20 21 21 22 22 23
REMARK SMILES IDX 23 24 24 25 88 26 25 27 87 28 26 29 27 30 28 31 81 32 29 33
REMARK SMILES IDX 86 34 80 35 82 36 30 37 85 38 79 39 78 40 31 42 65 43 44 44
REMARK SMILES IDX 64 45 45 46 48 47 63 48 83 49 46 50 47 51 62 53 84 54 49 55
REMARK SMILES IDX 32 56 33 57 42 58 34 59 35 60 41 61 43 62 36 63 37 64 38 65
REMARK SMILES IDX 39 66 40 67 66 68 67 69 76 70 68 71 69 72 75 73 77 74 70 75
REMARK SMILES IDX 71 76 72 77 73 78 74 79 50 80 51 81 60 82 52 83 53 84 59 85
REMARK SMILES IDX 61 86 54 87 55 88 56 89 57 90 58 91
REMARK H PARENT 82 41 48 52
REMARK Flexibility Score: inf
ROOT
ATOM      1  C   UNL A   1      40.203  22.042  26.830  1.00  0.00     0.275 C 
ENDROOT
BRANCH   1   2
ATOM      2  O   UNL A   1      39.085  22.057  25.923  1.00  0.00    -0.459 OA
BRANCH   2   3
ATOM      3  C   UNL A   1      38.217  23.084  26.083  1.00  0.00     0.330 C 
ATOM      4  O   UNL A   1      38.488  24.196  26.514  1.00  0.00    -0.247 OA
BRANCH   3   5
ATOM      5  C   UNL A   1      36.851  22.757  25.628  1.00  0.00     0.094 C 
ATOM      6  C   UNL A   1      36.433  21.551  25.211  1.00  0.00     0.016 C 
BRANCH   6   7
ATOM      7  C   UNL A   1      35.081  21.306  24.682  1.00  0.00    -0.022 A 
ATOM      8  C   UNL A   1      33.096  22.169  23.525  1.00  0.00    -0.035 A 
ATOM      9  C   UNL A   1      32.450  20.948  23.753  1.00  0.00     0.043 A 
ATOM     10  C   UNL A   1      34.423  22.327  23.976  1.00  0.00     0.013 A 
ATOM     11  C   UNL A   1      33.096  19.945  24.463  1.00  0.00     0.124 A 
ATOM     12  F   UNL A   1      32.446  18.801  24.716  1.00  0.00    -0.207 F 
ATOM     13  C   UNL A   1      34.390  20.116  24.939  1.00  0.00     0.047 A 
BRANCH   8  14
ATOM     14  C   UNL A   1      32.370  23.285  22.824  1.00  0.00     0.105 C 
BRANCH  14  15
ATOM     15  S   UNL A   1      30.986  24.012  23.764  1.00  0.00    -0.154 SA
BRANCH  15  16
ATOM     16  C   UNL A   1      31.818  24.909  25.148  1.00  0.00     0.043 C 
ATOM     17  C   UNL A   1      33.016  25.733  24.682  1.00  0.00     0.019 C 
BRANCH  16  18
ATOM     18  C   UNL A   1      32.124  23.991  26.340  1.00  0.00     0.011 C 
ATOM     19  C   UNL A   1      30.981  23.036  26.665  1.00  0.00     0.005 C 
ENDBRANCH  16  18
ENDBRANCH  15  16
ENDBRANCH  14  15
ENDBRANCH   8  14
ENDBRANCH   6   7
ENDBRANCH   3   5
ENDBRANCH   2   3
ENDBRANCH   1   2
BRANCH   1  20
ATOM     20  C   UNL A   1      41.485  22.535  26.151  1.00  0.00     0.275 C 
BRANCH  20  21
ATOM     21  O   UNL A   1      42.193  23.495  26.954  1.00  0.00    -0.458 OA
BRANCH  21  22
ATOM     22  C   UNL A   1      42.216  24.755  26.454  1.00  0.00     0.338 C 
ATOM     23  O   UNL A   1      42.424  25.078  25.296  1.00  0.00    -0.246 OA
BRANCH  22  24
ATOM     24  C   UNL A   1      41.835  25.724  27.499  1.00  0.00     0.060 A 
ATOM     25  C   UNL A   1      42.615  26.875  27.639  1.00  0.00     0.016 A 
ATOM     26  C   UNL A   1      40.774  25.477  28.374  1.00  0.00     0.016 A 
ATOM     27  C   UNL A   1      42.338  27.785  28.659  1.00  0.00     0.010 A 
ATOM     28  C   UNL A   1      40.500  26.390  29.400  1.00  0.00     0.010 A 
ATOM     29  C   UNL A   1      41.286  27.544  29.554  1.00  0.00    -0.014 A 
BRANCH  29  30
ATOM     30  C   UNL A   1      41.038  28.490  30.671  1.00  0.00     0.031 A 
ATOM     31  C   UNL A   1      41.897  28.441  31.904  1.00  0.00     0.074 A 
ATOM     32  C   UNL A   1      40.065  29.414  30.562  1.00  0.00     0.049 A 
ATOM     33  N   UNL A   1      41.822  29.163  32.992  1.00  0.00    -0.248 NA
ATOM     34  C   UNL A   1      42.989  27.455  31.911  1.00  0.00     0.031 C 
ATOM     35  C   UNL A   1      39.194  29.587  29.398  1.00  0.00     0.029 A 
ATOM     36  N   UNL A   1      39.651  30.388  31.436  1.00  0.00    -0.354 N 
ATOM     37  C   UNL A   1      42.852  28.723  33.813  1.00  0.00     0.074 A 
ATOM     38  C   UNL A   1      43.523  27.651  33.109  1.00  0.00     0.031 C 
ATOM     39  C   UNL A   1      38.358  30.613  29.627  1.00  0.00     0.029 A 
ATOM     40  C   UNL A   1      38.606  31.145  30.965  1.00  0.00     0.049 A 
ATOM     41  H   UNL A   1      40.064  30.530  32.319  1.00  0.00     0.167 HD
ATOM     42  C   UNL A   1      43.211  29.180  35.037  1.00  0.00     0.037 A 
ATOM     43  C   UNL A   1      37.917  32.146  31.548  1.00  0.00     0.037 A 
ATOM     44  C   UNL A   1      42.541  30.249  35.732  1.00  0.00     0.049 A 
ATOM     45  C   UNL A   1      38.287  32.584  32.939  1.00  0.00     0.074 A 
ATOM     46  C   UNL A   1      42.829  30.777  36.980  1.00  0.00     0.029 A 
ATOM     47  N   UNL A   1      41.452  30.956  35.243  1.00  0.00    -0.354 N 
ATOM     48  N   UNL A   1      39.256  32.149  33.709  1.00  0.00    -0.248 NA
ATOM     49  C   UNL A   1      37.468  33.644  33.546  1.00  0.00     0.031 C 
ATOM     50  C   UNL A   1      41.893  31.777  37.260  1.00  0.00     0.029 A 
ATOM     51  C   UNL A   1      41.046  31.902  36.171  1.00  0.00     0.049 A 
ATOM     52  H   UNL A   1      41.029  30.806  34.367  1.00  0.00     0.167 HD
ATOM     53  C   UNL A   1      39.173  32.891  34.882  1.00  0.00     0.074 A 
ATOM     54  C   UNL A   1      38.067  33.812  34.718  1.00  0.00     0.031 C 
ATOM     55  C   UNL A   1      39.945  32.814  35.993  1.00  0.00     0.037 A 
BRANCH  42  56
ATOM     56  C   UNL A   1      44.381  28.524  35.714  1.00  0.00     0.058 A 
ATOM     57  C   UNL A   1      45.692  28.956  35.455  1.00  0.00     0.135 A 
ATOM     58  C   UNL A   1      44.209  27.424  36.569  1.00  0.00     0.135 A 
ATOM     59  F   UNL A   1      45.911  30.007  34.650  1.00  0.00    -0.206 F 
ATOM     60  C   UNL A   1      46.792  28.308  36.007  1.00  0.00     0.059 A 
ATOM     61  C   UNL A   1      45.295  26.774  37.148  1.00  0.00     0.059 A 
ATOM     62  F   UNL A   1      42.975  26.985  36.865  1.00  0.00    -0.206 F 
ATOM     63  C   UNL A   1      46.584  27.215  36.850  1.00  0.00     0.060 A 
BRANCH  63  64
ATOM     64  S   UNL A   1      48.022  26.405  37.582  1.00  0.00     0.124 S 
ATOM     65  O   UNL A   1      49.044  27.439  37.462  1.00  0.00    -0.237 OA
ATOM     66  O   UNL A   1      47.559  26.122  38.938  1.00  0.00    -0.237 OA
ATOM     67  O   UNL A   1      48.214  25.229  36.738  1.00  0.00    -0.744 OA
ENDBRANCH  63  64
ENDBRANCH  42  56
BRANCH  43  68
ATOM     68  C   UNL A   1      36.802  32.800  30.814  1.00  0.00     0.058 A 
ATOM     69  C   UNL A   1      37.049  33.771  29.832  1.00  0.00     0.135 A 
ATOM     70  C   UNL A   1      35.465  32.480  31.097  1.00  0.00     0.135 A 
ATOM     71  F   UNL A   1      38.310  34.114  29.525  1.00  0.00    -0.206 F 
ATOM     72  C   UNL A   1      36.012  34.423  29.176  1.00  0.00     0.059 A 
ATOM     73  C   UNL A   1      34.411  33.103  30.437  1.00  0.00     0.059 A 
ATOM     74  F   UNL A   1      35.181  31.544  32.015  1.00  0.00    -0.206 F 
ATOM     75  C   UNL A   1      34.694  34.087  29.491  1.00  0.00     0.060 A 
BRANCH  75  76
ATOM     76  S   UNL A   1      33.360  34.949  28.633  1.00  0.00     0.124 S 
ATOM     77  O   UNL A   1      34.101  35.952  27.875  1.00  0.00    -0.237 OA
ATOM     78  O   UNL A   1      32.755  33.878  27.847  1.00  0.00    -0.237 OA
ATOM     79  O   UNL A   1      32.537  35.466  29.721  1.00  0.00    -0.744 OA
ENDBRANCH  75  76
ENDBRANCH  43  68
BRANCH  55  80
ATOM     80  C   UNL A   1      39.640  33.758  37.123  1.00  0.00     0.058 A 
ATOM     81  C   UNL A   1      40.250  35.022  37.179  1.00  0.00     0.135 A 
ATOM     82  C   UNL A   1      38.811  33.381  38.190  1.00  0.00     0.135 A 
ATOM     83  F   UNL A   1      41.055  35.431  36.186  1.00  0.00    -0.206 F 
ATOM     84  C   UNL A   1      40.065  35.870  38.265  1.00  0.00     0.059 A 
ATOM     85  C   UNL A   1      38.593  34.223  39.277  1.00  0.00     0.059 A 
ATOM     86  F   UNL A   1      38.195  32.188  38.176  1.00  0.00    -0.206 F 
ATOM     87  C   UNL A   1      39.239  35.459  39.314  1.00  0.00     0.060 A 
BRANCH  87  88
ATOM     88  S   UNL A   1      39.007  36.572  40.716  1.00  0.00     0.124 S 
ATOM     89  O   UNL A   1      38.027  35.845  41.516  1.00  0.00    -0.237 OA
ATOM     90  O   UNL A   1      40.352  36.651  41.277  1.00  0.00    -0.237 OA
ATOM     91  O   UNL A   1      38.523  37.802  40.097  1.00  0.00    -0.744 OA
ENDBRANCH  87  88
ENDBRANCH  55  80
ENDBRANCH  29  30
ENDBRANCH  22  24
ENDBRANCH  21  22
ENDBRANCH  20  21
ENDBRANCH   1  20
TORSDOF 19
ENDMDL
MODEL 3
REMARK VINA RESULT:     -10.4      6.753     12.788
REMARK SMILES CC[C@@H](C)SCc1cc(F)cc(/C=C/C(=O)OCCOC(=O)c2ccc(-c3c4nc(c(-c5c(F)cc(S(=O)(=O)[O-])cc5F)c5ccc([nH]5)c(-c5c(F)cc(S(=O)(=O)[O-])cc5F)c5nc(c(-c6c(F)cc(S(=O)(=O)[O-])cc6F)c6ccc3[nH]6)C=C5)C=C4)cc2)c1
REMARK SMILES IDX 18 1 17 2 15 3 16 4 14 5 13 6 12 7 7 8 8 9 89 10 9 11 10 12
REMARK SMILES IDX 11 13 6 14 5 15 3 16 4 17 2 18 1 19 19 20 20 21 21 22 22 23
REMARK SMILES IDX 23 24 24 25 88 26 25 27 87 28 26 29 27 30 28 31 81 32 29 33
REMARK SMILES IDX 86 34 80 35 82 36 30 37 85 38 79 39 78 40 31 42 65 43 44 44
REMARK SMILES IDX 64 45 45 46 48 47 63 48 83 49 46 50 47 51 62 53 84 54 49 55
REMARK SMILES IDX 32 56 33 57 42 58 34 59 35 60 41 61 43 62 36 63 37 64 38 65
REMARK SMILES IDX 39 66 40 67 66 68 67 69 76 70 68 71 69 72 75 73 77 74 70 75
REMARK SMILES IDX 71 76 72 77 73 78 74 79 50 80 51 81 60 82 52 83 53 84 59 85
REMARK SMILES IDX 61 86 54 87 55 88 56 89 57 90 58 91
REMARK H PARENT 82 41 48 52
REMARK Flexibility Score: inf
ROOT
ATOM      1  C   UNL A   1      34.937  33.779  30.428  1.00  0.00     0.275 C 
ENDROOT
BRANCH   1   2
ATOM      2  O   UNL A   1      34.028  33.143  29.510  1.00  0.00    -0.459 OA
BRANCH   2   3
ATOM      3  C   UNL A   1      34.605  32.492  28.472  1.00  0.00     0.330 C 
ATOM      4  O   UNL A   1      35.749  32.649  28.071  1.00  0.00    -0.247 OA
BRANCH   3   5
ATOM      5  C   UNL A   1      33.714  31.489  27.857  1.00  0.00     0.094 C 
ATOM      6  C   UNL A   1      34.110  30.375  27.222  1.00  0.00     0.016 C 
BRANCH   6   7
ATOM      7  C   UNL A   1      33.176  29.458  26.547  1.00  0.00    -0.022 A 
ATOM      8  C   UNL A   1      31.513  29.087  24.781  1.00  0.00    -0.035 A 
ATOM      9  C   UNL A   1      31.286  27.800  25.284  1.00  0.00     0.043 A 
ATOM     10  C   UNL A   1      32.479  29.898  25.409  1.00  0.00     0.013 A 
ATOM     11  C   UNL A   1      31.964  27.371  26.417  1.00  0.00     0.124 A 
ATOM     12  F   UNL A   1      31.700  26.156  26.916  1.00  0.00    -0.207 F 
ATOM     13  C   UNL A   1      32.889  28.186  27.057  1.00  0.00     0.047 A 
BRANCH   8  14
ATOM     14  C   UNL A   1      30.723  29.584  23.600  1.00  0.00     0.105 C 
BRANCH  14  15
ATOM     15  S   UNL A   1      29.258  28.580  23.179  1.00  0.00    -0.154 SA
BRANCH  15  16
ATOM     16  C   UNL A   1      27.983  29.836  22.719  1.00  0.00     0.043 C 
ATOM     17  C   UNL A   1      28.034  30.214  21.240  1.00  0.00     0.019 C 
BRANCH  16  18
ATOM     18  C   UNL A   1      27.982  31.044  23.667  1.00  0.00     0.011 C 
ATOM     19  C   UNL A   1      28.311  32.354  22.961  1.00  0.00     0.005 C 
ENDBRANCH  16  18
ENDBRANCH  15  16
ENDBRANCH  14  15
ENDBRANCH   8  14
ENDBRANCH   6   7
ENDBRANCH   3   5
ENDBRANCH   2   3
ENDBRANCH   1   2
BRANCH   1  20
ATOM     20  C   UNL A   1      35.407  32.809  31.516  1.00  0.00     0.275 C 
BRANCH  20  21
ATOM     21  O   UNL A   1      36.696  32.241  31.220  1.00  0.00    -0.458 OA
BRANCH  21  22
ATOM     22  C   UNL A   1      36.764  30.891  31.320  1.00  0.00     0.338 C 
ATOM     23  O   UNL A   1      35.904  30.145  31.759  1.00  0.00    -0.246 OA
BRANCH  22  24
ATOM     24  C   UNL A   1      38.012  30.399  30.706  1.00  0.00     0.060 A 
ATOM     25  C   UNL A   1      39.015  29.921  31.554  1.00  0.00     0.016 A 
ATOM     26  C   UNL A   1      38.226  30.469  29.326  1.00  0.00     0.016 A 
ATOM     27  C   UNL A   1      40.239  29.513  31.026  1.00  0.00     0.010 A 
ATOM     28  C   UNL A   1      39.458  30.062  28.799  1.00  0.00     0.010 A 
ATOM     29  C   UNL A   1      40.475  29.591  29.646  1.00  0.00    -0.014 A 
BRANCH  29  30
ATOM     30  C   UNL A   1      41.802  29.209  29.103  1.00  0.00     0.031 A 
ATOM     31  C   UNL A   1      42.913  30.220  29.047  1.00  0.00     0.074 A 
ATOM     32  C   UNL A   1      42.019  27.945  28.692  1.00  0.00     0.049 A 
ATOM     33  N   UNL A   1      44.129  30.087  28.586  1.00  0.00    -0.248 NA
ATOM     34  C   UNL A   1      42.618  31.557  29.589  1.00  0.00     0.031 C 
ATOM     35  C   UNL A   1      41.032  26.865  28.735  1.00  0.00     0.029 A 
ATOM     36  N   UNL A   1      43.140  27.352  28.167  1.00  0.00    -0.354 N 
ATOM     37  C   UNL A   1      44.748  31.315  28.780  1.00  0.00     0.074 A 
ATOM     38  C   UNL A   1      43.763  32.192  29.376  1.00  0.00     0.031 C 
ATOM     39  C   UNL A   1      41.596  25.738  28.269  1.00  0.00     0.029 A 
ATOM     40  C   UNL A   1      42.969  26.024  27.858  1.00  0.00     0.049 A 
ATOM     41  H   UNL A   1      43.987  27.834  28.025  1.00  0.00     0.167 HD
ATOM     42  C   UNL A   1      46.023  31.674  28.497  1.00  0.00     0.037 A 
ATOM     43  C   UNL A   1      43.817  25.141  27.295  1.00  0.00     0.037 A 
ATOM     44  C   UNL A   1      47.000  30.796  27.905  1.00  0.00     0.049 A 
ATOM     45  C   UNL A   1      45.205  25.585  26.919  1.00  0.00     0.074 A 
ATOM     46  C   UNL A   1      48.316  31.072  27.575  1.00  0.00     0.029 A 
ATOM     47  N   UNL A   1      46.771  29.472  27.557  1.00  0.00    -0.354 N 
ATOM     48  N   UNL A   1      45.771  26.755  27.096  1.00  0.00    -0.248 NA
ATOM     49  C   UNL A   1      46.068  24.593  26.261  1.00  0.00     0.031 C 
ATOM     50  C   UNL A   1      48.872  29.929  26.995  1.00  0.00     0.029 A 
ATOM     51  C   UNL A   1      47.916  28.926  27.000  1.00  0.00     0.049 A 
ATOM     52  H   UNL A   1      45.922  28.994  27.686  1.00  0.00     0.167 HD
ATOM     53  C   UNL A   1      47.059  26.636  26.588  1.00  0.00     0.074 A 
ATOM     54  C   UNL A   1      47.195  25.277  26.105  1.00  0.00     0.031 C 
ATOM     55  C   UNL A   1      48.039  27.570  26.526  1.00  0.00     0.037 A 
BRANCH  42  56
ATOM     56  C   UNL A   1      46.443  33.081  28.816  1.00  0.00     0.058 A 
ATOM     57  C   UNL A   1      46.975  33.401  30.075  1.00  0.00     0.135 A 
ATOM     58  C   UNL A   1      46.254  34.126  27.898  1.00  0.00     0.135 A 
ATOM     59  F   UNL A   1      47.182  32.438  30.986  1.00  0.00    -0.206 F 
ATOM     60  C   UNL A   1      47.292  34.711  30.418  1.00  0.00     0.059 A 
ATOM     61  C   UNL A   1      46.583  35.441  28.213  1.00  0.00     0.059 A 
ATOM     62  F   UNL A   1      45.766  33.870  26.673  1.00  0.00    -0.206 F 
ATOM     63  C   UNL A   1      47.089  35.726  29.481  1.00  0.00     0.060 A 
BRANCH  63  64
ATOM     64  S   UNL A   1      47.533  37.417  29.932  1.00  0.00     0.124 S 
ATOM     65  O   UNL A   1      46.410  37.808  30.778  1.00  0.00    -0.237 OA
ATOM     66  O   UNL A   1      48.809  37.228  30.616  1.00  0.00    -0.237 OA
ATOM     67  O   UNL A   1      47.619  38.099  28.644  1.00  0.00    -0.744 OA
ENDBRANCH  63  64
ENDBRANCH  42  56
BRANCH  43  68
ATOM     68  C   UNL A   1      43.371  23.744  27.050  1.00  0.00     0.058 A 
ATOM     69  C   UNL A   1      42.941  23.331  25.779  1.00  0.00     0.135 A 
ATOM     70  C   UNL A   1      43.345  22.801  28.088  1.00  0.00     0.135 A 
ATOM     71  F   UNL A   1      42.945  24.195  24.752  1.00  0.00    -0.206 F 
ATOM     72  C   UNL A   1      42.475  22.041  25.553  1.00  0.00     0.059 A 
ATOM     73  C   UNL A   1      42.905  21.498  27.880  1.00  0.00     0.059 A 
ATOM     74  F   UNL A   1      43.765  23.146  29.315  1.00  0.00    -0.206 F 
ATOM     75  C   UNL A   1      42.455  21.133  26.612  1.00  0.00     0.060 A 
BRANCH  75  76
ATOM     76  S   UNL A   1      41.840  19.464  26.299  1.00  0.00     0.124 S 
ATOM     77  O   UNL A   1      42.578  19.103  25.092  1.00  0.00    -0.237 OA
ATOM     78  O   UNL A   1      42.231  18.758  27.517  1.00  0.00    -0.237 OA
ATOM     79  O   UNL A   1      40.405  19.659  26.124  1.00  0.00    -0.744 OA
ENDBRANCH  75  76
ENDBRANCH  43  68
BRANCH  55  80
ATOM     80  C   UNL A   1      49.358  27.162  25.932  1.00  0.00     0.058 A 
ATOM     81  C   UNL A   1      50.418  26.758  26.759  1.00  0.00     0.135 A 
ATOM     82  C   UNL A   1      49.598  27.248  24.552  1.00  0.00     0.135 A 
ATOM     83  F   UNL A   1      50.242  26.662  28.087  1.00  0.00    -0.206 F 
ATOM     84  C   UNL A   1      51.677  26.476  26.241  1.00  0.00     0.059 A 
ATOM     85  C   UNL A   1      50.844  26.948  24.009  1.00  0.00     0.059 A 
ATOM     86  F   UNL A   1      48.613  27.616  23.718  1.00  0.00    -0.206 F 
ATOM     87  C   UNL A   1      51.883  26.581  24.864  1.00  0.00     0.060 A 
BRANCH  87  88
ATOM     88  S   UNL A   1      53.523  26.210  24.207  1.00  0.00     0.124 S 
ATOM     89  O   UNL A   1      53.376  26.589  22.805  1.00  0.00    -0.237 OA
ATOM     90  O   UNL A   1      54.383  27.072  25.010  1.00  0.00    -0.237 OA
ATOM     91  O   UNL A   1      53.674  24.779  24.458  1.00  0.00    -0.744 OA
ENDBRANCH  87  88
ENDBRANCH  55  80
ENDBRANCH  29  30
ENDBRANCH  22  24
ENDBRANCH  21  22
ENDBRANCH  20  21
ENDBRANCH   1  20
TORSDOF 19
ENDMDL
