MODEL 1
REMARK VINA RESULT:     -13.5      0.000      0.000
REMARK SMILES Cc1ccccc1NC(=O)CSc1nc(C(=O)OCCOC(=O)c2ccc(-c3c4nc(c(-c5c(F)cc(S(=O)(=O)[O-])cc5F)c5ccc([nH]5)c(-c5c(F)cc(S(=O)(=O)[O-])cc5F)c5nc(c(-c6c(F)cc(S(=O)(=O)[O-])cc6F)c6ccc3[nH]6)C=C5)C=C4)cc2)c2ccccc2n1
REMARK SMILES IDX 19 1 18 2 16 3 17 4 15 5 13 6 14 7 96 8 95 9 90 10 94 11
REMARK SMILES IDX 91 12 93 13 92 14 12 15 11 16 9 17 8 18 10 20 7 21 1 22 2 23
REMARK SMILES IDX 3 24 4 25 6 26 5 27 20 28 21 29 22 30 23 31 24 32 25 33
REMARK SMILES IDX 89 34 26 35 88 36 27 37 28 38 29 39 82 40 30 41 87 42 81 43
REMARK SMILES IDX 83 44 31 45 86 46 80 47 79 48 32 50 66 51 45 52 65 53 46 54
REMARK SMILES IDX 49 55 64 56 84 57 47 58 48 59 63 61 85 62 50 63 33 64 34 65
REMARK SMILES IDX 43 66 35 67 36 68 42 69 44 70 37 71 38 72 39 73 40 74 41 75
REMARK SMILES IDX 67 76 68 77 77 78 69 79 70 80 76 81 78 82 71 83 72 84 73 85
REMARK SMILES IDX 74 86 75 87 51 88 52 89 61 90 53 91 54 92 60 93 62 94 55 95
REMARK SMILES IDX 56 96 57 97 58 98 59 99
REMARK H PARENT 8 19 83 49 49 60
REMARK Flexibility Score: inf
ROOT
ATOM      1  C   UNL A   1      33.478  30.496  27.235  1.00  0.00     0.275 C 
ENDROOT
BRANCH   1   2
ATOM      2  O   UNL A   1      32.978  30.040  25.975  1.00  0.00    -0.457 OA
BRANCH   2   3
ATOM      3  C   UNL A   1      31.718  30.465  25.691  1.00  0.00     0.357 C 
ATOM      4  O   UNL A   1      31.186  31.462  26.121  1.00  0.00    -0.244 OA
BRANCH   3   5
ATOM      5  C   UNL A   1      31.110  29.522  24.716  1.00  0.00     0.160 A 
ATOM      6  C   UNL A   1      30.930  27.354  24.035  1.00  0.00     0.189 A 
ATOM      7  N   UNL A   1      31.580  28.255  24.770  1.00  0.00    -0.215 NA
ATOM      8  N   UNL A   1      29.800  27.614  23.359  1.00  0.00    -0.222 NA
ATOM      9  C   UNL A   1      29.342  28.875  23.354  1.00  0.00     0.076 A 
ATOM     10  C   UNL A   1      29.999  29.929  23.988  1.00  0.00     0.034 A 
ATOM     11  C   UNL A   1      28.125  29.148  22.747  1.00  0.00     0.029 A 
ATOM     12  C   UNL A   1      29.490  31.252  23.907  1.00  0.00     0.013 A 
ATOM     13  C   UNL A   1      27.582  30.439  22.714  1.00  0.00     0.002 A 
ATOM     14  C   UNL A   1      28.283  31.502  23.268  1.00  0.00     0.001 A 
BRANCH   6  15
ATOM     15  S   UNL A   1      31.351  25.644  24.253  1.00  0.00    -0.076 SA
BRANCH  15  16
ATOM     16  C   UNL A   1      32.281  25.679  25.817  1.00  0.00     0.178 C 
BRANCH  16  17
ATOM     17  C   UNL A   1      32.374  24.322  26.483  1.00  0.00     0.234 C 
ATOM     18  N   UNL A   1      33.370  23.413  26.253  1.00  0.00    -0.325 N 
ATOM     19  H   UNL A   1      33.243  22.572  26.749  1.00  0.00     0.169 HD
ATOM     20  O   UNL A   1      31.508  23.982  27.301  1.00  0.00    -0.274 OA
BRANCH  18  21
ATOM     21  C   UNL A   1      34.538  23.412  25.463  1.00  0.00     0.044 A 
ATOM     22  C   UNL A   1      33.230  22.419  23.461  1.00  0.00     0.046 C 
ATOM     23  C   UNL A   1      34.486  22.883  24.153  1.00  0.00    -0.027 A 
ATOM     24  C   UNL A   1      35.689  22.699  23.437  1.00  0.00     0.005 A 
ATOM     25  C   UNL A   1      36.913  23.094  23.965  1.00  0.00     0.000 A 
ATOM     26  C   UNL A   1      35.765  23.895  25.926  1.00  0.00     0.026 A 
ATOM     27  C   UNL A   1      36.945  23.724  25.198  1.00  0.00     0.002 A 
ENDBRANCH  18  21
ENDBRANCH  16  17
ENDBRANCH  15  16
ENDBRANCH   6  15
ENDBRANCH   3   5
ENDBRANCH   2   3
ENDBRANCH   1   2
BRANCH   1  28
ATOM     28  C   UNL A   1      34.864  29.929  27.616  1.00  0.00     0.275 C 
BRANCH  28  29
ATOM     29  O   UNL A   1      35.694  30.715  28.517  1.00  0.00    -0.458 OA
BRANCH  29  30
ATOM     30  C   UNL A   1      36.407  30.355  29.620  1.00  0.00     0.338 C 
ATOM     31  O   UNL A   1      35.936  30.439  30.749  1.00  0.00    -0.246 OA
BRANCH  30  32
ATOM     32  C   UNL A   1      37.667  29.608  29.439  1.00  0.00     0.060 A 
ATOM     33  C   UNL A   1      37.928  28.498  30.259  1.00  0.00     0.016 A 
ATOM     34  C   UNL A   1      38.518  29.901  28.389  1.00  0.00     0.016 A 
ATOM     35  C   UNL A   1      38.980  27.647  29.971  1.00  0.00     0.010 A 
ATOM     36  C   UNL A   1      39.365  28.928  27.933  1.00  0.00     0.010 A 
ATOM     37  C   UNL A   1      39.674  27.871  28.784  1.00  0.00    -0.014 A 
BRANCH  37  38
ATOM     38  C   UNL A   1      40.989  27.304  28.552  1.00  0.00     0.031 A 
ATOM     39  C   UNL A   1      41.086  25.885  28.227  1.00  0.00     0.074 A 
ATOM     40  C   UNL A   1      41.992  28.171  28.819  1.00  0.00     0.049 A 
ATOM     41  N   UNL A   1      41.709  25.003  28.922  1.00  0.00    -0.248 NA
ATOM     42  C   UNL A   1      40.354  25.325  27.090  1.00  0.00     0.031 C 
ATOM     43  C   UNL A   1      43.428  28.016  28.827  1.00  0.00     0.029 A 
ATOM     44  N   UNL A   1      41.794  29.434  29.397  1.00  0.00    -0.354 N 
ATOM     45  C   UNL A   1      41.821  23.902  28.096  1.00  0.00     0.074 A 
ATOM     46  C   UNL A   1      40.784  24.057  27.102  1.00  0.00     0.031 C 
ATOM     47  C   UNL A   1      43.937  28.942  29.672  1.00  0.00     0.029 A 
ATOM     48  C   UNL A   1      42.835  29.702  30.263  1.00  0.00     0.049 A 
ATOM     49  H   UNL A   1      41.035  30.033  29.213  1.00  0.00     0.167 HD
ATOM     50  C   UNL A   1      42.977  23.174  28.103  1.00  0.00     0.037 A 
ATOM     51  C   UNL A   1      42.505  29.813  31.583  1.00  0.00     0.037 A 
ATOM     52  C   UNL A   1      43.950  23.824  28.991  1.00  0.00     0.049 A 
ATOM     53  C   UNL A   1      42.979  28.586  32.324  1.00  0.00     0.074 A 
ATOM     54  C   UNL A   1      44.960  24.730  28.699  1.00  0.00     0.029 A 
ATOM     55  N   UNL A   1      43.692  23.963  30.355  1.00  0.00    -0.354 N 
ATOM     56  N   UNL A   1      43.164  27.416  31.765  1.00  0.00    -0.248 NA
ATOM     57  C   UNL A   1      43.429  28.624  33.710  1.00  0.00     0.031 C 
ATOM     58  C   UNL A   1      45.240  25.477  29.871  1.00  0.00     0.029 A 
ATOM     59  C   UNL A   1      44.404  25.033  30.880  1.00  0.00     0.049 A 
ATOM     60  H   UNL A   1      43.089  23.383  30.874  1.00  0.00     0.167 HD
ATOM     61  C   UNL A   1      43.845  26.601  32.632  1.00  0.00     0.074 A 
ATOM     62  C   UNL A   1      43.967  27.399  33.843  1.00  0.00     0.031 C 
ATOM     63  C   UNL A   1      44.332  25.366  32.295  1.00  0.00     0.037 A 
BRANCH  50  64
ATOM     64  C   UNL A   1      43.327  22.224  26.971  1.00  0.00     0.058 A 
ATOM     65  C   UNL A   1      42.827  20.905  26.925  1.00  0.00     0.135 A 
ATOM     66  C   UNL A   1      44.198  22.561  25.911  1.00  0.00     0.135 A 
ATOM     67  F   UNL A   1      41.912  20.470  27.799  1.00  0.00    -0.206 F 
ATOM     68  C   UNL A   1      43.243  19.965  25.980  1.00  0.00     0.059 A 
ATOM     69  C   UNL A   1      44.661  21.626  24.974  1.00  0.00     0.059 A 
ATOM     70  F   UNL A   1      44.619  23.825  25.745  1.00  0.00    -0.206 F 
ATOM     71  C   UNL A   1      44.182  20.324  25.023  1.00  0.00     0.060 A 
BRANCH  71  72
ATOM     72  S   UNL A   1      44.734  19.074  23.842  1.00  0.00     0.124 S 
ATOM     73  O   UNL A   1      44.467  19.720  22.561  1.00  0.00    -0.237 OA
ATOM     74  O   UNL A   1      46.141  18.924  24.197  1.00  0.00    -0.237 OA
ATOM     75  O   UNL A   1      43.884  17.925  24.144  1.00  0.00    -0.744 OA
ENDBRANCH  71  72
ENDBRANCH  50  64
BRANCH  51  76
ATOM     76  C   UNL A   1      41.325  30.716  31.858  1.00  0.00     0.058 A 
ATOM     77  C   UNL A   1      41.438  32.052  31.400  1.00  0.00     0.135 A 
ATOM     78  C   UNL A   1      40.049  30.340  32.311  1.00  0.00     0.135 A 
ATOM     79  F   UNL A   1      42.627  32.518  30.980  1.00  0.00    -0.206 F 
ATOM     80  C   UNL A   1      40.353  32.914  31.276  1.00  0.00     0.059 A 
ATOM     81  C   UNL A   1      38.932  31.207  32.215  1.00  0.00     0.059 A 
ATOM     82  F   UNL A   1      39.844  29.109  32.800  1.00  0.00    -0.206 F 
ATOM     83  C   UNL A   1      39.091  32.475  31.650  1.00  0.00     0.060 A 
BRANCH  83  84
ATOM     84  S   UNL A   1      37.709  33.588  31.270  1.00  0.00     0.124 S 
ATOM     85  O   UNL A   1      38.239  34.887  31.675  1.00  0.00    -0.237 OA
ATOM     86  O   UNL A   1      37.584  33.389  29.825  1.00  0.00    -0.237 OA
ATOM     87  O   UNL A   1      36.615  33.091  32.089  1.00  0.00    -0.744 OA
ENDBRANCH  83  84
ENDBRANCH  51  76
BRANCH  63  88
ATOM     88  C   UNL A   1      44.941  24.378  33.260  1.00  0.00     0.058 A 
ATOM     89  C   UNL A   1      44.296  23.206  33.680  1.00  0.00     0.135 A 
ATOM     90  C   UNL A   1      46.292  24.518  33.667  1.00  0.00     0.135 A 
ATOM     91  F   UNL A   1      43.055  22.907  33.273  1.00  0.00    -0.206 F 
ATOM     92  C   UNL A   1      44.923  22.267  34.499  1.00  0.00     0.059 A 
ATOM     93  C   UNL A   1      46.957  23.561  34.422  1.00  0.00     0.059 A 
ATOM     94  F   UNL A   1      47.028  25.588  33.332  1.00  0.00    -0.206 F 
ATOM     95  C   UNL A   1      46.255  22.450  34.858  1.00  0.00     0.060 A 
BRANCH  95  96
ATOM     96  S   UNL A   1      47.099  21.209  35.849  1.00  0.00     0.124 S 
ATOM     97  O   UNL A   1      46.334  21.264  37.091  1.00  0.00    -0.237 OA
ATOM     98  O   UNL A   1      46.931  19.994  35.056  1.00  0.00    -0.237 OA
ATOM     99  O   UNL A   1      48.465  21.716  35.922  1.00  0.00    -0.744 OA
ENDBRANCH  95  96
ENDBRANCH  63  88
ENDBRANCH  37  38
ENDBRANCH  30  32
ENDBRANCH  29  30
ENDBRANCH  28  29
ENDBRANCH   1  28
TORSDOF 18
ENDMDL
MODEL 2
REMARK VINA RESULT:     -13.4      1.338      2.037
REMARK SMILES Cc1ccccc1NC(=O)CSc1nc(C(=O)OCCOC(=O)c2ccc(-c3c4nc(c(-c5c(F)cc(S(=O)(=O)[O-])cc5F)c5ccc([nH]5)c(-c5c(F)cc(S(=O)(=O)[O-])cc5F)c5nc(c(-c6c(F)cc(S(=O)(=O)[O-])cc6F)c6ccc3[nH]6)C=C5)C=C4)cc2)c2ccccc2n1
REMARK SMILES IDX 19 1 18 2 16 3 17 4 15 5 13 6 14 7 96 8 95 9 90 10 94 11
REMARK SMILES IDX 91 12 93 13 92 14 12 15 11 16 9 17 8 18 10 20 7 21 1 22 2 23
REMARK SMILES IDX 3 24 4 25 6 26 5 27 20 28 21 29 22 30 23 31 24 32 25 33
REMARK SMILES IDX 89 34 26 35 88 36 27 37 28 38 29 39 82 40 30 41 87 42 81 43
REMARK SMILES IDX 83 44 31 45 86 46 80 47 79 48 32 50 66 51 45 52 65 53 46 54
REMARK SMILES IDX 49 55 64 56 84 57 47 58 48 59 63 61 85 62 50 63 33 64 34 65
REMARK SMILES IDX 43 66 35 67 36 68 42 69 44 70 37 71 38 72 39 73 40 74 41 75
REMARK SMILES IDX 67 76 68 77 77 78 69 79 70 80 76 81 78 82 71 83 72 84 73 85
REMARK SMILES IDX 74 86 75 87 51 88 52 89 61 90 53 91 54 92 60 93 62 94 55 95
REMARK SMILES IDX 56 96 57 97 58 98 59 99
REMARK H PARENT 8 19 83 49 49 60
REMARK Flexibility Score: inf
ROOT
ATOM      1  C   UNL A   1      33.516  30.265  26.988  1.00  0.00     0.275 C 
ENDROOT
BRANCH   1   2
ATOM      2  O   UNL A   1      32.897  29.768  25.798  1.00  0.00    -0.457 OA
BRANCH   2   3
ATOM      3  C   UNL A   1      31.661  30.280  25.560  1.00  0.00     0.357 C 
ATOM      4  O   UNL A   1      31.183  31.264  26.075  1.00  0.00    -0.244 OA
BRANCH   3   5
ATOM      5  C   UNL A   1      31.001  29.455  24.514  1.00  0.00     0.160 A 
ATOM      6  C   UNL A   1      30.720  27.367  23.644  1.00  0.00     0.189 A 
ATOM      7  N   UNL A   1      31.418  28.170  24.446  1.00  0.00    -0.215 NA
ATOM      8  N   UNL A   1      29.594  27.733  23.013  1.00  0.00    -0.222 NA
ATOM      9  C   UNL A   1      29.190  29.007  23.129  1.00  0.00     0.076 A 
ATOM     10  C   UNL A   1      29.899  29.971  23.844  1.00  0.00     0.034 A 
ATOM     11  C   UNL A   1      27.977  29.384  22.569  1.00  0.00     0.029 A 
ATOM     12  C   UNL A   1      29.445  31.316  23.891  1.00  0.00     0.013 A 
ATOM     13  C   UNL A   1      27.489  30.693  22.661  1.00  0.00     0.002 A 
ATOM     14  C   UNL A   1      28.241  31.672  23.297  1.00  0.00     0.001 A 
BRANCH   6  15
ATOM     15  S   UNL A   1      31.072  25.629  23.699  1.00  0.00    -0.076 SA
BRANCH  15  16
ATOM     16  C   UNL A   1      32.882  25.615  23.891  1.00  0.00     0.178 C 
BRANCH  16  17
ATOM     17  C   UNL A   1      33.603  25.062  22.679  1.00  0.00     0.234 C 
ATOM     18  N   UNL A   1      34.114  23.796  22.593  1.00  0.00    -0.325 N 
ATOM     19  H   UNL A   1      34.580  23.628  21.742  1.00  0.00     0.169 HD
ATOM     20  O   UNL A   1      33.752  25.777  21.679  1.00  0.00    -0.274 OA
BRANCH  18  21
ATOM     21  C   UNL A   1      34.123  22.678  23.451  1.00  0.00     0.044 A 
ATOM     22  C   UNL A   1      36.577  23.162  24.121  1.00  0.00     0.046 C 
ATOM     23  C   UNL A   1      35.314  22.339  24.134  1.00  0.00    -0.027 A 
ATOM     24  C   UNL A   1      35.382  21.115  24.834  1.00  0.00     0.005 A 
ATOM     25  C   UNL A   1      34.280  20.271  24.925  1.00  0.00     0.000 A 
ATOM     26  C   UNL A   1      33.003  21.864  23.646  1.00  0.00     0.026 A 
ATOM     27  C   UNL A   1      33.079  20.664  24.358  1.00  0.00     0.002 A 
ENDBRANCH  18  21
ENDBRANCH  16  17
ENDBRANCH  15  16
ENDBRANCH   6  15
ENDBRANCH   3   5
ENDBRANCH   2   3
ENDBRANCH   1   2
BRANCH   1  28
ATOM     28  C   UNL A   1      34.535  29.298  27.631  1.00  0.00     0.275 C 
BRANCH  28  29
ATOM     29  O   UNL A   1      35.820  29.843  28.044  1.00  0.00    -0.458 OA
BRANCH  29  30
ATOM     30  C   UNL A   1      36.592  29.587  29.136  1.00  0.00     0.338 C 
ATOM     31  O   UNL A   1      36.129  29.601  30.272  1.00  0.00    -0.246 OA
BRANCH  30  32
ATOM     32  C   UNL A   1      37.943  29.028  28.935  1.00  0.00     0.060 A 
ATOM     33  C   UNL A   1      38.776  29.588  27.952  1.00  0.00     0.016 A 
ATOM     34  C   UNL A   1      38.442  28.061  29.788  1.00  0.00     0.016 A 
ATOM     35  C   UNL A   1      40.115  29.242  27.889  1.00  0.00     0.010 A 
ATOM     36  C   UNL A   1      39.798  27.932  29.921  1.00  0.00     0.010 A 
ATOM     37  C   UNL A   1      40.610  28.426  28.903  1.00  0.00    -0.014 A 
BRANCH  37  38
ATOM     38  C   UNL A   1      41.862  27.707  28.761  1.00  0.00     0.031 A 
ATOM     39  C   UNL A   1      41.816  26.305  28.358  1.00  0.00     0.074 A 
ATOM     40  C   UNL A   1      42.932  28.423  29.175  1.00  0.00     0.049 A 
ATOM     41  N   UNL A   1      42.252  25.316  29.052  1.00  0.00    -0.248 NA
ATOM     42  C   UNL A   1      41.140  25.901  27.125  1.00  0.00     0.031 C 
ATOM     43  C   UNL A   1      44.329  28.085  29.309  1.00  0.00     0.029 A 
ATOM     44  N   UNL A   1      42.833  29.670  29.810  1.00  0.00    -0.354 N 
ATOM     45  C   UNL A   1      42.311  24.254  28.174  1.00  0.00     0.074 A 
ATOM     46  C   UNL A   1      41.407  24.590  27.097  1.00  0.00     0.031 C 
ATOM     47  C   UNL A   1      44.859  28.893  30.255  1.00  0.00     0.029 A 
ATOM     48  C   UNL A   1      43.805  29.759  30.786  1.00  0.00     0.049 A 
ATOM     49  H   UNL A   1      42.176  30.370  29.593  1.00  0.00     0.167 HD
ATOM     50  C   UNL A   1      43.362  23.383  28.244  1.00  0.00     0.037 A 
ATOM     51  C   UNL A   1      43.359  29.844  32.073  1.00  0.00     0.037 A 
ATOM     52  C   UNL A   1      44.312  23.857  29.259  1.00  0.00     0.049 A 
ATOM     53  C   UNL A   1      43.600  28.532  32.777  1.00  0.00     0.074 A 
ATOM     54  C   UNL A   1      45.450  24.640  29.121  1.00  0.00     0.029 A 
ATOM     55  N   UNL A   1      43.935  23.959  30.599  1.00  0.00    -0.354 N 
ATOM     56  N   UNL A   1      43.697  27.377  32.165  1.00  0.00    -0.248 NA
ATOM     57  C   UNL A   1      43.908  28.442  34.199  1.00  0.00     0.031 C 
ATOM     58  C   UNL A   1      45.699  25.285  30.358  1.00  0.00     0.029 A 
ATOM     59  C   UNL A   1      44.717  24.901  31.254  1.00  0.00     0.049 A 
ATOM     60  H   UNL A   1      43.217  23.436  31.021  1.00  0.00     0.167 HD
ATOM     61  C   UNL A   1      44.180  26.438  33.041  1.00  0.00     0.074 A 
ATOM     62  C   UNL A   1      44.276  27.153  34.305  1.00  0.00     0.031 C 
ATOM     63  C   UNL A   1      44.543  25.169  32.675  1.00  0.00     0.037 A 
BRANCH  50  64
ATOM     64  C   UNL A   1      43.705  22.454  27.093  1.00  0.00     0.058 A 
ATOM     65  C   UNL A   1      43.029  21.231  26.896  1.00  0.00     0.135 A 
ATOM     66  C   UNL A   1      44.738  22.712  26.165  1.00  0.00     0.135 A 
ATOM     67  F   UNL A   1      41.961  20.893  27.629  1.00  0.00    -0.206 F 
ATOM     68  C   UNL A   1      43.417  20.291  25.939  1.00  0.00     0.059 A 
ATOM     69  C   UNL A   1      45.171  21.769  25.221  1.00  0.00     0.059 A 
ATOM     70  F   UNL A   1      45.355  23.904  26.138  1.00  0.00    -0.206 F 
ATOM     71  C   UNL A   1      44.507  20.554  25.121  1.00  0.00     0.060 A 
BRANCH  71  72
ATOM     72  S   UNL A   1      45.011  19.302  23.923  1.00  0.00     0.124 S 
ATOM     73  O   UNL A   1      46.466  19.346  24.023  1.00  0.00    -0.237 OA
ATOM     74  O   UNL A   1      44.373  18.102  24.454  1.00  0.00    -0.237 OA
ATOM     75  O   UNL A   1      44.462  19.798  22.664  1.00  0.00    -0.744 OA
ENDBRANCH  71  72
ENDBRANCH  50  64
BRANCH  51  76
ATOM     76  C   UNL A   1      42.277  30.877  32.291  1.00  0.00     0.058 A 
ATOM     77  C   UNL A   1      41.003  30.382  32.663  1.00  0.00     0.135 A 
ATOM     78  C   UNL A   1      42.433  32.270  32.387  1.00  0.00     0.135 A 
ATOM     79  F   UNL A   1      40.743  29.066  32.571  1.00  0.00    -0.206 F 
ATOM     80  C   UNL A   1      40.000  31.178  33.208  1.00  0.00     0.059 A 
ATOM     81  C   UNL A   1      41.420  33.105  32.920  1.00  0.00     0.059 A 
ATOM     82  F   UNL A   1      43.589  32.845  32.023  1.00  0.00    -0.206 F 
ATOM     83  C   UNL A   1      40.226  32.537  33.371  1.00  0.00     0.060 A 
BRANCH  83  84
ATOM     84  S   UNL A   1      38.949  33.460  34.270  1.00  0.00     0.124 S 
ATOM     85  O   UNL A   1      37.848  32.501  34.312  1.00  0.00    -0.237 OA
ATOM     86  O   UNL A   1      39.623  33.693  35.548  1.00  0.00    -0.237 OA
ATOM     87  O   UNL A   1      38.707  34.632  33.443  1.00  0.00    -0.744 OA
ENDBRANCH  83  84
ENDBRANCH  51  76
BRANCH  63  88
ATOM     88  C   UNL A   1      44.925  24.065  33.629  1.00  0.00     0.058 A 
ATOM     89  C   UNL A   1      44.020  23.107  34.108  1.00  0.00     0.135 A 
ATOM     90  C   UNL A   1      46.286  23.847  33.962  1.00  0.00     0.135 A 
ATOM     91  F   UNL A   1      42.722  23.142  33.774  1.00  0.00    -0.206 F 
ATOM     92  C   UNL A   1      44.423  22.043  34.915  1.00  0.00     0.059 A 
ATOM     93  C   UNL A   1      46.718  22.755  34.703  1.00  0.00     0.059 A 
ATOM     94  F   UNL A   1      47.257  24.682  33.564  1.00  0.00    -0.206 F 
ATOM     95  C   UNL A   1      45.774  21.872  35.201  1.00  0.00     0.060 A 
BRANCH  95  96
ATOM     96  S   UNL A   1      46.317  20.461  36.174  1.00  0.00     0.124 S 
ATOM     97  O   UNL A   1      45.698  19.356  35.448  1.00  0.00    -0.237 OA
ATOM     98  O   UNL A   1      47.772  20.543  36.078  1.00  0.00    -0.237 OA
ATOM     99  O   UNL A   1      45.768  20.739  37.497  1.00  0.00    -0.744 OA
ENDBRANCH  95  96
ENDBRANCH  63  88
ENDBRANCH  37  38
ENDBRANCH  30  32
ENDBRANCH  29  30
ENDBRANCH  28  29
ENDBRANCH   1  28
TORSDOF 18
ENDMDL
MODEL 3
REMARK VINA RESULT:     -13.4      1.514      2.403
REMARK SMILES Cc1ccccc1NC(=O)CSc1nc(C(=O)OCCOC(=O)c2ccc(-c3c4nc(c(-c5c(F)cc(S(=O)(=O)[O-])cc5F)c5ccc([nH]5)c(-c5c(F)cc(S(=O)(=O)[O-])cc5F)c5nc(c(-c6c(F)cc(S(=O)(=O)[O-])cc6F)c6ccc3[nH]6)C=C5)C=C4)cc2)c2ccccc2n1
REMARK SMILES IDX 19 1 18 2 16 3 17 4 15 5 13 6 14 7 96 8 95 9 90 10 94 11
REMARK SMILES IDX 91 12 93 13 92 14 12 15 11 16 9 17 8 18 10 20 7 21 1 22 2 23
REMARK SMILES IDX 3 24 4 25 6 26 5 27 20 28 21 29 22 30 23 31 24 32 25 33
REMARK SMILES IDX 89 34 26 35 88 36 27 37 28 38 29 39 82 40 30 41 87 42 81 43
REMARK SMILES IDX 83 44 31 45 86 46 80 47 79 48 32 50 66 51 45 52 65 53 46 54
REMARK SMILES IDX 49 55 64 56 84 57 47 58 48 59 63 61 85 62 50 63 33 64 34 65
REMARK SMILES IDX 43 66 35 67 36 68 42 69 44 70 37 71 38 72 39 73 40 74 41 75
REMARK SMILES IDX 67 76 68 77 77 78 69 79 70 80 76 81 78 82 71 83 72 84 73 85
REMARK SMILES IDX 74 86 75 87 51 88 52 89 61 90 53 91 54 92 60 93 62 94 55 95
REMARK SMILES IDX 56 96 57 97 58 98 59 99
REMARK H PARENT 8 19 83 49 49 60
REMARK Flexibility Score: inf
ROOT
ATOM      1  C   UNL A   1      33.710  29.557  27.543  1.00  0.00     0.275 C 
ENDROOT
BRANCH   1   2
ATOM      2  O   UNL A   1      33.327  28.306  26.962  1.00  0.00    -0.457 OA
BRANCH   2   3
ATOM      3  C   UNL A   1      32.071  27.902  27.291  1.00  0.00     0.357 C 
ATOM      4  O   UNL A   1      31.402  28.322  28.206  1.00  0.00    -0.244 OA
BRANCH   3   5
ATOM      5  C   UNL A   1      31.630  26.884  26.302  1.00  0.00     0.160 A 
ATOM      6  C   UNL A   1      31.075  24.701  25.948  1.00  0.00     0.189 A 
ATOM      7  N   UNL A   1      31.633  25.607  26.749  1.00  0.00    -0.215 NA
ATOM      8  N   UNL A   1      30.430  25.004  24.811  1.00  0.00    -0.222 NA
ATOM      9  C   UNL A   1      30.416  26.285  24.413  1.00  0.00     0.076 A 
ATOM     10  C   UNL A   1      31.065  27.307  25.105  1.00  0.00     0.034 A 
ATOM     11  C   UNL A   1      29.672  26.638  23.297  1.00  0.00     0.029 A 
ATOM     12  C   UNL A   1      31.055  28.638  24.609  1.00  0.00     0.013 A 
ATOM     13  C   UNL A   1      29.604  27.957  22.832  1.00  0.00     0.002 A 
ATOM     14  C   UNL A   1      30.325  28.956  23.472  1.00  0.00     0.001 A 
BRANCH   6  15
ATOM     15  S   UNL A   1      30.839  23.062  26.585  1.00  0.00    -0.076 SA
BRANCH  15  16
ATOM     16  C   UNL A   1      31.243  22.032  25.139  1.00  0.00     0.178 C 
BRANCH  16  17
ATOM     17  C   UNL A   1      32.714  21.683  25.051  1.00  0.00     0.234 C 
ATOM     18  N   UNL A   1      33.640  22.401  24.346  1.00  0.00    -0.325 N 
ATOM     19  H   UNL A   1      34.539  22.002  24.377  1.00  0.00     0.169 HD
ATOM     20  O   UNL A   1      33.143  20.689  25.653  1.00  0.00    -0.274 OA
BRANCH  18  21
ATOM     21  C   UNL A   1      33.594  23.587  23.584  1.00  0.00     0.044 A 
ATOM     22  C   UNL A   1      34.933  24.855  25.401  1.00  0.00     0.046 C 
ATOM     23  C   UNL A   1      34.157  24.771  24.112  1.00  0.00    -0.027 A 
ATOM     24  C   UNL A   1      33.939  25.995  23.443  1.00  0.00     0.005 A 
ATOM     25  C   UNL A   1      33.243  26.048  22.239  1.00  0.00     0.000 A 
ATOM     26  C   UNL A   1      32.992  23.654  22.324  1.00  0.00     0.026 A 
ATOM     27  C   UNL A   1      32.800  24.870  21.663  1.00  0.00     0.002 A 
ENDBRANCH  18  21
ENDBRANCH  16  17
ENDBRANCH  15  16
ENDBRANCH   6  15
ENDBRANCH   3   5
ENDBRANCH   2   3
ENDBRANCH   1   2
BRANCH   1  28
ATOM     28  C   UNL A   1      35.211  29.894  27.403  1.00  0.00     0.275 C 
BRANCH  28  29
ATOM     29  O   UNL A   1      35.867  30.547  28.526  1.00  0.00    -0.458 OA
BRANCH  29  30
ATOM     30  C   UNL A   1      36.441  30.034  29.649  1.00  0.00     0.338 C 
ATOM     31  O   UNL A   1      35.819  29.926  30.701  1.00  0.00    -0.246 OA
BRANCH  30  32
ATOM     32  C   UNL A   1      37.746  29.356  29.533  1.00  0.00     0.060 A 
ATOM     33  C   UNL A   1      38.031  28.270  30.377  1.00  0.00     0.016 A 
ATOM     34  C   UNL A   1      38.627  29.685  28.518  1.00  0.00     0.016 A 
ATOM     35  C   UNL A   1      39.140  27.476  30.147  1.00  0.00     0.010 A 
ATOM     36  C   UNL A   1      39.546  28.755  28.111  1.00  0.00     0.010 A 
ATOM     37  C   UNL A   1      39.873  27.726  28.989  1.00  0.00    -0.014 A 
BRANCH  37  38
ATOM     38  C   UNL A   1      41.227  27.230  28.822  1.00  0.00     0.031 A 
ATOM     39  C   UNL A   1      41.412  25.842  28.415  1.00  0.00     0.074 A 
ATOM     40  C   UNL A   1      42.167  28.118  29.220  1.00  0.00     0.049 A 
ATOM     41  N   UNL A   1      42.022  24.940  29.097  1.00  0.00    -0.248 NA
ATOM     42  C   UNL A   1      40.792  25.330  27.192  1.00  0.00     0.031 C 
ATOM     43  C   UNL A   1      43.603  28.021  29.328  1.00  0.00     0.029 A 
ATOM     44  N   UNL A   1      41.869  29.329  29.861  1.00  0.00    -0.354 N 
ATOM     45  C   UNL A   1      42.244  23.904  28.213  1.00  0.00     0.074 A 
ATOM     46  C   UNL A   1      41.277  24.083  27.155  1.00  0.00     0.031 C 
ATOM     47  C   UNL A   1      44.006  28.907  30.268  1.00  0.00     0.029 A 
ATOM     48  C   UNL A   1      42.830  29.580  30.820  1.00  0.00     0.049 A 
ATOM     49  H   UNL A   1      41.099  29.908  29.659  1.00  0.00     0.167 HD
ATOM     50  C   UNL A   1      43.429  23.225  28.262  1.00  0.00     0.037 A 
ATOM     51  C   UNL A   1      42.399  29.588  32.115  1.00  0.00     0.037 A 
ATOM     52  C   UNL A   1      44.304  23.852  29.261  1.00  0.00     0.049 A 
ATOM     53  C   UNL A   1      42.872  28.335  32.810  1.00  0.00     0.074 A 
ATOM     54  C   UNL A   1      45.290  24.816  29.106  1.00  0.00     0.029 A 
ATOM     55  N   UNL A   1      43.939  23.888  30.608  1.00  0.00    -0.354 N 
ATOM     56  N   UNL A   1      43.152  27.214  32.192  1.00  0.00    -0.248 NA
ATOM     57  C   UNL A   1      43.217  28.298  34.225  1.00  0.00     0.031 C 
ATOM     58  C   UNL A   1      45.448  25.494  30.342  1.00  0.00     0.029 A 
ATOM     59  C   UNL A   1      44.561  24.948  31.253  1.00  0.00     0.049 A 
ATOM     60  H   UNL A   1      43.328  23.250  31.041  1.00  0.00     0.167 HD
ATOM     61  C   UNL A   1      43.804  26.370  33.055  1.00  0.00     0.074 A 
ATOM     62  C   UNL A   1      43.800  27.089  34.321  1.00  0.00     0.031 C 
ATOM     63  C   UNL A   1      44.371  25.182  32.677  1.00  0.00     0.037 A 
BRANCH  50  64
ATOM     64  C   UNL A   1      43.905  22.368  27.101  1.00  0.00     0.058 A 
ATOM     65  C   UNL A   1      43.196  21.222  26.682  1.00  0.00     0.135 A 
ATOM     66  C   UNL A   1      45.095  22.619  26.384  1.00  0.00     0.135 A 
ATOM     67  F   UNL A   1      41.999  20.911  27.194  1.00  0.00    -0.206 F 
ATOM     68  C   UNL A   1      43.680  20.336  25.718  1.00  0.00     0.059 A 
ATOM     69  C   UNL A   1      45.622  21.725  25.440  1.00  0.00     0.059 A 
ATOM     70  F   UNL A   1      45.782  23.757  26.570  1.00  0.00    -0.206 F 
ATOM     71  C   UNL A   1      44.909  20.579  25.119  1.00  0.00     0.060 A 
BRANCH  71  72
ATOM     72  S   UNL A   1      45.529  19.392  23.908  1.00  0.00     0.124 S 
ATOM     73  O   UNL A   1      46.863  19.912  23.621  1.00  0.00    -0.237 OA
ATOM     74  O   UNL A   1      45.483  18.143  24.659  1.00  0.00    -0.237 OA
ATOM     75  O   UNL A   1      44.573  19.499  22.809  1.00  0.00    -0.744 OA
ENDBRANCH  71  72
ENDBRANCH  50  64
BRANCH  51  76
ATOM     76  C   UNL A   1      41.162  30.422  32.357  1.00  0.00     0.058 A 
ATOM     77  C   UNL A   1      40.050  29.746  32.916  1.00  0.00     0.135 A 
ATOM     78  C   UNL A   1      41.051  31.822  32.302  1.00  0.00     0.135 A 
ATOM     79  F   UNL A   1      40.044  28.404  32.979  1.00  0.00    -0.206 F 
ATOM     80  C   UNL A   1      38.966  30.401  33.495  1.00  0.00     0.059 A 
ATOM     81  C   UNL A   1      39.949  32.511  32.865  1.00  0.00     0.059 A 
ATOM     82  F   UNL A   1      42.033  32.554  31.756  1.00  0.00    -0.206 F 
ATOM     83  C   UNL A   1      38.937  31.788  33.501  1.00  0.00     0.060 A 
BRANCH  83  84
ATOM     84  S   UNL A   1      37.594  32.557  34.449  1.00  0.00     0.124 S 
ATOM     85  O   UNL A   1      38.055  33.936  34.574  1.00  0.00    -0.237 OA
ATOM     86  O   UNL A   1      36.464  32.357  33.540  1.00  0.00    -0.237 OA
ATOM     87  O   UNL A   1      37.562  31.808  35.695  1.00  0.00    -0.744 OA
ENDBRANCH  83  84
ENDBRANCH  51  76
BRANCH  63  88
ATOM     88  C   UNL A   1      44.951  24.157  33.620  1.00  0.00     0.058 A 
ATOM     89  C   UNL A   1      46.180  24.314  34.276  1.00  0.00     0.135 A 
ATOM     90  C   UNL A   1      44.181  23.034  34.017  1.00  0.00     0.135 A 
ATOM     91  F   UNL A   1      46.952  25.390  34.067  1.00  0.00    -0.206 F 
ATOM     92  C   UNL A   1      46.646  23.392  35.213  1.00  0.00     0.059 A 
ATOM     93  C   UNL A   1      44.593  22.143  34.999  1.00  0.00     0.059 A 
ATOM     94  F   UNL A   1      42.984  22.767  33.474  1.00  0.00    -0.206 F 
ATOM     95  C   UNL A   1      45.842  22.314  35.573  1.00  0.00     0.060 A 
BRANCH  95  96
ATOM     96  S   UNL A   1      46.395  21.161  36.836  1.00  0.00     0.124 S 
ATOM     97  O   UNL A   1      47.831  21.115  36.575  1.00  0.00    -0.237 OA
ATOM     98  O   UNL A   1      45.998  21.824  38.075  1.00  0.00    -0.237 OA
ATOM     99  O   UNL A   1      45.654  19.943  36.521  1.00  0.00    -0.744 OA
ENDBRANCH  95  96
ENDBRANCH  63  88
ENDBRANCH  37  38
ENDBRANCH  30  32
ENDBRANCH  29  30
ENDBRANCH  28  29
ENDBRANCH   1  28
TORSDOF 18
ENDMDL
