MODEL 1
REMARK VINA RESULT:     -10.0      0.000      0.000
REMARK SMILES C[C@H](Cc1cccs1)N(C)C(=O)N1CC[C@@H](CC(=O)OCCOC(=O)c2ccc(-c3c4nc(c(-c5c(F)cc(S(=O)(=O)[O-])cc5F)c5ccc([nH]5)c(-c5c(F)cc(S(=O)(=O)[O-])cc5F)c5nc(c(-c6c(F)cc(S(=O)(=O)[O-])cc6F)c6ccc3[nH]6)C=C5)C=C4)cc2)C1
REMARK SMILES IDX 20 1 18 2 19 3 17 4 16 5 13 6 14 7 92 8 15 9 11 10 12 11
REMARK SMILES IDX 9 12 10 13 2 14 1 15 3 16 4 17 5 18 8 19 6 20 7 21 21 22
REMARK SMILES IDX 22 23 23 24 24 25 25 26 26 27 27 28 91 29 28 30 90 31 29 32
REMARK SMILES IDX 30 33 31 34 84 35 32 36 89 37 83 38 85 39 33 40 88 41 82 42
REMARK SMILES IDX 81 43 34 45 68 46 47 47 67 48 48 49 51 50 66 51 86 52 49 53
REMARK SMILES IDX 50 54 65 56 87 57 52 58 35 59 36 60 45 61 37 62 38 63 44 64
REMARK SMILES IDX 46 65 39 66 40 67 41 68 42 69 43 70 69 71 70 72 79 73 71 74
REMARK SMILES IDX 72 75 78 76 80 77 73 78 74 79 75 80 76 81 77 82 53 83 54 84
REMARK SMILES IDX 63 85 55 86 56 87 62 88 64 89 57 90 58 91 59 92 60 93 61 94
REMARK H PARENT 85 44 51 55
REMARK Flexibility Score: inf
ROOT
ATOM      1  O   UNL A   1      33.378  28.530  24.833  1.00  0.00    -0.462 OA
ENDROOT
BRANCH   1   2
ATOM      2  C   UNL A   1      33.339  28.630  23.488  1.00  0.00     0.306 C 
ATOM      3  O   UNL A   1      34.312  28.852  22.776  1.00  0.00    -0.252 OA
BRANCH   2   4
ATOM      4  C   UNL A   1      31.941  28.591  22.925  1.00  0.00     0.128 C 
BRANCH   4   5
ATOM      5  C   UNL A   1      31.218  27.278  22.565  1.00  0.00     0.021 C 
ATOM      6  N   UNL A   1      31.092  25.397  24.022  1.00  0.00    -0.324 N 
ATOM      7  C   UNL A   1      30.224  26.415  24.559  1.00  0.00     0.122 C 
ATOM      8  C   UNL A   1      31.855  25.919  22.899  1.00  0.00     0.125 C 
ATOM      9  C   UNL A   1      29.869  27.210  23.317  1.00  0.00     0.027 C 
BRANCH   6  10
ATOM     10  C   UNL A   1      31.564  24.338  24.760  1.00  0.00     0.320 C 
ATOM     11  O   UNL A   1      30.792  23.555  25.305  1.00  0.00    -0.248 OA
BRANCH  10  12
ATOM     12  N   UNL A   1      32.955  24.301  24.899  1.00  0.00    -0.325 N 
ATOM     13  C   UNL A   1      33.637  25.115  25.901  1.00  0.00     0.149 C 
BRANCH  12  14
ATOM     14  C   UNL A   1      33.757  23.215  24.299  1.00  0.00     0.088 C 
ATOM     15  C   UNL A   1      33.722  21.861  25.014  1.00  0.00     0.031 C 
BRANCH  14  16
ATOM     16  C   UNL A   1      35.187  23.646  23.884  1.00  0.00     0.071 C 
BRANCH  16  17
ATOM     17  C   UNL A   1      36.356  22.957  24.539  1.00  0.00     0.007 A 
ATOM     18  C   UNL A   1      36.965  21.750  24.254  1.00  0.00     0.015 A 
ATOM     19  S   UNL A   1      37.177  23.762  25.822  1.00  0.00    -0.149 S 
ATOM     20  C   UNL A   1      38.069  21.472  25.110  1.00  0.00     0.012 A 
ATOM     21  C   UNL A   1      38.301  22.491  26.003  1.00  0.00     0.065 A 
ENDBRANCH  16  17
ENDBRANCH  14  16
ENDBRANCH  12  14
ENDBRANCH  10  12
ENDBRANCH   6  10
ENDBRANCH   4   5
ENDBRANCH   2   4
ENDBRANCH   1   2
BRANCH   1  22
ATOM     22  C   UNL A   1      32.383  29.288  25.548  1.00  0.00     0.274 C 
BRANCH  22  23
ATOM     23  C   UNL A   1      32.337  28.938  27.039  1.00  0.00     0.275 C 
BRANCH  23  24
ATOM     24  O   UNL A   1      33.656  28.886  27.617  1.00  0.00    -0.458 OA
BRANCH  24  25
ATOM     25  C   UNL A   1      34.205  30.077  27.944  1.00  0.00     0.338 C 
ATOM     26  O   UNL A   1      33.644  31.154  28.042  1.00  0.00    -0.246 OA
BRANCH  25  27
ATOM     27  C   UNL A   1      35.628  29.912  28.259  1.00  0.00     0.060 A 
ATOM     28  C   UNL A   1      36.563  30.063  27.232  1.00  0.00     0.016 A 
ATOM     29  C   UNL A   1      36.023  29.482  29.527  1.00  0.00     0.016 A 
ATOM     30  C   UNL A   1      37.907  29.788  27.470  1.00  0.00     0.010 A 
ATOM     31  C   UNL A   1      37.375  29.218  29.766  1.00  0.00     0.010 A 
ATOM     32  C   UNL A   1      38.322  29.361  28.737  1.00  0.00    -0.014 A 
BRANCH  32  33
ATOM     33  C   UNL A   1      39.749  29.055  28.991  1.00  0.00     0.031 A 
ATOM     34  C   UNL A   1      40.673  30.128  29.485  1.00  0.00     0.074 A 
ATOM     35  C   UNL A   1      40.212  27.814  28.751  1.00  0.00     0.049 A 
ATOM     36  N   UNL A   1      41.972  30.096  29.631  1.00  0.00    -0.248 NA
ATOM     37  C   UNL A   1      40.054  31.408  29.860  1.00  0.00     0.031 C 
ATOM     38  C   UNL A   1      39.398  26.685  28.298  1.00  0.00     0.029 A 
ATOM     39  N   UNL A   1      41.482  27.303  28.833  1.00  0.00    -0.354 N 
ATOM     40  C   UNL A   1      42.333  31.356  30.089  1.00  0.00     0.074 A 
ATOM     41  C   UNL A   1      41.114  32.132  30.191  1.00  0.00     0.031 C 
ATOM     42  C   UNL A   1      40.193  25.618  28.121  1.00  0.00     0.029 A 
ATOM     43  C   UNL A   1      41.574  26.002  28.400  1.00  0.00     0.049 A 
ATOM     44  H   UNL A   1      42.251  27.816  29.170  1.00  0.00     0.167 HD
ATOM     45  C   UNL A   1      43.570  31.822  30.390  1.00  0.00     0.037 A 
ATOM     46  C   UNL A   1      42.654  25.221  28.200  1.00  0.00     0.037 A 
ATOM     47  C   UNL A   1      44.772  31.035  30.296  1.00  0.00     0.049 A 
ATOM     48  C   UNL A   1      44.020  25.771  28.488  1.00  0.00     0.074 A 
ATOM     49  C   UNL A   1      46.068  31.397  30.621  1.00  0.00     0.029 A 
ATOM     50  N   UNL A   1      44.827  29.727  29.833  1.00  0.00    -0.354 N 
ATOM     51  N   UNL A   1      44.349  26.961  28.932  1.00  0.00    -0.248 NA
ATOM     52  C   UNL A   1      45.162  24.882  28.239  1.00  0.00     0.031 C 
ATOM     53  C   UNL A   1      46.910  30.321  30.317  1.00  0.00     0.029 A 
ATOM     54  C   UNL A   1      46.136  29.278  29.833  1.00  0.00     0.049 A 
ATOM     55  H   UNL A   1      44.048  29.198  29.545  1.00  0.00     0.167 HD
ATOM     56  C   UNL A   1      45.736  26.969  29.008  1.00  0.00     0.074 A 
ATOM     57  C   UNL A   1      46.184  25.656  28.584  1.00  0.00     0.031 C 
ATOM     58  C   UNL A   1      46.563  27.974  29.389  1.00  0.00     0.037 A 
BRANCH  45  59
ATOM     59  C   UNL A   1      43.680  33.258  30.812  1.00  0.00     0.058 A 
ATOM     60  C   UNL A   1      43.883  34.291  29.883  1.00  0.00     0.135 A 
ATOM     61  C   UNL A   1      43.585  33.606  32.169  1.00  0.00     0.135 A 
ATOM     62  F   UNL A   1      43.995  34.011  28.575  1.00  0.00    -0.206 F 
ATOM     63  C   UNL A   1      44.027  35.614  30.289  1.00  0.00     0.059 A 
ATOM     64  C   UNL A   1      43.706  34.925  32.596  1.00  0.00     0.059 A 
ATOM     65  F   UNL A   1      43.391  32.656  33.098  1.00  0.00    -0.206 F 
ATOM     66  C   UNL A   1      43.948  35.920  31.649  1.00  0.00     0.060 A 
BRANCH  66  67
ATOM     67  S   UNL A   1      44.171  37.635  32.170  1.00  0.00     0.124 S 
ATOM     68  O   UNL A   1      43.761  38.357  30.970  1.00  0.00    -0.237 OA
ATOM     69  O   UNL A   1      43.266  37.740  33.311  1.00  0.00    -0.237 OA
ATOM     70  O   UNL A   1      45.592  37.709  32.494  1.00  0.00    -0.744 OA
ENDBRANCH  66  67
ENDBRANCH  45  59
BRANCH  46  71
ATOM     71  C   UNL A   1      42.464  23.857  27.646  1.00  0.00     0.058 A 
ATOM     72  C   UNL A   1      42.470  23.628  26.264  1.00  0.00     0.135 A 
ATOM     73  C   UNL A   1      42.351  22.746  28.498  1.00  0.00     0.135 A 
ATOM     74  F   UNL A   1      42.565  24.660  25.413  1.00  0.00    -0.206 F 
ATOM     75  C   UNL A   1      42.387  22.340  25.742  1.00  0.00     0.059 A 
ATOM     76  C   UNL A   1      42.287  21.449  28.001  1.00  0.00     0.059 A 
ATOM     77  F   UNL A   1      42.353  22.916  29.829  1.00  0.00    -0.206 F 
ATOM     78  C   UNL A   1      42.307  21.256  26.620  1.00  0.00     0.060 A 
BRANCH  78  79
ATOM     79  S   UNL A   1      42.310  19.582  25.940  1.00  0.00     0.124 S 
ATOM     80  O   UNL A   1      40.919  19.430  25.530  1.00  0.00    -0.237 OA
ATOM     81  O   UNL A   1      43.287  19.687  24.859  1.00  0.00    -0.237 OA
ATOM     82  O   UNL A   1      42.730  18.763  27.073  1.00  0.00    -0.744 OA
ENDBRANCH  78  79
ENDBRANCH  46  71
BRANCH  58  83
ATOM     83  C   UNL A   1      48.038  27.699  29.353  1.00  0.00     0.058 A 
ATOM     84  C   UNL A   1      48.672  27.003  30.393  1.00  0.00     0.135 A 
ATOM     85  C   UNL A   1      48.811  28.075  28.244  1.00  0.00     0.135 A 
ATOM     86  F   UNL A   1      47.976  26.631  31.479  1.00  0.00    -0.206 F 
ATOM     87  C   UNL A   1      50.026  26.694  30.338  1.00  0.00     0.059 A 
ATOM     88  C   UNL A   1      50.163  27.762  28.159  1.00  0.00     0.059 A 
ATOM     89  F   UNL A   1      48.248  28.739  27.222  1.00  0.00    -0.206 F 
ATOM     90  C   UNL A   1      50.764  27.074  29.215  1.00  0.00     0.060 A 
BRANCH  90  91
ATOM     91  S   UNL A   1      52.510  26.622  29.127  1.00  0.00     0.124 S 
ATOM     92  O   UNL A   1      53.148  27.930  29.025  1.00  0.00    -0.237 OA
ATOM     93  O   UNL A   1      52.715  25.914  30.388  1.00  0.00    -0.237 OA
ATOM     94  O   UNL A   1      52.585  25.791  27.931  1.00  0.00    -0.744 OA
ENDBRANCH  90  91
ENDBRANCH  58  83
ENDBRANCH  32  33
ENDBRANCH  25  27
ENDBRANCH  24  25
ENDBRANCH  23  24
ENDBRANCH  22  23
ENDBRANCH   1  22
TORSDOF 20
ENDMDL
MODEL 2
REMARK VINA RESULT:      -9.8      2.119      3.092
REMARK SMILES C[C@H](Cc1cccs1)N(C)C(=O)N1CC[C@@H](CC(=O)OCCOC(=O)c2ccc(-c3c4nc(c(-c5c(F)cc(S(=O)(=O)[O-])cc5F)c5ccc([nH]5)c(-c5c(F)cc(S(=O)(=O)[O-])cc5F)c5nc(c(-c6c(F)cc(S(=O)(=O)[O-])cc6F)c6ccc3[nH]6)C=C5)C=C4)cc2)C1
REMARK SMILES IDX 20 1 18 2 19 3 17 4 16 5 13 6 14 7 92 8 15 9 11 10 12 11
REMARK SMILES IDX 9 12 10 13 2 14 1 15 3 16 4 17 5 18 8 19 6 20 7 21 21 22
REMARK SMILES IDX 22 23 23 24 24 25 25 26 26 27 27 28 91 29 28 30 90 31 29 32
REMARK SMILES IDX 30 33 31 34 84 35 32 36 89 37 83 38 85 39 33 40 88 41 82 42
REMARK SMILES IDX 81 43 34 45 68 46 47 47 67 48 48 49 51 50 66 51 86 52 49 53
REMARK SMILES IDX 50 54 65 56 87 57 52 58 35 59 36 60 45 61 37 62 38 63 44 64
REMARK SMILES IDX 46 65 39 66 40 67 41 68 42 69 43 70 69 71 70 72 79 73 71 74
REMARK SMILES IDX 72 75 78 76 80 77 73 78 74 79 75 80 76 81 77 82 53 83 54 84
REMARK SMILES IDX 63 85 55 86 56 87 62 88 64 89 57 90 58 91 59 92 60 93 61 94
REMARK H PARENT 85 44 51 55
REMARK Flexibility Score: inf
ROOT
ATOM      1  O   UNL A   1      33.084  30.284  25.808  1.00  0.00    -0.462 OA
ENDROOT
BRANCH   1   2
ATOM      2  C   UNL A   1      31.779  30.614  25.702  1.00  0.00     0.306 C 
ATOM      3  O   UNL A   1      31.269  31.612  26.199  1.00  0.00    -0.252 OA
BRANCH   2   4
ATOM      4  C   UNL A   1      30.945  29.551  25.032  1.00  0.00     0.128 C 
BRANCH   4   5
ATOM      5  C   UNL A   1      31.558  28.315  24.344  1.00  0.00     0.021 C 
ATOM      6  N   UNL A   1      30.857  26.079  24.774  1.00  0.00    -0.324 N 
ATOM      7  C   UNL A   1      29.814  26.717  24.010  1.00  0.00     0.122 C 
ATOM      8  C   UNL A   1      31.874  27.047  25.153  1.00  0.00     0.125 C 
ATOM      9  C   UNL A   1      30.584  27.791  23.264  1.00  0.00     0.027 C 
BRANCH   6  10
ATOM     10  C   UNL A   1      30.664  24.937  25.513  1.00  0.00     0.320 C 
ATOM     11  O   UNL A   1      29.975  24.953  26.528  1.00  0.00    -0.248 OA
BRANCH  10  12
ATOM     12  N   UNL A   1      31.381  23.824  25.062  1.00  0.00    -0.325 N 
ATOM     13  C   UNL A   1      31.235  23.334  23.695  1.00  0.00     0.149 C 
BRANCH  12  14
ATOM     14  C   UNL A   1      32.547  23.310  25.809  1.00  0.00     0.088 C 
ATOM     15  C   UNL A   1      32.305  22.910  27.267  1.00  0.00     0.031 C 
BRANCH  14  16
ATOM     16  C   UNL A   1      33.836  24.149  25.616  1.00  0.00     0.071 C 
BRANCH  16  17
ATOM     17  C   UNL A   1      35.001  23.511  24.905  1.00  0.00     0.007 A 
ATOM     18  C   UNL A   1      35.351  23.511  23.569  1.00  0.00     0.015 A 
ATOM     19  S   UNL A   1      36.185  22.678  25.841  1.00  0.00    -0.149 S 
ATOM     20  C   UNL A   1      36.557  22.797  23.313  1.00  0.00     0.012 A 
ATOM     21  C   UNL A   1      37.120  22.302  24.465  1.00  0.00     0.065 A 
ENDBRANCH  16  17
ENDBRANCH  14  16
ENDBRANCH  12  14
ENDBRANCH  10  12
ENDBRANCH   6  10
ENDBRANCH   4   5
ENDBRANCH   2   4
ENDBRANCH   1   2
BRANCH   1  22
ATOM     22  C   UNL A   1      33.502  29.777  27.089  1.00  0.00     0.274 C 
BRANCH  22  23
ATOM     23  C   UNL A   1      34.517  30.692  27.780  1.00  0.00     0.275 C 
BRANCH  23  24
ATOM     24  O   UNL A   1      35.522  29.938  28.488  1.00  0.00    -0.458 OA
BRANCH  24  25
ATOM     25  C   UNL A   1      36.262  30.633  29.380  1.00  0.00     0.338 C 
ATOM     26  O   UNL A   1      35.866  31.389  30.249  1.00  0.00    -0.246 OA
BRANCH  25  27
ATOM     27  C   UNL A   1      37.684  30.303  29.228  1.00  0.00     0.060 A 
ATOM     28  C   UNL A   1      38.159  29.961  27.960  1.00  0.00     0.016 A 
ATOM     29  C   UNL A   1      38.508  30.205  30.350  1.00  0.00     0.016 A 
ATOM     30  C   UNL A   1      39.471  29.521  27.804  1.00  0.00     0.010 A 
ATOM     31  C   UNL A   1      39.827  29.773  30.190  1.00  0.00     0.010 A 
ATOM     32  C   UNL A   1      40.313  29.421  28.919  1.00  0.00    -0.014 A 
BRANCH  32  33
ATOM     33  C   UNL A   1      41.706  28.941  28.760  1.00  0.00     0.031 A 
ATOM     34  C   UNL A   1      42.851  29.905  28.856  1.00  0.00     0.074 A 
ATOM     35  C   UNL A   1      41.931  27.639  28.506  1.00  0.00     0.049 A 
ATOM     36  N   UNL A   1      44.119  29.707  28.609  1.00  0.00    -0.248 NA
ATOM     37  C   UNL A   1      42.524  31.274  29.282  1.00  0.00     0.031 C 
ATOM     38  C   UNL A   1      40.897  26.607  28.421  1.00  0.00     0.029 A 
ATOM     39  N   UNL A   1      43.099  26.967  28.250  1.00  0.00    -0.354 N 
ATOM     40  C   UNL A   1      44.742  30.930  28.822  1.00  0.00     0.074 A 
ATOM     41  C   UNL A   1      43.708  31.866  29.214  1.00  0.00     0.031 C 
ATOM     42  C   UNL A   1      41.474  25.435  28.111  1.00  0.00     0.029 A 
ATOM     43  C   UNL A   1      42.908  25.645  27.928  1.00  0.00     0.049 A 
ATOM     44  H   UNL A   1      43.987  27.390  28.293  1.00  0.00     0.167 HD
ATOM     45  C   UNL A   1      46.055  31.241  28.696  1.00  0.00     0.037 A 
ATOM     46  C   UNL A   1      43.779  24.718  27.485  1.00  0.00     0.037 A 
ATOM     47  C   UNL A   1      47.074  30.297  28.318  1.00  0.00     0.049 A 
ATOM     48  C   UNL A   1      45.220  25.094  27.301  1.00  0.00     0.074 A 
ATOM     49  C   UNL A   1      48.439  30.499  28.206  1.00  0.00     0.029 A 
ATOM     50  N   UNL A   1      46.837  28.972  27.980  1.00  0.00    -0.354 N 
ATOM     51  N   UNL A   1      45.800  26.251  27.516  1.00  0.00    -0.248 NA
ATOM     52  C   UNL A   1      46.123  24.049  26.802  1.00  0.00     0.031 C 
ATOM     53  C   UNL A   1      49.021  29.306  27.762  1.00  0.00     0.029 A 
ATOM     54  C   UNL A   1      48.024  28.352  27.629  1.00  0.00     0.049 A 
ATOM     55  H   UNL A   1      45.954  28.537  27.987  1.00  0.00     0.167 HD
ATOM     56  C   UNL A   1      47.135  26.078  27.173  1.00  0.00     0.074 A 
ATOM     57  C   UNL A   1      47.281  24.696  26.755  1.00  0.00     0.031 C 
ATOM     58  C   UNL A   1      48.146  26.981  27.197  1.00  0.00     0.037 A 
BRANCH  45  59
ATOM     59  C   UNL A   1      46.449  32.670  28.935  1.00  0.00     0.058 A 
ATOM     60  C   UNL A   1      46.815  33.136  30.207  1.00  0.00     0.135 A 
ATOM     61  C   UNL A   1      46.454  33.589  27.873  1.00  0.00     0.135 A 
ATOM     62  F   UNL A   1      46.811  32.301  31.259  1.00  0.00    -0.206 F 
ATOM     63  C   UNL A   1      47.136  34.472  30.427  1.00  0.00     0.059 A 
ATOM     64  C   UNL A   1      46.792  34.926  28.065  1.00  0.00     0.059 A 
ATOM     65  F   UNL A   1      46.113  33.195  26.637  1.00  0.00    -0.206 F 
ATOM     66  C   UNL A   1      47.111  35.362  29.351  1.00  0.00     0.060 A 
BRANCH  66  67
ATOM     67  S   UNL A   1      47.496  37.100  29.651  1.00  0.00     0.124 S 
ATOM     68  O   UNL A   1      48.204  37.024  30.925  1.00  0.00    -0.237 OA
ATOM     69  O   UNL A   1      48.315  37.449  28.494  1.00  0.00    -0.237 OA
ATOM     70  O   UNL A   1      46.183  37.735  29.698  1.00  0.00    -0.744 OA
ENDBRANCH  66  67
ENDBRANCH  45  59
BRANCH  46  71
ATOM     71  C   UNL A   1      43.277  23.364  27.139  1.00  0.00     0.058 A 
ATOM     72  C   UNL A   1      43.100  22.975  25.805  1.00  0.00     0.135 A 
ATOM     73  C   UNL A   1      43.041  22.409  28.141  1.00  0.00     0.135 A 
ATOM     74  F   UNL A   1      43.304  23.858  24.816  1.00  0.00    -0.206 F 
ATOM     75  C   UNL A   1      42.720  21.679  25.472  1.00  0.00     0.059 A 
ATOM     76  C   UNL A   1      42.680  21.102  27.832  1.00  0.00     0.059 A 
ATOM     77  F   UNL A   1      43.209  22.733  29.433  1.00  0.00    -0.206 F 
ATOM     78  C   UNL A   1      42.524  20.745  26.493  1.00  0.00     0.060 A 
BRANCH  78  79
ATOM     79  S   UNL A   1      42.138  19.036  26.051  1.00  0.00     0.124 S 
ATOM     80  O   UNL A   1      42.536  18.324  27.260  1.00  0.00    -0.237 OA
ATOM     81  O   UNL A   1      40.703  19.099  25.790  1.00  0.00    -0.237 OA
ATOM     82  O   UNL A   1      42.969  18.801  24.874  1.00  0.00    -0.744 OA
ENDBRANCH  78  79
ENDBRANCH  46  71
BRANCH  58  83
ATOM     83  C   UNL A   1      49.497  26.510  26.746  1.00  0.00     0.058 A 
ATOM     84  C   UNL A   1      49.919  26.679  25.419  1.00  0.00     0.135 A 
ATOM     85  C   UNL A   1      50.401  25.945  27.659  1.00  0.00     0.135 A 
ATOM     86  F   UNL A   1      49.086  27.206  24.507  1.00  0.00    -0.206 F 
ATOM     87  C   UNL A   1      51.192  26.299  25.009  1.00  0.00     0.059 A 
ATOM     88  C   UNL A   1      51.685  25.573  27.275  1.00  0.00     0.059 A 
ATOM     89  F   UNL A   1      50.045  25.767  28.940  1.00  0.00    -0.206 F 
ATOM     90  C   UNL A   1      52.070  25.749  25.945  1.00  0.00     0.060 A 
BRANCH  90  91
ATOM     91  S   UNL A   1      53.739  25.306  25.417  1.00  0.00     0.124 S 
ATOM     92  O   UNL A   1      53.498  24.063  24.692  1.00  0.00    -0.237 OA
ATOM     93  O   UNL A   1      54.125  26.452  24.598  1.00  0.00    -0.237 OA
ATOM     94  O   UNL A   1      54.467  25.170  26.674  1.00  0.00    -0.744 OA
ENDBRANCH  90  91
ENDBRANCH  58  83
ENDBRANCH  32  33
ENDBRANCH  25  27
ENDBRANCH  24  25
ENDBRANCH  23  24
ENDBRANCH  22  23
ENDBRANCH   1  22
TORSDOF 20
ENDMDL
MODEL 3
REMARK VINA RESULT:      -9.7      2.871      3.513
REMARK SMILES C[C@H](Cc1cccs1)N(C)C(=O)N1CC[C@@H](CC(=O)OCCOC(=O)c2ccc(-c3c4nc(c(-c5c(F)cc(S(=O)(=O)[O-])cc5F)c5ccc([nH]5)c(-c5c(F)cc(S(=O)(=O)[O-])cc5F)c5nc(c(-c6c(F)cc(S(=O)(=O)[O-])cc6F)c6ccc3[nH]6)C=C5)C=C4)cc2)C1
REMARK SMILES IDX 20 1 18 2 19 3 17 4 16 5 13 6 14 7 92 8 15 9 11 10 12 11
REMARK SMILES IDX 9 12 10 13 2 14 1 15 3 16 4 17 5 18 8 19 6 20 7 21 21 22
REMARK SMILES IDX 22 23 23 24 24 25 25 26 26 27 27 28 91 29 28 30 90 31 29 32
REMARK SMILES IDX 30 33 31 34 84 35 32 36 89 37 83 38 85 39 33 40 88 41 82 42
REMARK SMILES IDX 81 43 34 45 68 46 47 47 67 48 48 49 51 50 66 51 86 52 49 53
REMARK SMILES IDX 50 54 65 56 87 57 52 58 35 59 36 60 45 61 37 62 38 63 44 64
REMARK SMILES IDX 46 65 39 66 40 67 41 68 42 69 43 70 69 71 70 72 79 73 71 74
REMARK SMILES IDX 72 75 78 76 80 77 73 78 74 79 75 80 76 81 77 82 53 83 54 84
REMARK SMILES IDX 63 85 55 86 56 87 62 88 64 89 57 90 58 91 59 92 60 93 61 94
REMARK H PARENT 85 44 51 55
REMARK Flexibility Score: inf
ROOT
ATOM      1  O   UNL A   1      33.460  27.434  23.738  1.00  0.00    -0.462 OA
ENDROOT
BRANCH   1   2
ATOM      2  C   UNL A   1      33.007  26.902  22.583  1.00  0.00     0.306 C 
ATOM      3  O   UNL A   1      33.720  26.538  21.655  1.00  0.00    -0.252 OA
BRANCH   2   4
ATOM      4  C   UNL A   1      31.504  26.926  22.462  1.00  0.00     0.128 C 
BRANCH   4   5
ATOM      5  C   UNL A   1      30.594  25.864  23.110  1.00  0.00     0.021 C 
ATOM      6  N   UNL A   1      30.992  24.913  25.258  1.00  0.00    -0.324 N 
ATOM      7  C   UNL A   1      30.547  26.269  25.463  1.00  0.00     0.122 C 
ATOM      8  C   UNL A   1      31.201  24.656  23.842  1.00  0.00     0.125 C 
ATOM      9  C   UNL A   1      29.732  26.525  24.210  1.00  0.00     0.027 C 
BRANCH   6  10
ATOM     10  C   UNL A   1      31.660  24.184  26.211  1.00  0.00     0.320 C 
ATOM     11  O   UNL A   1      31.134  23.922  27.289  1.00  0.00    -0.248 OA
BRANCH  10  12
ATOM     12  N   UNL A   1      32.981  23.865  25.879  1.00  0.00    -0.325 N 
ATOM     13  C   UNL A   1      34.034  24.875  25.912  1.00  0.00     0.149 C 
BRANCH  12  14
ATOM     14  C   UNL A   1      33.437  22.461  25.815  1.00  0.00     0.088 C 
ATOM     15  C   UNL A   1      33.955  21.849  27.120  1.00  0.00     0.031 C 
BRANCH  14  16
ATOM     16  C   UNL A   1      34.344  22.151  24.597  1.00  0.00     0.071 C 
BRANCH  16  17
ATOM     17  C   UNL A   1      35.724  21.606  24.857  1.00  0.00     0.007 A 
ATOM     18  C   UNL A   1      36.204  20.311  24.820  1.00  0.00     0.015 A 
ATOM     19  S   UNL A   1      37.000  22.713  25.200  1.00  0.00    -0.149 S 
ATOM     20  C   UNL A   1      37.595  20.227  25.112  1.00  0.00     0.012 A 
ATOM     21  C   UNL A   1      38.154  21.464  25.328  1.00  0.00     0.065 A 
ENDBRANCH  16  17
ENDBRANCH  14  16
ENDBRANCH  12  14
ENDBRANCH  10  12
ENDBRANCH   6  10
ENDBRANCH   4   5
ENDBRANCH   2   4
ENDBRANCH   1   2
BRANCH   1  22
ATOM     22  C   UNL A   1      33.027  28.778  24.022  1.00  0.00     0.274 C 
BRANCH  22  23
ATOM     23  C   UNL A   1      32.952  29.065  25.525  1.00  0.00     0.275 C 
BRANCH  23  24
ATOM     24  O   UNL A   1      34.262  29.233  26.103  1.00  0.00    -0.458 OA
BRANCH  24  25
ATOM     25  C   UNL A   1      34.357  30.146  27.096  1.00  0.00     0.338 C 
ATOM     26  O   UNL A   1      33.539  30.994  27.409  1.00  0.00    -0.246 OA
BRANCH  25  27
ATOM     27  C   UNL A   1      35.599  29.949  27.851  1.00  0.00     0.060 A 
ATOM     28  C   UNL A   1      36.817  30.074  27.179  1.00  0.00     0.016 A 
ATOM     29  C   UNL A   1      35.555  29.516  29.177  1.00  0.00     0.016 A 
ATOM     30  C   UNL A   1      38.007  29.769  27.835  1.00  0.00     0.010 A 
ATOM     31  C   UNL A   1      36.752  29.222  29.837  1.00  0.00     0.010 A 
ATOM     32  C   UNL A   1      37.982  29.338  29.167  1.00  0.00    -0.014 A 
BRANCH  32  33
ATOM     33  C   UNL A   1      39.245  29.000  29.865  1.00  0.00     0.031 A 
ATOM     34  C   UNL A   1      39.688  29.805  31.051  1.00  0.00     0.074 A 
ATOM     35  C   UNL A   1      39.999  27.983  29.412  1.00  0.00     0.049 A 
ATOM     36  N   UNL A   1      40.820  29.757  31.704  1.00  0.00    -0.248 NA
ATOM     37  C   UNL A   1      38.735  30.799  31.566  1.00  0.00     0.031 C 
ATOM     38  C   UNL A   1      39.651  27.114  28.286  1.00  0.00     0.029 A 
ATOM     39  N   UNL A   1      41.223  27.523  29.827  1.00  0.00    -0.354 N 
ATOM     40  C   UNL A   1      40.729  30.729  32.691  1.00  0.00     0.074 A 
ATOM     41  C   UNL A   1      39.431  31.356  32.547  1.00  0.00     0.031 C 
ATOM     42  C   UNL A   1      40.649  26.238  28.086  1.00  0.00     0.029 A 
ATOM     43  C   UNL A   1      41.724  26.518  29.034  1.00  0.00     0.049 A 
ATOM     44  H   UNL A   1      41.695  27.877  30.614  1.00  0.00     0.167 HD
ATOM     45  C   UNL A   1      41.648  31.069  33.627  1.00  0.00     0.037 A 
ATOM     46  C   UNL A   1      42.933  25.923  29.038  1.00  0.00     0.037 A 
ATOM     47  C   UNL A   1      42.930  30.428  33.768  1.00  0.00     0.049 A 
ATOM     48  C   UNL A   1      43.957  26.348  30.048  1.00  0.00     0.074 A 
ATOM     49  C   UNL A   1      43.915  30.666  34.711  1.00  0.00     0.029 A 
ATOM     50  N   UNL A   1      43.410  29.428  32.934  1.00  0.00    -0.354 N 
ATOM     51  N   UNL A   1      43.857  27.261  30.984  1.00  0.00    -0.248 NA
ATOM     52  C   UNL A   1      45.262  25.677  29.997  1.00  0.00     0.031 C 
ATOM     53  C   UNL A   1      45.005  29.837  34.422  1.00  0.00     0.029 A 
ATOM     54  C   UNL A   1      44.687  29.059  33.319  1.00  0.00     0.049 A 
ATOM     55  H   UNL A   1      42.914  29.039  32.177  1.00  0.00     0.167 HD
ATOM     56  C   UNL A   1      45.086  27.282  31.631  1.00  0.00     0.074 A 
ATOM     57  C   UNL A   1      45.909  26.273  30.991  1.00  0.00     0.031 C 
ATOM     58  C   UNL A   1      45.497  28.067  32.657  1.00  0.00     0.037 A 
BRANCH  45  59
ATOM     59  C   UNL A   1      41.308  32.209  34.544  1.00  0.00     0.058 A 
ATOM     60  C   UNL A   1      41.672  33.532  34.249  1.00  0.00     0.135 A 
ATOM     61  C   UNL A   1      40.610  31.971  35.738  1.00  0.00     0.135 A 
ATOM     62  F   UNL A   1      42.354  33.811  33.126  1.00  0.00    -0.206 F 
ATOM     63  C   UNL A   1      41.390  34.575  35.126  1.00  0.00     0.059 A 
ATOM     64  C   UNL A   1      40.299  33.002  36.621  1.00  0.00     0.059 A 
ATOM     65  F   UNL A   1      40.238  30.724  36.067  1.00  0.00    -0.206 F 
ATOM     66  C   UNL A   1      40.713  34.298  36.315  1.00  0.00     0.060 A 
BRANCH  66  67
ATOM     67  S   UNL A   1      40.381  35.652  37.463  1.00  0.00     0.124 S 
ATOM     68  O   UNL A   1      39.365  35.058  38.326  1.00  0.00    -0.237 OA
ATOM     69  O   UNL A   1      41.686  35.870  38.081  1.00  0.00    -0.237 OA
ATOM     70  O   UNL A   1      39.917  36.728  36.593  1.00  0.00    -0.744 OA
ENDBRANCH  66  67
ENDBRANCH  45  59
BRANCH  46  71
ATOM     71  C   UNL A   1      43.235  24.900  28.005  1.00  0.00     0.058 A 
ATOM     72  C   UNL A   1      43.835  25.253  26.789  1.00  0.00     0.135 A 
ATOM     73  C   UNL A   1      42.998  23.538  28.252  1.00  0.00     0.135 A 
ATOM     74  F   UNL A   1      44.070  26.543  26.506  1.00  0.00    -0.206 F 
ATOM     75  C   UNL A   1      44.207  24.288  25.857  1.00  0.00     0.059 A 
ATOM     76  C   UNL A   1      43.378  22.555  27.345  1.00  0.00     0.059 A 
ATOM     77  F   UNL A   1      42.435  23.152  29.408  1.00  0.00    -0.206 F 
ATOM     78  C   UNL A   1      43.984  22.940  26.150  1.00  0.00     0.060 A 
BRANCH  78  79
ATOM     79  S   UNL A   1      44.567  21.687  24.986  1.00  0.00     0.124 S 
ATOM     80  O   UNL A   1      44.423  22.382  23.711  1.00  0.00    -0.237 OA
ATOM     81  O   UNL A   1      45.937  21.458  25.437  1.00  0.00    -0.237 OA
ATOM     82  O   UNL A   1      43.649  20.574  25.207  1.00  0.00    -0.744 OA
ENDBRANCH  78  79
ENDBRANCH  46  71
BRANCH  58  83
ATOM     83  C   UNL A   1      46.904  27.878  33.144  1.00  0.00     0.058 A 
ATOM     84  C   UNL A   1      47.958  28.651  32.636  1.00  0.00     0.135 A 
ATOM     85  C   UNL A   1      47.190  26.964  34.170  1.00  0.00     0.135 A 
ATOM     86  F   UNL A   1      47.734  29.531  31.647  1.00  0.00    -0.206 F 
ATOM     87  C   UNL A   1      49.253  28.522  33.126  1.00  0.00     0.059 A 
ATOM     88  C   UNL A   1      48.475  26.830  34.687  1.00  0.00     0.059 A 
ATOM     89  F   UNL A   1      46.214  26.205  34.692  1.00  0.00    -0.206 F 
ATOM     90  C   UNL A   1      49.502  27.610  34.154  1.00  0.00     0.060 A 
BRANCH  90  91
ATOM     91  S   UNL A   1      51.176  27.487  34.820  1.00  0.00     0.124 S 
ATOM     92  O   UNL A   1      51.502  26.093  34.538  1.00  0.00    -0.237 OA
ATOM     93  O   UNL A   1      51.902  28.479  34.033  1.00  0.00    -0.237 OA
ATOM     94  O   UNL A   1      51.004  27.819  36.230  1.00  0.00    -0.744 OA
ENDBRANCH  90  91
ENDBRANCH  58  83
ENDBRANCH  32  33
ENDBRANCH  25  27
ENDBRANCH  24  25
ENDBRANCH  23  24
ENDBRANCH  22  23
ENDBRANCH   1  22
TORSDOF 20
ENDMDL
