MODEL 1
REMARK VINA RESULT:     -13.4      0.000      0.000
REMARK SMILES Cc1cccc(C(=O)OCCOC(=O)c2ccc(-c3c4nc(c(-c5c(F)cc(S(=O)(=O)[O-])cc5F)c5ccc([nH]5)c(-c5c(F)cc(S(=O)(=O)[O-])cc5F)c5nc(c(-c6c(F)cc(S(=O)(=O)[O-])cc6F)c6ccc3[nH]6)C=C5)C=C4)cc2)c1OC[C@@H]1C[C@H]2CC[C@@H]1C2
REMARK SMILES IDX 10 1 9 2 7 3 8 4 6 5 1 6 2 7 3 8 81 9 4 10 5 11 82 12 83 13
REMARK SMILES IDX 84 14 85 15 89 16 86 17 88 18 90 19 87 20 11 21 12 22 13 23
REMARK SMILES IDX 14 24 15 25 16 26 80 27 17 28 79 29 18 30 19 31 20 32 73 33
REMARK SMILES IDX 21 34 78 35 72 36 74 37 22 38 77 39 71 40 70 41 23 43 57 44
REMARK SMILES IDX 36 45 56 46 37 47 40 48 55 49 75 50 38 51 39 52 54 54 76 55
REMARK SMILES IDX 41 56 24 57 25 58 34 59 26 60 27 61 33 62 35 63 28 64 29 65
REMARK SMILES IDX 30 66 31 67 32 68 58 69 59 70 68 71 60 72 61 73 67 74 69 75
REMARK SMILES IDX 62 76 63 77 64 78 65 79 66 80 42 81 43 82 52 83 44 84 45 85
REMARK SMILES IDX 51 86 53 87 46 88 47 89 48 90 49 91 50 92
REMARK H PARENT 74 42 40 53
REMARK Flexibility Score: inf
ROOT
ATOM      1  C   UNL A   1      32.919  29.591  27.133  1.00  0.00     0.275 C 
ENDROOT
BRANCH   1   2
ATOM      2  O   UNL A   1      33.205  28.769  25.987  1.00  0.00    -0.458 OA
BRANCH   2   3
ATOM      3  C   UNL A   1      32.408  27.661  25.923  1.00  0.00     0.342 C 
ATOM      4  O   UNL A   1      31.412  27.470  26.580  1.00  0.00    -0.246 OA
BRANCH   3   5
ATOM      5  C   UNL A   1      32.945  26.666  24.970  1.00  0.00     0.102 A 
ATOM      6  C   UNL A   1      32.900  25.772  21.259  1.00  0.00     0.048 C 
ATOM      7  C   UNL A   1      33.219  25.779  22.728  1.00  0.00    -0.008 A 
ATOM      8  C   UNL A   1      33.942  24.694  23.248  1.00  0.00     0.007 A 
ATOM      9  C   UNL A   1      32.787  26.813  23.588  1.00  0.00     0.136 A 
ATOM     10  C   UNL A   1      34.174  24.596  24.612  1.00  0.00     0.001 A 
ATOM     11  C   UNL A   1      33.654  25.566  25.464  1.00  0.00     0.019 A 
BRANCH   9  12
ATOM     12  O   UNL A   1      32.132  27.853  22.994  1.00  0.00    -0.492 OA
BRANCH  12  13
ATOM     13  C   UNL A   1      30.714  27.751  22.798  1.00  0.00     0.233 C 
BRANCH  13  14
ATOM     14  C   UNL A   1      29.780  28.819  23.406  1.00  0.00     0.030 C 
ATOM     15  C   UNL A   1      28.294  28.461  23.125  1.00  0.00     0.011 C 
ATOM     16  C   UNL A   1      29.868  30.241  22.803  1.00  0.00    -0.004 C 
ATOM     17  C   UNL A   1      27.735  29.732  22.457  1.00  0.00    -0.010 C 
ATOM     18  C   UNL A   1      29.123  31.217  23.736  1.00  0.00     0.004 C 
ATOM     19  C   UNL A   1      28.921  30.176  21.608  1.00  0.00     0.007 C 
ATOM     20  C   UNL A   1      27.650  30.856  23.502  1.00  0.00     0.004 C 
ENDBRANCH  13  14
ENDBRANCH  12  13
ENDBRANCH   9  12
ENDBRANCH   3   5
ENDBRANCH   2   3
ENDBRANCH   1   2
BRANCH   1  21
ATOM     21  C   UNL A   1      34.039  30.605  27.439  1.00  0.00     0.275 C 
BRANCH  21  22
ATOM     22  O   UNL A   1      35.079  30.233  28.371  1.00  0.00    -0.458 OA
BRANCH  22  23
ATOM     23  C   UNL A   1      36.281  30.850  28.227  1.00  0.00     0.338 C 
ATOM     24  O   UNL A   1      36.434  32.057  28.283  1.00  0.00    -0.246 OA
BRANCH  23  25
ATOM     25  C   UNL A   1      37.339  29.803  28.232  1.00  0.00     0.060 A 
ATOM     26  C   UNL A   1      38.399  29.902  27.327  1.00  0.00     0.016 A 
ATOM     27  C   UNL A   1      37.428  28.947  29.332  1.00  0.00     0.016 A 
ATOM     28  C   UNL A   1      39.622  29.290  27.608  1.00  0.00     0.010 A 
ATOM     29  C   UNL A   1      38.650  28.414  29.655  1.00  0.00     0.010 A 
ATOM     30  C   UNL A   1      39.753  28.590  28.802  1.00  0.00    -0.014 A 
BRANCH  30  31
ATOM     31  C   UNL A   1      40.892  27.761  29.170  1.00  0.00     0.031 A 
ATOM     32  C   UNL A   1      41.083  26.366  28.730  1.00  0.00     0.074 A 
ATOM     33  C   UNL A   1      41.868  28.506  29.728  1.00  0.00     0.049 A 
ATOM     34  N   UNL A   1      42.197  25.734  28.862  1.00  0.00    -0.248 NA
ATOM     35  C   UNL A   1      40.045  25.533  28.133  1.00  0.00     0.031 C 
ATOM     36  C   UNL A   1      43.293  28.266  29.861  1.00  0.00     0.029 A 
ATOM     37  N   UNL A   1      41.640  29.660  30.488  1.00  0.00    -0.354 N 
ATOM     38  C   UNL A   1      42.097  24.509  28.235  1.00  0.00     0.074 A 
ATOM     39  C   UNL A   1      40.726  24.424  27.812  1.00  0.00     0.031 C 
ATOM     40  C   UNL A   1      43.758  29.038  30.861  1.00  0.00     0.029 A 
ATOM     41  C   UNL A   1      42.594  29.643  31.504  1.00  0.00     0.049 A 
ATOM     42  H   UNL A   1      40.947  30.343  30.336  1.00  0.00     0.167 HD
ATOM     43  C   UNL A   1      43.230  23.760  28.119  1.00  0.00     0.037 A 
ATOM     44  C   UNL A   1      42.166  29.342  32.767  1.00  0.00     0.037 A 
ATOM     45  C   UNL A   1      44.191  24.226  29.118  1.00  0.00     0.049 A 
ATOM     46  C   UNL A   1      42.786  28.052  33.248  1.00  0.00     0.074 A 
ATOM     47  C   UNL A   1      45.243  25.121  29.071  1.00  0.00     0.029 A 
ATOM     48  N   UNL A   1      43.874  24.044  30.462  1.00  0.00    -0.354 N 
ATOM     49  N   UNL A   1      43.033  27.012  32.494  1.00  0.00    -0.248 NA
ATOM     50  C   UNL A   1      43.306  27.920  34.601  1.00  0.00     0.031 C 
ATOM     51  C   UNL A   1      45.443  25.602  30.396  1.00  0.00     0.029 A 
ATOM     52  C   UNL A   1      44.552  24.958  31.243  1.00  0.00     0.049 A 
ATOM     53  H   UNL A   1      43.254  23.360  30.806  1.00  0.00     0.167 HD
ATOM     54  C   UNL A   1      43.805  26.128  33.206  1.00  0.00     0.074 A 
ATOM     55  C   UNL A   1      43.927  26.733  34.524  1.00  0.00     0.031 C 
ATOM     56  C   UNL A   1      44.363  24.993  32.685  1.00  0.00     0.037 A 
BRANCH  43  57
ATOM     57  C   UNL A   1      43.569  22.753  27.031  1.00  0.00     0.058 A 
ATOM     58  C   UNL A   1      42.839  21.541  26.949  1.00  0.00     0.135 A 
ATOM     59  C   UNL A   1      44.677  22.820  26.161  1.00  0.00     0.135 A 
ATOM     60  F   UNL A   1      41.747  21.333  27.700  1.00  0.00    -0.206 F 
ATOM     61  C   UNL A   1      43.214  20.468  26.130  1.00  0.00     0.059 A 
ATOM     62  C   UNL A   1      45.061  21.765  25.318  1.00  0.00     0.059 A 
ATOM     63  F   UNL A   1      45.470  23.894  26.101  1.00  0.00    -0.206 F 
ATOM     64  C   UNL A   1      44.342  20.581  25.332  1.00  0.00     0.060 A 
BRANCH  64  65
ATOM     65  S   UNL A   1      44.866  19.163  24.344  1.00  0.00     0.124 S 
ATOM     66  O   UNL A   1      46.295  19.101  24.636  1.00  0.00    -0.237 OA
ATOM     67  O   UNL A   1      44.057  18.081  24.895  1.00  0.00    -0.237 OA
ATOM     68  O   UNL A   1      44.528  19.555  22.978  1.00  0.00    -0.744 OA
ENDBRANCH  64  65
ENDBRANCH  43  57
BRANCH  44  69
ATOM     69  C   UNL A   1      40.777  29.830  33.068  1.00  0.00     0.058 A 
ATOM     70  C   UNL A   1      40.578  31.225  33.193  1.00  0.00     0.135 A 
ATOM     71  C   UNL A   1      39.627  29.046  32.901  1.00  0.00     0.135 A 
ATOM     72  F   UNL A   1      41.634  32.039  33.364  1.00  0.00    -0.206 F 
ATOM     73  C   UNL A   1      39.329  31.821  33.031  1.00  0.00     0.059 A 
ATOM     74  C   UNL A   1      38.355  29.622  32.759  1.00  0.00     0.059 A 
ATOM     75  F   UNL A   1      39.725  27.715  32.776  1.00  0.00    -0.206 F 
ATOM     76  C   UNL A   1      38.225  31.013  32.778  1.00  0.00     0.060 A 
BRANCH  76  77
ATOM     77  S   UNL A   1      36.671  31.819  32.309  1.00  0.00     0.124 S 
ATOM     78  O   UNL A   1      35.919  30.711  31.731  1.00  0.00    -0.237 OA
ATOM     79  O   UNL A   1      36.186  32.308  33.596  1.00  0.00    -0.237 OA
ATOM     80  O   UNL A   1      37.101  32.852  31.371  1.00  0.00    -0.744 OA
ENDBRANCH  76  77
ENDBRANCH  44  69
BRANCH  56  81
ATOM     81  C   UNL A   1      44.916  23.863  33.521  1.00  0.00     0.058 A 
ATOM     82  C   UNL A   1      46.235  23.840  34.009  1.00  0.00     0.135 A 
ATOM     83  C   UNL A   1      44.078  22.822  33.987  1.00  0.00     0.135 A 
ATOM     84  F   UNL A   1      47.087  24.848  33.774  1.00  0.00    -0.206 F 
ATOM     85  C   UNL A   1      46.723  22.800  34.795  1.00  0.00     0.059 A 
ATOM     86  C   UNL A   1      44.528  21.809  34.829  1.00  0.00     0.059 A 
ATOM     87  F   UNL A   1      42.780  22.759  33.654  1.00  0.00    -0.206 F 
ATOM     88  C   UNL A   1      45.865  21.784  35.193  1.00  0.00     0.060 A 
BRANCH  88  89
ATOM     89  S   UNL A   1      46.491  20.453  36.230  1.00  0.00     0.124 S 
ATOM     90  O   UNL A   1      45.968  20.838  37.537  1.00  0.00    -0.237 OA
ATOM     91  O   UNL A   1      45.884  19.267  35.632  1.00  0.00    -0.237 OA
ATOM     92  O   UNL A   1      47.937  20.556  36.070  1.00  0.00    -0.744 OA
ENDBRANCH  88  89
ENDBRANCH  56  81
ENDBRANCH  30  31
ENDBRANCH  23  25
ENDBRANCH  22  23
ENDBRANCH  21  22
ENDBRANCH   1  21
TORSDOF 17
ENDMDL
MODEL 2
REMARK VINA RESULT:     -12.9      5.156     11.707
REMARK SMILES Cc1cccc(C(=O)OCCOC(=O)c2ccc(-c3c4nc(c(-c5c(F)cc(S(=O)(=O)[O-])cc5F)c5ccc([nH]5)c(-c5c(F)cc(S(=O)(=O)[O-])cc5F)c5nc(c(-c6c(F)cc(S(=O)(=O)[O-])cc6F)c6ccc3[nH]6)C=C5)C=C4)cc2)c1OC[C@@H]1C[C@H]2CC[C@@H]1C2
REMARK SMILES IDX 10 1 9 2 7 3 8 4 6 5 1 6 2 7 3 8 81 9 4 10 5 11 82 12 83 13
REMARK SMILES IDX 84 14 85 15 89 16 86 17 88 18 90 19 87 20 11 21 12 22 13 23
REMARK SMILES IDX 14 24 15 25 16 26 80 27 17 28 79 29 18 30 19 31 20 32 73 33
REMARK SMILES IDX 21 34 78 35 72 36 74 37 22 38 77 39 71 40 70 41 23 43 57 44
REMARK SMILES IDX 36 45 56 46 37 47 40 48 55 49 75 50 38 51 39 52 54 54 76 55
REMARK SMILES IDX 41 56 24 57 25 58 34 59 26 60 27 61 33 62 35 63 28 64 29 65
REMARK SMILES IDX 30 66 31 67 32 68 58 69 59 70 68 71 60 72 61 73 67 74 69 75
REMARK SMILES IDX 62 76 63 77 64 78 65 79 66 80 42 81 43 82 52 83 44 84 45 85
REMARK SMILES IDX 51 86 53 87 46 88 47 89 48 90 49 91 50 92
REMARK H PARENT 74 42 40 53
REMARK Flexibility Score: inf
ROOT
ATOM      1  C   UNL A   1      37.721  21.649  24.943  1.00  0.00     0.275 C 
ENDROOT
BRANCH   1   2
ATOM      2  O   UNL A   1      36.369  22.089  25.164  1.00  0.00    -0.458 OA
BRANCH   2   3
ATOM      3  C   UNL A   1      35.874  22.812  24.116  1.00  0.00     0.342 C 
ATOM      4  O   UNL A   1      36.312  22.812  22.989  1.00  0.00    -0.246 OA
BRANCH   3   5
ATOM      5  C   UNL A   1      34.739  23.662  24.536  1.00  0.00     0.102 A 
ATOM      6  C   UNL A   1      30.969  24.036  24.074  1.00  0.00     0.048 C 
ATOM      7  C   UNL A   1      32.381  24.230  24.554  1.00  0.00    -0.008 A 
ATOM      8  C   UNL A   1      32.663  25.371  25.321  1.00  0.00     0.007 A 
ATOM      9  C   UNL A   1      33.417  23.327  24.227  1.00  0.00     0.136 A 
ATOM     10  C   UNL A   1      33.966  25.654  25.701  1.00  0.00     0.001 A 
ATOM     11  C   UNL A   1      34.996  24.814  25.286  1.00  0.00     0.019 A 
BRANCH   9  12
ATOM     12  O   UNL A   1      33.048  22.220  23.519  1.00  0.00    -0.492 OA
BRANCH  12  13
ATOM     13  C   UNL A   1      32.780  21.004  24.233  1.00  0.00     0.233 C 
BRANCH  13  14
ATOM     14  C   UNL A   1      33.430  19.684  23.765  1.00  0.00     0.030 C 
ATOM     15  C   UNL A   1      32.400  18.820  22.986  1.00  0.00     0.011 C 
ATOM     16  C   UNL A   1      33.876  18.701  24.872  1.00  0.00    -0.004 C 
ATOM     17  C   UNL A   1      32.440  17.464  23.717  1.00  0.00    -0.010 C 
ATOM     18  C   UNL A   1      34.778  17.623  24.237  1.00  0.00     0.004 C 
ATOM     19  C   UNL A   1      32.609  17.904  25.168  1.00  0.00     0.007 C 
ATOM     20  C   UNL A   1      33.785  16.776  23.432  1.00  0.00     0.004 C 
ENDBRANCH  13  14
ENDBRANCH  12  13
ENDBRANCH   9  12
ENDBRANCH   3   5
ENDBRANCH   2   3
ENDBRANCH   1   2
BRANCH   1  21
ATOM     21  C   UNL A   1      38.699  22.147  26.026  1.00  0.00     0.275 C 
BRANCH  21  22
ATOM     22  O   UNL A   1      38.796  23.567  26.275  1.00  0.00    -0.458 OA
BRANCH  22  23
ATOM     23  C   UNL A   1      39.905  24.000  26.932  1.00  0.00     0.338 C 
ATOM     24  O   UNL A   1      40.979  23.426  26.898  1.00  0.00    -0.246 OA
BRANCH  23  25
ATOM     25  C   UNL A   1      39.624  25.361  27.463  1.00  0.00     0.060 A 
ATOM     26  C   UNL A   1      39.274  25.509  28.807  1.00  0.00     0.016 A 
ATOM     27  C   UNL A   1      40.027  26.469  26.713  1.00  0.00     0.016 A 
ATOM     28  C   UNL A   1      39.497  26.721  29.463  1.00  0.00     0.010 A 
ATOM     29  C   UNL A   1      40.326  27.635  27.370  1.00  0.00     0.010 A 
ATOM     30  C   UNL A   1      40.072  27.765  28.747  1.00  0.00    -0.014 A 
BRANCH  30  31
ATOM     31  C   UNL A   1      40.218  29.133  29.223  1.00  0.00     0.031 A 
ATOM     32  C   UNL A   1      39.158  30.155  29.155  1.00  0.00     0.074 A 
ATOM     33  C   UNL A   1      41.332  29.264  29.972  1.00  0.00     0.049 A 
ATOM     34  N   UNL A   1      39.217  31.273  29.791  1.00  0.00    -0.248 NA
ATOM     35  C   UNL A   1      37.948  30.046  28.347  1.00  0.00     0.031 C 
ATOM     36  C   UNL A   1      41.692  30.241  30.983  1.00  0.00     0.029 A 
ATOM     37  N   UNL A   1      42.504  28.523  29.776  1.00  0.00    -0.354 N 
ATOM     38  C   UNL A   1      38.023  31.945  29.634  1.00  0.00     0.074 A 
ATOM     39  C   UNL A   1      37.271  31.146  28.707  1.00  0.00     0.031 C 
ATOM     40  C   UNL A   1      43.032  30.243  31.108  1.00  0.00     0.029 A 
ATOM     41  C   UNL A   1      43.558  29.396  30.039  1.00  0.00     0.049 A 
ATOM     42  H   UNL A   1      42.571  27.578  29.507  1.00  0.00     0.167 HD
ATOM     43  C   UNL A   1      37.828  33.075  30.371  1.00  0.00     0.037 A 
ATOM     44  C   UNL A   1      44.277  29.858  28.972  1.00  0.00     0.037 A 
ATOM     45  C   UNL A   1      39.134  33.573  30.800  1.00  0.00     0.049 A 
ATOM     46  C   UNL A   1      44.119  31.352  28.827  1.00  0.00     0.074 A 
ATOM     47  C   UNL A   1      39.872  33.412  31.958  1.00  0.00     0.029 A 
ATOM     48  N   UNL A   1      40.013  34.028  29.821  1.00  0.00    -0.354 N 
ATOM     49  N   UNL A   1      43.019  32.018  29.071  1.00  0.00    -0.248 NA
ATOM     50  C   UNL A   1      45.258  32.211  28.535  1.00  0.00     0.031 C 
ATOM     51  C   UNL A   1      41.238  33.617  31.615  1.00  0.00     0.029 A 
ATOM     52  C   UNL A   1      41.315  33.954  30.271  1.00  0.00     0.049 A 
ATOM     53  H   UNL A   1      39.743  34.358  28.933  1.00  0.00     0.167 HD
ATOM     54  C   UNL A   1      43.307  33.360  29.064  1.00  0.00     0.074 A 
ATOM     55  C   UNL A   1      44.715  33.426  28.701  1.00  0.00     0.031 C 
ATOM     56  C   UNL A   1      42.425  34.343  29.415  1.00  0.00     0.037 A 
BRANCH  43  57
ATOM     57  C   UNL A   1      36.507  33.643  30.865  1.00  0.00     0.058 A 
ATOM     58  C   UNL A   1      35.540  34.083  29.927  1.00  0.00     0.135 A 
ATOM     59  C   UNL A   1      36.188  33.942  32.207  1.00  0.00     0.135 A 
ATOM     60  F   UNL A   1      35.691  33.857  28.613  1.00  0.00    -0.206 F 
ATOM     61  C   UNL A   1      34.398  34.813  30.280  1.00  0.00     0.059 A 
ATOM     62  C   UNL A   1      35.040  34.655  32.586  1.00  0.00     0.059 A 
ATOM     63  F   UNL A   1      36.983  33.592  33.221  1.00  0.00    -0.206 F 
ATOM     64  C   UNL A   1      34.165  35.114  31.614  1.00  0.00     0.060 A 
BRANCH  64  65
ATOM     65  S   UNL A   1      32.736  36.126  32.051  1.00  0.00     0.124 S 
ATOM     66  O   UNL A   1      31.742  35.114  32.398  1.00  0.00    -0.237 OA
ATOM     67  O   UNL A   1      33.245  36.924  33.161  1.00  0.00    -0.237 OA
ATOM     68  O   UNL A   1      32.459  36.873  30.826  1.00  0.00    -0.744 OA
ENDBRANCH  64  65
ENDBRANCH  43  57
BRANCH  44  69
ATOM     69  C   UNL A   1      44.406  28.863  27.853  1.00  0.00     0.058 A 
ATOM     70  C   UNL A   1      45.278  27.766  28.041  1.00  0.00     0.135 A 
ATOM     71  C   UNL A   1      43.491  28.762  26.796  1.00  0.00     0.135 A 
ATOM     72  F   UNL A   1      46.188  27.796  29.030  1.00  0.00    -0.206 F 
ATOM     73  C   UNL A   1      45.163  26.584  27.312  1.00  0.00     0.059 A 
ATOM     74  C   UNL A   1      43.373  27.590  26.032  1.00  0.00     0.059 A 
ATOM     75  F   UNL A   1      42.629  29.758  26.546  1.00  0.00    -0.206 F 
ATOM     76  C   UNL A   1      44.182  26.491  26.330  1.00  0.00     0.060 A 
BRANCH  76  77
ATOM     77  S   UNL A   1      43.877  24.869  25.583  1.00  0.00     0.124 S 
ATOM     78  O   UNL A   1      42.590  25.076  24.928  1.00  0.00    -0.237 OA
ATOM     79  O   UNL A   1      45.024  24.728  24.691  1.00  0.00    -0.237 OA
ATOM     80  O   UNL A   1      43.866  23.969  26.733  1.00  0.00    -0.744 OA
ENDBRANCH  76  77
ENDBRANCH  44  69
BRANCH  56  81
ATOM     81  C   UNL A   1      42.617  35.807  29.091  1.00  0.00     0.058 A 
ATOM     82  C   UNL A   1      41.950  36.455  28.035  1.00  0.00     0.135 A 
ATOM     83  C   UNL A   1      43.378  36.648  29.936  1.00  0.00     0.135 A 
ATOM     84  F   UNL A   1      41.074  35.805  27.256  1.00  0.00    -0.206 F 
ATOM     85  C   UNL A   1      42.123  37.809  27.761  1.00  0.00     0.059 A 
ATOM     86  C   UNL A   1      43.509  38.018  29.721  1.00  0.00     0.059 A 
ATOM     87  F   UNL A   1      44.011  36.173  31.019  1.00  0.00    -0.206 F 
ATOM     88  C   UNL A   1      42.911  38.581  28.605  1.00  0.00     0.060 A 
BRANCH  88  89
ATOM     89  S   UNL A   1      43.114  40.336  28.264  1.00  0.00     0.124 S 
ATOM     90  O   UNL A   1      42.767  40.920  29.556  1.00  0.00    -0.237 OA
ATOM     91  O   UNL A   1      44.521  40.430  27.887  1.00  0.00    -0.237 OA
ATOM     92  O   UNL A   1      42.166  40.580  27.183  1.00  0.00    -0.744 OA
ENDBRANCH  88  89
ENDBRANCH  56  81
ENDBRANCH  30  31
ENDBRANCH  23  25
ENDBRANCH  22  23
ENDBRANCH  21  22
ENDBRANCH   1  21
TORSDOF 17
ENDMDL
MODEL 3
REMARK VINA RESULT:     -12.8      4.860     11.213
REMARK SMILES Cc1cccc(C(=O)OCCOC(=O)c2ccc(-c3c4nc(c(-c5c(F)cc(S(=O)(=O)[O-])cc5F)c5ccc([nH]5)c(-c5c(F)cc(S(=O)(=O)[O-])cc5F)c5nc(c(-c6c(F)cc(S(=O)(=O)[O-])cc6F)c6ccc3[nH]6)C=C5)C=C4)cc2)c1OC[C@@H]1C[C@H]2CC[C@@H]1C2
REMARK SMILES IDX 10 1 9 2 7 3 8 4 6 5 1 6 2 7 3 8 81 9 4 10 5 11 82 12 83 13
REMARK SMILES IDX 84 14 85 15 89 16 86 17 88 18 90 19 87 20 11 21 12 22 13 23
REMARK SMILES IDX 14 24 15 25 16 26 80 27 17 28 79 29 18 30 19 31 20 32 73 33
REMARK SMILES IDX 21 34 78 35 72 36 74 37 22 38 77 39 71 40 70 41 23 43 57 44
REMARK SMILES IDX 36 45 56 46 37 47 40 48 55 49 75 50 38 51 39 52 54 54 76 55
REMARK SMILES IDX 41 56 24 57 25 58 34 59 26 60 27 61 33 62 35 63 28 64 29 65
REMARK SMILES IDX 30 66 31 67 32 68 58 69 59 70 68 71 60 72 61 73 67 74 69 75
REMARK SMILES IDX 62 76 63 77 64 78 65 79 66 80 42 81 43 82 52 83 44 84 45 85
REMARK SMILES IDX 51 86 53 87 46 88 47 89 48 90 49 91 50 92
REMARK H PARENT 74 42 40 53
REMARK Flexibility Score: inf
ROOT
ATOM      1  C   UNL A   1      36.975  22.313  25.797  1.00  0.00     0.275 C 
ENDROOT
BRANCH   1   2
ATOM      2  O   UNL A   1      36.734  21.971  24.420  1.00  0.00    -0.458 OA
BRANCH   2   3
ATOM      3  C   UNL A   1      35.762  22.743  23.850  1.00  0.00     0.342 C 
ATOM      4  O   UNL A   1      35.941  23.610  23.026  1.00  0.00    -0.246 OA
BRANCH   3   5
ATOM      5  C   UNL A   1      34.429  22.429  24.407  1.00  0.00     0.102 A 
ATOM      6  C   UNL A   1      31.804  23.817  26.807  1.00  0.00     0.048 C 
ATOM      7  C   UNL A   1      32.508  22.959  25.792  1.00  0.00    -0.008 A 
ATOM      8  C   UNL A   1      31.937  21.717  25.473  1.00  0.00     0.007 A 
ATOM      9  C   UNL A   1      33.725  23.350  25.191  1.00  0.00     0.136 A 
ATOM     10  C   UNL A   1      32.596  20.842  24.624  1.00  0.00     0.001 A 
ATOM     11  C   UNL A   1      33.846  21.191  24.118  1.00  0.00     0.019 A 
BRANCH   9  12
ATOM     12  O   UNL A   1      34.186  24.592  25.521  1.00  0.00    -0.492 OA
BRANCH  12  13
ATOM     13  C   UNL A   1      33.918  25.685  24.631  1.00  0.00     0.233 C 
BRANCH  13  14
ATOM     14  C   UNL A   1      32.919  26.785  25.049  1.00  0.00     0.030 C 
ATOM     15  C   UNL A   1      33.240  28.116  24.314  1.00  0.00     0.011 C 
ATOM     16  C   UNL A   1      32.965  27.236  26.528  1.00  0.00    -0.004 C 
ATOM     17  C   UNL A   1      33.371  29.138  25.459  1.00  0.00    -0.010 C 
ATOM     18  C   UNL A   1      31.706  28.076  26.824  1.00  0.00     0.004 C 
ATOM     19  C   UNL A   1      34.055  28.303  26.537  1.00  0.00     0.007 C 
ATOM     20  C   UNL A   1      31.985  29.386  26.077  1.00  0.00     0.004 C 
ENDBRANCH  13  14
ENDBRANCH  12  13
ENDBRANCH   9  12
ENDBRANCH   3   5
ENDBRANCH   2   3
ENDBRANCH   1   2
BRANCH   1  21
ATOM     21  C   UNL A   1      37.604  23.709  25.967  1.00  0.00     0.275 C 
BRANCH  21  22
ATOM     22  O   UNL A   1      39.036  23.849  25.830  1.00  0.00    -0.458 OA
BRANCH  22  23
ATOM     23  C   UNL A   1      39.750  23.997  26.977  1.00  0.00     0.338 C 
ATOM     24  O   UNL A   1      40.601  23.210  27.353  1.00  0.00    -0.246 OA
BRANCH  23  25
ATOM     25  C   UNL A   1      39.474  25.355  27.519  1.00  0.00     0.060 A 
ATOM     26  C   UNL A   1      39.140  25.495  28.869  1.00  0.00     0.016 A 
ATOM     27  C   UNL A   1      39.867  26.467  26.770  1.00  0.00     0.016 A 
ATOM     28  C   UNL A   1      39.371  26.704  29.528  1.00  0.00     0.010 A 
ATOM     29  C   UNL A   1      40.174  27.631  27.430  1.00  0.00     0.010 A 
ATOM     30  C   UNL A   1      39.936  27.753  28.810  1.00  0.00    -0.014 A 
BRANCH  30  31
ATOM     31  C   UNL A   1      40.087  29.118  29.292  1.00  0.00     0.031 A 
ATOM     32  C   UNL A   1      39.033  30.148  29.217  1.00  0.00     0.074 A 
ATOM     33  C   UNL A   1      41.194  29.240  30.052  1.00  0.00     0.049 A 
ATOM     34  N   UNL A   1      39.094  31.264  29.857  1.00  0.00    -0.248 NA
ATOM     35  C   UNL A   1      37.830  30.049  28.397  1.00  0.00     0.031 C 
ATOM     36  C   UNL A   1      41.551  30.211  31.069  1.00  0.00     0.029 A 
ATOM     37  N   UNL A   1      42.363  28.491  29.864  1.00  0.00    -0.354 N 
ATOM     38  C   UNL A   1      37.906  31.944  29.690  1.00  0.00     0.074 A 
ATOM     39  C   UNL A   1      37.157  31.152  28.754  1.00  0.00     0.031 C 
ATOM     40  C   UNL A   1      42.890  30.204  31.207  1.00  0.00     0.029 A 
ATOM     41  C   UNL A   1      43.420  29.357  30.140  1.00  0.00     0.049 A 
ATOM     42  H   UNL A   1      42.426  27.547  29.593  1.00  0.00     0.167 HD
ATOM     43  C   UNL A   1      37.711  33.073  30.429  1.00  0.00     0.037 A 
ATOM     44  C   UNL A   1      44.152  29.817  29.081  1.00  0.00     0.037 A 
ATOM     45  C   UNL A   1      39.016  33.561  30.872  1.00  0.00     0.049 A 
ATOM     46  C   UNL A   1      44.005  31.313  28.940  1.00  0.00     0.074 A 
ATOM     47  C   UNL A   1      39.742  33.391  32.036  1.00  0.00     0.029 A 
ATOM     48  N   UNL A   1      39.907  34.013  29.902  1.00  0.00    -0.354 N 
ATOM     49  N   UNL A   1      42.908  31.985  29.175  1.00  0.00    -0.248 NA
ATOM     50  C   UNL A   1      45.153  32.165  28.661  1.00  0.00     0.031 C 
ATOM     51  C   UNL A   1      41.113  33.589  31.707  1.00  0.00     0.029 A 
ATOM     52  C   UNL A   1      41.205  33.929  30.365  1.00  0.00     0.049 A 
ATOM     53  H   UNL A   1      39.648  34.348  29.013  1.00  0.00     0.167 HD
ATOM     54  C   UNL A   1      43.205  33.326  29.175  1.00  0.00     0.074 A 
ATOM     55  C   UNL A   1      44.616  33.383  28.825  1.00  0.00     0.031 C 
ATOM     56  C   UNL A   1      42.325  34.313  29.520  1.00  0.00     0.037 A 
BRANCH  43  57
ATOM     57  C   UNL A   1      36.389  33.648  30.913  1.00  0.00     0.058 A 
ATOM     58  C   UNL A   1      35.461  34.156  29.969  1.00  0.00     0.135 A 
ATOM     59  C   UNL A   1      36.037  33.890  32.257  1.00  0.00     0.135 A 
ATOM     60  F   UNL A   1      35.646  33.990  28.651  1.00  0.00    -0.206 F 
ATOM     61  C   UNL A   1      34.326  34.895  30.325  1.00  0.00     0.059 A 
ATOM     62  C   UNL A   1      34.896  34.611  32.638  1.00  0.00     0.059 A 
ATOM     63  F   UNL A   1      36.795  33.473  33.276  1.00  0.00    -0.206 F 
ATOM     64  C   UNL A   1      34.061  35.138  31.665  1.00  0.00     0.060 A 
BRANCH  64  65
ATOM     65  S   UNL A   1      32.643  36.162  32.110  1.00  0.00     0.124 S 
ATOM     66  O   UNL A   1      33.177  36.959  33.210  1.00  0.00    -0.237 OA
ATOM     67  O   UNL A   1      32.378  36.885  30.871  1.00  0.00    -0.237 OA
ATOM     68  O   UNL A   1      31.622  35.187  32.488  1.00  0.00    -0.744 OA
ENDBRANCH  64  65
ENDBRANCH  43  57
BRANCH  44  69
ATOM     69  C   UNL A   1      44.285  28.825  27.961  1.00  0.00     0.058 A 
ATOM     70  C   UNL A   1      45.135  27.712  28.160  1.00  0.00     0.135 A 
ATOM     71  C   UNL A   1      43.388  28.743  26.887  1.00  0.00     0.135 A 
ATOM     72  F   UNL A   1      46.027  27.723  29.165  1.00  0.00    -0.206 F 
ATOM     73  C   UNL A   1      45.014  26.535  27.424  1.00  0.00     0.059 A 
ATOM     74  C   UNL A   1      43.264  27.576  26.116  1.00  0.00     0.059 A 
ATOM     75  F   UNL A   1      42.547  29.754  26.626  1.00  0.00    -0.206 F 
ATOM     76  C   UNL A   1      44.050  26.463  26.424  1.00  0.00     0.060 A 
BRANCH  76  77
ATOM     77  S   UNL A   1      43.732  24.849  25.665  1.00  0.00     0.124 S 
ATOM     78  O   UNL A   1      43.803  23.955  26.816  1.00  0.00    -0.237 OA
ATOM     79  O   UNL A   1      42.401  25.041  25.096  1.00  0.00    -0.237 OA
ATOM     80  O   UNL A   1      44.813  24.719  24.692  1.00  0.00    -0.744 OA
ENDBRANCH  76  77
ENDBRANCH  44  69
BRANCH  56  81
ATOM     81  C   UNL A   1      42.530  35.776  29.202  1.00  0.00     0.058 A 
ATOM     82  C   UNL A   1      43.428  36.599  29.907  1.00  0.00     0.135 A 
ATOM     83  C   UNL A   1      41.928  36.368  28.066  1.00  0.00     0.135 A 
ATOM     84  F   UNL A   1      44.181  36.119  30.906  1.00  0.00    -0.206 F 
ATOM     85  C   UNL A   1      43.619  37.941  29.588  1.00  0.00     0.059 A 
ATOM     86  C   UNL A   1      42.159  37.688  27.689  1.00  0.00     0.059 A 
ATOM     87  F   UNL A   1      41.104  35.677  27.265  1.00  0.00    -0.206 F 
ATOM     88  C   UNL A   1      42.975  38.479  28.483  1.00  0.00     0.060 A 
BRANCH  88  89
ATOM     89  S   UNL A   1      43.243  40.206  28.057  1.00  0.00     0.124 S 
ATOM     90  O   UNL A   1      44.700  40.290  28.103  1.00  0.00    -0.237 OA
ATOM     91  O   UNL A   1      42.647  40.306  26.728  1.00  0.00    -0.237 OA
ATOM     92  O   UNL A   1      42.533  40.925  29.109  1.00  0.00    -0.744 OA
ENDBRANCH  88  89
ENDBRANCH  56  81
ENDBRANCH  30  31
ENDBRANCH  23  25
ENDBRANCH  22  23
ENDBRANCH  21  22
ENDBRANCH   1  21
TORSDOF 17
ENDMDL
