MODEL 1
REMARK VINA RESULT:     -11.8      0.000      0.000
REMARK SMILES CC1(C)S[C@H](c2ccccc2O)[NH2+][C@H]1C(=O)OCCOC(=O)c1ccc(-c2c3nc(c(-c4c(F)cc(S(=O)(=O)[O-])cc4F)c4ccc([nH]4)c(-c4c(F)cc(S(=O)(=O)[O-])cc4F)c4nc(c(-c5c(F)cc(S(=O)(=O)[O-])cc5F)c5ccc2[nH]5)C=C4)C=C3)cc1
REMARK SMILES IDX 19 1 18 2 17 3 15 4 16 5 14 6 1 7 2 8 3 9 4 10 5 11 13 12
REMARK SMILES IDX 6 15 7 16 11 17 8 18 10 19 9 20 12 21 20 23 21 24 22 25
REMARK SMILES IDX 23 26 24 27 88 28 25 29 87 30 26 31 27 32 28 33 81 34 29 35
REMARK SMILES IDX 86 36 80 37 82 38 30 39 85 40 79 41 78 42 31 44 65 45 44 46
REMARK SMILES IDX 64 47 45 48 48 49 63 50 83 51 46 52 47 53 62 55 84 56 49 57
REMARK SMILES IDX 32 58 33 59 42 60 34 61 35 62 41 63 43 64 36 65 37 66 38 67
REMARK SMILES IDX 39 68 40 69 66 70 67 71 76 72 68 73 69 74 75 75 77 76 70 77
REMARK SMILES IDX 71 78 72 79 73 80 74 81 50 82 51 83 60 84 52 85 53 86 59 87
REMARK SMILES IDX 61 88 54 89 55 90 56 91 57 92 58 93
REMARK H PARENT 13 13 13 14 12 22 82 43 48 54
REMARK Flexibility Score: inf
ROOT
ATOM      1  C   UNL A   1      34.333  30.926  27.674  1.00  0.00     0.275 C 
ENDROOT
BRANCH   1   2
ATOM      2  C   UNL A   1      33.047  30.222  27.235  1.00  0.00     0.274 C 
BRANCH   2   3
ATOM      3  O   UNL A   1      33.244  28.808  27.029  1.00  0.00    -0.458 OA
BRANCH   3   4
ATOM      4  C   UNL A   1      32.123  28.097  26.756  1.00  0.00     0.366 C 
ATOM      5  O   UNL A   1      31.390  27.625  27.622  1.00  0.00    -0.245 OA
BRANCH   4   6
ATOM      6  C   UNL A   1      31.871  27.844  25.261  1.00  0.00     0.310 C 
ATOM      7  C   UNL A   1      33.866  26.202  24.837  1.00  0.00     0.030 C 
ATOM      8  C   UNL A   1      32.995  27.352  24.329  1.00  0.00     0.079 C 
ATOM      9  C   UNL A   1      33.867  28.500  23.811  1.00  0.00     0.030 C 
ATOM     10  S   UNL A   1      32.041  26.705  22.891  1.00  0.00    -0.081 SA
ATOM     11  C   UNL A   1      30.394  26.888  23.672  1.00  0.00     0.278 C 
ATOM     12  N   UNL A   1      30.682  26.953  25.117  1.00  0.00    -0.318 N 
ATOM     13  H   UNL A   1      30.891  26.022  25.478  1.00  0.00     0.348 HD
ATOM     14  H   UNL A   1      29.883  27.308  25.641  1.00  0.00     0.348 HD
BRANCH  11  15
ATOM     15  C   UNL A   1      29.582  28.058  23.118  1.00  0.00     0.062 A 
ATOM     16  C   UNL A   1      30.185  29.187  22.527  1.00  0.00     0.015 A 
ATOM     17  C   UNL A   1      28.180  28.066  23.208  1.00  0.00     0.125 A 
ATOM     18  C   UNL A   1      29.422  30.224  21.979  1.00  0.00     0.001 A 
ATOM     19  C   UNL A   1      27.410  29.101  22.667  1.00  0.00     0.047 A 
ATOM     20  C   UNL A   1      28.035  30.175  22.039  1.00  0.00     0.004 A 
BRANCH  17  21
ATOM     21  O   UNL A   1      27.545  27.046  23.865  1.00  0.00    -0.507 OA
ATOM     22  H   UNL A   1      26.751  27.214  24.334  1.00  0.00     0.293 HD
ENDBRANCH  17  21
ENDBRANCH  11  15
ENDBRANCH   4   6
ENDBRANCH   3   4
ENDBRANCH   2   3
ENDBRANCH   1   2
BRANCH   1  23
ATOM     23  O   UNL A   1      35.300  29.991  28.182  1.00  0.00    -0.458 OA
BRANCH  23  24
ATOM     24  C   UNL A   1      36.137  30.481  29.125  1.00  0.00     0.338 C 
ATOM     25  O   UNL A   1      35.847  31.208  30.059  1.00  0.00    -0.246 OA
BRANCH  24  26
ATOM     26  C   UNL A   1      37.488  29.939  28.917  1.00  0.00     0.060 A 
ATOM     27  C   UNL A   1      38.302  29.701  30.027  1.00  0.00     0.016 A 
ATOM     28  C   UNL A   1      37.981  29.763  27.626  1.00  0.00     0.016 A 
ATOM     29  C   UNL A   1      39.622  29.293  29.853  1.00  0.00     0.010 A 
ATOM     30  C   UNL A   1      39.300  29.332  27.451  1.00  0.00     0.010 A 
ATOM     31  C   UNL A   1      40.132  29.105  28.563  1.00  0.00    -0.014 A 
BRANCH  31  32
ATOM     32  C   UNL A   1      41.542  28.690  28.372  1.00  0.00     0.031 A 
ATOM     33  C   UNL A   1      42.639  29.713  28.435  1.00  0.00     0.074 A 
ATOM     34  C   UNL A   1      41.831  27.397  28.132  1.00  0.00     0.049 A 
ATOM     35  N   UNL A   1      43.910  29.579  28.160  1.00  0.00    -0.248 NA
ATOM     36  C   UNL A   1      42.252  31.067  28.862  1.00  0.00     0.031 C 
ATOM     37  C   UNL A   1      40.857  26.306  28.090  1.00  0.00     0.029 A 
ATOM     38  N   UNL A   1      43.030  26.786  27.866  1.00  0.00    -0.354 N 
ATOM     39  C   UNL A   1      44.473  30.835  28.351  1.00  0.00     0.074 A 
ATOM     40  C   UNL A   1      43.403  31.720  28.762  1.00  0.00     0.031 C 
ATOM     41  C   UNL A   1      41.495  25.159  27.807  1.00  0.00     0.029 A 
ATOM     42  C   UNL A   1      42.912  25.442  27.597  1.00  0.00     0.049 A 
ATOM     43  H   UNL A   1      43.892  27.261  27.866  1.00  0.00     0.167 HD
ATOM     44  C   UNL A   1      45.766  31.211  28.197  1.00  0.00     0.037 A 
ATOM     45  C   UNL A   1      43.835  24.548  27.193  1.00  0.00     0.037 A 
ATOM     46  C   UNL A   1      46.827  30.319  27.806  1.00  0.00     0.049 A 
ATOM     47  C   UNL A   1      45.253  25.000  26.983  1.00  0.00     0.074 A 
ATOM     48  C   UNL A   1      48.170  30.603  27.632  1.00  0.00     0.029 A 
ATOM     49  N   UNL A   1      46.665  28.970  27.531  1.00  0.00    -0.354 N 
ATOM     50  N   UNL A   1      45.769  26.195  27.147  1.00  0.00    -0.248 NA
ATOM     51  C   UNL A   1      46.213  23.987  26.523  1.00  0.00     0.031 C 
ATOM     52  C   UNL A   1      48.816  29.430  27.221  1.00  0.00     0.029 A 
ATOM     53  C   UNL A   1      47.880  28.409  27.175  1.00  0.00     0.049 A 
ATOM     54  H   UNL A   1      45.812  28.481  27.582  1.00  0.00     0.167 HD
ATOM     55  C   UNL A   1      47.116  26.074  26.825  1.00  0.00     0.074 A 
ATOM     56  C   UNL A   1      47.337  24.687  26.467  1.00  0.00     0.031 C 
ATOM     57  C   UNL A   1      48.082  27.026  26.824  1.00  0.00     0.037 A 
BRANCH  44  58
ATOM     58  C   UNL A   1      46.096  32.659  28.421  1.00  0.00     0.058 A 
ATOM     59  C   UNL A   1      46.022  33.602  27.384  1.00  0.00     0.135 A 
ATOM     60  C   UNL A   1      46.466  33.113  29.697  1.00  0.00     0.135 A 
ATOM     61  F   UNL A   1      45.689  33.216  26.142  1.00  0.00    -0.206 F 
ATOM     62  C   UNL A   1      46.328  34.942  27.600  1.00  0.00     0.059 A 
ATOM     63  C   UNL A   1      46.757  34.452  29.940  1.00  0.00     0.059 A 
ATOM     64  F   UNL A   1      46.554  32.250  30.722  1.00  0.00    -0.206 F 
ATOM     65  C   UNL A   1      46.700  35.357  28.880  1.00  0.00     0.060 A 
BRANCH  65  66
ATOM     66  S   UNL A   1      47.100  37.097  29.148  1.00  0.00     0.124 S 
ATOM     67  O   UNL A   1      47.254  37.139  30.599  1.00  0.00    -0.237 OA
ATOM     68  O   UNL A   1      48.329  37.261  28.377  1.00  0.00    -0.237 OA
ATOM     69  O   UNL A   1      45.934  37.798  28.619  1.00  0.00    -0.744 OA
ENDBRANCH  65  66
ENDBRANCH  44  58
BRANCH  45  70
ATOM     70  C   UNL A   1      43.433  23.142  26.930  1.00  0.00     0.058 A 
ATOM     71  C   UNL A   1      43.377  22.640  25.623  1.00  0.00     0.135 A 
ATOM     72  C   UNL A   1      43.120  22.270  27.983  1.00  0.00     0.135 A 
ATOM     73  F   UNL A   1      43.659  23.440  24.584  1.00  0.00    -0.206 F 
ATOM     74  C   UNL A   1      43.019  21.321  25.366  1.00  0.00     0.059 A 
ATOM     75  C   UNL A   1      42.780  20.940  27.754  1.00  0.00     0.059 A 
ATOM     76  F   UNL A   1      43.171  22.701  29.253  1.00  0.00    -0.206 F 
ATOM     77  C   UNL A   1      42.724  20.478  26.440  1.00  0.00     0.060 A 
BRANCH  77  78
ATOM     78  S   UNL A   1      42.318  18.750  26.104  1.00  0.00     0.124 S 
ATOM     79  O   UNL A   1      40.896  18.839  25.794  1.00  0.00    -0.237 OA
ATOM     80  O   UNL A   1      43.198  18.436  24.983  1.00  0.00    -0.237 OA
ATOM     81  O   UNL A   1      42.652  18.080  27.358  1.00  0.00    -0.744 OA
ENDBRANCH  77  78
ENDBRANCH  45  70
BRANCH  57  82
ATOM     82  C   UNL A   1      49.470  26.595  26.450  1.00  0.00     0.058 A 
ATOM     83  C   UNL A   1      50.319  25.975  27.379  1.00  0.00     0.135 A 
ATOM     84  C   UNL A   1      49.938  26.761  25.137  1.00  0.00     0.135 A 
ATOM     85  F   UNL A   1      49.920  25.801  28.650  1.00  0.00    -0.206 F 
ATOM     86  C   UNL A   1      51.594  25.545  27.023  1.00  0.00     0.059 A 
ATOM     87  C   UNL A   1      51.201  26.321  24.754  1.00  0.00     0.059 A 
ATOM     88  F   UNL A   1      49.160  27.342  24.212  1.00  0.00    -0.206 F 
ATOM     89  C   UNL A   1      52.026  25.724  25.706  1.00  0.00     0.060 A 
BRANCH  89  90
ATOM     90  S   UNL A   1      53.667  25.131  25.242  1.00  0.00     0.124 S 
ATOM     91  O   UNL A   1      53.504  23.687  25.370  1.00  0.00    -0.237 OA
ATOM     92  O   UNL A   1      53.811  25.635  23.879  1.00  0.00    -0.237 OA
ATOM     93  O   UNL A   1      54.544  25.756  26.228  1.00  0.00    -0.744 OA
ENDBRANCH  89  90
ENDBRANCH  57  82
ENDBRANCH  31  32
ENDBRANCH  24  26
ENDBRANCH  23  24
ENDBRANCH   1  23
TORSDOF 16
ENDMDL
MODEL 2
REMARK VINA RESULT:     -11.6      3.758      6.011
REMARK SMILES CC1(C)S[C@H](c2ccccc2O)[NH2+][C@H]1C(=O)OCCOC(=O)c1ccc(-c2c3nc(c(-c4c(F)cc(S(=O)(=O)[O-])cc4F)c4ccc([nH]4)c(-c4c(F)cc(S(=O)(=O)[O-])cc4F)c4nc(c(-c5c(F)cc(S(=O)(=O)[O-])cc5F)c5ccc2[nH]5)C=C4)C=C3)cc1
REMARK SMILES IDX 19 1 18 2 17 3 15 4 16 5 14 6 1 7 2 8 3 9 4 10 5 11 13 12
REMARK SMILES IDX 6 15 7 16 11 17 8 18 10 19 9 20 12 21 20 23 21 24 22 25
REMARK SMILES IDX 23 26 24 27 88 28 25 29 87 30 26 31 27 32 28 33 81 34 29 35
REMARK SMILES IDX 86 36 80 37 82 38 30 39 85 40 79 41 78 42 31 44 65 45 44 46
REMARK SMILES IDX 64 47 45 48 48 49 63 50 83 51 46 52 47 53 62 55 84 56 49 57
REMARK SMILES IDX 32 58 33 59 42 60 34 61 35 62 41 63 43 64 36 65 37 66 38 67
REMARK SMILES IDX 39 68 40 69 66 70 67 71 76 72 68 73 69 74 75 75 77 76 70 77
REMARK SMILES IDX 71 78 72 79 73 80 74 81 50 82 51 83 60 84 52 85 53 86 59 87
REMARK SMILES IDX 61 88 54 89 55 90 56 91 57 92 58 93
REMARK H PARENT 13 13 13 14 12 22 82 43 48 54
REMARK Flexibility Score: inf
ROOT
ATOM      1  C   UNL A   1      34.485  32.841  27.990  1.00  0.00     0.275 C 
ENDROOT
BRANCH   1   2
ATOM      2  C   UNL A   1      33.231  33.713  27.891  1.00  0.00     0.274 C 
BRANCH   2   3
ATOM      3  O   UNL A   1      32.803  34.197  29.181  1.00  0.00    -0.458 OA
BRANCH   3   4
ATOM      4  C   UNL A   1      33.498  35.255  29.668  1.00  0.00     0.366 C 
ATOM      5  O   UNL A   1      33.744  36.265  29.014  1.00  0.00    -0.245 OA
BRANCH   4   6
ATOM      6  C   UNL A   1      34.039  35.065  31.093  1.00  0.00     0.310 C 
ATOM      7  C   UNL A   1      31.944  35.954  32.389  1.00  0.00     0.030 C 
ATOM      8  C   UNL A   1      33.467  35.862  32.282  1.00  0.00     0.079 C 
ATOM      9  C   UNL A   1      34.101  37.249  32.412  1.00  0.00     0.030 C 
ATOM     10  S   UNL A   1      34.044  34.865  33.721  1.00  0.00    -0.081 SA
ATOM     11  C   UNL A   1      34.709  33.480  32.724  1.00  0.00     0.278 C 
ATOM     12  N   UNL A   1      34.027  33.609  31.422  1.00  0.00    -0.318 N 
ATOM     13  H   UNL A   1      33.069  33.268  31.490  1.00  0.00     0.348 HD
ATOM     14  H   UNL A   1      34.494  33.059  30.701  1.00  0.00     0.348 HD
BRANCH  11  15
ATOM     15  C   UNL A   1      36.235  33.452  32.659  1.00  0.00     0.062 A 
ATOM     16  C   UNL A   1      37.006  34.610  32.432  1.00  0.00     0.015 A 
ATOM     17  C   UNL A   1      36.939  32.243  32.792  1.00  0.00     0.125 A 
ATOM     18  C   UNL A   1      38.405  34.574  32.427  1.00  0.00     0.001 A 
ATOM     19  C   UNL A   1      38.337  32.196  32.783  1.00  0.00     0.047 A 
ATOM     20  C   UNL A   1      39.069  33.368  32.614  1.00  0.00     0.004 A 
BRANCH  17  21
ATOM     21  O   UNL A   1      36.241  31.071  32.909  1.00  0.00    -0.507 OA
ATOM     22  H   UNL A   1      35.315  31.089  33.048  1.00  0.00     0.293 HD
ENDBRANCH  17  21
ENDBRANCH  11  15
ENDBRANCH   4   6
ENDBRANCH   3   4
ENDBRANCH   2   3
ENDBRANCH   1   2
BRANCH   1  23
ATOM     23  O   UNL A   1      34.267  31.695  28.829  1.00  0.00    -0.458 OA
BRANCH  23  24
ATOM     24  C   UNL A   1      34.423  30.496  28.222  1.00  0.00     0.338 C 
ATOM     25  O   UNL A   1      33.587  29.882  27.581  1.00  0.00    -0.246 OA
BRANCH  24  26
ATOM     26  C   UNL A   1      35.813  30.043  28.373  1.00  0.00     0.060 A 
ATOM     27  C   UNL A   1      36.283  29.707  29.645  1.00  0.00     0.016 A 
ATOM     28  C   UNL A   1      36.675  30.046  27.278  1.00  0.00     0.016 A 
ATOM     29  C   UNL A   1      37.623  29.380  29.833  1.00  0.00     0.010 A 
ATOM     30  C   UNL A   1      38.016  29.697  27.463  1.00  0.00     0.010 A 
ATOM     31  C   UNL A   1      38.501  29.372  28.743  1.00  0.00    -0.014 A 
BRANCH  31  32
ATOM     32  C   UNL A   1      39.933  29.046  28.941  1.00  0.00     0.031 A 
ATOM     33  C   UNL A   1      40.884  30.103  29.423  1.00  0.00     0.074 A 
ATOM     34  C   UNL A   1      40.377  27.801  28.679  1.00  0.00     0.049 A 
ATOM     35  N   UNL A   1      42.187  30.057  29.526  1.00  0.00    -0.248 NA
ATOM     36  C   UNL A   1      40.289  31.382  29.840  1.00  0.00     0.031 C 
ATOM     37  C   UNL A   1      39.542  26.679  28.248  1.00  0.00     0.029 A 
ATOM     38  N   UNL A   1      41.644  27.278  28.725  1.00  0.00    -0.354 N 
ATOM     39  C   UNL A   1      42.573  31.308  29.992  1.00  0.00     0.074 A 
ATOM     40  C   UNL A   1      41.366  32.093  30.148  1.00  0.00     0.031 C 
ATOM     41  C   UNL A   1      40.320  25.601  28.061  1.00  0.00     0.029 A 
ATOM     42  C   UNL A   1      41.711  25.969  28.309  1.00  0.00     0.049 A 
ATOM     43  H   UNL A   1      42.430  27.788  29.025  1.00  0.00     0.167 HD
ATOM     44  C   UNL A   1      43.822  31.756  30.265  1.00  0.00     0.037 A 
ATOM     45  C   UNL A   1      42.776  25.168  28.115  1.00  0.00     0.037 A 
ATOM     46  C   UNL A   1      45.016  30.963  30.125  1.00  0.00     0.049 A 
ATOM     47  C   UNL A   1      44.156  25.703  28.379  1.00  0.00     0.074 A 
ATOM     48  C   UNL A   1      46.326  31.324  30.385  1.00  0.00     0.029 A 
ATOM     49  N   UNL A   1      45.043  29.646  29.690  1.00  0.00    -0.354 N 
ATOM     50  N   UNL A   1      44.510  26.894  28.800  1.00  0.00    -0.248 NA
ATOM     51  C   UNL A   1      45.282  24.791  28.132  1.00  0.00     0.031 C 
ATOM     52  C   UNL A   1      47.150  30.234  30.077  1.00  0.00     0.029 A 
ATOM     53  C   UNL A   1      46.348  29.183  29.660  1.00  0.00     0.049 A 
ATOM     54  H   UNL A   1      44.252  29.117  29.439  1.00  0.00     0.167 HD
ATOM     55  C   UNL A   1      45.897  26.871  28.883  1.00  0.00     0.074 A 
ATOM     56  C   UNL A   1      46.317  25.543  28.479  1.00  0.00     0.031 C 
ATOM     57  C   UNL A   1      46.747  27.858  29.257  1.00  0.00     0.037 A 
BRANCH  44  58
ATOM     58  C   UNL A   1      43.962  33.184  30.710  1.00  0.00     0.058 A 
ATOM     59  C   UNL A   1      44.174  34.226  29.795  1.00  0.00     0.135 A 
ATOM     60  C   UNL A   1      43.857  33.516  32.070  1.00  0.00     0.135 A 
ATOM     61  F   UNL A   1      44.299  33.960  28.485  1.00  0.00    -0.206 F 
ATOM     62  C   UNL A   1      44.302  35.546  30.216  1.00  0.00     0.059 A 
ATOM     63  C   UNL A   1      43.962  34.831  32.512  1.00  0.00     0.059 A 
ATOM     64  F   UNL A   1      43.657  32.555  32.987  1.00  0.00    -0.206 F 
ATOM     65  C   UNL A   1      44.200  35.839  31.577  1.00  0.00     0.060 A 
BRANCH  65  66
ATOM     66  S   UNL A   1      44.371  37.554  32.113  1.00  0.00     0.124 S 
ATOM     67  O   UNL A   1      43.517  37.575  33.297  1.00  0.00    -0.237 OA
ATOM     68  O   UNL A   1      45.805  37.664  32.366  1.00  0.00    -0.237 OA
ATOM     69  O   UNL A   1      43.880  38.317  30.970  1.00  0.00    -0.744 OA
ENDBRANCH  65  66
ENDBRANCH  44  58
BRANCH  45  70
ATOM     70  C   UNL A   1      42.576  23.783  27.615  1.00  0.00     0.058 A 
ATOM     71  C   UNL A   1      42.490  23.517  26.242  1.00  0.00     0.135 A 
ATOM     72  C   UNL A   1      42.490  22.699  28.501  1.00  0.00     0.135 A 
ATOM     73  F   UNL A   1      42.558  24.524  25.358  1.00  0.00    -0.206 F 
ATOM     74  C   UNL A   1      42.319  22.223  25.762  1.00  0.00     0.059 A 
ATOM     75  C   UNL A   1      42.340  21.393  28.045  1.00  0.00     0.059 A 
ATOM     76  F   UNL A   1      42.579  22.902  29.825  1.00  0.00    -0.206 F 
ATOM     77  C   UNL A   1      42.248  21.167  26.673  1.00  0.00     0.060 A 
BRANCH  77  78
ATOM     78  S   UNL A   1      42.087  19.482  26.041  1.00  0.00     0.124 S 
ATOM     79  O   UNL A   1      42.939  19.530  24.858  1.00  0.00    -0.237 OA
ATOM     80  O   UNL A   1      42.585  18.683  27.155  1.00  0.00    -0.237 OA
ATOM     81  O   UNL A   1      40.655  19.359  25.784  1.00  0.00    -0.744 OA
ENDBRANCH  77  78
ENDBRANCH  45  70
BRANCH  57  82
ATOM     82  C   UNL A   1      48.213  27.535  29.274  1.00  0.00     0.058 A 
ATOM     83  C   UNL A   1      49.023  27.749  28.149  1.00  0.00     0.135 A 
ATOM     84  C   UNL A   1      48.821  27.051  30.443  1.00  0.00     0.135 A 
ATOM     85  F   UNL A   1      48.485  28.203  27.005  1.00  0.00    -0.206 F 
ATOM     86  C   UNL A   1      50.387  27.481  28.177  1.00  0.00     0.059 A 
ATOM     87  C   UNL A   1      50.188  26.794  30.499  1.00  0.00     0.059 A 
ATOM     88  F   UNL A   1      48.089  26.836  31.547  1.00  0.00    -0.206 F 
ATOM     89  C   UNL A   1      50.961  27.002  29.357  1.00  0.00     0.060 A 
BRANCH  89  90
ATOM     90  S   UNL A   1      52.739  26.690  29.396  1.00  0.00     0.124 S 
ATOM     91  O   UNL A   1      53.273  28.045  29.480  1.00  0.00    -0.237 OA
ATOM     92  O   UNL A   1      52.891  25.874  30.597  1.00  0.00    -0.237 OA
ATOM     93  O   UNL A   1      52.988  25.992  28.138  1.00  0.00    -0.744 OA
ENDBRANCH  89  90
ENDBRANCH  57  82
ENDBRANCH  31  32
ENDBRANCH  24  26
ENDBRANCH  23  24
ENDBRANCH   1  23
TORSDOF 16
ENDMDL
MODEL 3
REMARK VINA RESULT:     -11.5      6.741     13.468
REMARK SMILES CC1(C)S[C@H](c2ccccc2O)[NH2+][C@H]1C(=O)OCCOC(=O)c1ccc(-c2c3nc(c(-c4c(F)cc(S(=O)(=O)[O-])cc4F)c4ccc([nH]4)c(-c4c(F)cc(S(=O)(=O)[O-])cc4F)c4nc(c(-c5c(F)cc(S(=O)(=O)[O-])cc5F)c5ccc2[nH]5)C=C4)C=C3)cc1
REMARK SMILES IDX 19 1 18 2 17 3 15 4 16 5 14 6 1 7 2 8 3 9 4 10 5 11 13 12
REMARK SMILES IDX 6 15 7 16 11 17 8 18 10 19 9 20 12 21 20 23 21 24 22 25
REMARK SMILES IDX 23 26 24 27 88 28 25 29 87 30 26 31 27 32 28 33 81 34 29 35
REMARK SMILES IDX 86 36 80 37 82 38 30 39 85 40 79 41 78 42 31 44 65 45 44 46
REMARK SMILES IDX 64 47 45 48 48 49 63 50 83 51 46 52 47 53 62 55 84 56 49 57
REMARK SMILES IDX 32 58 33 59 42 60 34 61 35 62 41 63 43 64 36 65 37 66 38 67
REMARK SMILES IDX 39 68 40 69 66 70 67 71 76 72 68 73 69 74 75 75 77 76 70 77
REMARK SMILES IDX 71 78 72 79 73 80 74 81 50 82 51 83 60 84 52 85 53 86 59 87
REMARK SMILES IDX 61 88 54 89 55 90 56 91 57 92 58 93
REMARK H PARENT 13 13 13 14 12 22 82 43 48 54
REMARK Flexibility Score: inf
ROOT
ATOM      1  C   UNL A   1      42.660  22.890  25.460  1.00  0.00     0.275 C 
ENDROOT
BRANCH   1   2
ATOM      2  C   UNL A   1      43.830  22.246  26.206  1.00  0.00     0.274 C 
BRANCH   2   3
ATOM      3  O   UNL A   1      45.029  23.045  26.130  1.00  0.00    -0.458 OA
BRANCH   3   4
ATOM      4  C   UNL A   1      45.288  23.813  27.217  1.00  0.00     0.366 C 
ATOM      5  O   UNL A   1      45.272  23.388  28.369  1.00  0.00    -0.245 OA
BRANCH   4   6
ATOM      6  C   UNL A   1      45.527  25.299  26.909  1.00  0.00     0.310 C 
ATOM      7  C   UNL A   1      48.134  25.200  26.682  1.00  0.00     0.030 C 
ATOM      8  C   UNL A   1      46.897  25.961  27.159  1.00  0.00     0.079 C 
ATOM      9  C   UNL A   1      47.069  26.413  28.612  1.00  0.00     0.030 C 
ATOM     10  S   UNL A   1      46.776  27.485  26.129  1.00  0.00    -0.081 SA
ATOM     11  C   UNL A   1      45.187  27.038  25.334  1.00  0.00     0.278 C 
ATOM     12  N   UNL A   1      45.091  25.577  25.509  1.00  0.00    -0.318 N 
ATOM     13  H   UNL A   1      45.703  25.101  24.846  1.00  0.00     0.348 HD
ATOM     14  H   UNL A   1      44.143  25.242  25.340  1.00  0.00     0.348 HD
BRANCH  11  15
ATOM     15  C   UNL A   1      43.995  27.836  25.862  1.00  0.00     0.062 A 
ATOM     16  C   UNL A   1      44.132  28.858  26.822  1.00  0.00     0.015 A 
ATOM     17  C   UNL A   1      42.690  27.551  25.425  1.00  0.00     0.125 A 
ATOM     18  C   UNL A   1      43.035  29.612  27.255  1.00  0.00     0.001 A 
ATOM     19  C   UNL A   1      41.588  28.297  25.856  1.00  0.00     0.047 A 
ATOM     20  C   UNL A   1      41.766  29.338  26.763  1.00  0.00     0.004 A 
BRANCH  17  21
ATOM     21  O   UNL A   1      42.483  26.500  24.573  1.00  0.00    -0.507 OA
ATOM     22  H   UNL A   1      41.678  26.435  24.097  1.00  0.00     0.293 HD
ENDBRANCH  17  21
ENDBRANCH  11  15
ENDBRANCH   4   6
ENDBRANCH   3   4
ENDBRANCH   2   3
ENDBRANCH   1   2
BRANCH   1  23
ATOM     23  O   UNL A   1      42.215  24.091  26.112  1.00  0.00    -0.458 OA
BRANCH  23  24
ATOM     24  C   UNL A   1      41.191  23.931  26.981  1.00  0.00     0.338 C 
ATOM     25  O   UNL A   1      40.465  22.958  27.091  1.00  0.00    -0.246 OA
BRANCH  24  26
ATOM     26  C   UNL A   1      41.110  25.100  27.870  1.00  0.00     0.060 A 
ATOM     27  C   UNL A   1      42.289  25.650  28.379  1.00  0.00     0.016 A 
ATOM     28  C   UNL A   1      39.869  25.586  28.277  1.00  0.00     0.016 A 
ATOM     29  C   UNL A   1      42.235  26.686  29.307  1.00  0.00     0.010 A 
ATOM     30  C   UNL A   1      39.815  26.641  29.192  1.00  0.00     0.010 A 
ATOM     31  C   UNL A   1      40.997  27.190  29.722  1.00  0.00    -0.014 A 
BRANCH  31  32
ATOM     32  C   UNL A   1      40.934  28.279  30.725  1.00  0.00     0.031 A 
ATOM     33  C   UNL A   1      41.864  28.267  31.904  1.00  0.00     0.074 A 
ATOM     34  C   UNL A   1      40.035  29.271  30.579  1.00  0.00     0.049 A 
ATOM     35  N   UNL A   1      41.874  29.045  32.955  1.00  0.00    -0.248 NA
ATOM     36  C   UNL A   1      42.919  27.242  31.899  1.00  0.00     0.031 C 
ATOM     37  C   UNL A   1      39.109  29.414  29.454  1.00  0.00     0.029 A 
ATOM     38  N   UNL A   1      39.745  30.339  31.389  1.00  0.00    -0.354 N 
ATOM     39  C   UNL A   1      42.916  28.587  33.753  1.00  0.00     0.074 A 
ATOM     40  C   UNL A   1      43.512  27.461  33.066  1.00  0.00     0.031 C 
ATOM     41  C   UNL A   1      38.348  30.503  29.650  1.00  0.00     0.029 A 
ATOM     42  C   UNL A   1      38.697  31.104  30.934  1.00  0.00     0.049 A 
ATOM     43  H   UNL A   1      40.238  30.540  32.217  1.00  0.00     0.167 HD
ATOM     44  C   UNL A   1      43.334  29.067  34.949  1.00  0.00     0.037 A 
ATOM     45  C   UNL A   1      38.065  32.148  31.504  1.00  0.00     0.037 A 
ATOM     46  C   UNL A   1      42.747  30.199  35.618  1.00  0.00     0.049 A 
ATOM     47  C   UNL A   1      38.517  32.632  32.853  1.00  0.00     0.074 A 
ATOM     48  C   UNL A   1      43.105  30.767  36.828  1.00  0.00     0.029 A 
ATOM     49  N   UNL A   1      41.680  30.938  35.130  1.00  0.00    -0.354 N 
ATOM     50  N   UNL A   1      39.490  32.178  33.608  1.00  0.00    -0.248 NA
ATOM     51  C   UNL A   1      37.779  33.762  33.436  1.00  0.00     0.031 C 
ATOM     52  C   UNL A   1      42.234  31.832  37.087  1.00  0.00     0.029 A 
ATOM     53  C   UNL A   1      41.357  31.949  36.020  1.00  0.00     0.049 A 
ATOM     54  H   UNL A   1      41.219  30.771  34.276  1.00  0.00     0.167 HD
ATOM     55  C   UNL A   1      39.491  32.975  34.746  1.00  0.00     0.074 A 
ATOM     56  C   UNL A   1      38.429  33.948  34.577  1.00  0.00     0.031 C 
ATOM     57  C   UNL A   1      40.297  32.909  35.834  1.00  0.00     0.037 A 
BRANCH  44  58
ATOM     58  C   UNL A   1      44.462  28.343  35.628  1.00  0.00     0.058 A 
ATOM     59  C   UNL A   1      44.230  27.289  36.525  1.00  0.00     0.135 A 
ATOM     60  C   UNL A   1      45.794  28.694  35.357  1.00  0.00     0.135 A 
ATOM     61  F   UNL A   1      42.974  26.925  36.830  1.00  0.00    -0.206 F 
ATOM     62  C   UNL A   1      45.281  26.623  37.148  1.00  0.00     0.059 A 
ATOM     63  C   UNL A   1      46.861  28.029  35.954  1.00  0.00     0.059 A 
ATOM     64  F   UNL A   1      46.070  29.698  34.509  1.00  0.00    -0.206 F 
ATOM     65  C   UNL A   1      46.593  27.004  36.861  1.00  0.00     0.060 A 
BRANCH  65  66
ATOM     66  S   UNL A   1      47.948  26.137  37.680  1.00  0.00     0.124 S 
ATOM     67  O   UNL A   1      48.253  25.092  36.707  1.00  0.00    -0.237 OA
ATOM     68  O   UNL A   1      48.955  27.185  37.818  1.00  0.00    -0.237 OA
ATOM     69  O   UNL A   1      47.352  25.677  38.929  1.00  0.00    -0.744 OA
ENDBRANCH  65  66
ENDBRANCH  44  58
BRANCH  45  70
ATOM     70  C   UNL A   1      36.917  32.784  30.809  1.00  0.00     0.058 A 
ATOM     71  C   UNL A   1      35.597  32.477  31.167  1.00  0.00     0.135 A 
ATOM     72  C   UNL A   1      37.118  33.726  29.789  1.00  0.00     0.135 A 
ATOM     73  F   UNL A   1      35.355  31.575  32.131  1.00  0.00    -0.206 F 
ATOM     74  C   UNL A   1      34.514  33.078  30.534  1.00  0.00     0.059 A 
ATOM     75  C   UNL A   1      36.052  34.356  29.155  1.00  0.00     0.059 A 
ATOM     76  F   UNL A   1      38.364  34.061  29.419  1.00  0.00    -0.206 F 
ATOM     77  C   UNL A   1      34.753  34.019  29.531  1.00  0.00     0.060 A 
BRANCH  77  78
ATOM     78  S   UNL A   1      33.343  34.841  28.755  1.00  0.00     0.124 S 
ATOM     79  O   UNL A   1      33.991  35.964  28.087  1.00  0.00    -0.237 OA
ATOM     80  O   UNL A   1      32.817  33.796  27.882  1.00  0.00    -0.237 OA
ATOM     81  O   UNL A   1      32.492  35.185  29.890  1.00  0.00    -0.744 OA
ENDBRANCH  77  78
ENDBRANCH  45  70
BRANCH  57  82
ATOM     82  C   UNL A   1      40.081  33.929  36.914  1.00  0.00     0.058 A 
ATOM     83  C   UNL A   1      40.722  35.176  36.881  1.00  0.00     0.135 A 
ATOM     84  C   UNL A   1      39.186  33.674  37.965  1.00  0.00     0.135 A 
ATOM     85  F   UNL A   1      41.593  35.464  35.900  1.00  0.00    -0.206 F 
ATOM     86  C   UNL A   1      40.495  36.134  37.864  1.00  0.00     0.059 A 
ATOM     87  C   UNL A   1      38.929  34.625  38.948  1.00  0.00     0.059 A 
ATOM     88  F   UNL A   1      38.544  32.498  38.035  1.00  0.00    -0.206 F 
ATOM     89  C   UNL A   1      39.597  35.848  38.895  1.00  0.00     0.060 A 
BRANCH  89  90
ATOM     90  S   UNL A   1      39.279  37.109  40.147  1.00  0.00     0.124 S 
ATOM     91  O   UNL A   1      38.539  38.105  39.379  1.00  0.00    -0.237 OA
ATOM     92  O   UNL A   1      38.506  36.377  41.145  1.00  0.00    -0.237 OA
ATOM     93  O   UNL A   1      40.617  37.509  40.571  1.00  0.00    -0.744 OA
ENDBRANCH  89  90
ENDBRANCH  57  82
ENDBRANCH  31  32
ENDBRANCH  24  26
ENDBRANCH  23  24
ENDBRANCH   1  23
TORSDOF 16
ENDMDL
