MODEL 1
REMARK VINA RESULT:     -11.5      0.000      0.000
REMARK SMILES O=C(OCCOC(=O)c1cc(-c2ccc(C(F)(F)F)cc2)cc([N+](=O)[O-])c1)c1ccc(-c2c3nc(c(-c4c(F)cc(S(=O)(=O)[O-])cc4F)c4ccc([nH]4)c(-c4c(F)cc(S(=O)(=O)[O-])cc4F)c4nc(c(-c5c(F)cc(S(=O)(=O)[O-])cc5F)c5ccc2[nH]5)C=C4)C=C3)cc1
REMARK SMILES IDX 4 1 3 2 2 3 1 4 28 5 29 6 93 7 30 8 92 9 31 10 32 11 33 12
REMARK SMILES IDX 86 13 34 14 91 15 85 16 87 17 35 18 90 19 84 20 83 21 36 23
REMARK SMILES IDX 70 24 49 25 69 26 50 27 53 28 68 29 88 30 51 31 52 32 67 34
REMARK SMILES IDX 89 35 54 36 37 37 38 38 47 39 39 40 40 41 46 42 48 43 41 44
REMARK SMILES IDX 42 45 43 46 44 47 45 48 71 49 72 50 81 51 73 52 74 53 80 54
REMARK SMILES IDX 82 55 75 56 76 57 77 58 78 59 79 60 55 61 56 62 65 63 57 64
REMARK SMILES IDX 58 65 64 66 66 67 59 68 60 69 61 70 62 71 63 72 5 73 6 74
REMARK SMILES IDX 7 75 8 76 9 77 10 78 27 79 11 80 23 81 22 82 12 83 13 84
REMARK SMILES IDX 21 85 14 86 20 87 15 88 16 89 17 90 18 91 19 92 24 93 25 94
REMARK SMILES IDX 26 95
REMARK H PARENT 87 22 53 33
REMARK Flexibility Score: inf
ROOT
ATOM      1  C   UNL A   1      33.528  27.961  26.154  1.00  0.00     0.275 C 
ENDROOT
BRANCH   1   2
ATOM      2  O   UNL A   1      33.800  29.373  26.222  1.00  0.00    -0.458 OA
BRANCH   2   3
ATOM      3  C   UNL A   1      34.325  30.121  27.219  1.00  0.00     0.338 C 
ATOM      4  O   UNL A   1      33.699  31.113  27.595  1.00  0.00    -0.246 OA
BRANCH   3   5
ATOM      5  C   UNL A   1      35.683  29.896  27.816  1.00  0.00     0.060 A 
ATOM      6  C   UNL A   1      36.907  30.101  27.178  1.00  0.00     0.016 A 
ATOM      7  C   UNL A   1      35.712  29.465  29.158  1.00  0.00     0.016 A 
ATOM      8  C   UNL A   1      38.113  29.956  27.861  1.00  0.00     0.010 A 
ATOM      9  C   UNL A   1      36.916  29.330  29.855  1.00  0.00     0.010 A 
ATOM     10  C   UNL A   1      38.127  29.573  29.200  1.00  0.00    -0.014 A 
BRANCH  10  11
ATOM     11  C   UNL A   1      39.426  29.258  29.826  1.00  0.00     0.031 A 
ATOM     12  C   UNL A   1      39.838  30.060  31.021  1.00  0.00     0.074 A 
ATOM     13  C   UNL A   1      40.151  28.202  29.416  1.00  0.00     0.049 A 
ATOM     14  N   UNL A   1      40.878  29.907  31.792  1.00  0.00    -0.248 NA
ATOM     15  C   UNL A   1      38.931  31.147  31.432  1.00  0.00     0.031 C 
ATOM     16  C   UNL A   1      39.751  27.265  28.368  1.00  0.00     0.029 A 
ATOM     17  N   UNL A   1      41.366  27.727  29.831  1.00  0.00    -0.354 N 
ATOM     18  C   UNL A   1      40.732  30.849  32.801  1.00  0.00     0.074 A 
ATOM     19  C   UNL A   1      39.543  31.615  32.507  1.00  0.00     0.031 C 
ATOM     20  C   UNL A   1      40.730  26.367  28.176  1.00  0.00     0.029 A 
ATOM     21  C   UNL A   1      41.822  26.661  29.091  1.00  0.00     0.049 A 
ATOM     22  H   UNL A   1      41.866  28.112  30.586  1.00  0.00     0.167 HD
ATOM     23  C   UNL A   1      41.505  31.026  33.895  1.00  0.00     0.037 A 
ATOM     24  C   UNL A   1      42.991  25.995  29.149  1.00  0.00     0.037 A 
ATOM     25  C   UNL A   1      42.700  30.267  34.148  1.00  0.00     0.049 A 
ATOM     26  C   UNL A   1      43.933  26.338  30.267  1.00  0.00     0.074 A 
ATOM     27  C   UNL A   1      43.581  30.375  35.205  1.00  0.00     0.029 A 
ATOM     28  N   UNL A   1      43.189  29.269  33.313  1.00  0.00    -0.354 N 
ATOM     29  N   UNL A   1      43.777  27.220  31.228  1.00  0.00    -0.248 NA
ATOM     30  C   UNL A   1      45.183  25.575  30.344  1.00  0.00     0.031 C 
ATOM     31  C   UNL A   1      44.639  29.488  34.976  1.00  0.00     0.029 A 
ATOM     32  C   UNL A   1      44.384  28.779  33.811  1.00  0.00     0.049 A 
ATOM     33  H   UNL A   1      42.751  28.956  32.488  1.00  0.00     0.167 HD
ATOM     34  C   UNL A   1      44.879  27.076  32.058  1.00  0.00     0.074 A 
ATOM     35  C   UNL A   1      45.698  26.029  31.478  1.00  0.00     0.031 C 
ATOM     36  C   UNL A   1      45.175  27.733  33.208  1.00  0.00     0.037 A 
BRANCH  23  37
ATOM     37  C   UNL A   1      41.093  32.109  34.849  1.00  0.00     0.058 A 
ATOM     38  C   UNL A   1      41.583  33.423  34.738  1.00  0.00     0.135 A 
ATOM     39  C   UNL A   1      40.233  31.820  35.919  1.00  0.00     0.135 A 
ATOM     40  F   UNL A   1      42.436  33.746  33.752  1.00  0.00    -0.206 F 
ATOM     41  C   UNL A   1      41.264  34.399  35.677  1.00  0.00     0.059 A 
ATOM     42  C   UNL A   1      39.878  32.788  36.853  1.00  0.00     0.059 A 
ATOM     43  F   UNL A   1      39.749  30.579  36.079  1.00  0.00    -0.206 F 
ATOM     44  C   UNL A   1      40.415  34.069  36.734  1.00  0.00     0.060 A 
BRANCH  44  45
ATOM     45  S   UNL A   1      40.033  35.337  37.959  1.00  0.00     0.124 S 
ATOM     46  O   UNL A   1      38.808  34.808  38.552  1.00  0.00    -0.237 OA
ATOM     47  O   UNL A   1      41.214  35.309  38.815  1.00  0.00    -0.237 OA
ATOM     48  O   UNL A   1      39.870  36.547  37.158  1.00  0.00    -0.744 OA
ENDBRANCH  44  45
ENDBRANCH  23  37
BRANCH  24  49
ATOM     49  C   UNL A   1      43.312  24.937  28.153  1.00  0.00     0.058 A 
ATOM     50  C   UNL A   1      43.040  23.584  28.399  1.00  0.00     0.135 A 
ATOM     51  C   UNL A   1      43.908  25.265  26.923  1.00  0.00     0.135 A 
ATOM     52  F   UNL A   1      42.477  23.216  29.560  1.00  0.00    -0.206 F 
ATOM     53  C   UNL A   1      43.367  22.593  27.477  1.00  0.00     0.059 A 
ATOM     54  C   UNL A   1      44.220  24.295  25.973  1.00  0.00     0.059 A 
ATOM     55  F   UNL A   1      44.194  26.545  26.638  1.00  0.00    -0.206 F 
ATOM     56  C   UNL A   1      43.956  22.958  26.266  1.00  0.00     0.060 A 
BRANCH  56  57
ATOM     57  S   UNL A   1      44.359  21.659  25.075  1.00  0.00     0.124 S 
ATOM     58  O   UNL A   1      43.454  20.593  25.486  1.00  0.00    -0.237 OA
ATOM     59  O   UNL A   1      44.048  22.304  23.803  1.00  0.00    -0.237 OA
ATOM     60  O   UNL A   1      45.777  21.406  25.312  1.00  0.00    -0.744 OA
ENDBRANCH  56  57
ENDBRANCH  24  49
BRANCH  36  61
ATOM     61  C   UNL A   1      46.415  27.301  33.937  1.00  0.00     0.058 A 
ATOM     62  C   UNL A   1      46.396  26.268  34.886  1.00  0.00     0.135 A 
ATOM     63  C   UNL A   1      47.648  27.906  33.644  1.00  0.00     0.135 A 
ATOM     64  F   UNL A   1      45.240  25.664  35.206  1.00  0.00    -0.206 F 
ATOM     65  C   UNL A   1      47.554  25.867  35.540  1.00  0.00     0.059 A 
ATOM     66  C   UNL A   1      48.824  27.497  34.260  1.00  0.00     0.059 A 
ATOM     67  F   UNL A   1      47.720  28.892  32.735  1.00  0.00    -0.206 F 
ATOM     68  C   UNL A   1      48.764  26.486  35.217  1.00  0.00     0.060 A 
BRANCH  68  69
ATOM     69  S   UNL A   1      50.265  25.932  36.049  1.00  0.00     0.124 S 
ATOM     70  O   UNL A   1      50.697  24.844  35.180  1.00  0.00    -0.237 OA
ATOM     71  O   UNL A   1      51.096  27.133  36.024  1.00  0.00    -0.237 OA
ATOM     72  O   UNL A   1      49.793  25.533  37.372  1.00  0.00    -0.744 OA
ENDBRANCH  68  69
ENDBRANCH  36  61
ENDBRANCH  10  11
ENDBRANCH   3   5
ENDBRANCH   2   3
ENDBRANCH   1   2
BRANCH   1  73
ATOM     73  C   UNL A   1      32.266  27.510  26.901  1.00  0.00     0.275 C 
BRANCH  73  74
ATOM     74  O   UNL A   1      31.437  26.599  26.159  1.00  0.00    -0.458 OA
BRANCH  74  75
ATOM     75  C   UNL A   1      31.723  25.286  26.340  1.00  0.00     0.338 C 
ATOM     76  O   UNL A   1      31.210  24.533  27.157  1.00  0.00    -0.246 OA
BRANCH  75  77
ATOM     77  C   UNL A   1      32.670  24.821  25.307  1.00  0.00     0.067 A 
ATOM     78  C   UNL A   1      33.812  24.124  25.726  1.00  0.00     0.025 A 
ATOM     79  C   UNL A   1      32.494  25.138  23.959  1.00  0.00     0.101 A 
ATOM     80  C   UNL A   1      34.776  23.693  24.801  1.00  0.00    -0.011 A 
ATOM     81  C   UNL A   1      33.470  24.726  23.038  1.00  0.00     0.270 A 
ATOM     82  C   UNL A   1      34.575  23.969  23.443  1.00  0.00     0.094 A 
BRANCH  80  83
ATOM     83  C   UNL A   1      36.061  23.157  25.253  1.00  0.00    -0.018 A 
ATOM     84  C   UNL A   1      37.029  23.926  25.909  1.00  0.00     0.009 A 
ATOM     85  C   UNL A   1      36.347  21.811  24.977  1.00  0.00     0.009 A 
ATOM     86  C   UNL A   1      38.267  23.365  26.248  1.00  0.00     0.014 A 
ATOM     87  C   UNL A   1      37.578  21.251  25.308  1.00  0.00     0.014 A 
ATOM     88  C   UNL A   1      38.560  22.027  25.934  1.00  0.00     0.056 A 
BRANCH  88  89
ATOM     89  C   UNL A   1      39.915  21.441  26.237  1.00  0.00     0.416 C 
ATOM     90  F   UNL A   1      40.223  21.503  27.562  1.00  0.00    -0.166 F 
ATOM     91  F   UNL A   1      40.017  20.130  25.887  1.00  0.00    -0.166 F 
ATOM     92  F   UNL A   1      40.937  22.077  25.594  1.00  0.00    -0.166 F 
ENDBRANCH  88  89
ENDBRANCH  80  83
BRANCH  81  93
ATOM     93  N   UNL A   1      33.410  25.199  21.648  1.00  0.00     0.062 N 
ATOM     94  O   UNL A   1      33.211  24.356  20.764  1.00  0.00    -0.258 OA
ATOM     95  O   UNL A   1      33.612  26.404  21.454  1.00  0.00    -0.258 OA
ENDBRANCH  81  93
ENDBRANCH  75  77
ENDBRANCH  74  75
ENDBRANCH  73  74
ENDBRANCH   1  73
TORSDOF 17
ENDMDL
MODEL 2
REMARK VINA RESULT:     -11.4      4.611      9.974
REMARK SMILES O=C(OCCOC(=O)c1cc(-c2ccc(C(F)(F)F)cc2)cc([N+](=O)[O-])c1)c1ccc(-c2c3nc(c(-c4c(F)cc(S(=O)(=O)[O-])cc4F)c4ccc([nH]4)c(-c4c(F)cc(S(=O)(=O)[O-])cc4F)c4nc(c(-c5c(F)cc(S(=O)(=O)[O-])cc5F)c5ccc2[nH]5)C=C4)C=C3)cc1
REMARK SMILES IDX 4 1 3 2 2 3 1 4 28 5 29 6 93 7 30 8 92 9 31 10 32 11 33 12
REMARK SMILES IDX 86 13 34 14 91 15 85 16 87 17 35 18 90 19 84 20 83 21 36 23
REMARK SMILES IDX 70 24 49 25 69 26 50 27 53 28 68 29 88 30 51 31 52 32 67 34
REMARK SMILES IDX 89 35 54 36 37 37 38 38 47 39 39 40 40 41 46 42 48 43 41 44
REMARK SMILES IDX 42 45 43 46 44 47 45 48 71 49 72 50 81 51 73 52 74 53 80 54
REMARK SMILES IDX 82 55 75 56 76 57 77 58 78 59 79 60 55 61 56 62 65 63 57 64
REMARK SMILES IDX 58 65 64 66 66 67 59 68 60 69 61 70 62 71 63 72 5 73 6 74
REMARK SMILES IDX 7 75 8 76 9 77 10 78 27 79 11 80 23 81 22 82 12 83 13 84
REMARK SMILES IDX 21 85 14 86 20 87 15 88 16 89 17 90 18 91 19 92 24 93 25 94
REMARK SMILES IDX 26 95
REMARK H PARENT 87 22 53 33
REMARK Flexibility Score: inf
ROOT
ATOM      1  C   UNL A   1      36.780  21.880  24.757  1.00  0.00     0.275 C 
ENDROOT
BRANCH   1   2
ATOM      2  O   UNL A   1      37.375  22.684  25.792  1.00  0.00    -0.458 OA
BRANCH   2   3
ATOM      3  C   UNL A   1      38.660  22.776  26.205  1.00  0.00     0.338 C 
ATOM      4  O   UNL A   1      39.318  21.739  26.300  1.00  0.00    -0.246 OA
BRANCH   3   5
ATOM      5  C   UNL A   1      39.304  24.046  26.679  1.00  0.00     0.060 A 
ATOM      6  C   UNL A   1      40.011  24.955  25.892  1.00  0.00     0.016 A 
ATOM      7  C   UNL A   1      39.146  24.353  28.046  1.00  0.00     0.016 A 
ATOM      8  C   UNL A   1      40.483  26.156  26.418  1.00  0.00     0.010 A 
ATOM      9  C   UNL A   1      39.604  25.561  28.580  1.00  0.00     0.010 A 
ATOM     10  C   UNL A   1      40.282  26.468  27.760  1.00  0.00    -0.014 A 
BRANCH  10  11
ATOM     11  C   UNL A   1      40.953  27.662  28.311  1.00  0.00     0.031 A 
ATOM     12  C   UNL A   1      42.448  27.707  28.262  1.00  0.00     0.074 A 
ATOM     13  C   UNL A   1      40.239  28.725  28.722  1.00  0.00     0.049 A 
ATOM     14  N   UNL A   1      43.250  28.681  28.592  1.00  0.00    -0.248 NA
ATOM     15  C   UNL A   1      43.129  26.517  27.722  1.00  0.00     0.031 C 
ATOM     16  C   UNL A   1      38.784  28.836  28.654  1.00  0.00     0.029 A 
ATOM     17  N   UNL A   1      40.632  29.919  29.266  1.00  0.00    -0.354 N 
ATOM     18  C   UNL A   1      44.523  28.240  28.263  1.00  0.00     0.074 A 
ATOM     19  C   UNL A   1      44.397  26.886  27.775  1.00  0.00     0.031 C 
ATOM     20  C   UNL A   1      38.400  30.002  29.198  1.00  0.00     0.029 A 
ATOM     21  C   UNL A   1      39.582  30.723  29.645  1.00  0.00     0.049 A 
ATOM     22  H   UNL A   1      41.575  30.176  29.376  1.00  0.00     0.167 HD
ATOM     23  C   UNL A   1      45.687  28.924  28.328  1.00  0.00     0.037 A 
ATOM     24  C   UNL A   1      39.578  31.910  30.279  1.00  0.00     0.037 A 
ATOM     25  C   UNL A   1      45.787  30.262  28.846  1.00  0.00     0.049 A 
ATOM     26  C   UNL A   1      40.902  32.577  30.520  1.00  0.00     0.074 A 
ATOM     27  C   UNL A   1      46.913  31.048  28.991  1.00  0.00     0.029 A 
ATOM     28  N   UNL A   1      44.712  31.002  29.325  1.00  0.00    -0.354 N 
ATOM     29  N   UNL A   1      42.102  32.157  30.188  1.00  0.00    -0.248 NA
ATOM     30  C   UNL A   1      40.879  33.889  31.172  1.00  0.00     0.031 C 
ATOM     31  C   UNL A   1      46.530  32.238  29.618  1.00  0.00     0.029 A 
ATOM     32  C   UNL A   1      45.154  32.223  29.803  1.00  0.00     0.049 A 
ATOM     33  H   UNL A   1      43.774  30.703  29.324  1.00  0.00     0.167 HD
ATOM     34  C   UNL A   1      42.972  33.180  30.537  1.00  0.00     0.074 A 
ATOM     35  C   UNL A   1      42.159  34.233  31.115  1.00  0.00     0.031 C 
ATOM     36  C   UNL A   1      44.317  33.252  30.372  1.00  0.00     0.037 A 
BRANCH  23  37
ATOM     37  C   UNL A   1      46.923  28.205  27.874  1.00  0.00     0.058 A 
ATOM     38  C   UNL A   1      47.710  27.447  28.760  1.00  0.00     0.135 A 
ATOM     39  C   UNL A   1      47.357  28.314  26.545  1.00  0.00     0.135 A 
ATOM     40  F   UNL A   1      47.359  27.337  30.052  1.00  0.00    -0.206 F 
ATOM     41  C   UNL A   1      48.901  26.856  28.351  1.00  0.00     0.059 A 
ATOM     42  C   UNL A   1      48.530  27.706  26.107  1.00  0.00     0.059 A 
ATOM     43  F   UNL A   1      46.652  29.037  25.662  1.00  0.00    -0.206 F 
ATOM     44  C   UNL A   1      49.304  26.996  27.023  1.00  0.00     0.060 A 
BRANCH  44  45
ATOM     45  S   UNL A   1      50.865  26.248  26.513  1.00  0.00     0.124 S 
ATOM     46  O   UNL A   1      51.834  27.124  27.165  1.00  0.00    -0.237 OA
ATOM     47  O   UNL A   1      50.758  24.901  27.064  1.00  0.00    -0.237 OA
ATOM     48  O   UNL A   1      50.824  26.334  25.056  1.00  0.00    -0.744 OA
ENDBRANCH  44  45
ENDBRANCH  23  37
BRANCH  24  49
ATOM     49  C   UNL A   1      38.297  32.543  30.695  1.00  0.00     0.058 A 
ATOM     50  C   UNL A   1      37.680  32.226  31.913  1.00  0.00     0.135 A 
ATOM     51  C   UNL A   1      37.657  33.484  29.870  1.00  0.00     0.135 A 
ATOM     52  F   UNL A   1      38.245  31.330  32.737  1.00  0.00    -0.206 F 
ATOM     53  C   UNL A   1      36.468  32.798  32.290  1.00  0.00     0.059 A 
ATOM     54  C   UNL A   1      36.458  34.090  30.236  1.00  0.00     0.059 A 
ATOM     55  F   UNL A   1      38.203  33.819  28.691  1.00  0.00    -0.206 F 
ATOM     56  C   UNL A   1      35.863  33.730  31.443  1.00  0.00     0.060 A 
BRANCH  56  57
ATOM     57  S   UNL A   1      34.297  34.473  31.956  1.00  0.00     0.124 S 
ATOM     58  O   UNL A   1      33.762  33.450  32.846  1.00  0.00    -0.237 OA
ATOM     59  O   UNL A   1      34.741  35.707  32.598  1.00  0.00    -0.237 OA
ATOM     60  O   UNL A   1      33.576  34.653  30.699  1.00  0.00    -0.744 OA
ENDBRANCH  56  57
ENDBRANCH  24  49
BRANCH  36  61
ATOM     61  C   UNL A   1      44.983  34.534  30.782  1.00  0.00     0.058 A 
ATOM     62  C   UNL A   1      45.120  35.615  29.898  1.00  0.00     0.135 A 
ATOM     63  C   UNL A   1      45.451  34.693  32.096  1.00  0.00     0.135 A 
ATOM     64  F   UNL A   1      44.696  35.508  28.628  1.00  0.00    -0.206 F 
ATOM     65  C   UNL A   1      45.724  36.801  30.295  1.00  0.00     0.059 A 
ATOM     66  C   UNL A   1      46.025  35.883  32.525  1.00  0.00     0.059 A 
ATOM     67  F   UNL A   1      45.333  33.692  32.984  1.00  0.00    -0.206 F 
ATOM     68  C   UNL A   1      46.170  36.926  31.613  1.00  0.00     0.060 A 
BRANCH  68  69
ATOM     69  S   UNL A   1      46.920  38.484  32.125  1.00  0.00     0.124 S 
ATOM     70  O   UNL A   1      48.340  38.155  32.077  1.00  0.00    -0.237 OA
ATOM     71  O   UNL A   1      46.449  39.409  31.098  1.00  0.00    -0.237 OA
ATOM     72  O   UNL A   1      46.369  38.705  33.458  1.00  0.00    -0.744 OA
ENDBRANCH  68  69
ENDBRANCH  36  61
ENDBRANCH  10  11
ENDBRANCH   3   5
ENDBRANCH   2   3
ENDBRANCH   1   2
BRANCH   1  73
ATOM     73  C   UNL A   1      35.422  22.382  24.249  1.00  0.00     0.275 C 
BRANCH  73  74
ATOM     74  O   UNL A   1      35.376  23.794  23.988  1.00  0.00    -0.458 OA
BRANCH  74  75
ATOM     75  C   UNL A   1      34.241  24.232  23.391  1.00  0.00     0.338 C 
ATOM     76  O   UNL A   1      33.910  24.049  22.227  1.00  0.00    -0.246 OA
BRANCH  75  77
ATOM     77  C   UNL A   1      33.353  24.869  24.384  1.00  0.00     0.067 A 
ATOM     78  C   UNL A   1      33.612  26.200  24.741  1.00  0.00     0.025 A 
ATOM     79  C   UNL A   1      32.340  24.153  25.024  1.00  0.00     0.101 A 
ATOM     80  C   UNL A   1      32.836  26.852  25.712  1.00  0.00    -0.011 A 
ATOM     81  C   UNL A   1      31.579  24.799  26.010  1.00  0.00     0.270 A 
ATOM     82  C   UNL A   1      31.788  26.149  26.319  1.00  0.00     0.094 A 
BRANCH  80  83
ATOM     83  C   UNL A   1      33.234  28.160  26.235  1.00  0.00    -0.018 A 
ATOM     84  C   UNL A   1      34.540  28.466  26.631  1.00  0.00     0.009 A 
ATOM     85  C   UNL A   1      32.241  29.141  26.381  1.00  0.00     0.009 A 
ATOM     86  C   UNL A   1      34.835  29.716  27.191  1.00  0.00     0.014 A 
ATOM     87  C   UNL A   1      32.528  30.382  26.942  1.00  0.00     0.014 A 
ATOM     88  C   UNL A   1      33.827  30.679  27.370  1.00  0.00     0.056 A 
BRANCH  88  89
ATOM     89  C   UNL A   1      34.127  31.998  28.034  1.00  0.00     0.416 C 
ATOM     90  F   UNL A   1      34.289  31.876  29.381  1.00  0.00    -0.166 F 
ATOM     91  F   UNL A   1      35.266  32.579  27.570  1.00  0.00    -0.166 F 
ATOM     92  F   UNL A   1      33.142  32.926  27.867  1.00  0.00    -0.166 F 
ENDBRANCH  88  89
ENDBRANCH  80  83
BRANCH  81  93
ATOM     93  N   UNL A   1      30.634  24.027  26.828  1.00  0.00     0.062 N 
ATOM     94  O   UNL A   1      29.500  24.494  26.989  1.00  0.00    -0.258 OA
ATOM     95  O   UNL A   1      31.056  22.982  27.341  1.00  0.00    -0.258 OA
ENDBRANCH  81  93
ENDBRANCH  75  77
ENDBRANCH  74  75
ENDBRANCH  73  74
ENDBRANCH   1  73
TORSDOF 17
ENDMDL
MODEL 3
REMARK VINA RESULT:     -11.4      4.499      9.785
REMARK SMILES O=C(OCCOC(=O)c1cc(-c2ccc(C(F)(F)F)cc2)cc([N+](=O)[O-])c1)c1ccc(-c2c3nc(c(-c4c(F)cc(S(=O)(=O)[O-])cc4F)c4ccc([nH]4)c(-c4c(F)cc(S(=O)(=O)[O-])cc4F)c4nc(c(-c5c(F)cc(S(=O)(=O)[O-])cc5F)c5ccc2[nH]5)C=C4)C=C3)cc1
REMARK SMILES IDX 4 1 3 2 2 3 1 4 28 5 29 6 93 7 30 8 92 9 31 10 32 11 33 12
REMARK SMILES IDX 86 13 34 14 91 15 85 16 87 17 35 18 90 19 84 20 83 21 36 23
REMARK SMILES IDX 70 24 49 25 69 26 50 27 53 28 68 29 88 30 51 31 52 32 67 34
REMARK SMILES IDX 89 35 54 36 37 37 38 38 47 39 39 40 40 41 46 42 48 43 41 44
REMARK SMILES IDX 42 45 43 46 44 47 45 48 71 49 72 50 81 51 73 52 74 53 80 54
REMARK SMILES IDX 82 55 75 56 76 57 77 58 78 59 79 60 55 61 56 62 65 63 57 64
REMARK SMILES IDX 58 65 64 66 66 67 59 68 60 69 61 70 62 71 63 72 5 73 6 74
REMARK SMILES IDX 7 75 8 76 9 77 10 78 27 79 11 80 23 81 22 82 12 83 13 84
REMARK SMILES IDX 21 85 14 86 20 87 15 88 16 89 17 90 18 91 19 92 24 93 25 94
REMARK SMILES IDX 26 95
REMARK H PARENT 87 22 53 33
REMARK Flexibility Score: inf
ROOT
ATOM      1  C   UNL A   1      36.529  21.694  25.565  1.00  0.00     0.275 C 
ENDROOT
BRANCH   1   2
ATOM      2  O   UNL A   1      37.453  22.793  25.678  1.00  0.00    -0.458 OA
BRANCH   2   3
ATOM      3  C   UNL A   1      38.679  22.856  26.246  1.00  0.00     0.338 C 
ATOM      4  O   UNL A   1      39.276  21.802  26.465  1.00  0.00    -0.246 OA
BRANCH   3   5
ATOM      5  C   UNL A   1      39.312  24.123  26.744  1.00  0.00     0.060 A 
ATOM      6  C   UNL A   1      40.011  25.053  25.974  1.00  0.00     0.016 A 
ATOM      7  C   UNL A   1      39.152  24.403  28.116  1.00  0.00     0.016 A 
ATOM      8  C   UNL A   1      40.473  26.248  26.523  1.00  0.00     0.010 A 
ATOM      9  C   UNL A   1      39.598  25.604  28.673  1.00  0.00     0.010 A 
ATOM     10  C   UNL A   1      40.269  26.533  27.871  1.00  0.00    -0.014 A 
BRANCH  10  11
ATOM     11  C   UNL A   1      40.930  27.721  28.444  1.00  0.00     0.031 A 
ATOM     12  C   UNL A   1      42.426  27.760  28.438  1.00  0.00     0.074 A 
ATOM     13  C   UNL A   1      40.209  28.787  28.838  1.00  0.00     0.049 A 
ATOM     14  N   UNL A   1      43.222  28.729  28.793  1.00  0.00    -0.248 NA
ATOM     15  C   UNL A   1      43.116  26.568  27.913  1.00  0.00     0.031 C 
ATOM     16  C   UNL A   1      38.757  28.905  28.729  1.00  0.00     0.029 A 
ATOM     17  N   UNL A   1      40.592  29.977  29.397  1.00  0.00    -0.354 N 
ATOM     18  C   UNL A   1      44.503  28.283  28.499  1.00  0.00     0.074 A 
ATOM     19  C   UNL A   1      44.384  26.931  28.003  1.00  0.00     0.031 C 
ATOM     20  C   UNL A   1      38.364  30.071  29.265  1.00  0.00     0.029 A 
ATOM     21  C   UNL A   1      39.536  30.785  29.748  1.00  0.00     0.049 A 
ATOM     22  H   UNL A   1      41.534  30.230  29.534  1.00  0.00     0.167 HD
ATOM     23  C   UNL A   1      45.667  28.961  28.600  1.00  0.00     0.037 A 
ATOM     24  C   UNL A   1      39.519  31.971  30.386  1.00  0.00     0.037 A 
ATOM     25  C   UNL A   1      45.759  30.296  29.124  1.00  0.00     0.049 A 
ATOM     26  C   UNL A   1      40.840  32.630  30.666  1.00  0.00     0.074 A 
ATOM     27  C   UNL A   1      46.884  31.077  29.303  1.00  0.00     0.029 A 
ATOM     28  N   UNL A   1      44.674  31.041  29.575  1.00  0.00    -0.354 N 
ATOM     29  N   UNL A   1      42.046  32.205  30.368  1.00  0.00    -0.248 NA
ATOM     30  C   UNL A   1      40.804  33.940  31.322  1.00  0.00     0.031 C 
ATOM     31  C   UNL A   1      46.489  32.267  29.923  1.00  0.00     0.029 A 
ATOM     32  C   UNL A   1      45.109  32.258  30.070  1.00  0.00     0.049 A 
ATOM     33  H   UNL A   1      43.735  30.746  29.547  1.00  0.00     0.167 HD
ATOM     34  C   UNL A   1      42.911  33.223  30.744  1.00  0.00     0.074 A 
ATOM     35  C   UNL A   1      42.086  34.278  31.302  1.00  0.00     0.031 C 
ATOM     36  C   UNL A   1      44.260  33.289  30.618  1.00  0.00     0.037 A 
BRANCH  23  37
ATOM     37  C   UNL A   1      46.913  28.237  28.179  1.00  0.00     0.058 A 
ATOM     38  C   UNL A   1      47.395  28.292  26.859  1.00  0.00     0.135 A 
ATOM     39  C   UNL A   1      47.609  27.436  29.096  1.00  0.00     0.135 A 
ATOM     40  F   UNL A   1      46.747  29.018  25.932  1.00  0.00    -0.206 F 
ATOM     41  C   UNL A   1      48.500  27.549  26.457  1.00  0.00     0.059 A 
ATOM     42  C   UNL A   1      48.734  26.707  28.722  1.00  0.00     0.059 A 
ATOM     43  F   UNL A   1      47.183  27.335  30.365  1.00  0.00    -0.206 F 
ATOM     44  C   UNL A   1      49.159  26.755  27.396  1.00  0.00     0.060 A 
BRANCH  44  45
ATOM     45  S   UNL A   1      50.573  25.775  26.854  1.00  0.00     0.124 S 
ATOM     46  O   UNL A   1      50.417  25.817  25.402  1.00  0.00    -0.237 OA
ATOM     47  O   UNL A   1      51.700  26.531  27.391  1.00  0.00    -0.237 OA
ATOM     48  O   UNL A   1      50.342  24.473  27.471  1.00  0.00    -0.744 OA
ENDBRANCH  44  45
ENDBRANCH  23  37
BRANCH  24  49
ATOM     49  C   UNL A   1      38.230  32.608  30.768  1.00  0.00     0.058 A 
ATOM     50  C   UNL A   1      37.600  32.323  31.987  1.00  0.00     0.135 A 
ATOM     51  C   UNL A   1      37.596  33.521  29.908  1.00  0.00     0.135 A 
ATOM     52  F   UNL A   1      38.159  31.455  32.843  1.00  0.00    -0.206 F 
ATOM     53  C   UNL A   1      36.380  32.900  32.331  1.00  0.00     0.059 A 
ATOM     54  C   UNL A   1      36.389  34.131  30.241  1.00  0.00     0.059 A 
ATOM     55  F   UNL A   1      38.154  33.825  28.726  1.00  0.00    -0.206 F 
ATOM     56  C   UNL A   1      35.781  33.803  31.451  1.00  0.00     0.060 A 
BRANCH  56  57
ATOM     57  S   UNL A   1      34.205  34.552  31.923  1.00  0.00     0.124 S 
ATOM     58  O   UNL A   1      34.645  35.788  32.560  1.00  0.00    -0.237 OA
ATOM     59  O   UNL A   1      33.541  34.703  30.631  1.00  0.00    -0.237 OA
ATOM     60  O   UNL A   1      33.609  33.562  32.815  1.00  0.00    -0.744 OA
ENDBRANCH  56  57
ENDBRANCH  24  49
BRANCH  36  61
ATOM     61  C   UNL A   1      44.921  34.566  31.050  1.00  0.00     0.058 A 
ATOM     62  C   UNL A   1      45.423  34.740  32.349  1.00  0.00     0.135 A 
ATOM     63  C   UNL A   1      45.091  35.614  30.131  1.00  0.00     0.135 A 
ATOM     64  F   UNL A   1      45.277  33.769  33.265  1.00  0.00    -0.206 F 
ATOM     65  C   UNL A   1      46.047  35.920  32.730  1.00  0.00     0.059 A 
ATOM     66  C   UNL A   1      45.744  36.790  30.481  1.00  0.00     0.059 A 
ATOM     67  F   UNL A   1      44.638  35.494  28.873  1.00  0.00    -0.206 F 
ATOM     68  C   UNL A   1      46.206  36.938  31.787  1.00  0.00     0.060 A 
BRANCH  68  69
ATOM     69  S   UNL A   1      47.049  38.453  32.286  1.00  0.00     0.124 S 
ATOM     70  O   UNL A   1      45.934  39.387  32.394  1.00  0.00    -0.237 OA
ATOM     71  O   UNL A   1      47.673  38.061  33.545  1.00  0.00    -0.237 OA
ATOM     72  O   UNL A   1      47.976  38.704  31.186  1.00  0.00    -0.744 OA
ENDBRANCH  68  69
ENDBRANCH  36  61
ENDBRANCH  10  11
ENDBRANCH   3   5
ENDBRANCH   2   3
ENDBRANCH   1   2
BRANCH   1  73
ATOM     73  C   UNL A   1      35.157  21.934  26.209  1.00  0.00     0.275 C 
BRANCH  73  74
ATOM     74  O   UNL A   1      34.169  22.463  25.309  1.00  0.00    -0.458 OA
BRANCH  74  75
ATOM     75  C   UNL A   1      33.314  23.360  25.858  1.00  0.00     0.338 C 
ATOM     76  O   UNL A   1      32.677  23.222  26.894  1.00  0.00    -0.246 OA
BRANCH  75  77
ATOM     77  C   UNL A   1      33.342  24.626  25.098  1.00  0.00     0.067 A 
ATOM     78  C   UNL A   1      33.596  25.811  25.804  1.00  0.00     0.025 A 
ATOM     79  C   UNL A   1      33.036  24.668  23.737  1.00  0.00     0.101 A 
ATOM     80  C   UNL A   1      33.593  27.055  25.152  1.00  0.00    -0.011 A 
ATOM     81  C   UNL A   1      33.010  25.914  23.091  1.00  0.00     0.270 A 
ATOM     82  C   UNL A   1      33.333  27.092  23.776  1.00  0.00     0.094 A 
BRANCH  80  83
ATOM     83  C   UNL A   1      33.646  28.301  25.917  1.00  0.00    -0.018 A 
ATOM     84  C   UNL A   1      32.599  29.228  25.955  1.00  0.00     0.009 A 
ATOM     85  C   UNL A   1      34.828  28.595  26.615  1.00  0.00     0.009 A 
ATOM     86  C   UNL A   1      32.749  30.435  26.650  1.00  0.00     0.014 A 
ATOM     87  C   UNL A   1      34.982  29.795  27.302  1.00  0.00     0.014 A 
ATOM     88  C   UNL A   1      33.949  30.738  27.314  1.00  0.00     0.056 A 
BRANCH  88  89
ATOM     89  C   UNL A   1      34.136  32.065  28.005  1.00  0.00     0.416 C 
ATOM     90  F   UNL A   1      34.160  31.945  29.362  1.00  0.00    -0.166 F 
ATOM     91  F   UNL A   1      35.298  32.684  27.661  1.00  0.00    -0.166 F 
ATOM     92  F   UNL A   1      33.144  32.962  27.734  1.00  0.00    -0.166 F 
ENDBRANCH  88  89
ENDBRANCH  80  83
BRANCH  81  93
ATOM     93  N   UNL A   1      32.515  26.013  21.713  1.00  0.00     0.062 N 
ATOM     94  O   UNL A   1      31.386  26.489  21.542  1.00  0.00    -0.258 OA
ATOM     95  O   UNL A   1      33.245  25.568  20.818  1.00  0.00    -0.258 OA
ENDBRANCH  81  93
ENDBRANCH  75  77
ENDBRANCH  74  75
ENDBRANCH  73  74
ENDBRANCH   1  73
TORSDOF 17
ENDMDL
