MODEL 1
REMARK VINA RESULT:     -10.4      0.000      0.000
REMARK SMILES C[C@@H](Sc1ccccc1[N+](=O)[O-])[C@@H](C)C(=O)OCCOC(=O)c1ccc(-c2c3nc(c(-c4c(F)cc(S(=O)(=O)[O-])cc4F)c4ccc([nH]4)c(-c4c(F)cc(S(=O)(=O)[O-])cc4F)c4nc(c(-c5c(F)cc(S(=O)(=O)[O-])cc5F)c5ccc2[nH]5)C=C4)C=C3)cc1
REMARK SMILES IDX 18 1 17 2 15 3 16 4 13 5 14 6 2 7 1 8 3 9 4 10 5 11 9 12
REMARK SMILES IDX 6 13 8 14 7 15 10 16 11 17 12 18 19 19 20 20 21 21 22 22
REMARK SMILES IDX 23 23 24 24 88 25 25 26 87 27 26 28 27 29 28 30 81 31 29 32
REMARK SMILES IDX 86 33 80 34 82 35 30 36 85 37 79 38 78 39 31 41 65 42 44 43
REMARK SMILES IDX 64 44 45 45 48 46 63 47 83 48 46 49 47 50 62 52 84 53 49 54
REMARK SMILES IDX 32 55 33 56 42 57 34 58 35 59 41 60 43 61 36 62 37 63 38 64
REMARK SMILES IDX 39 65 40 66 66 67 67 68 76 69 68 70 69 71 75 72 77 73 70 74
REMARK SMILES IDX 71 75 72 76 73 77 74 78 50 79 51 80 60 81 52 82 53 83 59 84
REMARK SMILES IDX 61 85 54 86 55 87 56 88 57 89 58 90
REMARK H PARENT 82 40 48 51
REMARK Flexibility Score: inf
ROOT
ATOM      1  C   UNL A   1      31.750  28.725  26.244  1.00  0.00     0.274 C 
ENDROOT
BRANCH   1   2
ATOM      2  O   UNL A   1      32.583  27.551  26.317  1.00  0.00    -0.462 OA
BRANCH   2   3
ATOM      3  C   UNL A   1      31.917  26.368  26.316  1.00  0.00     0.309 C 
ATOM      4  O   UNL A   1      30.805  26.191  26.803  1.00  0.00    -0.252 OA
BRANCH   3   5
ATOM      5  C   UNL A   1      32.724  25.224  25.723  1.00  0.00     0.109 C 
ATOM      6  C   UNL A   1      34.170  25.723  25.647  1.00  0.00     0.021 C 
BRANCH   5   7
ATOM      7  C   UNL A   1      32.201  24.663  24.375  1.00  0.00     0.063 C 
ATOM      8  C   UNL A   1      31.489  25.744  23.555  1.00  0.00     0.020 C 
BRANCH   7   9
ATOM      9  S   UNL A   1      33.618  23.998  23.378  1.00  0.00    -0.115 SA
BRANCH   9  10
ATOM     10  C   UNL A   1      33.764  22.300  23.918  1.00  0.00     0.085 A 
ATOM     11  C   UNL A   1      32.611  21.510  23.770  1.00  0.00     0.022 A 
ATOM     12  C   UNL A   1      34.903  21.670  24.438  1.00  0.00     0.282 A 
ATOM     13  C   UNL A   1      32.592  20.165  24.162  1.00  0.00     0.002 A 
ATOM     14  C   UNL A   1      34.893  20.325  24.848  1.00  0.00     0.087 A 
ATOM     15  C   UNL A   1      33.729  19.576  24.710  1.00  0.00     0.007 A 
BRANCH  12  16
ATOM     16  N   UNL A   1      36.162  22.371  24.565  1.00  0.00     0.063 N 
ATOM     17  O   UNL A   1      36.792  22.574  23.516  1.00  0.00    -0.258 OA
ATOM     18  O   UNL A   1      36.500  22.757  25.690  1.00  0.00    -0.258 OA
ENDBRANCH  12  16
ENDBRANCH   9  10
ENDBRANCH   7   9
ENDBRANCH   5   7
ENDBRANCH   3   5
ENDBRANCH   2   3
ENDBRANCH   1   2
BRANCH   1  19
ATOM     19  C   UNL A   1      32.397  29.893  26.989  1.00  0.00     0.275 C 
BRANCH  19  20
ATOM     20  O   UNL A   1      33.773  29.584  27.252  1.00  0.00    -0.458 OA
BRANCH  20  21
ATOM     21  C   UNL A   1      34.433  30.490  28.008  1.00  0.00     0.338 C 
ATOM     22  O   UNL A   1      34.004  31.563  28.395  1.00  0.00    -0.246 OA
BRANCH  21  23
ATOM     23  C   UNL A   1      35.810  30.013  28.275  1.00  0.00     0.060 A 
ATOM     24  C   UNL A   1      36.203  29.546  29.535  1.00  0.00     0.016 A 
ATOM     25  C   UNL A   1      36.745  30.089  27.241  1.00  0.00     0.016 A 
ATOM     26  C   UNL A   1      37.535  29.204  29.776  1.00  0.00     0.010 A 
ATOM     27  C   UNL A   1      38.061  29.685  27.465  1.00  0.00     0.010 A 
ATOM     28  C   UNL A   1      38.475  29.264  28.740  1.00  0.00    -0.014 A 
BRANCH  28  29
ATOM     29  C   UNL A   1      39.904  28.925  28.968  1.00  0.00     0.031 A 
ATOM     30  C   UNL A   1      40.852  29.994  29.443  1.00  0.00     0.074 A 
ATOM     31  C   UNL A   1      40.363  27.688  28.700  1.00  0.00     0.049 A 
ATOM     32  N   UNL A   1      42.158  29.979  29.499  1.00  0.00    -0.248 NA
ATOM     33  C   UNL A   1      40.244  31.253  29.905  1.00  0.00     0.031 C 
ATOM     34  C   UNL A   1      39.545  26.555  28.266  1.00  0.00     0.029 A 
ATOM     35  N   UNL A   1      41.640  27.184  28.732  1.00  0.00    -0.354 N 
ATOM     36  C   UNL A   1      42.533  31.236  29.958  1.00  0.00     0.074 A 
ATOM     37  C   UNL A   1      41.314  31.993  30.160  1.00  0.00     0.031 C 
ATOM     38  C   UNL A   1      40.339  25.490  28.069  1.00  0.00     0.029 A 
ATOM     39  C   UNL A   1      41.725  25.881  28.302  1.00  0.00     0.049 A 
ATOM     40  H   UNL A   1      42.418  27.704  29.035  1.00  0.00     0.167 HD
ATOM     41  C   UNL A   1      43.779  31.715  30.189  1.00  0.00     0.037 A 
ATOM     42  C   UNL A   1      42.801  25.102  28.078  1.00  0.00     0.037 A 
ATOM     43  C   UNL A   1      44.983  30.947  30.014  1.00  0.00     0.049 A 
ATOM     44  C   UNL A   1      44.178  25.664  28.310  1.00  0.00     0.074 A 
ATOM     45  C   UNL A   1      46.294  31.334  30.234  1.00  0.00     0.029 A 
ATOM     46  N   UNL A   1      45.025  29.628  29.583  1.00  0.00    -0.354 N 
ATOM     47  N   UNL A   1      44.519  26.863  28.718  1.00  0.00    -0.248 NA
ATOM     48  C   UNL A   1      45.313  24.772  28.042  1.00  0.00     0.031 C 
ATOM     49  C   UNL A   1      47.129  30.259  29.910  1.00  0.00     0.029 A 
ATOM     50  C   UNL A   1      46.337  29.189  29.523  1.00  0.00     0.049 A 
ATOM     51  H   UNL A   1      44.237  29.084  29.354  1.00  0.00     0.167 HD
ATOM     52  C   UNL A   1      45.909  26.863  28.773  1.00  0.00     0.074 A 
ATOM     53  C   UNL A   1      46.343  25.542  28.366  1.00  0.00     0.031 C 
ATOM     54  C   UNL A   1      46.749  27.867  29.126  1.00  0.00     0.037 A 
BRANCH  41  55
ATOM     55  C   UNL A   1      43.903  33.146  30.634  1.00  0.00     0.058 A 
ATOM     56  C   UNL A   1      43.924  33.498  31.992  1.00  0.00     0.135 A 
ATOM     57  C   UNL A   1      44.027  34.175  29.688  1.00  0.00     0.135 A 
ATOM     58  F   UNL A   1      43.790  32.555  32.938  1.00  0.00    -0.206 F 
ATOM     59  C   UNL A   1      44.037  34.824  32.397  1.00  0.00     0.059 A 
ATOM     60  C   UNL A   1      44.164  35.507  30.070  1.00  0.00     0.059 A 
ATOM     61  F   UNL A   1      44.011  33.894  28.375  1.00  0.00    -0.206 F 
ATOM     62  C   UNL A   1      44.153  35.822  31.428  1.00  0.00     0.060 A 
BRANCH  62  63
ATOM     63  S   UNL A   1      44.295  37.540  31.967  1.00  0.00     0.124 S 
ATOM     64  O   UNL A   1      43.379  37.564  33.103  1.00  0.00    -0.237 OA
ATOM     65  O   UNL A   1      45.713  37.650  32.297  1.00  0.00    -0.237 OA
ATOM     66  O   UNL A   1      43.868  38.301  30.797  1.00  0.00    -0.744 OA
ENDBRANCH  62  63
ENDBRANCH  41  55
BRANCH  42  67
ATOM     67  C   UNL A   1      42.620  23.711  27.584  1.00  0.00     0.058 A 
ATOM     68  C   UNL A   1      42.582  23.436  26.211  1.00  0.00     0.135 A 
ATOM     69  C   UNL A   1      42.500  22.632  28.474  1.00  0.00     0.135 A 
ATOM     70  F   UNL A   1      42.682  24.436  25.322  1.00  0.00    -0.206 F 
ATOM     71  C   UNL A   1      42.420  22.139  25.733  1.00  0.00     0.059 A 
ATOM     72  C   UNL A   1      42.361  21.325  28.020  1.00  0.00     0.059 A 
ATOM     73  F   UNL A   1      42.541  22.844  29.798  1.00  0.00    -0.206 F 
ATOM     74  C   UNL A   1      42.314  21.089  26.647  1.00  0.00     0.060 A 
BRANCH  74  75
ATOM     75  S   UNL A   1      42.162  19.403  26.018  1.00  0.00     0.124 S 
ATOM     76  O   UNL A   1      40.730  19.319  25.749  1.00  0.00    -0.237 OA
ATOM     77  O   UNL A   1      43.031  19.429  24.846  1.00  0.00    -0.237 OA
ATOM     78  O   UNL A   1      42.646  18.587  27.128  1.00  0.00    -0.744 OA
ENDBRANCH  74  75
ENDBRANCH  42  67
BRANCH  54  79
ATOM     79  C   UNL A   1      48.220  27.564  29.127  1.00  0.00     0.058 A 
ATOM     80  C   UNL A   1      49.017  27.776  27.992  1.00  0.00     0.135 A 
ATOM     81  C   UNL A   1      48.847  27.096  30.293  1.00  0.00     0.135 A 
ATOM     82  F   UNL A   1      48.463  28.215  26.851  1.00  0.00    -0.206 F 
ATOM     83  C   UNL A   1      50.383  27.517  28.007  1.00  0.00     0.059 A 
ATOM     84  C   UNL A   1      50.214  26.850  30.337  1.00  0.00     0.059 A 
ATOM     85  F   UNL A   1      48.128  26.885  31.409  1.00  0.00    -0.206 F 
ATOM     86  C   UNL A   1      50.974  27.052  29.184  1.00  0.00     0.060 A 
BRANCH  86  87
ATOM     87  S   UNL A   1      52.752  26.748  29.205  1.00  0.00     0.124 S 
ATOM     88  O   UNL A   1      52.938  26.002  27.965  1.00  0.00    -0.237 OA
ATOM     89  O   UNL A   1      53.304  28.100  29.220  1.00  0.00    -0.237 OA
ATOM     90  O   UNL A   1      52.951  25.986  30.434  1.00  0.00    -0.744 OA
ENDBRANCH  86  87
ENDBRANCH  54  79
ENDBRANCH  28  29
ENDBRANCH  21  23
ENDBRANCH  20  21
ENDBRANCH  19  20
ENDBRANCH   1  19
TORSDOF 18
ENDMDL
MODEL 2
REMARK VINA RESULT:     -10.2      0.935      1.964
REMARK SMILES C[C@@H](Sc1ccccc1[N+](=O)[O-])[C@@H](C)C(=O)OCCOC(=O)c1ccc(-c2c3nc(c(-c4c(F)cc(S(=O)(=O)[O-])cc4F)c4ccc([nH]4)c(-c4c(F)cc(S(=O)(=O)[O-])cc4F)c4nc(c(-c5c(F)cc(S(=O)(=O)[O-])cc5F)c5ccc2[nH]5)C=C4)C=C3)cc1
REMARK SMILES IDX 18 1 17 2 15 3 16 4 13 5 14 6 2 7 1 8 3 9 4 10 5 11 9 12
REMARK SMILES IDX 6 13 8 14 7 15 10 16 11 17 12 18 19 19 20 20 21 21 22 22
REMARK SMILES IDX 23 23 24 24 88 25 25 26 87 27 26 28 27 29 28 30 81 31 29 32
REMARK SMILES IDX 86 33 80 34 82 35 30 36 85 37 79 38 78 39 31 41 65 42 44 43
REMARK SMILES IDX 64 44 45 45 48 46 63 47 83 48 46 49 47 50 62 52 84 53 49 54
REMARK SMILES IDX 32 55 33 56 42 57 34 58 35 59 41 60 43 61 36 62 37 63 38 64
REMARK SMILES IDX 39 65 40 66 66 67 67 68 76 69 68 70 69 71 75 72 77 73 70 74
REMARK SMILES IDX 71 75 72 76 73 77 74 78 50 79 51 80 60 81 52 82 53 83 59 84
REMARK SMILES IDX 61 85 54 86 55 87 56 88 57 89 58 90
REMARK H PARENT 82 40 48 51
REMARK Flexibility Score: inf
ROOT
ATOM      1  C   UNL A   1      31.796  29.210  25.922  1.00  0.00     0.274 C 
ENDROOT
BRANCH   1   2
ATOM      2  O   UNL A   1      32.430  27.961  25.578  1.00  0.00    -0.462 OA
BRANCH   2   3
ATOM      3  C   UNL A   1      31.603  26.884  25.542  1.00  0.00     0.309 C 
ATOM      4  O   UNL A   1      30.728  26.646  26.368  1.00  0.00    -0.252 OA
BRANCH   3   5
ATOM      5  C   UNL A   1      31.920  25.921  24.409  1.00  0.00     0.109 C 
ATOM      6  C   UNL A   1      30.723  24.969  24.318  1.00  0.00     0.021 C 
BRANCH   5   7
ATOM      7  C   UNL A   1      33.279  25.182  24.517  1.00  0.00     0.063 C 
ATOM      8  C   UNL A   1      33.476  24.567  25.907  1.00  0.00     0.020 C 
BRANCH   7   9
ATOM      9  S   UNL A   1      33.362  23.827  23.252  1.00  0.00    -0.115 SA
BRANCH   9  10
ATOM     10  C   UNL A   1      34.615  22.721  23.887  1.00  0.00     0.085 A 
ATOM     11  C   UNL A   1      35.942  23.172  23.773  1.00  0.00     0.022 A 
ATOM     12  C   UNL A   1      34.417  21.483  24.511  1.00  0.00     0.282 A 
ATOM     13  C   UNL A   1      37.017  22.396  24.225  1.00  0.00     0.002 A 
ATOM     14  C   UNL A   1      35.488  20.689  24.956  1.00  0.00     0.087 A 
ATOM     15  C   UNL A   1      36.792  21.151  24.807  1.00  0.00     0.007 A 
BRANCH  12  16
ATOM     16  N   UNL A   1      33.088  20.960  24.745  1.00  0.00     0.063 N 
ATOM     17  O   UNL A   1      32.627  21.107  25.886  1.00  0.00    -0.258 OA
ATOM     18  O   UNL A   1      32.491  20.446  23.791  1.00  0.00    -0.258 OA
ENDBRANCH  12  16
ENDBRANCH   9  10
ENDBRANCH   7   9
ENDBRANCH   5   7
ENDBRANCH   3   5
ENDBRANCH   2   3
ENDBRANCH   1   2
BRANCH   1  19
ATOM     19  C   UNL A   1      32.333  29.738  27.252  1.00  0.00     0.275 C 
BRANCH  19  20
ATOM     20  O   UNL A   1      33.762  29.611  27.270  1.00  0.00    -0.458 OA
BRANCH  20  21
ATOM     21  C   UNL A   1      34.413  30.532  28.018  1.00  0.00     0.338 C 
ATOM     22  O   UNL A   1      33.978  31.609  28.385  1.00  0.00    -0.246 OA
BRANCH  21  23
ATOM     23  C   UNL A   1      35.789  30.063  28.303  1.00  0.00     0.060 A 
ATOM     24  C   UNL A   1      36.187  29.666  29.585  1.00  0.00     0.016 A 
ATOM     25  C   UNL A   1      36.718  30.077  27.261  1.00  0.00     0.016 A 
ATOM     26  C   UNL A   1      37.520  29.332  29.837  1.00  0.00     0.010 A 
ATOM     27  C   UNL A   1      38.034  29.680  27.500  1.00  0.00     0.010 A 
ATOM     28  C   UNL A   1      38.454  29.328  28.794  1.00  0.00    -0.014 A 
BRANCH  28  29
ATOM     29  C   UNL A   1      39.883  28.996  29.033  1.00  0.00     0.031 A 
ATOM     30  C   UNL A   1      40.819  30.066  29.527  1.00  0.00     0.074 A 
ATOM     31  C   UNL A   1      40.352  27.765  28.758  1.00  0.00     0.049 A 
ATOM     32  N   UNL A   1      42.125  30.058  29.596  1.00  0.00    -0.248 NA
ATOM     33  C   UNL A   1      40.200  31.317  29.995  1.00  0.00     0.031 C 
ATOM     34  C   UNL A   1      39.545  26.631  28.305  1.00  0.00     0.029 A 
ATOM     35  N   UNL A   1      41.631  27.268  28.797  1.00  0.00    -0.354 N 
ATOM     36  C   UNL A   1      42.488  31.313  30.070  1.00  0.00     0.074 A 
ATOM     37  C   UNL A   1      41.263  32.060  30.267  1.00  0.00     0.031 C 
ATOM     38  C   UNL A   1      40.347  25.572  28.105  1.00  0.00     0.029 A 
ATOM     39  C   UNL A   1      41.728  25.969  28.355  1.00  0.00     0.049 A 
ATOM     40  H   UNL A   1      42.403  27.790  29.113  1.00  0.00     0.167 HD
ATOM     41  C   UNL A   1      43.729  31.797  30.317  1.00  0.00     0.037 A 
ATOM     42  C   UNL A   1      42.811  25.199  28.135  1.00  0.00     0.037 A 
ATOM     43  C   UNL A   1      44.940  31.038  30.146  1.00  0.00     0.049 A 
ATOM     44  C   UNL A   1      44.182  25.767  28.385  1.00  0.00     0.074 A 
ATOM     45  C   UNL A   1      46.246  31.431  30.383  1.00  0.00     0.029 A 
ATOM     46  N   UNL A   1      44.993  29.724  29.703  1.00  0.00    -0.354 N 
ATOM     47  N   UNL A   1      44.512  26.964  28.807  1.00  0.00    -0.248 NA
ATOM     48  C   UNL A   1      45.325  24.884  28.119  1.00  0.00     0.031 C 
ATOM     49  C   UNL A   1      47.090  30.364  30.057  1.00  0.00     0.029 A 
ATOM     50  C   UNL A   1      46.308  29.293  29.652  1.00  0.00     0.049 A 
ATOM     51  H   UNL A   1      44.211  29.177  29.462  1.00  0.00     0.167 HD
ATOM     52  C   UNL A   1      45.902  26.972  28.876  1.00  0.00     0.074 A 
ATOM     53  C   UNL A   1      46.348  25.657  28.460  1.00  0.00     0.031 C 
ATOM     54  C   UNL A   1      46.732  27.977  29.246  1.00  0.00     0.037 A 
BRANCH  41  55
ATOM     55  C   UNL A   1      43.840  33.224  30.777  1.00  0.00     0.058 A 
ATOM     56  C   UNL A   1      43.903  34.290  29.867  1.00  0.00     0.135 A 
ATOM     57  C   UNL A   1      43.857  33.530  32.147  1.00  0.00     0.135 A 
ATOM     58  F   UNL A   1      43.908  34.054  28.546  1.00  0.00    -0.206 F 
ATOM     59  C   UNL A   1      44.007  35.609  30.300  1.00  0.00     0.059 A 
ATOM     60  C   UNL A   1      43.939  34.842  32.603  1.00  0.00     0.059 A 
ATOM     61  F   UNL A   1      43.801  32.547  33.060  1.00  0.00    -0.206 F 
ATOM     62  C   UNL A   1      44.028  35.875  31.670  1.00  0.00     0.060 A 
BRANCH  62  63
ATOM     63  S   UNL A   1      44.168  37.590  32.217  1.00  0.00     0.124 S 
ATOM     64  O   UNL A   1      45.576  37.659  32.597  1.00  0.00    -0.237 OA
ATOM     65  O   UNL A   1      43.800  38.334  31.017  1.00  0.00    -0.237 OA
ATOM     66  O   UNL A   1      43.214  37.675  33.319  1.00  0.00    -0.744 OA
ENDBRANCH  62  63
ENDBRANCH  41  55
BRANCH  42  67
ATOM     67  C   UNL A   1      42.643  23.812  27.626  1.00  0.00     0.058 A 
ATOM     68  C   UNL A   1      42.592  23.553  26.250  1.00  0.00     0.135 A 
ATOM     69  C   UNL A   1      42.548  22.721  28.503  1.00  0.00     0.135 A 
ATOM     70  F   UNL A   1      42.668  24.565  25.372  1.00  0.00    -0.206 F 
ATOM     71  C   UNL A   1      42.443  22.260  25.758  1.00  0.00     0.059 A 
ATOM     72  C   UNL A   1      42.422  21.417  28.035  1.00  0.00     0.059 A 
ATOM     73  F   UNL A   1      42.603  22.917  29.829  1.00  0.00    -0.206 F 
ATOM     74  C   UNL A   1      42.362  21.198  26.660  1.00  0.00     0.060 A 
BRANCH  74  75
ATOM     75  S   UNL A   1      42.225  19.517  26.012  1.00  0.00     0.124 S 
ATOM     76  O   UNL A   1      43.157  19.559  24.891  1.00  0.00    -0.237 OA
ATOM     77  O   UNL A   1      42.637  18.709  27.155  1.00  0.00    -0.237 OA
ATOM     78  O   UNL A   1      40.813  19.410  25.656  1.00  0.00    -0.744 OA
ENDBRANCH  74  75
ENDBRANCH  42  67
BRANCH  54  79
ATOM     79  C   UNL A   1      48.205  27.683  29.259  1.00  0.00     0.058 A 
ATOM     80  C   UNL A   1      48.823  27.064  30.356  1.00  0.00     0.135 A 
ATOM     81  C   UNL A   1      48.998  27.985  28.141  1.00  0.00     0.135 A 
ATOM     82  F   UNL A   1      48.109  26.762  31.452  1.00  0.00    -0.206 F 
ATOM     83  C   UNL A   1      50.182  26.771  30.352  1.00  0.00     0.059 A 
ATOM     84  C   UNL A   1      50.355  27.682  28.106  1.00  0.00     0.059 A 
ATOM     85  F   UNL A   1      48.452  28.569  27.062  1.00  0.00    -0.206 F 
ATOM     86  C   UNL A   1      50.941  27.085  29.223  1.00  0.00     0.060 A 
BRANCH  86  87
ATOM     87  S   UNL A   1      52.698  26.673  29.212  1.00  0.00     0.124 S 
ATOM     88  O   UNL A   1      52.828  25.904  30.446  1.00  0.00    -0.237 OA
ATOM     89  O   UNL A   1      52.837  25.912  27.974  1.00  0.00    -0.237 OA
ATOM     90  O   UNL A   1      53.352  27.978  29.212  1.00  0.00    -0.744 OA
ENDBRANCH  86  87
ENDBRANCH  54  79
ENDBRANCH  28  29
ENDBRANCH  21  23
ENDBRANCH  20  21
ENDBRANCH  19  20
ENDBRANCH   1  19
TORSDOF 18
ENDMDL
MODEL 3
REMARK VINA RESULT:     -10.1      3.298      6.283
REMARK SMILES C[C@@H](Sc1ccccc1[N+](=O)[O-])[C@@H](C)C(=O)OCCOC(=O)c1ccc(-c2c3nc(c(-c4c(F)cc(S(=O)(=O)[O-])cc4F)c4ccc([nH]4)c(-c4c(F)cc(S(=O)(=O)[O-])cc4F)c4nc(c(-c5c(F)cc(S(=O)(=O)[O-])cc5F)c5ccc2[nH]5)C=C4)C=C3)cc1
REMARK SMILES IDX 18 1 17 2 15 3 16 4 13 5 14 6 2 7 1 8 3 9 4 10 5 11 9 12
REMARK SMILES IDX 6 13 8 14 7 15 10 16 11 17 12 18 19 19 20 20 21 21 22 22
REMARK SMILES IDX 23 23 24 24 88 25 25 26 87 27 26 28 27 29 28 30 81 31 29 32
REMARK SMILES IDX 86 33 80 34 82 35 30 36 85 37 79 38 78 39 31 41 65 42 44 43
REMARK SMILES IDX 64 44 45 45 48 46 63 47 83 48 46 49 47 50 62 52 84 53 49 54
REMARK SMILES IDX 32 55 33 56 42 57 34 58 35 59 41 60 43 61 36 62 37 63 38 64
REMARK SMILES IDX 39 65 40 66 66 67 67 68 76 69 68 70 69 71 75 72 77 73 70 74
REMARK SMILES IDX 71 75 72 76 73 77 74 78 50 79 51 80 60 81 52 82 53 83 59 84
REMARK SMILES IDX 61 85 54 86 55 87 56 88 57 89 58 90
REMARK H PARENT 82 40 48 51
REMARK Flexibility Score: inf
ROOT
ATOM      1  C   UNL A   1      33.438  33.802  28.180  1.00  0.00     0.274 C 
ENDROOT
BRANCH   1   2
ATOM      2  O   UNL A   1      34.013  33.872  29.500  1.00  0.00    -0.462 OA
BRANCH   2   3
ATOM      3  C   UNL A   1      33.731  35.005  30.194  1.00  0.00     0.309 C 
ATOM      4  O   UNL A   1      33.626  36.122  29.697  1.00  0.00    -0.252 OA
BRANCH   3   5
ATOM      5  C   UNL A   1      33.640  34.783  31.695  1.00  0.00     0.109 C 
ATOM      6  C   UNL A   1      32.555  35.741  32.198  1.00  0.00     0.021 C 
BRANCH   5   7
ATOM      7  C   UNL A   1      34.975  34.912  32.473  1.00  0.00     0.063 C 
ATOM      8  C   UNL A   1      34.734  35.182  33.963  1.00  0.00     0.020 C 
BRANCH   7   9
ATOM      9  S   UNL A   1      35.955  33.346  32.306  1.00  0.00    -0.115 SA
BRANCH   9  10
ATOM     10  C   UNL A   1      37.400  33.840  31.375  1.00  0.00     0.085 A 
ATOM     11  C   UNL A   1      37.250  33.853  29.976  1.00  0.00     0.022 A 
ATOM     12  C   UNL A   1      38.641  34.244  31.884  1.00  0.00     0.282 A 
ATOM     13  C   UNL A   1      38.309  34.214  29.133  1.00  0.00     0.002 A 
ATOM     14  C   UNL A   1      39.715  34.595  31.048  1.00  0.00     0.087 A 
ATOM     15  C   UNL A   1      39.543  34.575  29.667  1.00  0.00     0.007 A 
BRANCH  12  16
ATOM     16  N   UNL A   1      38.878  34.337  33.308  1.00  0.00     0.063 N 
ATOM     17  O   UNL A   1      38.267  35.229  33.915  1.00  0.00    -0.258 OA
ATOM     18  O   UNL A   1      39.629  33.502  33.826  1.00  0.00    -0.258 OA
ENDBRANCH  12  16
ENDBRANCH   9  10
ENDBRANCH   7   9
ENDBRANCH   5   7
ENDBRANCH   3   5
ENDBRANCH   2   3
ENDBRANCH   1   2
BRANCH   1  19
ATOM     19  C   UNL A   1      33.625  32.407  27.584  1.00  0.00     0.275 C 
BRANCH  19  20
ATOM     20  O   UNL A   1      34.532  31.657  28.406  1.00  0.00    -0.458 OA
BRANCH  20  21
ATOM     21  C   UNL A   1      34.622  30.340  28.112  1.00  0.00     0.338 C 
ATOM     22  O   UNL A   1      33.713  29.611  27.755  1.00  0.00    -0.246 OA
BRANCH  21  23
ATOM     23  C   UNL A   1      36.010  29.872  28.333  1.00  0.00     0.060 A 
ATOM     24  C   UNL A   1      36.424  29.327  29.554  1.00  0.00     0.016 A 
ATOM     25  C   UNL A   1      36.933  30.036  27.298  1.00  0.00     0.016 A 
ATOM     26  C   UNL A   1      37.765  28.995  29.759  1.00  0.00     0.010 A 
ATOM     27  C   UNL A   1      38.259  29.643  27.483  1.00  0.00     0.010 A 
ATOM     28  C   UNL A   1      38.693  29.143  28.722  1.00  0.00    -0.014 A 
BRANCH  28  29
ATOM     29  C   UNL A   1      40.130  28.817  28.914  1.00  0.00     0.031 A 
ATOM     30  C   UNL A   1      41.082  29.895  29.360  1.00  0.00     0.074 A 
ATOM     31  C   UNL A   1      40.592  27.583  28.638  1.00  0.00     0.049 A 
ATOM     32  N   UNL A   1      42.389  29.890  29.382  1.00  0.00    -0.248 NA
ATOM     33  C   UNL A   1      40.476  31.151  29.832  1.00  0.00     0.031 C 
ATOM     34  C   UNL A   1      39.772  26.442  28.230  1.00  0.00     0.029 A 
ATOM     35  N   UNL A   1      41.873  27.089  28.639  1.00  0.00    -0.354 N 
ATOM     36  C   UNL A   1      42.765  31.152  29.826  1.00  0.00     0.074 A 
ATOM     37  C   UNL A   1      41.547  31.900  30.056  1.00  0.00     0.031 C 
ATOM     38  C   UNL A   1      40.569  25.382  28.016  1.00  0.00     0.029 A 
ATOM     39  C   UNL A   1      41.958  25.785  28.211  1.00  0.00     0.049 A 
ATOM     40  H   UNL A   1      42.655  27.617  28.919  1.00  0.00     0.167 HD
ATOM     41  C   UNL A   1      44.013  31.642  30.022  1.00  0.00     0.037 A 
ATOM     42  C   UNL A   1      43.034  25.014  27.962  1.00  0.00     0.037 A 
ATOM     43  C   UNL A   1      45.219  30.883  29.818  1.00  0.00     0.049 A 
ATOM     44  C   UNL A   1      44.412  25.587  28.156  1.00  0.00     0.074 A 
ATOM     45  C   UNL A   1      46.532  31.282  30.002  1.00  0.00     0.029 A 
ATOM     46  N   UNL A   1      45.260  29.563  29.391  1.00  0.00    -0.354 N 
ATOM     47  N   UNL A   1      44.754  26.791  28.549  1.00  0.00    -0.248 NA
ATOM     48  C   UNL A   1      45.547  24.704  27.861  1.00  0.00     0.031 C 
ATOM     49  C   UNL A   1      47.367  30.213  29.660  1.00  0.00     0.029 A 
ATOM     50  C   UNL A   1      46.573  29.135  29.298  1.00  0.00     0.049 A 
ATOM     51  H   UNL A   1      44.471  29.012  29.185  1.00  0.00     0.167 HD
ATOM     52  C   UNL A   1      46.145  26.803  28.568  1.00  0.00     0.074 A 
ATOM     53  C   UNL A   1      46.579  25.483  28.155  1.00  0.00     0.031 C 
ATOM     54  C   UNL A   1      46.986  27.814  28.895  1.00  0.00     0.037 A 
BRANCH  41  55
ATOM     55  C   UNL A   1      44.137  33.076  30.458  1.00  0.00     0.058 A 
ATOM     56  C   UNL A   1      44.339  34.114  29.536  1.00  0.00     0.135 A 
ATOM     57  C   UNL A   1      44.027  33.417  31.815  1.00  0.00     0.135 A 
ATOM     58  F   UNL A   1      44.470  33.841  28.228  1.00  0.00    -0.206 F 
ATOM     59  C   UNL A   1      44.454  35.438  29.946  1.00  0.00     0.059 A 
ATOM     60  C   UNL A   1      44.117  34.737  32.247  1.00  0.00     0.059 A 
ATOM     61  F   UNL A   1      43.835  32.463  32.739  1.00  0.00    -0.206 F 
ATOM     62  C   UNL A   1      44.346  35.740  31.305  1.00  0.00     0.060 A 
BRANCH  62  63
ATOM     63  S   UNL A   1      44.501  37.462  31.825  1.00  0.00     0.124 S 
ATOM     64  O   UNL A   1      43.796  38.154  30.750  1.00  0.00    -0.237 OA
ATOM     65  O   UNL A   1      43.831  37.461  33.122  1.00  0.00    -0.237 OA
ATOM     66  O   UNL A   1      45.944  37.675  31.870  1.00  0.00    -0.744 OA
ENDBRANCH  62  63
ENDBRANCH  41  55
BRANCH  42  67
ATOM     67  C   UNL A   1      42.851  23.620  27.478  1.00  0.00     0.058 A 
ATOM     68  C   UNL A   1      42.622  22.571  28.379  1.00  0.00     0.135 A 
ATOM     69  C   UNL A   1      42.883  23.314  26.109  1.00  0.00     0.135 A 
ATOM     70  F   UNL A   1      42.593  22.812  29.698  1.00  0.00    -0.206 F 
ATOM     71  C   UNL A   1      42.440  21.262  27.941  1.00  0.00     0.059 A 
ATOM     72  C   UNL A   1      42.681  22.018  25.645  1.00  0.00     0.059 A 
ATOM     73  F   UNL A   1      43.089  24.286  25.207  1.00  0.00    -0.206 F 
ATOM     74  C   UNL A   1      42.469  20.997  26.570  1.00  0.00     0.060 A 
BRANCH  74  75
ATOM     75  S   UNL A   1      42.176  19.306  26.007  1.00  0.00     0.124 S 
ATOM     76  O   UNL A   1      42.624  18.532  27.160  1.00  0.00    -0.237 OA
ATOM     77  O   UNL A   1      40.739  19.307  25.758  1.00  0.00    -0.237 OA
ATOM     78  O   UNL A   1      43.011  19.203  24.813  1.00  0.00    -0.744 OA
ENDBRANCH  74  75
ENDBRANCH  42  67
BRANCH  54  79
ATOM     79  C   UNL A   1      48.459  27.523  28.859  1.00  0.00     0.058 A 
ATOM     80  C   UNL A   1      49.233  27.781  27.718  1.00  0.00     0.135 A 
ATOM     81  C   UNL A   1      49.110  27.018  29.996  1.00  0.00     0.135 A 
ATOM     82  F   UNL A   1      48.655  28.256  26.604  1.00  0.00    -0.206 F 
ATOM     83  C   UNL A   1      50.601  27.533  27.698  1.00  0.00     0.059 A 
ATOM     84  C   UNL A   1      50.480  26.782  30.006  1.00  0.00     0.059 A 
ATOM     85  F   UNL A   1      48.414  26.763  31.116  1.00  0.00    -0.206 F 
ATOM     86  C   UNL A   1      51.217  27.031  28.848  1.00  0.00     0.060 A 
BRANCH  86  87
ATOM     87  S   UNL A   1      52.997  26.741  28.825  1.00  0.00     0.124 S 
ATOM     88  O   UNL A   1      53.201  26.063  30.102  1.00  0.00    -0.237 OA
ATOM     89  O   UNL A   1      53.167  25.913  27.634  1.00  0.00    -0.237 OA
ATOM     90  O   UNL A   1      53.559  28.085  28.729  1.00  0.00    -0.744 OA
ENDBRANCH  86  87
ENDBRANCH  54  79
ENDBRANCH  28  29
ENDBRANCH  21  23
ENDBRANCH  20  21
ENDBRANCH  19  20
ENDBRANCH   1  19
TORSDOF 18
ENDMDL
