MODEL 1
REMARK VINA RESULT:     -12.3      0.000      0.000
REMARK SMILES Cc1ccc(C(=O)OCCOC(=O)c2ccc(-c3c4nc(c(-c5c(F)cc(S(=O)(=O)[O-])cc5F)c5ccc([nH]5)c(-c5c(F)cc(S(=O)(=O)[O-])cc5F)c5nc(c(-c6c(F)cc(S(=O)(=O)[O-])cc6F)c6ccc3[nH]6)C=C5)C=C4)cc2)c(NC(=O)CN2C(=O)/C(=C/c3ccccc3C)SC2=S)c1
REMARK SMILES IDX 9 1 8 2 6 3 7 4 5 5 1 6 2 7 3 8 100 9 4 10 80 11 81 12 82 13
REMARK SMILES IDX 83 15 84 16 85 17 86 18 98 19 87 20 88 21 97 22 99 23 89 24
REMARK SMILES IDX 90 25 91 26 95 27 92 28 94 29 96 30 93 31 10 32 11 33 12 34
REMARK SMILES IDX 13 35 14 36 15 37 79 38 16 39 78 40 17 41 18 42 19 43 72 44
REMARK SMILES IDX 20 45 77 46 71 47 73 48 21 49 76 50 70 51 69 52 22 54 56 55
REMARK SMILES IDX 35 56 55 57 36 58 39 59 54 60 74 61 37 62 38 63 53 65 75 66
REMARK SMILES IDX 40 67 23 68 24 69 33 70 25 71 26 72 32 73 34 74 27 75 28 76
REMARK SMILES IDX 29 77 30 78 31 79 57 80 58 81 67 82 59 83 60 84 66 85 68 86
REMARK SMILES IDX 61 87 62 88 63 89 64 90 65 91 41 92 42 93 51 94 43 95 44 96
REMARK SMILES IDX 50 97 52 98 45 99 46 100 47 101 48 102 49 103
REMARK H PARENT 81 14 73 53 39 64
REMARK Flexibility Score: inf
ROOT
ATOM      1  C   UNL A   1      34.088  29.949  27.362  1.00  0.00     0.275 C 
ENDROOT
BRANCH   1   2
ATOM      2  O   UNL A   1      32.798  30.431  26.905  1.00  0.00    -0.458 OA
BRANCH   2   3
ATOM      3  C   UNL A   1      31.646  29.674  26.180  1.00  0.00     0.340 C 
ATOM      4  O   UNL A   1      31.582  28.697  26.984  1.00  0.00    -0.246 OA
BRANCH   3   5
ATOM      5  C   UNL A   1      30.556  30.279  24.442  1.00  0.00     0.083 A 
ATOM      6  C   UNL A   1      27.866  31.995  20.940  1.00  0.00     0.044 C 
ATOM      7  C   UNL A   1      28.718  31.395  22.025  1.00  0.00    -0.049 A 
ATOM      8  C   UNL A   1      28.859  32.076  23.194  1.00  0.00     0.004 A 
ATOM      9  C   UNL A   1      29.453  30.213  21.929  1.00  0.00     0.030 A 
ATOM     10  C   UNL A   1      29.648  31.552  24.257  1.00  0.00     0.018 A 
ATOM     11  C   UNL A   1      30.375  29.648  22.963  1.00  0.00     0.056 A 
BRANCH  11  12
ATOM     12  N   UNL A   1      30.898  28.415  22.321  1.00  0.00    -0.324 N 
ATOM     13  C   UNL A   1      30.973  27.048  22.337  1.00  0.00     0.244 C 
ATOM     14  H   UNL A   1      31.421  28.711  21.541  1.00  0.00     0.170 HD
ATOM     15  O   UNL A   1      31.206  26.558  21.212  1.00  0.00    -0.273 OA
BRANCH  13  16
ATOM     16  C   UNL A   1      30.826  25.989  23.505  1.00  0.00     0.227 C 
BRANCH  16  17
ATOM     17  N   UNL A   1      31.958  25.118  23.857  1.00  0.00    -0.283 N 
ATOM     18  C   UNL A   1      31.646  23.798  23.553  1.00  0.00     0.266 C 
ATOM     19  C   UNL A   1      32.716  25.176  25.036  1.00  0.00     0.148 C 
ATOM     20  O   UNL A   1      30.646  23.369  23.002  1.00  0.00    -0.268 OA
ATOM     21  C   UNL A   1      32.524  22.971  24.378  1.00  0.00     0.081 C 
ATOM     22  S   UNL A   1      32.389  23.711  25.934  1.00  0.00    -0.054 SA
ATOM     23  S   UNL A   1      34.231  25.745  25.431  1.00  0.00    -0.052 S 
ATOM     24  C   UNL A   1      33.549  22.368  23.761  1.00  0.00     0.029 C 
BRANCH  24  25
ATOM     25  C   UNL A   1      34.805  21.813  24.297  1.00  0.00    -0.021 A 
ATOM     26  C   UNL A   1      35.954  22.636  24.241  1.00  0.00     0.008 A 
ATOM     27  C   UNL A   1      34.955  20.481  24.721  1.00  0.00    -0.044 A 
ATOM     28  C   UNL A   1      37.222  22.130  24.540  1.00  0.00     0.001 A 
ATOM     29  C   UNL A   1      36.236  19.997  25.031  1.00  0.00     0.004 A 
ATOM     30  C   UNL A   1      33.830  19.513  24.928  1.00  0.00     0.045 C 
ATOM     31  C   UNL A   1      37.364  20.801  24.914  1.00  0.00     0.000 A 
ENDBRANCH  24  25
ENDBRANCH  16  17
ENDBRANCH  13  16
ENDBRANCH  11  12
ENDBRANCH   3   5
ENDBRANCH   2   3
ENDBRANCH   1   2
BRANCH   1  32
ATOM     32  C   UNL A   1      35.302  30.831  27.254  1.00  0.00     0.275 C 
BRANCH  32  33
ATOM     33  O   UNL A   1      36.095  31.137  28.419  1.00  0.00    -0.458 OA
BRANCH  33  34
ATOM     34  C   UNL A   1      37.157  30.595  29.092  1.00  0.00     0.338 C 
ATOM     35  O   UNL A   1      38.279  30.977  28.803  1.00  0.00    -0.246 OA
BRANCH  34  36
ATOM     36  C   UNL A   1      37.119  29.300  29.928  1.00  0.00     0.060 A 
ATOM     37  C   UNL A   1      36.558  29.897  31.524  1.00  0.00     0.016 A 
ATOM     38  C   UNL A   1      38.610  28.310  29.899  1.00  0.00     0.016 A 
ATOM     39  C   UNL A   1      37.603  29.744  33.018  1.00  0.00     0.010 A 
ATOM     40  C   UNL A   1      39.622  28.024  31.426  1.00  0.00     0.010 A 
ATOM     41  C   UNL A   1      39.153  28.863  32.960  1.00  0.00    -0.014 A 
BRANCH  41  42
ATOM     42  C   UNL A   1      40.421  29.571  33.477  1.00  0.00     0.031 A 
ATOM     43  C   UNL A   1      41.072  28.682  34.487  1.00  0.00     0.074 A 
ATOM     44  C   UNL A   1      40.862  30.737  32.870  1.00  0.00     0.049 A 
ATOM     45  N   UNL A   1      41.001  28.862  35.782  1.00  0.00    -0.248 NA
ATOM     46  C   UNL A   1      41.526  27.287  34.192  1.00  0.00     0.031 C 
ATOM     47  C   UNL A   1      42.123  31.493  32.791  1.00  0.00     0.029 A 
ATOM     48  N   UNL A   1      40.067  31.592  32.109  1.00  0.00    -0.354 N 
ATOM     49  C   UNL A   1      41.891  27.907  36.264  1.00  0.00     0.074 A 
ATOM     50  C   UNL A   1      41.638  26.791  35.421  1.00  0.00     0.031 C 
ATOM     51  C   UNL A   1      41.904  32.758  32.333  1.00  0.00     0.029 A 
ATOM     52  C   UNL A   1      40.502  32.896  31.968  1.00  0.00     0.049 A 
ATOM     53  H   UNL A   1      39.232  31.281  31.690  1.00  0.00     0.167 HD
ATOM     54  C   UNL A   1      43.183  28.284  36.562  1.00  0.00     0.037 A 
ATOM     55  C   UNL A   1      39.578  33.834  32.327  1.00  0.00     0.037 A 
ATOM     56  C   UNL A   1      43.344  29.720  36.293  1.00  0.00     0.049 A 
ATOM     57  C   UNL A   1      39.776  33.948  33.835  1.00  0.00     0.074 A 
ATOM     58  C   UNL A   1      44.075  30.455  35.376  1.00  0.00     0.029 A 
ATOM     59  N   UNL A   1      42.395  30.594  36.803  1.00  0.00    -0.354 N 
ATOM     60  N   UNL A   1      40.334  33.011  34.564  1.00  0.00    -0.248 NA
ATOM     61  C   UNL A   1      39.599  35.190  34.579  1.00  0.00     0.031 C 
ATOM     62  C   UNL A   1      43.551  31.787  35.373  1.00  0.00     0.029 A 
ATOM     63  C   UNL A   1      42.429  31.824  36.186  1.00  0.00     0.049 A 
ATOM     64  H   UNL A   1      41.768  30.360  37.526  1.00  0.00     0.167 HD
ATOM     65  C   UNL A   1      40.733  33.526  35.755  1.00  0.00     0.074 A 
ATOM     66  C   UNL A   1      40.206  34.882  35.740  1.00  0.00     0.031 C 
ATOM     67  C   UNL A   1      41.519  32.863  36.655  1.00  0.00     0.037 A 
BRANCH  54  68
ATOM     68  C   UNL A   1      44.374  27.325  36.730  1.00  0.00     0.058 A 
ATOM     69  C   UNL A   1      45.139  26.980  35.594  1.00  0.00     0.135 A 
ATOM     70  C   UNL A   1      44.859  26.748  37.934  1.00  0.00     0.135 A 
ATOM     71  F   UNL A   1      44.846  27.476  34.384  1.00  0.00    -0.206 F 
ATOM     72  C   UNL A   1      46.260  26.147  35.641  1.00  0.00     0.059 A 
ATOM     73  C   UNL A   1      45.965  25.890  38.003  1.00  0.00     0.059 A 
ATOM     74  F   UNL A   1      44.329  27.007  39.132  1.00  0.00    -0.206 F 
ATOM     75  C   UNL A   1      46.675  25.613  36.852  1.00  0.00     0.060 A 
BRANCH  75  76
ATOM     76  S   UNL A   1      48.190  24.640  36.907  1.00  0.00     0.124 S 
ATOM     77  O   UNL A   1      47.708  23.356  37.406  1.00  0.00    -0.237 OA
ATOM     78  O   UNL A   1      48.614  24.664  35.511  1.00  0.00    -0.237 OA
ATOM     79  O   UNL A   1      49.043  25.384  37.830  1.00  0.00    -0.744 OA
ENDBRANCH  75  76
ENDBRANCH  54  68
BRANCH  55  80
ATOM     80  C   UNL A   1      38.284  33.687  31.521  1.00  0.00     0.058 A 
ATOM     81  C   UNL A   1      37.075  33.426  32.228  1.00  0.00     0.135 A 
ATOM     82  C   UNL A   1      38.102  34.043  30.178  1.00  0.00     0.135 A 
ATOM     83  F   UNL A   1      37.142  33.015  33.506  1.00  0.00    -0.206 F 
ATOM     84  C   UNL A   1      35.783  33.601  31.681  1.00  0.00     0.059 A 
ATOM     85  C   UNL A   1      36.816  34.202  29.599  1.00  0.00     0.059 A 
ATOM     86  F   UNL A   1      39.165  34.321  29.409  1.00  0.00    -0.206 F 
ATOM     87  C   UNL A   1      35.654  33.999  30.357  1.00  0.00     0.060 A 
BRANCH  87  88
ATOM     88  S   UNL A   1      33.993  34.282  29.610  1.00  0.00     0.124 S 
ATOM     89  O   UNL A   1      34.326  35.172  28.502  1.00  0.00    -0.237 OA
ATOM     90  O   UNL A   1      33.538  32.962  29.183  1.00  0.00    -0.237 OA
ATOM     91  O   UNL A   1      33.229  34.920  30.683  1.00  0.00    -0.744 OA
ENDBRANCH  87  88
ENDBRANCH  55  80
BRANCH  67  92
ATOM     92  C   UNL A   1      41.531  33.192  38.123  1.00  0.00     0.058 A 
ATOM     93  C   UNL A   1      40.404  33.041  38.943  1.00  0.00     0.135 A 
ATOM     94  C   UNL A   1      42.739  33.514  38.791  1.00  0.00     0.135 A 
ATOM     95  F   UNL A   1      39.244  32.556  38.478  1.00  0.00    -0.206 F 
ATOM     96  C   UNL A   1      40.433  33.354  40.292  1.00  0.00     0.059 A 
ATOM     97  C   UNL A   1      42.816  33.698  40.158  1.00  0.00     0.059 A 
ATOM     98  F   UNL A   1      43.908  33.652  38.147  1.00  0.00    -0.206 F 
ATOM     99  C   UNL A   1      41.643  33.687  40.887  1.00  0.00     0.060 A 
BRANCH  99 100
ATOM    100  S   UNL A   1      41.660  34.132  42.618  1.00  0.00     0.124 S 
ATOM    101  O   UNL A   1      43.006  33.714  43.001  1.00  0.00    -0.237 OA
ATOM    102  O   UNL A   1      41.431  35.572  42.571  1.00  0.00    -0.237 OA
ATOM    103  O   UNL A   1      40.570  33.343  43.184  1.00  0.00    -0.744 OA
ENDBRANCH  99 100
ENDBRANCH  67  92
ENDBRANCH  41  42
ENDBRANCH  34  36
ENDBRANCH  33  34
ENDBRANCH  32  33
ENDBRANCH   1  32
TORSDOF 18
ENDMDL
MODEL 2
REMARK VINA RESULT:     -11.5      7.556     12.096
REMARK SMILES Cc1ccc(C(=O)OCCOC(=O)c2ccc(-c3c4nc(c(-c5c(F)cc(S(=O)(=O)[O-])cc5F)c5ccc([nH]5)c(-c5c(F)cc(S(=O)(=O)[O-])cc5F)c5nc(c(-c6c(F)cc(S(=O)(=O)[O-])cc6F)c6ccc3[nH]6)C=C5)C=C4)cc2)c(NC(=O)CN2C(=O)/C(=C/c3ccccc3C)SC2=S)c1
REMARK SMILES IDX 9 1 8 2 6 3 7 4 5 5 1 6 2 7 3 8 100 9 4 10 80 11 81 12 82 13
REMARK SMILES IDX 83 15 84 16 85 17 86 18 98 19 87 20 88 21 97 22 99 23 89 24
REMARK SMILES IDX 90 25 91 26 95 27 92 28 94 29 96 30 93 31 10 32 11 33 12 34
REMARK SMILES IDX 13 35 14 36 15 37 79 38 16 39 78 40 17 41 18 42 19 43 72 44
REMARK SMILES IDX 20 45 77 46 71 47 73 48 21 49 76 50 70 51 69 52 22 54 56 55
REMARK SMILES IDX 35 56 55 57 36 58 39 59 54 60 74 61 37 62 38 63 53 65 75 66
REMARK SMILES IDX 40 67 23 68 24 69 33 70 25 71 26 72 32 73 34 74 27 75 28 76
REMARK SMILES IDX 29 77 30 78 31 79 57 80 58 81 67 82 59 83 60 84 66 85 68 86
REMARK SMILES IDX 61 87 62 88 63 89 64 90 65 91 41 92 42 93 51 94 43 95 44 96
REMARK SMILES IDX 50 97 52 98 45 99 46 100 47 101 48 102 49 103
REMARK H PARENT 81 14 73 53 39 64
REMARK Flexibility Score: inf
ROOT
ATOM      1  C   UNL A   1      38.398  23.245  26.187  1.00  0.00     0.275 C 
ENDROOT
BRANCH   1   2
ATOM      2  O   UNL A   1      37.755  22.006  25.793  1.00  0.00    -0.458 OA
BRANCH   2   3
ATOM      3  C   UNL A   1      36.470  21.770  24.945  1.00  0.00     0.340 C 
ATOM      4  O   UNL A   1      37.039  21.192  23.972  1.00  0.00    -0.246 OA
BRANCH   3   5
ATOM      5  C   UNL A   1      34.447  22.244  25.452  1.00  0.00     0.083 A 
ATOM      6  C   UNL A   1      30.061  23.007  27.073  1.00  0.00     0.044 C 
ATOM      7  C   UNL A   1      31.431  22.761  26.502  1.00  0.00    -0.049 A 
ATOM      8  C   UNL A   1      32.429  22.377  27.343  1.00  0.00     0.004 A 
ATOM      9  C   UNL A   1      31.810  22.957  25.174  1.00  0.00     0.030 A 
ATOM     10  C   UNL A   1      33.742  22.124  26.856  1.00  0.00     0.018 A 
ATOM     11  C   UNL A   1      33.186  22.804  24.607  1.00  0.00     0.056 A 
BRANCH  11  12
ATOM     12  N   UNL A   1      33.011  23.163  23.176  1.00  0.00    -0.324 N 
ATOM     13  C   UNL A   1      32.764  24.144  22.253  1.00  0.00     0.244 C 
ATOM     14  H   UNL A   1      33.119  22.327  22.667  1.00  0.00     0.170 HD
ATOM     15  O   UNL A   1      33.207  23.871  21.118  1.00  0.00    -0.273 OA
BRANCH  13  16
ATOM     16  C   UNL A   1      32.024  25.540  22.360  1.00  0.00     0.227 C 
BRANCH  16  17
ATOM     17  N   UNL A   1      32.555  26.590  23.242  1.00  0.00    -0.283 N 
ATOM     18  C   UNL A   1      31.741  26.719  24.362  1.00  0.00     0.266 C 
ATOM     19  C   UNL A   1      33.030  27.849  22.842  1.00  0.00     0.148 C 
ATOM     20  O   UNL A   1      30.774  26.044  24.670  1.00  0.00    -0.268 OA
ATOM     21  C   UNL A   1      31.985  28.059  24.890  1.00  0.00     0.081 C 
ATOM     22  S   UNL A   1      31.920  29.044  23.473  1.00  0.00    -0.054 SA
ATOM     23  S   UNL A   1      34.539  28.531  22.660  1.00  0.00    -0.052 S 
ATOM     24  C   UNL A   1      32.720  28.148  26.008  1.00  0.00     0.029 C 
BRANCH  24  25
ATOM     25  C   UNL A   1      33.470  29.280  26.581  1.00  0.00    -0.021 A 
ATOM     26  C   UNL A   1      34.819  29.051  26.936  1.00  0.00     0.008 A 
ATOM     27  C   UNL A   1      32.886  30.513  26.923  1.00  0.00    -0.044 A 
ATOM     28  C   UNL A   1      35.547  29.999  27.664  1.00  0.00     0.001 A 
ATOM     29  C   UNL A   1      33.639  31.456  27.640  1.00  0.00     0.004 A 
ATOM     30  C   UNL A   1      31.505  30.947  26.535  1.00  0.00     0.045 C 
ATOM     31  C   UNL A   1      34.947  31.193  28.035  1.00  0.00     0.000 A 
ENDBRANCH  24  25
ENDBRANCH  16  17
ENDBRANCH  13  16
ENDBRANCH  11  12
ENDBRANCH   3   5
ENDBRANCH   2   3
ENDBRANCH   1   2
BRANCH   1  32
ATOM     32  C   UNL A   1      39.469  23.234  27.244  1.00  0.00     0.275 C 
BRANCH  32  33
ATOM     33  O   UNL A   1      39.769  24.425  27.999  1.00  0.00    -0.458 OA
BRANCH  33  34
ATOM     34  C   UNL A   1      40.639  25.479  27.926  1.00  0.00     0.338 C 
ATOM     35  O   UNL A   1      41.342  25.715  28.895  1.00  0.00    -0.246 OA
BRANCH  34  36
ATOM     36  C   UNL A   1      40.579  26.618  26.889  1.00  0.00     0.060 A 
ATOM     37  C   UNL A   1      41.932  26.197  25.787  1.00  0.00     0.016 A 
ATOM     38  C   UNL A   1      40.548  28.279  27.556  1.00  0.00     0.016 A 
ATOM     39  C   UNL A   1      43.366  27.314  25.574  1.00  0.00     0.010 A 
ATOM     40  C   UNL A   1      41.926  29.481  27.245  1.00  0.00     0.010 A 
ATOM     41  C   UNL A   1      43.391  28.923  26.342  1.00  0.00    -0.014 A 
BRANCH  41  42
ATOM     42  C   UNL A   1      44.610  29.305  27.205  1.00  0.00     0.031 A 
ATOM     43  C   UNL A   1      45.090  30.650  26.762  1.00  0.00     0.074 A 
ATOM     44  C   UNL A   1      44.959  28.528  28.298  1.00  0.00     0.049 A 
ATOM     45  N   UNL A   1      46.143  30.845  26.009  1.00  0.00    -0.248 NA
ATOM     46  C   UNL A   1      44.236  31.879  26.769  1.00  0.00     0.031 C 
ATOM     47  C   UNL A   1      45.753  28.699  29.526  1.00  0.00     0.029 A 
ATOM     48  N   UNL A   1      44.598  27.193  28.477  1.00  0.00    -0.354 N 
ATOM     49  C   UNL A   1      46.269  32.231  26.028  1.00  0.00     0.074 A 
ATOM     50  C   UNL A   1      44.920  32.669  25.947  1.00  0.00     0.031 C 
ATOM     51  C   UNL A   1      46.046  27.493  30.089  1.00  0.00     0.029 A 
ATOM     52  C   UNL A   1      45.374  26.442  29.339  1.00  0.00     0.049 A 
ATOM     53  H   UNL A   1      43.824  26.803  28.010  1.00  0.00     0.167 HD
ATOM     54  C   UNL A   1      47.145  32.812  26.921  1.00  0.00     0.037 A 
ATOM     55  C   UNL A   1      45.860  25.291  28.792  1.00  0.00     0.037 A 
ATOM     56  C   UNL A   1      47.806  31.761  27.707  1.00  0.00     0.049 A 
ATOM     57  C   UNL A   1      47.127  25.757  28.084  1.00  0.00     0.074 A 
ATOM     58  C   UNL A   1      47.777  31.390  29.040  1.00  0.00     0.029 A 
ATOM     59  N   UNL A   1      48.361  30.686  27.030  1.00  0.00    -0.354 N 
ATOM     60  N   UNL A   1      47.338  27.001  27.723  1.00  0.00    -0.248 NA
ATOM     61  C   UNL A   1      48.328  24.939  27.957  1.00  0.00     0.031 C 
ATOM     62  C   UNL A   1      48.347  30.080  29.136  1.00  0.00     0.029 A 
ATOM     63  C   UNL A   1      48.601  29.612  27.857  1.00  0.00     0.049 A 
ATOM     64  H   UNL A   1      48.562  30.691  26.065  1.00  0.00     0.167 HD
ATOM     65  C   UNL A   1      48.661  27.199  27.490  1.00  0.00     0.074 A 
ATOM     66  C   UNL A   1      49.235  25.867  27.601  1.00  0.00     0.031 C 
ATOM     67  C   UNL A   1      49.231  28.425  27.291  1.00  0.00     0.037 A 
BRANCH  54  68
ATOM     68  C   UNL A   1      47.134  34.292  27.342  1.00  0.00     0.058 A 
ATOM     69  C   UNL A   1      47.669  35.257  26.459  1.00  0.00     0.135 A 
ATOM     70  C   UNL A   1      46.595  34.851  28.531  1.00  0.00     0.135 A 
ATOM     71  F   UNL A   1      48.176  34.904  25.271  1.00  0.00    -0.206 F 
ATOM     72  C   UNL A   1      47.677  36.629  26.727  1.00  0.00     0.059 A 
ATOM     73  C   UNL A   1      46.614  36.219  28.833  1.00  0.00     0.059 A 
ATOM     74  F   UNL A   1      45.973  34.123  29.461  1.00  0.00    -0.206 F 
ATOM     75  C   UNL A   1      47.138  37.106  27.913  1.00  0.00     0.060 A 
BRANCH  75  76
ATOM     76  S   UNL A   1      47.052  38.884  28.183  1.00  0.00     0.124 S 
ATOM     77  O   UNL A   1      46.248  39.326  27.047  1.00  0.00    -0.237 OA
ATOM     78  O   UNL A   1      46.405  38.959  29.489  1.00  0.00    -0.237 OA
ATOM     79  O   UNL A   1      48.450  39.305  28.155  1.00  0.00    -0.744 OA
ENDBRANCH  75  76
ENDBRANCH  54  68
BRANCH  55  80
ATOM     80  C   UNL A   1      44.732  24.390  28.281  1.00  0.00     0.058 A 
ATOM     81  C   UNL A   1      44.690  24.085  26.890  1.00  0.00     0.135 A 
ATOM     82  C   UNL A   1      43.876  23.609  29.068  1.00  0.00     0.135 A 
ATOM     83  F   UNL A   1      45.427  24.820  26.037  1.00  0.00    -0.206 F 
ATOM     84  C   UNL A   1      43.940  23.025  26.332  1.00  0.00     0.059 A 
ATOM     85  C   UNL A   1      43.095  22.553  28.529  1.00  0.00     0.059 A 
ATOM     86  F   UNL A   1      43.831  23.796  30.395  1.00  0.00    -0.206 F 
ATOM     87  C   UNL A   1      43.141  22.249  27.161  1.00  0.00     0.060 A 
BRANCH  87  88
ATOM     88  S   UNL A   1      42.176  20.828  26.491  1.00  0.00     0.124 S 
ATOM     89  O   UNL A   1      43.246  19.958  26.012  1.00  0.00    -0.237 OA
ATOM     90  O   UNL A   1      41.451  20.288  27.636  1.00  0.00    -0.237 OA
ATOM     91  O   UNL A   1      41.367  21.424  25.427  1.00  0.00    -0.744 OA
ENDBRANCH  87  88
ENDBRANCH  55  80
BRANCH  67  92
ATOM     92  C   UNL A   1      50.526  28.608  26.548  1.00  0.00     0.058 A 
ATOM     93  C   UNL A   1      50.665  28.319  25.183  1.00  0.00     0.135 A 
ATOM     94  C   UNL A   1      51.635  29.248  27.157  1.00  0.00     0.135 A 
ATOM     95  F   UNL A   1      49.638  27.891  24.437  1.00  0.00    -0.206 F 
ATOM     96  C   UNL A   1      51.868  28.490  24.518  1.00  0.00     0.059 A 
ATOM     97  C   UNL A   1      52.797  29.550  26.474  1.00  0.00     0.059 A 
ATOM     98  F   UNL A   1      51.637  29.621  28.446  1.00  0.00    -0.206 F 
ATOM     99  C   UNL A   1      52.928  29.100  25.175  1.00  0.00     0.060 A 
BRANCH  99 100
ATOM    100  S   UNL A   1      54.489  29.275  24.319  1.00  0.00     0.124 S 
ATOM    101  O   UNL A   1      55.254  28.178  24.906  1.00  0.00    -0.237 OA
ATOM    102  O   UNL A   1      54.098  29.102  22.924  1.00  0.00    -0.237 OA
ATOM    103  O   UNL A   1      54.930  30.617  24.684  1.00  0.00    -0.744 OA
ENDBRANCH  99 100
ENDBRANCH  67  92
ENDBRANCH  41  42
ENDBRANCH  34  36
ENDBRANCH  33  34
ENDBRANCH  32  33
ENDBRANCH   1  32
TORSDOF 18
ENDMDL
MODEL 3
REMARK VINA RESULT:     -11.1      6.868     13.113
REMARK SMILES Cc1ccc(C(=O)OCCOC(=O)c2ccc(-c3c4nc(c(-c5c(F)cc(S(=O)(=O)[O-])cc5F)c5ccc([nH]5)c(-c5c(F)cc(S(=O)(=O)[O-])cc5F)c5nc(c(-c6c(F)cc(S(=O)(=O)[O-])cc6F)c6ccc3[nH]6)C=C5)C=C4)cc2)c(NC(=O)CN2C(=O)/C(=C/c3ccccc3C)SC2=S)c1
REMARK SMILES IDX 9 1 8 2 6 3 7 4 5 5 1 6 2 7 3 8 100 9 4 10 80 11 81 12 82 13
REMARK SMILES IDX 83 15 84 16 85 17 86 18 98 19 87 20 88 21 97 22 99 23 89 24
REMARK SMILES IDX 90 25 91 26 95 27 92 28 94 29 96 30 93 31 10 32 11 33 12 34
REMARK SMILES IDX 13 35 14 36 15 37 79 38 16 39 78 40 17 41 18 42 19 43 72 44
REMARK SMILES IDX 20 45 77 46 71 47 73 48 21 49 76 50 70 51 69 52 22 54 56 55
REMARK SMILES IDX 35 56 55 57 36 58 39 59 54 60 74 61 37 62 38 63 53 65 75 66
REMARK SMILES IDX 40 67 23 68 24 69 33 70 25 71 26 72 32 73 34 74 27 75 28 76
REMARK SMILES IDX 29 77 30 78 31 79 57 80 58 81 67 82 59 83 60 84 66 85 68 86
REMARK SMILES IDX 61 87 62 88 63 89 64 90 65 91 41 92 42 93 51 94 43 95 44 96
REMARK SMILES IDX 50 97 52 98 45 99 46 100 47 101 48 102 49 103
REMARK H PARENT 81 14 73 53 39 64
REMARK Flexibility Score: inf
ROOT
ATOM      1  C   UNL A   1      46.996  26.785  25.407  1.00  0.00     0.275 C 
ENDROOT
BRANCH   1   2
ATOM      2  O   UNL A   1      47.217  27.785  26.434  1.00  0.00    -0.458 OA
BRANCH   2   3
ATOM      3  C   UNL A   1      46.912  29.313  26.426  1.00  0.00     0.340 C 
ATOM      4  O   UNL A   1      45.979  29.273  25.570  1.00  0.00    -0.246 OA
BRANCH   3   5
ATOM      5  C   UNL A   1      47.811  30.845  27.617  1.00  0.00     0.083 A 
ATOM      6  C   UNL A   1      49.757  33.868  30.702  1.00  0.00     0.044 C 
ATOM      7  C   UNL A   1      49.114  32.955  29.694  1.00  0.00    -0.049 A 
ATOM      8  C   UNL A   1      49.023  31.629  29.979  1.00  0.00     0.004 A 
ATOM      9  C   UNL A   1      48.648  33.329  28.433  1.00  0.00     0.030 A 
ATOM     10  C   UNL A   1      48.418  30.722  29.065  1.00  0.00     0.018 A 
ATOM     11  C   UNL A   1      48.089  32.422  27.383  1.00  0.00     0.056 A 
BRANCH  11  12
ATOM     12  N   UNL A   1      47.791  33.342  26.256  1.00  0.00    -0.324 N 
ATOM     13  C   UNL A   1      47.019  34.364  25.772  1.00  0.00     0.244 C 
ATOM     14  H   UNL A   1      48.431  33.119  25.542  1.00  0.00     0.170 HD
ATOM     15  O   UNL A   1      47.586  35.025  24.878  1.00  0.00    -0.273 OA
BRANCH  13  16
ATOM     16  C   UNL A   1      45.554  34.849  26.130  1.00  0.00     0.227 C 
BRANCH  16  17
ATOM     17  N   UNL A   1      45.344  35.810  27.224  1.00  0.00    -0.283 N 
ATOM     18  C   UNL A   1      44.057  36.331  27.150  1.00  0.00     0.266 C 
ATOM     19  C   UNL A   1      46.243  36.802  27.642  1.00  0.00     0.148 C 
ATOM     20  O   UNL A   1      43.163  36.022  26.380  1.00  0.00    -0.268 OA
ATOM     21  C   UNL A   1      44.089  37.600  27.873  1.00  0.00     0.081 C 
ATOM     22  S   UNL A   1      45.521  38.349  27.262  1.00  0.00    -0.054 SA
ATOM     23  S   UNL A   1      47.284  36.975  28.931  1.00  0.00    -0.052 S 
ATOM     24  C   UNL A   1      43.513  37.625  29.084  1.00  0.00     0.029 C 
BRANCH  24  25
ATOM     25  C   UNL A   1      43.687  38.555  30.214  1.00  0.00    -0.021 A 
ATOM     26  C   UNL A   1      44.276  38.041  31.393  1.00  0.00     0.008 A 
ATOM     27  C   UNL A   1      43.176  39.865  30.236  1.00  0.00    -0.044 A 
ATOM     28  C   UNL A   1      44.300  38.788  32.575  1.00  0.00     0.001 A 
ATOM     29  C   UNL A   1      43.225  40.603  31.430  1.00  0.00     0.004 A 
ATOM     30  C   UNL A   1      42.613  40.588  29.051  1.00  0.00     0.045 C 
ATOM     31  C   UNL A   1      43.753  40.062  32.597  1.00  0.00     0.000 A 
ENDBRANCH  24  25
ENDBRANCH  16  17
ENDBRANCH  13  16
ENDBRANCH  11  12
ENDBRANCH   3   5
ENDBRANCH   2   3
ENDBRANCH   1   2
BRANCH   1  32
ATOM     32  C   UNL A   1      45.782  25.898  25.469  1.00  0.00     0.275 C 
BRANCH  32  33
ATOM     33  O   UNL A   1      45.240  25.481  26.739  1.00  0.00    -0.458 OA
BRANCH  33  34
ATOM     34  C   UNL A   1      45.508  24.537  27.694  1.00  0.00     0.338 C 
ATOM     35  O   UNL A   1      45.107  23.400  27.510  1.00  0.00    -0.246 OA
BRANCH  34  36
ATOM     36  C   UNL A   1      45.954  24.831  29.140  1.00  0.00     0.060 A 
ATOM     37  C   UNL A   1      44.386  24.916  30.009  1.00  0.00     0.016 A 
ATOM     38  C   UNL A   1      47.082  26.206  29.343  1.00  0.00     0.016 A 
ATOM     39  C   UNL A   1      43.841  26.454  30.837  1.00  0.00     0.010 A 
ATOM     40  C   UNL A   1      46.607  27.727  30.293  1.00  0.00     0.010 A 
ATOM     41  C   UNL A   1      44.919  27.872  30.931  1.00  0.00    -0.014 A 
BRANCH  41  42
ATOM     42  C   UNL A   1      44.385  29.235  30.450  1.00  0.00     0.031 A 
ATOM     43  C   UNL A   1      44.638  30.240  31.528  1.00  0.00     0.074 A 
ATOM     44  C   UNL A   1      43.953  29.389  29.142  1.00  0.00     0.049 A 
ATOM     45  N   UNL A   1      43.721  30.688  32.347  1.00  0.00    -0.248 NA
ATOM     46  C   UNL A   1      45.998  30.550  32.068  1.00  0.00     0.031 C 
ATOM     47  C   UNL A   1      43.730  30.509  28.212  1.00  0.00     0.029 A 
ATOM     48  N   UNL A   1      43.544  28.351  28.307  1.00  0.00    -0.354 N 
ATOM     49  C   UNL A   1      44.394  31.704  33.019  1.00  0.00     0.074 A 
ATOM     50  C   UNL A   1      45.686  31.145  33.216  1.00  0.00     0.031 C 
ATOM     51  C   UNL A   1      42.971  30.117  27.151  1.00  0.00     0.029 A 
ATOM     52  C   UNL A   1      42.731  28.684  27.241  1.00  0.00     0.049 A 
ATOM     53  H   UNL A   1      43.823  27.421  28.469  1.00  0.00     0.167 HD
ATOM     54  C   UNL A   1      44.249  33.005  32.588  1.00  0.00     0.037 A 
ATOM     55  C   UNL A   1      41.568  27.973  27.183  1.00  0.00     0.037 A 
ATOM     56  C   UNL A   1      43.341  33.035  31.432  1.00  0.00     0.049 A 
ATOM     57  C   UNL A   1      40.643  28.752  28.111  1.00  0.00     0.074 A 
ATOM     58  C   UNL A   1      43.495  33.336  30.090  1.00  0.00     0.029 A 
ATOM     59  N   UNL A   1      42.133  32.361  31.529  1.00  0.00    -0.354 N 
ATOM     60  N   UNL A   1      41.075  29.561  29.050  1.00  0.00    -0.248 NA
ATOM     61  C   UNL A   1      39.206  28.877  27.898  1.00  0.00     0.031 C 
ATOM     62  C   UNL A   1      42.341  32.843  29.401  1.00  0.00     0.029 A 
ATOM     63  C   UNL A   1      41.556  32.138  30.299  1.00  0.00     0.049 A 
ATOM     64  H   UNL A   1      41.733  32.075  32.383  1.00  0.00     0.167 HD
ATOM     65  C   UNL A   1      40.077  30.397  29.437  1.00  0.00     0.074 A 
ATOM     66  C   UNL A   1      38.912  29.898  28.724  1.00  0.00     0.031 C 
ATOM     67  C   UNL A   1      40.255  31.482  30.250  1.00  0.00     0.037 A 
BRANCH  54  68
ATOM     68  C   UNL A   1      45.185  34.172  32.948  1.00  0.00     0.058 A 
ATOM     69  C   UNL A   1      45.103  34.740  34.239  1.00  0.00     0.135 A 
ATOM     70  C   UNL A   1      46.198  34.753  32.139  1.00  0.00     0.135 A 
ATOM     71  F   UNL A   1      44.230  34.278  35.145  1.00  0.00    -0.206 F 
ATOM     72  C   UNL A   1      45.928  35.778  34.681  1.00  0.00     0.059 A 
ATOM     73  C   UNL A   1      47.021  35.810  32.550  1.00  0.00     0.059 A 
ATOM     74  F   UNL A   1      46.494  34.311  30.914  1.00  0.00    -0.206 F 
ATOM     75  C   UNL A   1      46.894  36.302  33.835  1.00  0.00     0.060 A 
BRANCH  75  76
ATOM     76  S   UNL A   1      48.024  37.555  34.464  1.00  0.00     0.124 S 
ATOM     77  O   UNL A   1      47.108  38.501  35.094  1.00  0.00    -0.237 OA
ATOM     78  O   UNL A   1      48.861  36.777  35.372  1.00  0.00    -0.237 OA
ATOM     79  O   UNL A   1      48.696  38.047  33.264  1.00  0.00    -0.744 OA
ENDBRANCH  75  76
ENDBRANCH  54  68
BRANCH  55  80
ATOM     80  C   UNL A   1      41.833  26.466  27.110  1.00  0.00     0.058 A 
ATOM     81  C   UNL A   1      41.407  25.653  28.199  1.00  0.00     0.135 A 
ATOM     82  C   UNL A   1      42.215  25.748  25.969  1.00  0.00     0.135 A 
ATOM     83  F   UNL A   1      41.080  26.240  29.364  1.00  0.00    -0.206 F 
ATOM     84  C   UNL A   1      41.272  24.247  28.134  1.00  0.00     0.059 A 
ATOM     85  C   UNL A   1      42.111  24.335  25.887  1.00  0.00     0.059 A 
ATOM     86  F   UNL A   1      42.629  26.403  24.874  1.00  0.00    -0.206 F 
ATOM     87  C   UNL A   1      41.621  23.584  26.966  1.00  0.00     0.060 A 
BRANCH  87  88
ATOM     88  S   UNL A   1      41.424  21.758  26.815  1.00  0.00     0.124 S 
ATOM     89  O   UNL A   1      39.999  21.601  27.093  1.00  0.00    -0.237 OA
ATOM     90  O   UNL A   1      41.788  21.449  25.436  1.00  0.00    -0.237 OA
ATOM     91  O   UNL A   1      42.300  21.223  27.858  1.00  0.00    -0.744 OA
ENDBRANCH  87  88
ENDBRANCH  55  80
BRANCH  67  92
ATOM     92  C   UNL A   1      39.142  32.073  31.071  1.00  0.00     0.058 A 
ATOM     93  C   UNL A   1      38.428  33.211  30.673  1.00  0.00     0.135 A 
ATOM     94  C   UNL A   1      38.643  31.403  32.217  1.00  0.00     0.135 A 
ATOM     95  F   UNL A   1      38.667  33.832  29.509  1.00  0.00    -0.206 F 
ATOM     96  C   UNL A   1      37.409  33.743  31.445  1.00  0.00     0.059 A 
ATOM     97  C   UNL A   1      37.542  31.844  32.925  1.00  0.00     0.059 A 
ATOM     98  F   UNL A   1      39.196  30.279  32.696  1.00  0.00    -0.206 F 
ATOM     99  C   UNL A   1      36.979  33.055  32.572  1.00  0.00     0.060 A 
BRANCH  99 100
ATOM    100  S   UNL A   1      35.693  33.774  33.585  1.00  0.00     0.124 S 
ATOM    101  O   UNL A   1      34.498  33.228  32.948  1.00  0.00    -0.237 OA
ATOM    102  O   UNL A   1      36.006  33.243  34.907  1.00  0.00    -0.237 OA
ATOM    103  O   UNL A   1      35.894  35.210  33.424  1.00  0.00    -0.744 OA
ENDBRANCH  99 100
ENDBRANCH  67  92
ENDBRANCH  41  42
ENDBRANCH  34  36
ENDBRANCH  33  34
ENDBRANCH  32  33
ENDBRANCH   1  32
TORSDOF 18
ENDMDL
