MODEL 1
REMARK VINA RESULT:     -11.1      0.000      0.000
REMARK SMILES Cc1cc(NC(=O)CC2(CC(=O)OCCOC(=O)c3ccc(-c4c5nc(c(-c6c(F)cc(S(=O)(=O)[O-])cc6F)c6ccc([nH]6)c(-c6c(F)cc(S(=O)(=O)[O-])cc6F)c6nc(c(-c7c(F)cc(S(=O)(=O)[O-])cc7F)c7ccc4[nH]7)C=C6)C=C5)cc3)CCCC2)ccn1
REMARK SMILES IDX 14 1 13 2 11 3 12 4 10 5 9 6 85 7 88 8 86 9 87 10 8 11 6 12
REMARK SMILES IDX 5 13 7 15 4 16 1 17 2 18 3 19 91 20 90 21 89 22 15 23 16 24
REMARK SMILES IDX 17 25 18 26 19 27 20 28 84 29 21 30 83 31 22 32 23 33 24 34
REMARK SMILES IDX 77 35 25 36 82 37 76 38 78 39 26 40 81 41 75 42 74 43 27 45
REMARK SMILES IDX 61 46 40 47 60 48 41 49 44 50 59 51 79 52 42 53 43 54 58 56
REMARK SMILES IDX 80 57 45 58 28 59 29 60 38 61 30 62 31 63 37 64 39 65 32 66
REMARK SMILES IDX 33 67 34 68 35 69 36 70 62 71 63 72 72 73 64 74 65 75 71 76
REMARK SMILES IDX 73 77 66 78 67 79 68 80 69 81 70 82 46 83 47 84 56 85 48 86
REMARK SMILES IDX 49 87 55 88 57 89 50 90 51 91 52 92 53 93 54 94
REMARK H PARENT 5 14 78 44 44 55
REMARK Flexibility Score: inf
ROOT
ATOM      1  C   UNL A   1      32.980  30.459  27.173  1.00  0.00     0.274 C 
ENDROOT
BRANCH   1   2
ATOM      2  O   UNL A   1      33.154  29.178  26.534  1.00  0.00    -0.462 OA
BRANCH   2   3
ATOM      3  C   UNL A   1      32.275  28.224  26.917  1.00  0.00     0.306 C 
ATOM      4  O   UNL A   1      31.863  28.085  28.066  1.00  0.00    -0.252 OA
BRANCH   3   5
ATOM      5  C   UNL A   1      31.855  27.262  25.827  1.00  0.00     0.130 C 
BRANCH   5   6
ATOM      6  C   UNL A   1      32.869  26.469  24.953  1.00  0.00    -0.011 C 
ATOM      7  C   UNL A   1      32.128  25.206  24.451  1.00  0.00     0.008 C 
ATOM      8  C   UNL A   1      34.002  25.785  25.747  1.00  0.00     0.008 C 
ATOM      9  C   UNL A   1      32.144  24.220  25.617  1.00  0.00     0.001 C 
ATOM     10  C   UNL A   1      33.356  24.605  26.461  1.00  0.00     0.001 C 
BRANCH   6  11
ATOM     11  C   UNL A   1      33.469  27.346  23.819  1.00  0.00     0.108 C 
BRANCH  11  12
ATOM     12  C   UNL A   1      33.022  27.028  22.402  1.00  0.00     0.224 C 
ATOM     13  N   UNL A   1      31.845  27.434  21.854  1.00  0.00    -0.326 N 
ATOM     14  H   UNL A   1      31.755  27.174  20.908  1.00  0.00     0.169 HD
ATOM     15  O   UNL A   1      33.795  26.433  21.647  1.00  0.00    -0.275 OA
BRANCH  13  16
ATOM     16  C   UNL A   1      30.733  28.139  22.334  1.00  0.00     0.044 A 
ATOM     17  C   UNL A   1      27.424  27.146  23.876  1.00  0.00     0.067 C 
ATOM     18  C   UNL A   1      28.550  27.974  23.333  1.00  0.00     0.039 A 
ATOM     19  C   UNL A   1      29.752  27.374  22.971  1.00  0.00     0.049 A 
ATOM     20  N   UNL A   1      28.305  29.287  23.125  1.00  0.00    -0.261 NA
ATOM     21  C   UNL A   1      29.299  30.020  22.582  1.00  0.00     0.113 A 
ATOM     22  C   UNL A   1      30.520  29.501  22.184  1.00  0.00     0.046 A 
ENDBRANCH  13  16
ENDBRANCH  11  12
ENDBRANCH   6  11
ENDBRANCH   5   6
ENDBRANCH   3   5
ENDBRANCH   2   3
ENDBRANCH   1   2
BRANCH   1  23
ATOM     23  C   UNL A   1      34.321  31.059  27.580  1.00  0.00     0.275 C 
BRANCH  23  24
ATOM     24  O   UNL A   1      35.168  30.045  28.143  1.00  0.00    -0.458 OA
BRANCH  24  25
ATOM     25  C   UNL A   1      35.975  30.455  29.147  1.00  0.00     0.338 C 
ATOM     26  O   UNL A   1      35.685  31.216  30.061  1.00  0.00    -0.246 OA
BRANCH  25  27
ATOM     27  C   UNL A   1      37.312  29.863  28.990  1.00  0.00     0.060 A 
ATOM     28  C   UNL A   1      38.066  29.516  30.110  1.00  0.00     0.016 A 
ATOM     29  C   UNL A   1      37.867  29.772  27.713  1.00  0.00     0.016 A 
ATOM     30  C   UNL A   1      39.406  29.160  29.962  1.00  0.00     0.010 A 
ATOM     31  C   UNL A   1      39.183  29.328  27.563  1.00  0.00     0.010 A 
ATOM     32  C   UNL A   1      39.978  29.048  28.688  1.00  0.00    -0.014 A 
BRANCH  32  33
ATOM     33  C   UNL A   1      41.401  28.646  28.515  1.00  0.00     0.031 A 
ATOM     34  C   UNL A   1      42.496  29.677  28.576  1.00  0.00     0.074 A 
ATOM     35  C   UNL A   1      41.708  27.359  28.260  1.00  0.00     0.049 A 
ATOM     36  N   UNL A   1      43.750  29.574  28.214  1.00  0.00    -0.248 NA
ATOM     37  C   UNL A   1      42.132  31.003  29.102  1.00  0.00     0.031 C 
ATOM     38  C   UNL A   1      40.750  26.251  28.214  1.00  0.00     0.029 A 
ATOM     39  N   UNL A   1      42.912  26.767  27.972  1.00  0.00    -0.354 N 
ATOM     40  C   UNL A   1      44.310  30.830  28.412  1.00  0.00     0.074 A 
ATOM     41  C   UNL A   1      43.260  31.682  28.933  1.00  0.00     0.031 C 
ATOM     42  C   UNL A   1      41.403  25.116  27.924  1.00  0.00     0.029 A 
ATOM     43  C   UNL A   1      42.807  25.427  27.682  1.00  0.00     0.049 A 
ATOM     44  H   UNL A   1      43.768  27.253  27.974  1.00  0.00     0.167 HD
ATOM     45  C   UNL A   1      45.582  31.234  28.175  1.00  0.00     0.037 A 
ATOM     46  C   UNL A   1      43.720  24.553  27.219  1.00  0.00     0.037 A 
ATOM     47  C   UNL A   1      46.633  30.366  27.704  1.00  0.00     0.049 A 
ATOM     48  C   UNL A   1      45.116  25.027  26.941  1.00  0.00     0.074 A 
ATOM     49  C   UNL A   1      47.960  30.674  27.456  1.00  0.00     0.029 A 
ATOM     50  N   UNL A   1      46.480  29.015  27.424  1.00  0.00    -0.354 N 
ATOM     51  N   UNL A   1      45.620  26.230  27.083  1.00  0.00    -0.248 NA
ATOM     52  C   UNL A   1      46.065  24.031  26.425  1.00  0.00     0.031 C 
ATOM     53  C   UNL A   1      48.602  29.517  27.000  1.00  0.00     0.029 A 
ATOM     54  C   UNL A   1      47.685  28.480  26.998  1.00  0.00     0.049 A 
ATOM     55  H   UNL A   1      45.639  28.512  27.513  1.00  0.00     0.167 HD
ATOM     56  C   UNL A   1      46.948  26.132  26.684  1.00  0.00     0.074 A 
ATOM     57  C   UNL A   1      47.172  24.751  26.309  1.00  0.00     0.031 C 
ATOM     58  C   UNL A   1      47.893  27.103  26.632  1.00  0.00     0.037 A 
BRANCH  45  59
ATOM     59  C   UNL A   1      45.913  32.684  28.392  1.00  0.00     0.058 A 
ATOM     60  C   UNL A   1      46.396  33.161  29.620  1.00  0.00     0.135 A 
ATOM     61  C   UNL A   1      45.803  33.600  27.331  1.00  0.00     0.135 A 
ATOM     62  F   UNL A   1      46.508  32.333  30.670  1.00  0.00    -0.206 F 
ATOM     63  C   UNL A   1      46.743  34.498  29.794  1.00  0.00     0.059 A 
ATOM     64  C   UNL A   1      46.165  34.937  27.477  1.00  0.00     0.059 A 
ATOM     65  F   UNL A   1      45.349  33.197  26.135  1.00  0.00    -0.206 F 
ATOM     66  C   UNL A   1      46.624  35.379  28.717  1.00  0.00     0.060 A 
BRANCH  66  67
ATOM     67  S   UNL A   1      47.096  37.107  28.952  1.00  0.00     0.124 S 
ATOM     68  O   UNL A   1      48.103  36.993  30.002  1.00  0.00    -0.237 OA
ATOM     69  O   UNL A   1      47.596  37.479  27.633  1.00  0.00    -0.237 OA
ATOM     70  O   UNL A   1      45.845  37.749  29.347  1.00  0.00    -0.744 OA
ENDBRANCH  66  67
ENDBRANCH  45  59
BRANCH  46  71
ATOM     71  C   UNL A   1      43.319  23.148  26.953  1.00  0.00     0.058 A 
ATOM     72  C   UNL A   1      43.177  22.676  25.641  1.00  0.00     0.135 A 
ATOM     73  C   UNL A   1      43.108  22.241  28.003  1.00  0.00     0.135 A 
ATOM     74  F   UNL A   1      43.361  23.509  24.605  1.00  0.00    -0.206 F 
ATOM     75  C   UNL A   1      42.840  21.353  25.377  1.00  0.00     0.059 A 
ATOM     76  C   UNL A   1      42.794  20.908  27.765  1.00  0.00     0.059 A 
ATOM     77  F   UNL A   1      43.245  22.643  29.277  1.00  0.00    -0.206 F 
ATOM     78  C   UNL A   1      42.655  20.476  26.447  1.00  0.00     0.060 A 
BRANCH  78  79
ATOM     79  S   UNL A   1      42.287  18.742  26.098  1.00  0.00     0.124 S 
ATOM     80  O   UNL A   1      42.617  18.111  27.370  1.00  0.00    -0.237 OA
ATOM     81  O   UNL A   1      40.869  18.788  25.757  1.00  0.00    -0.237 OA
ATOM     82  O   UNL A   1      43.180  18.429  24.986  1.00  0.00    -0.744 OA
ENDBRANCH  78  79
ENDBRANCH  46  71
BRANCH  58  83
ATOM     83  C   UNL A   1      49.266  26.693  26.182  1.00  0.00     0.058 A 
ATOM     84  C   UNL A   1      49.664  26.807  24.841  1.00  0.00     0.135 A 
ATOM     85  C   UNL A   1      50.202  26.210  27.109  1.00  0.00     0.135 A 
ATOM     86  F   UNL A   1      48.801  27.255  23.916  1.00  0.00    -0.206 F 
ATOM     87  C   UNL A   1      50.940  26.435  24.430  1.00  0.00     0.059 A 
ATOM     88  C   UNL A   1      51.490  25.850  26.723  1.00  0.00     0.059 A 
ATOM     89  F   UNL A   1      49.870  26.088  28.404  1.00  0.00    -0.206 F 
ATOM     90  C   UNL A   1      51.845  25.955  25.379  1.00  0.00     0.060 A 
BRANCH  90  91
ATOM     91  S   UNL A   1      53.506  25.496  24.842  1.00  0.00     0.124 S 
ATOM     92  O   UNL A   1      53.518  25.995  23.470  1.00  0.00    -0.237 OA
ATOM     93  O   UNL A   1      54.355  26.218  25.785  1.00  0.00    -0.237 OA
ATOM     94  O   UNL A   1      53.519  24.043  24.983  1.00  0.00    -0.744 OA
ENDBRANCH  90  91
ENDBRANCH  58  83
ENDBRANCH  32  33
ENDBRANCH  25  27
ENDBRANCH  24  25
ENDBRANCH  23  24
ENDBRANCH   1  23
TORSDOF 18
ENDMDL
MODEL 2
REMARK VINA RESULT:     -11.1      6.771     12.015
REMARK SMILES Cc1cc(NC(=O)CC2(CC(=O)OCCOC(=O)c3ccc(-c4c5nc(c(-c6c(F)cc(S(=O)(=O)[O-])cc6F)c6ccc([nH]6)c(-c6c(F)cc(S(=O)(=O)[O-])cc6F)c6nc(c(-c7c(F)cc(S(=O)(=O)[O-])cc7F)c7ccc4[nH]7)C=C6)C=C5)cc3)CCCC2)ccn1
REMARK SMILES IDX 14 1 13 2 11 3 12 4 10 5 9 6 85 7 88 8 86 9 87 10 8 11 6 12
REMARK SMILES IDX 5 13 7 15 4 16 1 17 2 18 3 19 91 20 90 21 89 22 15 23 16 24
REMARK SMILES IDX 17 25 18 26 19 27 20 28 84 29 21 30 83 31 22 32 23 33 24 34
REMARK SMILES IDX 77 35 25 36 82 37 76 38 78 39 26 40 81 41 75 42 74 43 27 45
REMARK SMILES IDX 61 46 40 47 60 48 41 49 44 50 59 51 79 52 42 53 43 54 58 56
REMARK SMILES IDX 80 57 45 58 28 59 29 60 38 61 30 62 31 63 37 64 39 65 32 66
REMARK SMILES IDX 33 67 34 68 35 69 36 70 62 71 63 72 72 73 64 74 65 75 71 76
REMARK SMILES IDX 73 77 66 78 67 79 68 80 69 81 70 82 46 83 47 84 56 85 48 86
REMARK SMILES IDX 49 87 55 88 57 89 50 90 51 91 52 92 53 93 54 94
REMARK H PARENT 5 14 78 44 44 55
REMARK Flexibility Score: inf
ROOT
ATOM      1  C   UNL A   1      37.833  22.144  25.247  1.00  0.00     0.274 C 
ENDROOT
BRANCH   1   2
ATOM      2  O   UNL A   1      36.551  22.467  25.823  1.00  0.00    -0.462 OA
BRANCH   2   3
ATOM      3  C   UNL A   1      35.552  21.612  25.508  1.00  0.00     0.306 C 
ATOM      4  O   UNL A   1      35.716  20.536  24.938  1.00  0.00    -0.252 OA
BRANCH   3   5
ATOM      5  C   UNL A   1      34.160  22.095  25.855  1.00  0.00     0.130 C 
BRANCH   5   6
ATOM      6  C   UNL A   1      33.495  23.332  25.184  1.00  0.00    -0.011 C 
ATOM      7  C   UNL A   1      32.268  22.805  24.400  1.00  0.00     0.008 C 
ATOM      8  C   UNL A   1      34.296  23.930  24.008  1.00  0.00     0.008 C 
ATOM      9  C   UNL A   1      32.822  22.219  23.103  1.00  0.00     0.001 C 
ATOM     10  C   UNL A   1      34.141  22.944  22.856  1.00  0.00     0.001 C 
BRANCH   6  11
ATOM     11  C   UNL A   1      33.159  24.442  26.217  1.00  0.00     0.108 C 
BRANCH  11  12
ATOM     12  C   UNL A   1      31.745  24.451  26.773  1.00  0.00     0.224 C 
ATOM     13  N   UNL A   1      30.754  25.280  26.348  1.00  0.00    -0.326 N 
ATOM     14  H   UNL A   1      29.893  25.103  26.792  1.00  0.00     0.169 HD
ATOM     15  O   UNL A   1      31.422  23.603  27.608  1.00  0.00    -0.275 OA
BRANCH  13  16
ATOM     16  C   UNL A   1      30.685  26.330  25.422  1.00  0.00     0.044 A 
ATOM     17  C   UNL A   1      31.823  29.938  25.410  1.00  0.00     0.067 C 
ATOM     18  C   UNL A   1      31.222  28.633  24.979  1.00  0.00     0.039 A 
ATOM     19  C   UNL A   1      31.372  27.497  25.768  1.00  0.00     0.049 A 
ATOM     20  N   UNL A   1      30.461  28.645  23.862  1.00  0.00    -0.261 NA
ATOM     21  C   UNL A   1      29.873  27.483  23.507  1.00  0.00     0.113 A 
ATOM     22  C   UNL A   1      29.962  26.310  24.239  1.00  0.00     0.046 A 
ENDBRANCH  13  16
ENDBRANCH  11  12
ENDBRANCH   6  11
ENDBRANCH   5   6
ENDBRANCH   3   5
ENDBRANCH   2   3
ENDBRANCH   1   2
BRANCH   1  23
ATOM     23  C   UNL A   1      38.959  22.356  26.253  1.00  0.00     0.275 C 
BRANCH  23  24
ATOM     24  O   UNL A   1      39.092  23.752  26.562  1.00  0.00    -0.458 OA
BRANCH  24  25
ATOM     25  C   UNL A   1      40.349  24.168  26.837  1.00  0.00     0.338 C 
ATOM     26  O   UNL A   1      41.394  23.642  26.477  1.00  0.00    -0.246 OA
BRANCH  25  27
ATOM     27  C   UNL A   1      40.306  25.374  27.677  1.00  0.00     0.060 A 
ATOM     28  C   UNL A   1      41.347  26.300  27.637  1.00  0.00     0.016 A 
ATOM     29  C   UNL A   1      39.275  25.516  28.607  1.00  0.00     0.016 A 
ATOM     30  C   UNL A   1      41.405  27.321  28.584  1.00  0.00     0.010 A 
ATOM     31  C   UNL A   1      39.291  26.593  29.496  1.00  0.00     0.010 A 
ATOM     32  C   UNL A   1      40.373  27.490  29.517  1.00  0.00    -0.014 A 
BRANCH  32  33
ATOM     33  C   UNL A   1      40.412  28.592  30.517  1.00  0.00     0.031 A 
ATOM     34  C   UNL A   1      41.365  28.529  31.681  1.00  0.00     0.074 A 
ATOM     35  C   UNL A   1      39.560  29.629  30.406  1.00  0.00     0.049 A 
ATOM     36  N   UNL A   1      41.384  29.250  32.774  1.00  0.00    -0.248 NA
ATOM     37  C   UNL A   1      42.431  27.515  31.613  1.00  0.00     0.031 C 
ATOM     38  C   UNL A   1      38.612  29.836  29.308  1.00  0.00     0.029 A 
ATOM     39  N   UNL A   1      39.339  30.698  31.238  1.00  0.00    -0.354 N 
ATOM     40  C   UNL A   1      42.420  28.742  33.548  1.00  0.00     0.074 A 
ATOM     41  C   UNL A   1      43.014  27.655  32.798  1.00  0.00     0.031 C 
ATOM     42  C   UNL A   1      37.919  30.962  29.529  1.00  0.00     0.029 A 
ATOM     43  C   UNL A   1      38.312  31.512  30.821  1.00  0.00     0.049 A 
ATOM     44  H   UNL A   1      39.863  30.866  32.054  1.00  0.00     0.167 HD
ATOM     45  C   UNL A   1      42.833  29.146  34.775  1.00  0.00     0.037 A 
ATOM     46  C   UNL A   1      37.712  32.552  31.430  1.00  0.00     0.037 A 
ATOM     47  C   UNL A   1      42.269  30.263  35.492  1.00  0.00     0.049 A 
ATOM     48  C   UNL A   1      38.169  32.967  32.797  1.00  0.00     0.074 A 
ATOM     49  C   UNL A   1      42.634  30.766  36.729  1.00  0.00     0.029 A 
ATOM     50  N   UNL A   1      41.231  31.060  35.030  1.00  0.00    -0.354 N 
ATOM     51  N   UNL A   1      39.115  32.447  33.542  1.00  0.00    -0.248 NA
ATOM     52  C   UNL A   1      37.466  34.100  33.416  1.00  0.00     0.031 C 
ATOM     53  C   UNL A   1      41.798  31.849  37.027  1.00  0.00     0.029 A 
ATOM     54  C   UNL A   1      40.937  32.043  35.961  1.00  0.00     0.049 A 
ATOM     55  H   UNL A   1      40.770  30.942  34.168  1.00  0.00     0.167 HD
ATOM     56  C   UNL A   1      39.130  33.196  34.712  1.00  0.00     0.074 A 
ATOM     57  C   UNL A   1      38.109  34.213  34.571  1.00  0.00     0.031 C 
ATOM     58  C   UNL A   1      39.919  33.050  35.804  1.00  0.00     0.037 A 
BRANCH  45  59
ATOM     59  C   UNL A   1      43.932  28.366  35.441  1.00  0.00     0.058 A 
ATOM     60  C   UNL A   1      45.286  28.684  35.260  1.00  0.00     0.135 A 
ATOM     61  C   UNL A   1      43.618  27.320  36.326  1.00  0.00     0.135 A 
ATOM     62  F   UNL A   1      45.643  29.665  34.416  1.00  0.00    -0.206 F 
ATOM     63  C   UNL A   1      46.292  27.983  35.919  1.00  0.00     0.059 A 
ATOM     64  C   UNL A   1      44.607  26.619  37.012  1.00  0.00     0.059 A 
ATOM     65  F   UNL A   1      42.338  26.975  36.538  1.00  0.00    -0.206 F 
ATOM     66  C   UNL A   1      45.942  26.952  36.793  1.00  0.00     0.060 A 
BRANCH  66  67
ATOM     67  S   UNL A   1      47.257  26.063  37.657  1.00  0.00     0.124 S 
ATOM     68  O   UNL A   1      47.668  27.047  38.653  1.00  0.00    -0.237 OA
ATOM     69  O   UNL A   1      46.557  24.892  38.175  1.00  0.00    -0.237 OA
ATOM     70  O   UNL A   1      48.230  25.790  36.603  1.00  0.00    -0.744 OA
ENDBRANCH  66  67
ENDBRANCH  45  59
BRANCH  46  71
ATOM     71  C   UNL A   1      36.582  33.241  30.756  1.00  0.00     0.058 A 
ATOM     72  C   UNL A   1      35.254  32.942  31.090  1.00  0.00     0.135 A 
ATOM     73  C   UNL A   1      36.809  34.238  29.795  1.00  0.00     0.135 A 
ATOM     74  F   UNL A   1      34.989  31.990  31.997  1.00  0.00    -0.206 F 
ATOM     75  C   UNL A   1      34.188  33.607  30.494  1.00  0.00     0.059 A 
ATOM     76  C   UNL A   1      35.761  34.934  29.204  1.00  0.00     0.059 A 
ATOM     77  F   UNL A   1      38.064  34.569  29.452  1.00  0.00    -0.206 F 
ATOM     78  C   UNL A   1      34.452  34.606  29.555  1.00  0.00     0.060 A 
BRANCH  78  79
ATOM     79  S   UNL A   1      33.067  35.515  28.837  1.00  0.00     0.124 S 
ATOM     80  O   UNL A   1      33.759  36.536  28.059  1.00  0.00    -0.237 OA
ATOM     81  O   UNL A   1      32.381  34.482  28.068  1.00  0.00    -0.237 OA
ATOM     82  O   UNL A   1      32.341  35.996  30.009  1.00  0.00    -0.744 OA
ENDBRANCH  78  79
ENDBRANCH  46  71
BRANCH  58  83
ATOM     83  C   UNL A   1      39.728  34.037  36.920  1.00  0.00     0.058 A 
ATOM     84  C   UNL A   1      38.939  33.734  38.040  1.00  0.00     0.135 A 
ATOM     85  C   UNL A   1      40.365  35.286  36.880  1.00  0.00     0.135 A 
ATOM     86  F   UNL A   1      38.301  32.556  38.120  1.00  0.00    -0.206 F 
ATOM     87  C   UNL A   1      38.771  34.648  39.076  1.00  0.00     0.059 A 
ATOM     88  C   UNL A   1      40.228  36.207  37.914  1.00  0.00     0.059 A 
ATOM     89  F   UNL A   1      41.136  35.619  35.832  1.00  0.00    -0.206 F 
ATOM     90  C   UNL A   1      39.418  35.884  39.002  1.00  0.00     0.060 A 
BRANCH  90  91
ATOM     91  S   UNL A   1      39.215  37.054  40.361  1.00  0.00     0.124 S 
ATOM     92  O   UNL A   1      38.434  38.110  39.724  1.00  0.00    -0.237 OA
ATOM     93  O   UNL A   1      38.508  36.260  41.360  1.00  0.00    -0.237 OA
ATOM     94  O   UNL A   1      40.587  37.410  40.710  1.00  0.00    -0.744 OA
ENDBRANCH  90  91
ENDBRANCH  58  83
ENDBRANCH  32  33
ENDBRANCH  25  27
ENDBRANCH  24  25
ENDBRANCH  23  24
ENDBRANCH   1  23
TORSDOF 18
ENDMDL
MODEL 3
REMARK VINA RESULT:     -11.0      2.762      4.326
REMARK SMILES Cc1cc(NC(=O)CC2(CC(=O)OCCOC(=O)c3ccc(-c4c5nc(c(-c6c(F)cc(S(=O)(=O)[O-])cc6F)c6ccc([nH]6)c(-c6c(F)cc(S(=O)(=O)[O-])cc6F)c6nc(c(-c7c(F)cc(S(=O)(=O)[O-])cc7F)c7ccc4[nH]7)C=C6)C=C5)cc3)CCCC2)ccn1
REMARK SMILES IDX 14 1 13 2 11 3 12 4 10 5 9 6 85 7 88 8 86 9 87 10 8 11 6 12
REMARK SMILES IDX 5 13 7 15 4 16 1 17 2 18 3 19 91 20 90 21 89 22 15 23 16 24
REMARK SMILES IDX 17 25 18 26 19 27 20 28 84 29 21 30 83 31 22 32 23 33 24 34
REMARK SMILES IDX 77 35 25 36 82 37 76 38 78 39 26 40 81 41 75 42 74 43 27 45
REMARK SMILES IDX 61 46 40 47 60 48 41 49 44 50 59 51 79 52 42 53 43 54 58 56
REMARK SMILES IDX 80 57 45 58 28 59 29 60 38 61 30 62 31 63 37 64 39 65 32 66
REMARK SMILES IDX 33 67 34 68 35 69 36 70 62 71 63 72 72 73 64 74 65 75 71 76
REMARK SMILES IDX 73 77 66 78 67 79 68 80 69 81 70 82 46 83 47 84 56 85 48 86
REMARK SMILES IDX 49 87 55 88 57 89 50 90 51 91 52 92 53 93 54 94
REMARK H PARENT 5 14 78 44 44 55
REMARK Flexibility Score: inf
ROOT
ATOM      1  C   UNL A   1      31.845  28.899  26.126  1.00  0.00     0.274 C 
ENDROOT
BRANCH   1   2
ATOM      2  O   UNL A   1      32.060  27.861  25.148  1.00  0.00    -0.462 OA
BRANCH   2   3
ATOM      3  C   UNL A   1      31.405  26.703  25.393  1.00  0.00     0.306 C 
ATOM      4  O   UNL A   1      30.236  26.634  25.763  1.00  0.00    -0.252 OA
BRANCH   3   5
ATOM      5  C   UNL A   1      32.238  25.448  25.236  1.00  0.00     0.130 C 
BRANCH   5   6
ATOM      6  C   UNL A   1      31.857  24.287  24.274  1.00  0.00    -0.011 C 
ATOM      7  C   UNL A   1      33.181  23.765  23.664  1.00  0.00     0.008 C 
ATOM      8  C   UNL A   1      31.153  24.735  22.975  1.00  0.00     0.008 C 
ATOM      9  C   UNL A   1      33.550  24.751  22.559  1.00  0.00     0.001 C 
ATOM     10  C   UNL A   1      32.233  25.386  22.120  1.00  0.00     0.001 C 
BRANCH   6  11
ATOM     11  C   UNL A   1      31.012  23.195  24.986  1.00  0.00     0.108 C 
BRANCH  11  12
ATOM     12  C   UNL A   1      31.323  22.940  26.451  1.00  0.00     0.224 C 
ATOM     13  N   UNL A   1      32.361  22.183  26.900  1.00  0.00    -0.326 N 
ATOM     14  H   UNL A   1      32.430  22.176  27.883  1.00  0.00     0.169 HD
ATOM     15  O   UNL A   1      30.657  23.514  27.316  1.00  0.00    -0.275 OA
BRANCH  13  16
ATOM     16  C   UNL A   1      33.351  21.411  26.277  1.00  0.00     0.044 A 
ATOM     17  C   UNL A   1      37.054  21.853  25.641  1.00  0.00     0.067 C 
ATOM     18  C   UNL A   1      35.673  21.268  25.664  1.00  0.00     0.039 A 
ATOM     19  C   UNL A   1      34.659  21.890  26.386  1.00  0.00     0.049 A 
ATOM     20  N   UNL A   1      35.448  20.188  24.882  1.00  0.00    -0.261 NA
ATOM     21  C   UNL A   1      34.192  19.698  24.858  1.00  0.00     0.113 A 
ATOM     22  C   UNL A   1      33.123  20.260  25.537  1.00  0.00     0.046 A 
ENDBRANCH  13  16
ENDBRANCH  11  12
ENDBRANCH   6  11
ENDBRANCH   5   6
ENDBRANCH   3   5
ENDBRANCH   2   3
ENDBRANCH   1   2
BRANCH   1  23
ATOM     23  C   UNL A   1      32.525  28.560  27.448  1.00  0.00     0.275 C 
BRANCH  23  24
ATOM     24  O   UNL A   1      33.944  28.759  27.342  1.00  0.00    -0.458 OA
BRANCH  24  25
ATOM     25  C   UNL A   1      34.400  29.941  27.814  1.00  0.00     0.338 C 
ATOM     26  O   UNL A   1      33.764  30.977  27.945  1.00  0.00    -0.246 OA
BRANCH  25  27
ATOM     27  C   UNL A   1      35.828  29.829  28.148  1.00  0.00     0.060 A 
ATOM     28  C   UNL A   1      36.799  30.009  27.164  1.00  0.00     0.016 A 
ATOM     29  C   UNL A   1      36.195  29.416  29.429  1.00  0.00     0.016 A 
ATOM     30  C   UNL A   1      38.129  29.692  27.434  1.00  0.00     0.010 A 
ATOM     31  C   UNL A   1      37.541  29.185  29.721  1.00  0.00     0.010 A 
ATOM     32  C   UNL A   1      38.521  29.289  28.718  1.00  0.00    -0.014 A 
BRANCH  32  33
ATOM     33  C   UNL A   1      39.942  28.971  29.025  1.00  0.00     0.031 A 
ATOM     34  C   UNL A   1      40.858  30.033  29.574  1.00  0.00     0.074 A 
ATOM     35  C   UNL A   1      40.424  27.740  28.771  1.00  0.00     0.049 A 
ATOM     36  N   UNL A   1      42.163  30.029  29.674  1.00  0.00    -0.248 NA
ATOM     37  C   UNL A   1      40.224  31.269  30.063  1.00  0.00     0.031 C 
ATOM     38  C   UNL A   1      39.639  26.606  28.278  1.00  0.00     0.029 A 
ATOM     39  N   UNL A   1      41.698  27.239  28.874  1.00  0.00    -0.354 N 
ATOM     40  C   UNL A   1      42.512  31.275  30.181  1.00  0.00     0.074 A 
ATOM     41  C   UNL A   1      41.280  32.011  30.375  1.00  0.00     0.031 C 
ATOM     42  C   UNL A   1      40.443  25.543  28.129  1.00  0.00     0.029 A 
ATOM     43  C   UNL A   1      41.813  25.941  28.435  1.00  0.00     0.049 A 
ATOM     44  H   UNL A   1      42.456  27.757  29.228  1.00  0.00     0.167 HD
ATOM     45  C   UNL A   1      43.749  31.758  30.454  1.00  0.00     0.037 A 
ATOM     46  C   UNL A   1      42.899  25.169  28.244  1.00  0.00     0.037 A 
ATOM     47  C   UNL A   1      44.966  30.999  30.305  1.00  0.00     0.049 A 
ATOM     48  C   UNL A   1      44.260  25.733  28.530  1.00  0.00     0.074 A 
ATOM     49  C   UNL A   1      46.266  31.392  30.578  1.00  0.00     0.029 A 
ATOM     50  N   UNL A   1      45.033  29.688  29.858  1.00  0.00    -0.354 N 
ATOM     51  N   UNL A   1      44.581  26.930  28.960  1.00  0.00    -0.248 NA
ATOM     52  C   UNL A   1      45.408  24.848  28.290  1.00  0.00     0.031 C 
ATOM     53  C   UNL A   1      47.120  30.328  30.269  1.00  0.00     0.029 A 
ATOM     54  C   UNL A   1      46.351  29.260  29.838  1.00  0.00     0.049 A 
ATOM     55  H   UNL A   1      44.259  29.142  29.592  1.00  0.00     0.167 HD
ATOM     56  C   UNL A   1      45.967  26.939  29.052  1.00  0.00     0.074 A 
ATOM     57  C   UNL A   1      46.422  25.624  28.648  1.00  0.00     0.031 C 
ATOM     58  C   UNL A   1      46.788  27.947  29.437  1.00  0.00     0.037 A 
BRANCH  45  59
ATOM     59  C   UNL A   1      43.862  33.184  30.916  1.00  0.00     0.058 A 
ATOM     60  C   UNL A   1      43.837  33.529  32.276  1.00  0.00     0.135 A 
ATOM     61  C   UNL A   1      44.060  34.216  29.983  1.00  0.00     0.135 A 
ATOM     62  F   UNL A   1      43.637  32.586  33.209  1.00  0.00    -0.206 F 
ATOM     63  C   UNL A   1      43.989  34.849  32.694  1.00  0.00     0.059 A 
ATOM     64  C   UNL A   1      44.236  35.539  30.379  1.00  0.00     0.059 A 
ATOM     65  F   UNL A   1      44.094  33.941  28.669  1.00  0.00    -0.206 F 
ATOM     66  C   UNL A   1      44.188  35.847  31.738  1.00  0.00     0.060 A 
BRANCH  66  67
ATOM     67  S   UNL A   1      44.403  37.552  32.295  1.00  0.00     0.124 S 
ATOM     68  O   UNL A   1      45.830  37.580  32.601  1.00  0.00    -0.237 OA
ATOM     69  O   UNL A   1      43.992  38.320  31.124  1.00  0.00    -0.237 OA
ATOM     70  O   UNL A   1      43.511  37.647  33.447  1.00  0.00    -0.744 OA
ENDBRANCH  66  67
ENDBRANCH  45  59
BRANCH  46  71
ATOM     71  C   UNL A   1      42.734  23.792  27.715  1.00  0.00     0.058 A 
ATOM     72  C   UNL A   1      42.649  22.693  28.581  1.00  0.00     0.135 A 
ATOM     73  C   UNL A   1      42.617  23.552  26.337  1.00  0.00     0.135 A 
ATOM     74  F   UNL A   1      42.763  22.873  29.906  1.00  0.00    -0.206 F 
ATOM     75  C   UNL A   1      42.455  21.403  28.100  1.00  0.00     0.059 A 
ATOM     76  C   UNL A   1      42.398  22.275  25.834  1.00  0.00     0.059 A 
ATOM     77  F   UNL A   1      42.678  24.574  25.469  1.00  0.00    -0.206 F 
ATOM     78  C   UNL A   1      42.326  21.205  26.724  1.00  0.00     0.060 A 
BRANCH  78  79
ATOM     79  S   UNL A   1      42.004  19.537  26.111  1.00  0.00     0.124 S 
ATOM     80  O   UNL A   1      42.498  18.720  27.212  1.00  0.00    -0.237 OA
ATOM     81  O   UNL A   1      40.557  19.548  25.923  1.00  0.00    -0.237 OA
ATOM     82  O   UNL A   1      42.785  19.479  24.878  1.00  0.00    -0.744 OA
ENDBRANCH  78  79
ENDBRANCH  46  71
BRANCH  58  83
ATOM     83  C   UNL A   1      48.260  27.655  29.468  1.00  0.00     0.058 A 
ATOM     84  C   UNL A   1      49.066  27.825  28.332  1.00  0.00     0.135 A 
ATOM     85  C   UNL A   1      48.874  27.228  30.655  1.00  0.00     0.135 A 
ATOM     86  F   UNL A   1      48.524  28.222  27.171  1.00  0.00    -0.206 F 
ATOM     87  C   UNL A   1      50.432  27.561  28.367  1.00  0.00     0.059 A 
ATOM     88  C   UNL A   1      50.241  26.977  30.718  1.00  0.00     0.059 A 
ATOM     89  F   UNL A   1      48.146  27.056  31.770  1.00  0.00    -0.206 F 
ATOM     90  C   UNL A   1      51.010  27.135  29.565  1.00  0.00     0.060 A 
BRANCH  90  91
ATOM     91  S   UNL A   1      52.786  26.817  29.609  1.00  0.00     0.124 S 
ATOM     92  O   UNL A   1      52.895  25.915  30.751  1.00  0.00    -0.237 OA
ATOM     93  O   UNL A   1      53.033  26.218  28.302  1.00  0.00    -0.237 OA
ATOM     94  O   UNL A   1      53.362  28.145  29.800  1.00  0.00    -0.744 OA
ENDBRANCH  90  91
ENDBRANCH  58  83
ENDBRANCH  32  33
ENDBRANCH  25  27
ENDBRANCH  24  25
ENDBRANCH  23  24
ENDBRANCH   1  23
TORSDOF 18
ENDMDL
