MODEL 1
REMARK VINA RESULT:     -12.5      0.000      0.000
REMARK SMILES CCc1nn2c(nnc3c(=O)n([C@H](C(=O)OCCOC(=O)c4ccc(-c5c6nc(c(-c7c(F)cc(S(=O)(=O)[O-])cc7F)c7ccc([nH]7)c(-c7c(F)cc(S(=O)(=O)[O-])cc7F)c7nc(c(-c8c(F)cc(S(=O)(=O)[O-])cc8F)c8ccc5[nH]8)C=C7)C=C6)cc4)C(C)C)ccc32)c1-c1ccc(Cl)cc1
REMARK SMILES IDX 18 1 17 2 16 3 14 4 15 5 13 6 12 7 3 8 4 9 94 10 5 11 6 12
REMARK SMILES IDX 93 13 7 14 9 15 92 16 8 17 10 18 91 19 11 20 2 21 1 22 95 23
REMARK SMILES IDX 96 24 101 25 97 26 100 27 98 28 99 29 88 30 89 31 90 32
REMARK SMILES IDX 19 33 20 34 21 35 22 36 23 37 87 38 24 39 86 40 25 41 26 42
REMARK SMILES IDX 27 43 80 44 28 45 85 46 79 47 81 48 29 49 84 50 78 51 77 52
REMARK SMILES IDX 30 54 64 55 43 56 63 57 44 58 47 59 62 60 82 61 45 62 46 63
REMARK SMILES IDX 61 65 83 66 48 67 31 68 32 69 41 70 33 71 34 72 40 73 42 74
REMARK SMILES IDX 35 75 36 76 37 77 38 78 39 79 65 80 66 81 75 82 67 83 68 84
REMARK SMILES IDX 74 85 76 86 69 87 70 88 71 89 72 90 73 91 49 92 50 93 59 94
REMARK SMILES IDX 51 95 52 96 58 97 60 98 53 99 54 100 55 101 56 102 57 103
REMARK H PARENT 81 53 47 64
REMARK Flexibility Score: inf
ROOT
ATOM      1  C   UNL A   1      33.558  31.335  27.221  1.00  0.00     0.275 C 
ENDROOT
BRANCH   1   2
ATOM      2  C   UNL A   1      32.241  30.699  26.755  1.00  0.00     0.274 C 
BRANCH   2   3
ATOM      3  O   UNL A   1      32.371  29.832  25.602  1.00  0.00    -0.461 OA
BRANCH   3   4
ATOM      4  C   UNL A   1      31.789  28.605  25.730  1.00  0.00     0.329 C 
ATOM      5  O   UNL A   1      31.418  28.153  26.811  1.00  0.00    -0.250 OA
BRANCH   4   6
ATOM      6  C   UNL A   1      31.757  27.762  24.432  1.00  0.00     0.202 C 
BRANCH   6   7
ATOM      7  N   UNL A   1      32.507  26.477  24.494  1.00  0.00    -0.299 N 
ATOM      8  C   UNL A   1      35.693  21.050  24.813  1.00  0.00     0.073 A 
ATOM      9  N   UNL A   1      35.673  22.370  24.560  1.00  0.00    -0.170 NA
ATOM     10  C   UNL A   1      34.384  20.501  24.848  1.00  0.00     0.052 A 
ATOM     11  N   UNL A   1      34.354  22.711  24.661  1.00  0.00    -0.210 N 
ATOM     12  C   UNL A   1      33.552  21.599  24.885  1.00  0.00     0.186 A 
ATOM     13  C   UNL A   1      33.771  23.980  24.597  1.00  0.00     0.102 A 
ATOM     14  N   UNL A   1      32.210  21.754  25.091  1.00  0.00    -0.129 NA
ATOM     15  C   UNL A   1      32.472  24.035  24.934  1.00  0.00     0.177 A 
ATOM     16  C   UNL A   1      34.470  25.175  24.165  1.00  0.00     0.049 A 
ATOM     17  N   UNL A   1      31.716  22.909  25.204  1.00  0.00    -0.141 NA
ATOM     18  C   UNL A   1      31.844  25.386  25.093  1.00  0.00     0.281 A 
ATOM     19  C   UNL A   1      33.812  26.339  24.045  1.00  0.00     0.092 A 
ATOM     20  O   UNL A   1      30.833  25.522  25.777  1.00  0.00    -0.267 OA
BRANCH   8  21
ATOM     21  C   UNL A   1      36.997  20.356  25.046  1.00  0.00     0.055 C 
ATOM     22  C   UNL A   1      38.139  21.278  25.437  1.00  0.00     0.011 C 
ENDBRANCH   8  21
BRANCH  10  23
ATOM     23  C   UNL A   1      33.927  19.126  24.910  1.00  0.00    -0.013 A 
ATOM     24  C   UNL A   1      32.831  18.758  25.693  1.00  0.00     0.010 A 
ATOM     25  C   UNL A   1      34.642  18.131  24.226  1.00  0.00     0.010 A 
ATOM     26  C   UNL A   1      32.457  17.414  25.800  1.00  0.00     0.021 A 
ATOM     27  C   UNL A   1      34.272  16.787  24.337  1.00  0.00     0.021 A 
ATOM     28  C   UNL A   1      33.183  16.433  25.129  1.00  0.00     0.041 A 
ATOM     29  Cl  UNL A   1      32.751  14.775  25.296  1.00  0.00    -0.084 Cl
ENDBRANCH  10  23
ENDBRANCH   6   7
BRANCH   6  30
ATOM     30  C   UNL A   1      30.299  27.662  23.888  1.00  0.00     0.017 C 
ATOM     31  C   UNL A   1      29.715  29.042  23.529  1.00  0.00     0.010 C 
ATOM     32  C   UNL A   1      30.231  26.790  22.628  1.00  0.00     0.010 C 
ENDBRANCH   6  30
ENDBRANCH   4   6
ENDBRANCH   3   4
ENDBRANCH   2   3
ENDBRANCH   1   2
BRANCH   1  33
ATOM     33  O   UNL A   1      33.358  32.500  28.034  1.00  0.00    -0.458 OA
BRANCH  33  34
ATOM     34  C   UNL A   1      34.517  33.045  28.428  1.00  0.00     0.338 C 
ATOM     35  O   UNL A   1      35.328  33.637  27.691  1.00  0.00    -0.246 OA
BRANCH  34  36
ATOM     36  C   UNL A   1      34.831  32.785  29.828  1.00  0.00     0.060 A 
ATOM     37  C   UNL A   1      35.089  33.923  30.596  1.00  0.00     0.016 A 
ATOM     38  C   UNL A   1      35.477  31.573  30.074  1.00  0.00     0.016 A 
ATOM     39  C   UNL A   1      36.245  33.961  31.344  1.00  0.00     0.010 A 
ATOM     40  C   UNL A   1      36.604  31.595  30.872  1.00  0.00     0.010 A 
ATOM     41  C   UNL A   1      37.046  32.822  31.385  1.00  0.00    -0.014 A 
BRANCH  41  42
ATOM     42  C   UNL A   1      38.409  32.968  31.877  1.00  0.00     0.031 A 
ATOM     43  C   UNL A   1      39.407  33.489  30.913  1.00  0.00     0.074 A 
ATOM     44  C   UNL A   1      38.694  32.791  33.183  1.00  0.00     0.049 A 
ATOM     45  N   UNL A   1      40.577  33.026  30.614  1.00  0.00    -0.248 NA
ATOM     46  C   UNL A   1      39.010  34.674  30.138  1.00  0.00     0.031 C 
ATOM     47  C   UNL A   1      37.750  32.571  34.286  1.00  0.00     0.029 A 
ATOM     48  N   UNL A   1      39.888  32.928  33.822  1.00  0.00    -0.354 N 
ATOM     49  C   UNL A   1      41.124  33.927  29.706  1.00  0.00     0.074 A 
ATOM     50  C   UNL A   1      40.081  34.866  29.372  1.00  0.00     0.031 C 
ATOM     51  C   UNL A   1      38.371  32.846  35.454  1.00  0.00     0.029 A 
ATOM     52  C   UNL A   1      39.768  33.146  35.185  1.00  0.00     0.049 A 
ATOM     53  H   UNL A   1      40.755  32.878  33.359  1.00  0.00     0.167 HD
ATOM     54  C   UNL A   1      42.441  33.952  29.370  1.00  0.00     0.037 A 
ATOM     55  C   UNL A   1      40.720  33.655  36.005  1.00  0.00     0.037 A 
ATOM     56  C   UNL A   1      43.141  32.764  29.762  1.00  0.00     0.049 A 
ATOM     57  C   UNL A   1      42.031  33.508  35.318  1.00  0.00     0.074 A 
ATOM     58  C   UNL A   1      43.076  31.439  29.386  1.00  0.00     0.029 A 
ATOM     59  N   UNL A   1      43.876  32.791  30.922  1.00  0.00    -0.354 N 
ATOM     60  N   UNL A   1      42.622  32.368  35.080  1.00  0.00    -0.248 NA
ATOM     61  C   UNL A   1      42.515  34.632  34.528  1.00  0.00     0.031 C 
ATOM     62  C   UNL A   1      43.392  30.696  30.558  1.00  0.00     0.029 A 
ATOM     63  C   UNL A   1      43.631  31.613  31.584  1.00  0.00     0.049 A 
ATOM     64  H   UNL A   1      44.468  33.518  31.222  1.00  0.00     0.167 HD
ATOM     65  C   UNL A   1      43.262  32.540  33.861  1.00  0.00     0.074 A 
ATOM     66  C   UNL A   1      43.253  33.979  33.627  1.00  0.00     0.031 C 
ATOM     67  C   UNL A   1      43.502  31.490  33.022  1.00  0.00     0.037 A 
BRANCH  54  68
ATOM     68  C   UNL A   1      43.135  35.183  28.868  1.00  0.00     0.058 A 
ATOM     69  C   UNL A   1      43.386  36.269  29.723  1.00  0.00     0.135 A 
ATOM     70  C   UNL A   1      43.372  35.403  27.493  1.00  0.00     0.135 A 
ATOM     71  F   UNL A   1      43.161  36.166  31.042  1.00  0.00    -0.206 F 
ATOM     72  C   UNL A   1      43.827  37.502  29.240  1.00  0.00     0.059 A 
ATOM     73  C   UNL A   1      43.864  36.603  26.997  1.00  0.00     0.059 A 
ATOM     74  F   UNL A   1      43.057  34.481  26.572  1.00  0.00    -0.206 F 
ATOM     75  C   UNL A   1      44.052  37.661  27.874  1.00  0.00     0.060 A 
BRANCH  75  76
ATOM     76  S   UNL A   1      44.529  39.277  27.233  1.00  0.00     0.124 S 
ATOM     77  O   UNL A   1      43.262  39.759  26.697  1.00  0.00    -0.237 OA
ATOM     78  O   UNL A   1      45.018  39.955  28.428  1.00  0.00    -0.237 OA
ATOM     79  O   UNL A   1      45.552  38.955  26.242  1.00  0.00    -0.744 OA
ENDBRANCH  75  76
ENDBRANCH  54  68
BRANCH  55  80
ATOM     80  C   UNL A   1      40.508  34.547  37.176  1.00  0.00     0.058 A 
ATOM     81  C   UNL A   1      40.107  35.884  37.018  1.00  0.00     0.135 A 
ATOM     82  C   UNL A   1      40.474  34.043  38.495  1.00  0.00     0.135 A 
ATOM     83  F   UNL A   1      40.058  36.433  35.795  1.00  0.00    -0.206 F 
ATOM     84  C   UNL A   1      39.689  36.669  38.100  1.00  0.00     0.059 A 
ATOM     85  C   UNL A   1      40.085  34.812  39.588  1.00  0.00     0.059 A 
ATOM     86  F   UNL A   1      40.737  32.754  38.756  1.00  0.00    -0.206 F 
ATOM     87  C   UNL A   1      39.675  36.121  39.381  1.00  0.00     0.060 A 
BRANCH  87  88
ATOM     88  S   UNL A   1      39.023  37.091  40.760  1.00  0.00     0.124 S 
ATOM     89  O   UNL A   1      38.217  38.092  40.073  1.00  0.00    -0.237 OA
ATOM     90  O   UNL A   1      38.285  36.086  41.518  1.00  0.00    -0.237 OA
ATOM     91  O   UNL A   1      40.225  37.601  41.415  1.00  0.00    -0.744 OA
ENDBRANCH  87  88
ENDBRANCH  55  80
BRANCH  67  92
ATOM     92  C   UNL A   1      43.312  30.090  33.552  1.00  0.00     0.058 A 
ATOM     93  C   UNL A   1      44.299  29.401  34.282  1.00  0.00     0.135 A 
ATOM     94  C   UNL A   1      42.029  29.522  33.517  1.00  0.00     0.135 A 
ATOM     95  F   UNL A   1      45.520  29.926  34.439  1.00  0.00    -0.206 F 
ATOM     96  C   UNL A   1      44.026  28.201  34.946  1.00  0.00     0.059 A 
ATOM     97  C   UNL A   1      41.729  28.342  34.193  1.00  0.00     0.059 A 
ATOM     98  F   UNL A   1      41.028  30.159  32.886  1.00  0.00    -0.206 F 
ATOM     99  C   UNL A   1      42.732  27.686  34.909  1.00  0.00     0.060 A 
BRANCH  99 100
ATOM    100  S   UNL A   1      42.285  26.247  35.907  1.00  0.00     0.124 S 
ATOM    101  O   UNL A   1      40.912  25.986  35.483  1.00  0.00    -0.237 OA
ATOM    102  O   UNL A   1      43.260  25.232  35.522  1.00  0.00    -0.237 OA
ATOM    103  O   UNL A   1      42.429  26.740  37.275  1.00  0.00    -0.744 OA
ENDBRANCH  99 100
ENDBRANCH  67  92
ENDBRANCH  41  42
ENDBRANCH  34  36
ENDBRANCH  33  34
ENDBRANCH   1  33
TORSDOF 18
ENDMDL
MODEL 2
REMARK VINA RESULT:     -12.2      3.934      9.371
REMARK SMILES CCc1nn2c(nnc3c(=O)n([C@H](C(=O)OCCOC(=O)c4ccc(-c5c6nc(c(-c7c(F)cc(S(=O)(=O)[O-])cc7F)c7ccc([nH]7)c(-c7c(F)cc(S(=O)(=O)[O-])cc7F)c7nc(c(-c8c(F)cc(S(=O)(=O)[O-])cc8F)c8ccc5[nH]8)C=C7)C=C6)cc4)C(C)C)ccc32)c1-c1ccc(Cl)cc1
REMARK SMILES IDX 18 1 17 2 16 3 14 4 15 5 13 6 12 7 3 8 4 9 94 10 5 11 6 12
REMARK SMILES IDX 93 13 7 14 9 15 92 16 8 17 10 18 91 19 11 20 2 21 1 22 95 23
REMARK SMILES IDX 96 24 101 25 97 26 100 27 98 28 99 29 88 30 89 31 90 32
REMARK SMILES IDX 19 33 20 34 21 35 22 36 23 37 87 38 24 39 86 40 25 41 26 42
REMARK SMILES IDX 27 43 80 44 28 45 85 46 79 47 81 48 29 49 84 50 78 51 77 52
REMARK SMILES IDX 30 54 64 55 43 56 63 57 44 58 47 59 62 60 82 61 45 62 46 63
REMARK SMILES IDX 61 65 83 66 48 67 31 68 32 69 41 70 33 71 34 72 40 73 42 74
REMARK SMILES IDX 35 75 36 76 37 77 38 78 39 79 65 80 66 81 75 82 67 83 68 84
REMARK SMILES IDX 74 85 76 86 69 87 70 88 71 89 72 90 73 91 49 92 50 93 59 94
REMARK SMILES IDX 51 95 52 96 58 97 60 98 53 99 54 100 55 101 56 102 57 103
REMARK H PARENT 81 53 47 64
REMARK Flexibility Score: inf
ROOT
ATOM      1  C   UNL A   1      33.994  29.711  27.550  1.00  0.00     0.275 C 
ENDROOT
BRANCH   1   2
ATOM      2  C   UNL A   1      32.829  30.306  26.747  1.00  0.00     0.274 C 
BRANCH   2   3
ATOM      3  O   UNL A   1      32.577  29.648  25.482  1.00  0.00    -0.461 OA
BRANCH   3   4
ATOM      4  C   UNL A   1      31.798  28.530  25.554  1.00  0.00     0.329 C 
ATOM      5  O   UNL A   1      31.237  28.175  26.588  1.00  0.00    -0.250 OA
BRANCH   4   6
ATOM      6  C   UNL A   1      31.787  27.663  24.272  1.00  0.00     0.202 C 
BRANCH   6   7
ATOM      7  N   UNL A   1      32.559  26.392  24.362  1.00  0.00    -0.299 N 
ATOM      8  C   UNL A   1      35.837  21.029  24.798  1.00  0.00     0.073 A 
ATOM      9  N   UNL A   1      35.792  22.339  24.504  1.00  0.00    -0.170 NA
ATOM     10  C   UNL A   1      34.538  20.460  24.872  1.00  0.00     0.052 A 
ATOM     11  N   UNL A   1      34.469  22.663  24.616  1.00  0.00    -0.210 N 
ATOM     12  C   UNL A   1      33.689  21.546  24.888  1.00  0.00     0.186 A 
ATOM     13  C   UNL A   1      33.864  23.920  24.523  1.00  0.00     0.102 A 
ATOM     14  N   UNL A   1      32.348  21.686  25.112  1.00  0.00    -0.129 NA
ATOM     15  C   UNL A   1      32.570  23.966  24.879  1.00  0.00     0.177 A 
ATOM     16  C   UNL A   1      34.538  25.112  24.041  1.00  0.00     0.049 A 
ATOM     17  N   UNL A   1      31.837  22.837  25.197  1.00  0.00    -0.141 NA
ATOM     18  C   UNL A   1      31.923  25.311  25.006  1.00  0.00     0.281 A 
ATOM     19  C   UNL A   1      33.859  26.261  23.896  1.00  0.00     0.092 A 
ATOM     20  O   UNL A   1      30.922  25.452  25.701  1.00  0.00    -0.267 OA
BRANCH   8  21
ATOM     21  C   UNL A   1      37.156  20.362  25.031  1.00  0.00     0.055 C 
ATOM     22  C   UNL A   1      38.279  21.310  25.416  1.00  0.00     0.011 C 
ENDBRANCH   8  21
BRANCH  10  23
ATOM     23  C   UNL A   1      34.105  19.081  24.985  1.00  0.00    -0.013 A 
ATOM     24  C   UNL A   1      34.749  18.055  24.291  1.00  0.00     0.010 A 
ATOM     25  C   UNL A   1      32.970  18.778  25.753  1.00  0.00     0.010 A 
ATOM     26  C   UNL A   1      34.264  16.744  24.355  1.00  0.00     0.021 A 
ATOM     27  C   UNL A   1      32.482  17.469  25.812  1.00  0.00     0.021 A 
ATOM     28  C   UNL A   1      33.128  16.457  25.106  1.00  0.00     0.041 A 
ATOM     29  Cl  UNL A   1      32.505  14.854  25.148  1.00  0.00    -0.084 Cl
ENDBRANCH  10  23
ENDBRANCH   6   7
BRANCH   6  30
ATOM     30  C   UNL A   1      30.334  27.527  23.723  1.00  0.00     0.017 C 
ATOM     31  C   UNL A   1      29.676  28.898  23.471  1.00  0.00     0.010 C 
ATOM     32  C   UNL A   1      30.306  26.752  22.401  1.00  0.00     0.010 C 
ENDBRANCH   6  30
ENDBRANCH   4   6
ENDBRANCH   3   4
ENDBRANCH   2   3
ENDBRANCH   1   2
BRANCH   1  33
ATOM     33  O   UNL A   1      35.274  30.193  27.120  1.00  0.00    -0.458 OA
BRANCH  33  34
ATOM     34  C   UNL A   1      35.686  31.245  27.841  1.00  0.00     0.338 C 
ATOM     35  O   UNL A   1      35.666  32.433  27.467  1.00  0.00    -0.246 OA
BRANCH  34  36
ATOM     36  C   UNL A   1      36.294  30.870  29.111  1.00  0.00     0.060 A 
ATOM     37  C   UNL A   1      37.156  31.825  29.657  1.00  0.00     0.016 A 
ATOM     38  C   UNL A   1      36.515  29.503  29.282  1.00  0.00     0.016 A 
ATOM     39  C   UNL A   1      38.420  31.429  30.037  1.00  0.00     0.010 A 
ATOM     40  C   UNL A   1      37.762  29.101  29.718  1.00  0.00     0.010 A 
ATOM     41  C   UNL A   1      38.740  30.075  29.959  1.00  0.00    -0.014 A 
BRANCH  41  42
ATOM     42  C   UNL A   1      40.148  29.706  30.025  1.00  0.00     0.031 A 
ATOM     43  C   UNL A   1      40.749  29.635  31.379  1.00  0.00     0.074 A 
ATOM     44  C   UNL A   1      40.806  29.296  28.922  1.00  0.00     0.049 A 
ATOM     45  N   UNL A   1      41.847  30.162  31.816  1.00  0.00    -0.248 NA
ATOM     46  C   UNL A   1      39.979  28.908  32.399  1.00  0.00     0.031 C 
ATOM     47  C   UNL A   1      40.249  29.035  27.590  1.00  0.00     0.029 A 
ATOM     48  N   UNL A   1      42.096  28.875  28.806  1.00  0.00    -0.354 N 
ATOM     49  C   UNL A   1      41.978  29.732  33.133  1.00  0.00     0.074 A 
ATOM     50  C   UNL A   1      40.754  29.048  33.471  1.00  0.00     0.031 C 
ATOM     51  C   UNL A   1      41.120  28.271  26.894  1.00  0.00     0.029 A 
ATOM     52  C   UNL A   1      42.326  28.092  27.686  1.00  0.00     0.049 A 
ATOM     53  H   UNL A   1      42.799  29.105  29.456  1.00  0.00     0.167 HD
ATOM     54  C   UNL A   1      43.131  29.831  33.846  1.00  0.00     0.037 A 
ATOM     55  C   UNL A   1      43.379  27.261  27.489  1.00  0.00     0.037 A 
ATOM     56  C   UNL A   1      44.084  30.720  33.249  1.00  0.00     0.049 A 
ATOM     57  C   UNL A   1      44.456  27.668  28.432  1.00  0.00     0.074 A 
ATOM     58  C   UNL A   1      44.118  32.079  33.014  1.00  0.00     0.029 A 
ATOM     59  N   UNL A   1      45.098  30.182  32.496  1.00  0.00    -0.354 N 
ATOM     60  N   UNL A   1      45.123  28.788  28.360  1.00  0.00    -0.248 NA
ATOM     61  C   UNL A   1      44.527  26.988  29.717  1.00  0.00     0.031 C 
ATOM     62  C   UNL A   1      44.855  32.236  31.807  1.00  0.00     0.029 A 
ATOM     63  C   UNL A   1      45.227  30.962  31.373  1.00  0.00     0.049 A 
ATOM     64  H   UNL A   1      45.633  29.386  32.719  1.00  0.00     0.167 HD
ATOM     65  C   UNL A   1      45.367  29.149  29.678  1.00  0.00     0.074 A 
ATOM     66  C   UNL A   1      45.076  27.952  30.459  1.00  0.00     0.031 C 
ATOM     67  C   UNL A   1      45.522  30.454  30.048  1.00  0.00     0.037 A 
BRANCH  54  68
ATOM     68  C   UNL A   1      43.464  28.926  34.994  1.00  0.00     0.058 A 
ATOM     69  C   UNL A   1      43.714  29.449  36.275  1.00  0.00     0.135 A 
ATOM     70  C   UNL A   1      43.754  27.556  34.812  1.00  0.00     0.135 A 
ATOM     71  F   UNL A   1      43.500  30.747  36.537  1.00  0.00    -0.206 F 
ATOM     72  C   UNL A   1      44.236  28.663  37.304  1.00  0.00     0.059 A 
ATOM     73  C   UNL A   1      44.220  26.743  35.836  1.00  0.00     0.059 A 
ATOM     74  F   UNL A   1      43.667  26.978  33.605  1.00  0.00    -0.206 F 
ATOM     75  C   UNL A   1      44.495  27.314  37.069  1.00  0.00     0.060 A 
BRANCH  75  76
ATOM     76  S   UNL A   1      45.258  26.317  38.363  1.00  0.00     0.124 S 
ATOM     77  O   UNL A   1      46.598  26.891  38.416  1.00  0.00    -0.237 OA
ATOM     78  O   UNL A   1      44.400  26.586  39.512  1.00  0.00    -0.237 OA
ATOM     79  O   UNL A   1      45.174  24.959  37.833  1.00  0.00    -0.744 OA
ENDBRANCH  75  76
ENDBRANCH  54  68
BRANCH  55  80
ATOM     80  C   UNL A   1      43.368  25.956  26.778  1.00  0.00     0.058 A 
ATOM     81  C   UNL A   1      44.062  25.771  25.571  1.00  0.00     0.135 A 
ATOM     82  C   UNL A   1      42.860  24.786  27.385  1.00  0.00     0.135 A 
ATOM     83  F   UNL A   1      44.623  26.818  24.949  1.00  0.00    -0.206 F 
ATOM     84  C   UNL A   1      44.248  24.503  25.005  1.00  0.00     0.059 A 
ATOM     85  C   UNL A   1      43.013  23.518  26.828  1.00  0.00     0.059 A 
ATOM     86  F   UNL A   1      42.269  24.824  28.588  1.00  0.00    -0.206 F 
ATOM     87  C   UNL A   1      43.725  23.382  25.646  1.00  0.00     0.060 A 
BRANCH  87  88
ATOM     88  S   UNL A   1      44.066  21.734  24.984  1.00  0.00     0.124 S 
ATOM     89  O   UNL A   1      45.289  21.371  25.690  1.00  0.00    -0.237 OA
ATOM     90  O   UNL A   1      42.865  20.998  25.364  1.00  0.00    -0.237 OA
ATOM     91  O   UNL A   1      44.221  21.970  23.551  1.00  0.00    -0.744 OA
ENDBRANCH  87  88
ENDBRANCH  55  80
BRANCH  67  92
ATOM     92  C   UNL A   1      45.700  31.490  28.966  1.00  0.00     0.058 A 
ATOM     93  C   UNL A   1      44.622  32.131  28.327  1.00  0.00     0.135 A 
ATOM     94  C   UNL A   1      46.983  32.007  28.729  1.00  0.00     0.135 A 
ATOM     95  F   UNL A   1      43.361  31.755  28.577  1.00  0.00    -0.206 F 
ATOM     96  C   UNL A   1      44.808  33.235  27.490  1.00  0.00     0.059 A 
ATOM     97  C   UNL A   1      47.188  33.121  27.919  1.00  0.00     0.059 A 
ATOM     98  F   UNL A   1      48.048  31.476  29.353  1.00  0.00    -0.206 F 
ATOM     99  C   UNL A   1      46.095  33.734  27.303  1.00  0.00     0.060 A 
BRANCH  99 100
ATOM    100  S   UNL A   1      46.365  35.270  26.389  1.00  0.00     0.124 S 
ATOM    101  O   UNL A   1      47.405  35.925  27.176  1.00  0.00    -0.237 OA
ATOM    102  O   UNL A   1      46.776  34.824  25.061  1.00  0.00    -0.237 OA
ATOM    103  O   UNL A   1      45.053  35.912  26.434  1.00  0.00    -0.744 OA
ENDBRANCH  99 100
ENDBRANCH  67  92
ENDBRANCH  41  42
ENDBRANCH  34  36
ENDBRANCH  33  34
ENDBRANCH   1  33
TORSDOF 18
ENDMDL
MODEL 3
REMARK VINA RESULT:     -11.8      6.748     12.137
REMARK SMILES CCc1nn2c(nnc3c(=O)n([C@H](C(=O)OCCOC(=O)c4ccc(-c5c6nc(c(-c7c(F)cc(S(=O)(=O)[O-])cc7F)c7ccc([nH]7)c(-c7c(F)cc(S(=O)(=O)[O-])cc7F)c7nc(c(-c8c(F)cc(S(=O)(=O)[O-])cc8F)c8ccc5[nH]8)C=C7)C=C6)cc4)C(C)C)ccc32)c1-c1ccc(Cl)cc1
REMARK SMILES IDX 18 1 17 2 16 3 14 4 15 5 13 6 12 7 3 8 4 9 94 10 5 11 6 12
REMARK SMILES IDX 93 13 7 14 9 15 92 16 8 17 10 18 91 19 11 20 2 21 1 22 95 23
REMARK SMILES IDX 96 24 101 25 97 26 100 27 98 28 99 29 88 30 89 31 90 32
REMARK SMILES IDX 19 33 20 34 21 35 22 36 23 37 87 38 24 39 86 40 25 41 26 42
REMARK SMILES IDX 27 43 80 44 28 45 85 46 79 47 81 48 29 49 84 50 78 51 77 52
REMARK SMILES IDX 30 54 64 55 43 56 63 57 44 58 47 59 62 60 82 61 45 62 46 63
REMARK SMILES IDX 61 65 83 66 48 67 31 68 32 69 41 70 33 71 34 72 40 73 42 74
REMARK SMILES IDX 35 75 36 76 37 77 38 78 39 79 65 80 66 81 75 82 67 83 68 84
REMARK SMILES IDX 74 85 76 86 69 87 70 88 71 89 72 90 73 91 49 92 50 93 59 94
REMARK SMILES IDX 51 95 52 96 58 97 60 98 53 99 54 100 55 101 56 102 57 103
REMARK H PARENT 81 53 47 64
REMARK Flexibility Score: inf
ROOT
ATOM      1  C   UNL A   1      48.671  32.506  26.703  1.00  0.00     0.275 C 
ENDROOT
BRANCH   1   2
ATOM      2  C   UNL A   1      48.467  31.125  27.341  1.00  0.00     0.274 C 
BRANCH   2   3
ATOM      3  O   UNL A   1      49.194  30.053  26.694  1.00  0.00    -0.461 OA
BRANCH   3   4
ATOM      4  C   UNL A   1      48.456  28.944  26.401  1.00  0.00     0.329 C 
ATOM      5  O   UNL A   1      47.384  28.997  25.803  1.00  0.00    -0.250 OA
BRANCH   4   6
ATOM      6  C   UNL A   1      48.999  27.624  27.002  1.00  0.00     0.202 C 
BRANCH   6   7
ATOM      7  N   UNL A   1      48.168  27.037  28.090  1.00  0.00    -0.299 N 
ATOM      8  C   UNL A   1      44.689  24.510  32.695  1.00  0.00     0.073 A 
ATOM      9  N   UNL A   1      44.961  24.640  31.386  1.00  0.00    -0.170 NA
ATOM     10  C   UNL A   1      45.300  25.535  33.464  1.00  0.00     0.052 A 
ATOM     11  N   UNL A   1      45.928  25.604  31.338  1.00  0.00    -0.210 N 
ATOM     12  C   UNL A   1      46.190  26.132  32.596  1.00  0.00     0.186 A 
ATOM     13  C   UNL A   1      46.655  26.060  30.233  1.00  0.00     0.102 A 
ATOM     14  N   UNL A   1      47.184  27.054  32.757  1.00  0.00    -0.129 NA
ATOM     15  C   UNL A   1      47.686  26.872  30.518  1.00  0.00     0.177 A 
ATOM     16  C   UNL A   1      46.329  25.739  28.857  1.00  0.00     0.049 A 
ATOM     17  N   UNL A   1      47.949  27.336  31.794  1.00  0.00    -0.141 NA
ATOM     18  C   UNL A   1      48.630  27.224  29.409  1.00  0.00     0.281 A 
ATOM     19  C   UNL A   1      47.022  26.293  27.850  1.00  0.00     0.092 A 
ATOM     20  O   UNL A   1      49.773  27.593  29.663  1.00  0.00    -0.267 OA
BRANCH   8  21
ATOM     21  C   UNL A   1      43.856  23.364  33.174  1.00  0.00     0.055 C 
ATOM     22  C   UNL A   1      44.575  22.416  34.119  1.00  0.00     0.011 C 
ENDBRANCH   8  21
BRANCH  10  23
ATOM     23  C   UNL A   1      45.151  25.900  34.860  1.00  0.00    -0.013 A 
ATOM     24  C   UNL A   1      44.009  26.557  35.323  1.00  0.00     0.010 A 
ATOM     25  C   UNL A   1      46.205  25.652  35.752  1.00  0.00     0.010 A 
ATOM     26  C   UNL A   1      43.922  26.969  36.657  1.00  0.00     0.021 A 
ATOM     27  C   UNL A   1      46.121  26.070  37.084  1.00  0.00     0.021 A 
ATOM     28  C   UNL A   1      44.980  26.732  37.531  1.00  0.00     0.041 A 
ATOM     29  Cl  UNL A   1      44.892  27.278  39.160  1.00  0.00    -0.084 Cl
ENDBRANCH  10  23
ENDBRANCH   6   7
BRANCH   6  30
ATOM     30  C   UNL A   1      49.408  26.640  25.865  1.00  0.00     0.017 C 
ATOM     31  C   UNL A   1      50.059  27.366  24.671  1.00  0.00     0.010 C 
ATOM     32  C   UNL A   1      50.407  25.590  26.366  1.00  0.00     0.010 C 
ENDBRANCH   6  30
ENDBRANCH   4   6
ENDBRANCH   3   4
ENDBRANCH   2   3
ENDBRANCH   1   2
BRANCH   1  33
ATOM     33  O   UNL A   1      47.548  32.930  25.918  1.00  0.00    -0.458 OA
BRANCH  33  34
ATOM     34  C   UNL A   1      47.316  34.245  26.039  1.00  0.00     0.338 C 
ATOM     35  O   UNL A   1      47.959  35.150  25.475  1.00  0.00    -0.246 OA
BRANCH  34  36
ATOM     36  C   UNL A   1      46.278  34.560  27.014  1.00  0.00     0.060 A 
ATOM     37  C   UNL A   1      46.630  34.324  28.345  1.00  0.00     0.016 A 
ATOM     38  C   UNL A   1      44.969  34.390  26.561  1.00  0.00     0.016 A 
ATOM     39  C   UNL A   1      45.783  33.567  29.124  1.00  0.00     0.010 A 
ATOM     40  C   UNL A   1      44.098  33.681  27.364  1.00  0.00     0.010 A 
ATOM     41  C   UNL A   1      44.565  33.164  28.579  1.00  0.00    -0.014 A 
BRANCH  41  42
ATOM     42  C   UNL A   1      43.839  32.098  29.256  1.00  0.00     0.031 A 
ATOM     43  C   UNL A   1      43.608  30.858  28.476  1.00  0.00     0.074 A 
ATOM     44  C   UNL A   1      43.546  32.188  30.569  1.00  0.00     0.049 A 
ATOM     45  N   UNL A   1      42.511  30.197  28.296  1.00  0.00    -0.248 NA
ATOM     46  C   UNL A   1      44.768  30.313  27.756  1.00  0.00     0.031 C 
ATOM     47  C   UNL A   1      43.982  33.220  31.516  1.00  0.00     0.029 A 
ATOM     48  N   UNL A   1      42.920  31.280  31.368  1.00  0.00    -0.354 N 
ATOM     49  C   UNL A   1      42.859  29.078  27.544  1.00  0.00     0.074 A 
ATOM     50  C   UNL A   1      44.237  29.251  27.156  1.00  0.00     0.031 C 
ATOM     51  C   UNL A   1      43.830  32.752  32.774  1.00  0.00     0.029 A 
ATOM     52  C   UNL A   1      43.189  31.447  32.717  1.00  0.00     0.049 A 
ATOM     53  H   UNL A   1      42.332  30.571  31.020  1.00  0.00     0.167 HD
ATOM     54  C   UNL A   1      42.052  27.995  27.387  1.00  0.00     0.037 A 
ATOM     55  C   UNL A   1      43.009  30.524  33.693  1.00  0.00     0.037 A 
ATOM     56  C   UNL A   1      40.694  28.250  27.768  1.00  0.00     0.049 A 
ATOM     57  C   UNL A   1      42.065  29.499  33.174  1.00  0.00     0.074 A 
ATOM     58  C   UNL A   1      39.691  29.062  27.279  1.00  0.00     0.029 A 
ATOM     59  N   UNL A   1      40.277  27.844  29.013  1.00  0.00    -0.354 N 
ATOM     60  N   UNL A   1      40.801  29.711  32.922  1.00  0.00    -0.248 NA
ATOM     61  C   UNL A   1      42.628  28.310  32.549  1.00  0.00     0.031 C 
ATOM     62  C   UNL A   1      38.935  29.457  28.418  1.00  0.00     0.029 A 
ATOM     63  C   UNL A   1      39.521  28.863  29.538  1.00  0.00     0.049 A 
ATOM     64  H   UNL A   1      40.482  26.985  29.446  1.00  0.00     0.167 HD
ATOM     65  C   UNL A   1      40.515  28.924  31.815  1.00  0.00     0.074 A 
ATOM     66  C   UNL A   1      41.642  28.006  31.701  1.00  0.00     0.031 C 
ATOM     67  C   UNL A   1      39.530  29.259  30.932  1.00  0.00     0.037 A 
BRANCH  54  68
ATOM     68  C   UNL A   1      42.573  26.623  27.082  1.00  0.00     0.058 A 
ATOM     69  C   UNL A   1      42.659  26.162  25.757  1.00  0.00     0.135 A 
ATOM     70  C   UNL A   1      42.796  25.662  28.093  1.00  0.00     0.135 A 
ATOM     71  F   UNL A   1      42.432  26.993  24.729  1.00  0.00    -0.206 F 
ATOM     72  C   UNL A   1      42.929  24.826  25.457  1.00  0.00     0.059 A 
ATOM     73  C   UNL A   1      43.122  24.341  27.817  1.00  0.00     0.059 A 
ATOM     74  F   UNL A   1      42.625  25.959  29.390  1.00  0.00    -0.206 F 
ATOM     75  C   UNL A   1      43.148  23.922  26.496  1.00  0.00     0.060 A 
BRANCH  75  76
ATOM     76  S   UNL A   1      43.403  22.178  26.118  1.00  0.00     0.124 S 
ATOM     77  O   UNL A   1      42.793  22.077  24.797  1.00  0.00    -0.237 OA
ATOM     78  O   UNL A   1      44.856  22.058  26.163  1.00  0.00    -0.237 OA
ATOM     79  O   UNL A   1      42.693  21.495  27.196  1.00  0.00    -0.744 OA
ENDBRANCH  75  76
ENDBRANCH  54  68
BRANCH  55  80
ATOM     80  C   UNL A   1      43.859  30.317  34.895  1.00  0.00     0.058 A 
ATOM     81  C   UNL A   1      45.217  29.976  34.784  1.00  0.00     0.135 A 
ATOM     82  C   UNL A   1      43.414  30.670  36.188  1.00  0.00     0.135 A 
ATOM     83  F   UNL A   1      45.741  29.675  33.587  1.00  0.00    -0.206 F 
ATOM     84  C   UNL A   1      46.083  29.994  35.886  1.00  0.00     0.059 A 
ATOM     85  C   UNL A   1      44.250  30.673  37.301  1.00  0.00     0.059 A 
ATOM     86  F   UNL A   1      42.165  31.111  36.399  1.00  0.00    -0.206 F 
ATOM     87  C   UNL A   1      45.590  30.352  37.140  1.00  0.00     0.060 A 
BRANCH  87  88
ATOM     88  S   UNL A   1      46.726  30.494  38.538  1.00  0.00     0.124 S 
ATOM     89  O   UNL A   1      47.488  29.255  38.437  1.00  0.00    -0.237 OA
ATOM     90  O   UNL A   1      47.452  31.719  38.219  1.00  0.00    -0.237 OA
ATOM     91  O   UNL A   1      45.835  30.585  39.693  1.00  0.00    -0.744 OA
ENDBRANCH  87  88
ENDBRANCH  55  80
BRANCH  67  92
ATOM     92  C   UNL A   1      38.563  30.352  31.316  1.00  0.00     0.058 A 
ATOM     93  C   UNL A   1      38.771  31.709  31.007  1.00  0.00     0.135 A 
ATOM     94  C   UNL A   1      37.298  29.994  31.806  1.00  0.00     0.135 A 
ATOM     95  F   UNL A   1      39.920  32.112  30.449  1.00  0.00    -0.206 F 
ATOM     96  C   UNL A   1      37.770  32.669  31.178  1.00  0.00     0.059 A 
ATOM     97  C   UNL A   1      36.278  30.930  31.959  1.00  0.00     0.059 A 
ATOM     98  F   UNL A   1      37.016  28.706  32.066  1.00  0.00    -0.206 F 
ATOM     99  C   UNL A   1      36.518  32.268  31.640  1.00  0.00     0.060 A 
BRANCH  99 100
ATOM    100  S   UNL A   1      35.137  33.433  31.694  1.00  0.00     0.124 S 
ATOM    101  O   UNL A   1      34.034  32.591  32.146  1.00  0.00    -0.237 OA
ATOM    102  O   UNL A   1      35.572  34.454  32.643  1.00  0.00    -0.237 OA
ATOM    103  O   UNL A   1      35.043  33.892  30.309  1.00  0.00    -0.744 OA
ENDBRANCH  99 100
ENDBRANCH  67  92
ENDBRANCH  41  42
ENDBRANCH  34  36
ENDBRANCH  33  34
ENDBRANCH   1  33
TORSDOF 18
ENDMDL
