MODEL 1
REMARK VINA RESULT:     -11.1      0.000      0.000
REMARK SMILES O=C(OCCOC(=O)c1cn(C2CN(C(=O)[C@@H]3CC=CCC3)C2)nn1)c1ccc(-c2c3nc(c(-c4c(F)cc(S(=O)(=O)[O-])cc4F)c4ccc([nH]4)c(-c4c(F)cc(S(=O)(=O)[O-])cc4F)c4nc(c(-c5c(F)cc(S(=O)(=O)[O-])cc5F)c5ccc2[nH]5)C=C4)C=C3)cc1
REMARK SMILES IDX 4 1 3 2 2 3 1 4 26 5 27 6 91 7 28 8 90 9 29 10 30 11 31 12
REMARK SMILES IDX 84 13 32 14 89 15 83 16 85 17 33 18 88 19 82 20 81 21 34 23
REMARK SMILES IDX 68 24 47 25 67 26 48 27 51 28 66 29 86 30 49 31 50 32 65 34
REMARK SMILES IDX 87 35 52 36 35 37 36 38 45 39 37 40 38 41 44 42 46 43 39 44
REMARK SMILES IDX 40 45 41 46 42 47 43 48 69 49 70 50 79 51 71 52 72 53 78 54
REMARK SMILES IDX 80 55 73 56 74 57 75 58 76 59 77 60 53 61 54 62 63 63 55 64
REMARK SMILES IDX 56 65 62 66 64 67 57 68 58 69 59 70 60 71 61 72 5 73 6 74
REMARK SMILES IDX 7 75 8 76 9 77 10 78 25 79 11 80 24 81 12 82 13 83 23 84
REMARK SMILES IDX 14 85 15 86 16 87 17 88 18 89 22 90 19 91 21 92 20 93
REMARK H PARENT 85 22 51 33
REMARK Flexibility Score: inf
ROOT
ATOM      1  C   UNL A   1      33.529  32.698  28.015  1.00  0.00     0.275 C 
ENDROOT
BRANCH   1   2
ATOM      2  O   UNL A   1      34.835  32.176  27.696  1.00  0.00    -0.458 OA
BRANCH   2   3
ATOM      3  C   UNL A   1      35.089  30.849  27.716  1.00  0.00     0.338 C 
ATOM      4  O   UNL A   1      34.430  30.048  27.070  1.00  0.00    -0.246 OA
BRANCH   3   5
ATOM      5  C   UNL A   1      36.382  30.479  28.348  1.00  0.00     0.060 A 
ATOM      6  C   UNL A   1      37.159  31.369  29.101  1.00  0.00     0.016 A 
ATOM      7  C   UNL A   1      36.841  29.175  28.124  1.00  0.00     0.016 A 
ATOM      8  C   UNL A   1      38.437  31.021  29.499  1.00  0.00     0.010 A 
ATOM      9  C   UNL A   1      38.109  28.814  28.541  1.00  0.00     0.010 A 
ATOM     10  C   UNL A   1      38.926  29.768  29.153  1.00  0.00    -0.014 A 
BRANCH  10  11
ATOM     11  C   UNL A   1      40.323  29.470  29.435  1.00  0.00     0.031 A 
ATOM     12  C   UNL A   1      40.674  29.309  30.878  1.00  0.00     0.074 A 
ATOM     13  C   UNL A   1      41.139  29.187  28.398  1.00  0.00     0.049 A 
ATOM     14  N   UNL A   1      41.636  29.854  31.554  1.00  0.00    -0.248 NA
ATOM     15  C   UNL A   1      39.756  28.505  31.708  1.00  0.00     0.031 C 
ATOM     16  C   UNL A   1      40.780  29.089  26.976  1.00  0.00     0.029 A 
ATOM     17  N   UNL A   1      42.432  28.775  28.402  1.00  0.00    -0.354 N 
ATOM     18  C   UNL A   1      41.579  29.286  32.829  1.00  0.00     0.074 A 
ATOM     19  C   UNL A   1      40.321  28.593  32.911  1.00  0.00     0.031 C 
ATOM     20  C   UNL A   1      41.733  28.397  26.318  1.00  0.00     0.029 A 
ATOM     21  C   UNL A   1      42.823  28.128  27.234  1.00  0.00     0.049 A 
ATOM     22  H   UNL A   1      43.040  28.921  29.164  1.00  0.00     0.167 HD
ATOM     23  C   UNL A   1      42.665  29.230  33.652  1.00  0.00     0.037 A 
ATOM     24  C   UNL A   1      43.906  27.324  27.094  1.00  0.00     0.037 A 
ATOM     25  C   UNL A   1      43.653  30.210  33.294  1.00  0.00     0.049 A 
ATOM     26  C   UNL A   1      44.829  27.652  28.216  1.00  0.00     0.074 A 
ATOM     27  C   UNL A   1      43.671  31.590  33.242  1.00  0.00     0.029 A 
ATOM     28  N   UNL A   1      44.749  29.801  32.574  1.00  0.00    -0.354 N 
ATOM     29  N   UNL A   1      45.402  28.819  28.364  1.00  0.00    -0.248 NA
ATOM     30  C   UNL A   1      44.724  26.854  29.430  1.00  0.00     0.031 C 
ATOM     31  C   UNL A   1      44.453  31.904  32.092  1.00  0.00     0.029 A 
ATOM     32  C   UNL A   1      44.912  30.701  31.552  1.00  0.00     0.049 A 
ATOM     33  H   UNL A   1      45.310  29.013  32.757  1.00  0.00     0.167 HD
ATOM     34  C   UNL A   1      45.368  29.069  29.730  1.00  0.00     0.074 A 
ATOM     35  C   UNL A   1      44.994  27.794  30.340  1.00  0.00     0.031 C 
ATOM     36  C   UNL A   1      45.363  30.344  30.225  1.00  0.00     0.037 A 
BRANCH  23  37
ATOM     37  C   UNL A   1      42.977  28.055  34.554  1.00  0.00     0.058 A 
ATOM     38  C   UNL A   1      43.104  28.253  35.944  1.00  0.00     0.135 A 
ATOM     39  C   UNL A   1      43.446  26.809  34.074  1.00  0.00     0.135 A 
ATOM     40  F   UNL A   1      42.689  29.397  36.512  1.00  0.00    -0.206 F 
ATOM     41  C   UNL A   1      43.732  27.325  36.779  1.00  0.00     0.059 A 
ATOM     42  C   UNL A   1      44.028  25.850  34.895  1.00  0.00     0.059 A 
ATOM     43  F   UNL A   1      43.454  26.502  32.772  1.00  0.00    -0.206 F 
ATOM     44  C   UNL A   1      44.212  26.136  36.236  1.00  0.00     0.060 A 
BRANCH  44  45
ATOM     45  S   UNL A   1      45.154  25.002  37.272  1.00  0.00     0.124 S 
ATOM     46  O   UNL A   1      44.714  25.396  38.605  1.00  0.00    -0.237 OA
ATOM     47  O   UNL A   1      44.687  23.703  36.802  1.00  0.00    -0.237 OA
ATOM     48  O   UNL A   1      46.540  25.320  36.945  1.00  0.00    -0.744 OA
ENDBRANCH  44  45
ENDBRANCH  23  37
BRANCH  24  49
ATOM     49  C   UNL A   1      43.935  26.034  26.350  1.00  0.00     0.058 A 
ATOM     50  C   UNL A   1      44.911  25.760  25.379  1.00  0.00     0.135 A 
ATOM     51  C   UNL A   1      43.138  24.938  26.750  1.00  0.00     0.135 A 
ATOM     52  F   UNL A   1      45.737  26.732  24.965  1.00  0.00    -0.206 F 
ATOM     53  C   UNL A   1      45.099  24.474  24.850  1.00  0.00     0.059 A 
ATOM     54  C   UNL A   1      43.297  23.655  26.229  1.00  0.00     0.059 A 
ATOM     55  F   UNL A   1      42.230  25.060  27.730  1.00  0.00    -0.206 F 
ATOM     56  C   UNL A   1      44.293  23.424  25.291  1.00  0.00     0.060 A 
BRANCH  56  57
ATOM     57  S   UNL A   1      44.618  21.740  24.720  1.00  0.00     0.124 S 
ATOM     58  O   UNL A   1      43.492  21.006  25.285  1.00  0.00    -0.237 OA
ATOM     59  O   UNL A   1      44.611  21.900  23.269  1.00  0.00    -0.237 OA
ATOM     60  O   UNL A   1      45.921  21.428  25.302  1.00  0.00    -0.744 OA
ENDBRANCH  56  57
ENDBRANCH  24  49
BRANCH  36  61
ATOM     61  C   UNL A   1      45.593  31.488  29.266  1.00  0.00     0.058 A 
ATOM     62  C   UNL A   1      46.869  31.924  28.865  1.00  0.00     0.135 A 
ATOM     63  C   UNL A   1      44.496  32.025  28.579  1.00  0.00     0.135 A 
ATOM     64  F   UNL A   1      47.975  31.379  29.387  1.00  0.00    -0.206 F 
ATOM     65  C   UNL A   1      47.048  32.872  27.855  1.00  0.00     0.059 A 
ATOM     66  C   UNL A   1      44.650  32.949  27.546  1.00  0.00     0.059 A 
ATOM     67  F   UNL A   1      43.254  31.598  28.860  1.00  0.00    -0.206 F 
ATOM     68  C   UNL A   1      45.930  33.375  27.195  1.00  0.00     0.060 A 
BRANCH  68  69
ATOM     69  S   UNL A   1      46.169  34.518  25.817  1.00  0.00     0.124 S 
ATOM     70  O   UNL A   1      45.191  34.039  24.846  1.00  0.00    -0.237 OA
ATOM     71  O   UNL A   1      45.878  35.813  26.424  1.00  0.00    -0.237 OA
ATOM     72  O   UNL A   1      47.568  34.316  25.445  1.00  0.00    -0.744 OA
ENDBRANCH  68  69
ENDBRANCH  36  61
ENDBRANCH  10  11
ENDBRANCH   3   5
ENDBRANCH   2   3
ENDBRANCH   1   2
BRANCH   1  73
ATOM     73  C   UNL A   1      33.410  34.210  28.208  1.00  0.00     0.275 C 
BRANCH  73  74
ATOM     74  O   UNL A   1      32.707  34.542  29.418  1.00  0.00    -0.457 OA
BRANCH  74  75
ATOM     75  C   UNL A   1      32.975  35.767  29.957  1.00  0.00     0.360 C 
ATOM     76  O   UNL A   1      32.626  36.844  29.462  1.00  0.00    -0.244 OA
BRANCH  75  77
ATOM     77  C   UNL A   1      33.746  35.673  31.173  1.00  0.00     0.190 A 
ATOM     78  C   UNL A   1      34.661  34.694  31.510  1.00  0.00     0.147 A 
ATOM     79  N   UNL A   1      33.710  36.611  32.170  1.00  0.00    -0.123 NA
ATOM     80  N   UNL A   1      35.165  35.116  32.708  1.00  0.00    -0.245 N 
ATOM     81  N   UNL A   1      34.549  36.235  33.125  1.00  0.00    -0.066 NA
BRANCH  80  82
ATOM     82  C   UNL A   1      36.313  34.617  33.403  1.00  0.00     0.148 C 
ATOM     83  C   UNL A   1      36.551  33.099  33.371  1.00  0.00     0.148 C 
ATOM     84  C   UNL A   1      37.574  34.747  32.515  1.00  0.00     0.148 C 
ATOM     85  N   UNL A   1      37.913  33.418  32.965  1.00  0.00    -0.338 N 
ATOM     86  C   UNL A   1      39.020  32.631  33.003  1.00  0.00     0.226 C 
ATOM     87  O   UNL A   1      38.945  31.461  33.388  1.00  0.00    -0.275 OA
BRANCH  86  88
ATOM     88  C   UNL A   1      40.362  33.191  32.549  1.00  0.00     0.083 C 
ATOM     89  C   UNL A   1      40.864  34.345  33.428  1.00  0.00     0.040 C 
ATOM     90  C   UNL A   1      40.390  33.553  31.062  1.00  0.00     0.018 C 
ATOM     91  C   UNL A   1      42.071  35.031  32.848  1.00  0.00    -0.030 C 
ATOM     92  C   UNL A   1      41.811  33.918  30.622  1.00  0.00     0.028 C 
ATOM     93  C   UNL A   1      42.507  34.826  31.596  1.00  0.00    -0.031 C 
ENDBRANCH  86  88
ENDBRANCH  80  82
ENDBRANCH  75  77
ENDBRANCH  74  75
ENDBRANCH  73  74
ENDBRANCH   1  73
TORSDOF 16
ENDMDL
MODEL 2
REMARK VINA RESULT:     -11.0      3.329     11.792
REMARK SMILES O=C(OCCOC(=O)c1cn(C2CN(C(=O)[C@@H]3CC=CCC3)C2)nn1)c1ccc(-c2c3nc(c(-c4c(F)cc(S(=O)(=O)[O-])cc4F)c4ccc([nH]4)c(-c4c(F)cc(S(=O)(=O)[O-])cc4F)c4nc(c(-c5c(F)cc(S(=O)(=O)[O-])cc5F)c5ccc2[nH]5)C=C4)C=C3)cc1
REMARK SMILES IDX 4 1 3 2 2 3 1 4 26 5 27 6 91 7 28 8 90 9 29 10 30 11 31 12
REMARK SMILES IDX 84 13 32 14 89 15 83 16 85 17 33 18 88 19 82 20 81 21 34 23
REMARK SMILES IDX 68 24 47 25 67 26 48 27 51 28 66 29 86 30 49 31 50 32 65 34
REMARK SMILES IDX 87 35 52 36 35 37 36 38 45 39 37 40 38 41 44 42 46 43 39 44
REMARK SMILES IDX 40 45 41 46 42 47 43 48 69 49 70 50 79 51 71 52 72 53 78 54
REMARK SMILES IDX 80 55 73 56 74 57 75 58 76 59 77 60 53 61 54 62 63 63 55 64
REMARK SMILES IDX 56 65 62 66 64 67 57 68 58 69 59 70 60 71 61 72 5 73 6 74
REMARK SMILES IDX 7 75 8 76 9 77 10 78 25 79 11 80 24 81 12 82 13 83 23 84
REMARK SMILES IDX 14 85 15 86 16 87 17 88 18 89 22 90 19 91 21 92 20 93
REMARK H PARENT 85 22 51 33
REMARK Flexibility Score: inf
ROOT
ATOM      1  C   UNL A   1      40.146  20.305  26.097  1.00  0.00     0.275 C 
ENDROOT
BRANCH   1   2
ATOM      2  O   UNL A   1      40.592  21.673  26.005  1.00  0.00    -0.458 OA
BRANCH   2   3
ATOM      3  C   UNL A   1      39.725  22.706  26.092  1.00  0.00     0.338 C 
ATOM      4  O   UNL A   1      38.528  22.572  25.888  1.00  0.00    -0.246 OA
BRANCH   3   5
ATOM      5  C   UNL A   1      40.286  23.930  26.719  1.00  0.00     0.060 A 
ATOM      6  C   UNL A   1      41.337  23.914  27.646  1.00  0.00     0.016 A 
ATOM      7  C   UNL A   1      39.683  25.146  26.375  1.00  0.00     0.016 A 
ATOM      8  C   UNL A   1      41.684  25.063  28.333  1.00  0.00     0.010 A 
ATOM      9  C   UNL A   1      40.043  26.303  27.042  1.00  0.00     0.010 A 
ATOM     10  C   UNL A   1      40.984  26.233  28.073  1.00  0.00    -0.014 A 
BRANCH  10  11
ATOM     11  C   UNL A   1      41.245  27.395  28.911  1.00  0.00     0.031 A 
ATOM     12  C   UNL A   1      42.519  28.124  28.631  1.00  0.00     0.074 A 
ATOM     13  C   UNL A   1      40.265  27.826  29.732  1.00  0.00     0.049 A 
ATOM     14  N   UNL A   1      43.446  28.503  29.455  1.00  0.00    -0.248 NA
ATOM     15  C   UNL A   1      42.854  28.373  27.215  1.00  0.00     0.031 C 
ATOM     16  C   UNL A   1      38.902  27.289  29.860  1.00  0.00     0.029 A 
ATOM     17  N   UNL A   1      40.218  28.933  30.517  1.00  0.00    -0.354 N 
ATOM     18  C   UNL A   1      44.361  29.233  28.692  1.00  0.00     0.074 A 
ATOM     19  C   UNL A   1      44.033  28.986  27.314  1.00  0.00     0.031 C 
ATOM     20  C   UNL A   1      38.108  28.210  30.445  1.00  0.00     0.029 A 
ATOM     21  C   UNL A   1      38.929  29.333  30.853  1.00  0.00     0.049 A 
ATOM     22  H   UNL A   1      41.024  29.409  30.823  1.00  0.00     0.167 HD
ATOM     23  C   UNL A   1      45.184  30.170  29.242  1.00  0.00     0.037 A 
ATOM     24  C   UNL A   1      38.570  30.557  31.312  1.00  0.00     0.037 A 
ATOM     25  C   UNL A   1      45.356  29.964  30.654  1.00  0.00     0.049 A 
ATOM     26  C   UNL A   1      39.807  31.193  31.843  1.00  0.00     0.074 A 
ATOM     27  C   UNL A   1      45.880  28.945  31.425  1.00  0.00     0.029 A 
ATOM     28  N   UNL A   1      44.636  30.748  31.522  1.00  0.00    -0.354 N 
ATOM     29  N   UNL A   1      40.476  30.730  32.867  1.00  0.00    -0.248 NA
ATOM     30  C   UNL A   1      40.567  32.047  30.941  1.00  0.00     0.031 C 
ATOM     31  C   UNL A   1      45.040  28.885  32.575  1.00  0.00     0.029 A 
ATOM     32  C   UNL A   1      44.096  29.908  32.463  1.00  0.00     0.049 A 
ATOM     33  H   UNL A   1      44.528  31.725  31.478  1.00  0.00     0.167 HD
ATOM     34  C   UNL A   1      41.814  30.895  32.533  1.00  0.00     0.074 A 
ATOM     35  C   UNL A   1      41.805  31.769  31.360  1.00  0.00     0.031 C 
ATOM     36  C   UNL A   1      42.788  30.089  33.053  1.00  0.00     0.037 A 
BRANCH  23  37
ATOM     37  C   UNL A   1      45.545  31.475  28.563  1.00  0.00     0.058 A 
ATOM     38  C   UNL A   1      44.526  32.370  28.178  1.00  0.00     0.135 A 
ATOM     39  C   UNL A   1      46.822  31.738  28.015  1.00  0.00     0.135 A 
ATOM     40  F   UNL A   1      43.274  32.220  28.639  1.00  0.00    -0.206 F 
ATOM     41  C   UNL A   1      44.739  33.391  27.249  1.00  0.00     0.059 A 
ATOM     42  C   UNL A   1      47.067  32.780  27.129  1.00  0.00     0.059 A 
ATOM     43  F   UNL A   1      47.874  30.939  28.235  1.00  0.00    -0.206 F 
ATOM     44  C   UNL A   1      46.011  33.571  26.712  1.00  0.00     0.060 A 
BRANCH  44  45
ATOM     45  S   UNL A   1      46.261  34.785  25.405  1.00  0.00     0.124 S 
ATOM     46  O   UNL A   1      45.973  36.029  26.107  1.00  0.00    -0.237 OA
ATOM     47  O   UNL A   1      47.657  34.560  25.047  1.00  0.00    -0.237 OA
ATOM     48  O   UNL A   1      45.288  34.392  24.390  1.00  0.00    -0.744 OA
ENDBRANCH  44  45
ENDBRANCH  23  37
BRANCH  24  49
ATOM     49  C   UNL A   1      37.365  31.323  30.883  1.00  0.00     0.058 A 
ATOM     50  C   UNL A   1      36.408  31.775  31.805  1.00  0.00     0.135 A 
ATOM     51  C   UNL A   1      37.250  31.837  29.572  1.00  0.00     0.135 A 
ATOM     52  F   UNL A   1      36.461  31.367  33.082  1.00  0.00    -0.206 F 
ATOM     53  C   UNL A   1      35.408  32.694  31.454  1.00  0.00     0.059 A 
ATOM     54  C   UNL A   1      36.258  32.740  29.196  1.00  0.00     0.059 A 
ATOM     55  F   UNL A   1      38.157  31.542  28.628  1.00  0.00    -0.206 F 
ATOM     56  C   UNL A   1      35.349  33.181  30.148  1.00  0.00     0.060 A 
BRANCH  56  57
ATOM     57  S   UNL A   1      34.153  34.468  29.722  1.00  0.00     0.124 S 
ATOM     58  O   UNL A   1      33.868  35.059  31.024  1.00  0.00    -0.237 OA
ATOM     59  O   UNL A   1      34.914  35.302  28.797  1.00  0.00    -0.237 OA
ATOM     60  O   UNL A   1      33.050  33.724  29.121  1.00  0.00    -0.744 OA
ENDBRANCH  56  57
ENDBRANCH  24  49
BRANCH  36  61
ATOM     61  C   UNL A   1      42.413  29.128  34.156  1.00  0.00     0.058 A 
ATOM     62  C   UNL A   1      41.748  27.908  33.933  1.00  0.00     0.135 A 
ATOM     63  C   UNL A   1      42.915  29.348  35.445  1.00  0.00     0.135 A 
ATOM     64  F   UNL A   1      41.338  27.565  32.705  1.00  0.00    -0.206 F 
ATOM     65  C   UNL A   1      41.561  26.966  34.946  1.00  0.00     0.059 A 
ATOM     66  C   UNL A   1      42.769  28.410  36.466  1.00  0.00     0.059 A 
ATOM     67  F   UNL A   1      43.624  30.458  35.708  1.00  0.00    -0.206 F 
ATOM     68  C   UNL A   1      42.083  27.223  36.212  1.00  0.00     0.060 A 
BRANCH  68  69
ATOM     69  S   UNL A   1      41.935  25.958  37.492  1.00  0.00     0.124 S 
ATOM     70  O   UNL A   1      42.884  26.425  38.498  1.00  0.00    -0.237 OA
ATOM     71  O   UNL A   1      40.526  26.043  37.863  1.00  0.00    -0.237 OA
ATOM     72  O   UNL A   1      42.313  24.727  36.800  1.00  0.00    -0.744 OA
ENDBRANCH  68  69
ENDBRANCH  36  61
ENDBRANCH  10  11
ENDBRANCH   3   5
ENDBRANCH   2   3
ENDBRANCH   1   2
BRANCH   1  73
ATOM     73  C   UNL A   1      41.106  19.300  26.734  1.00  0.00     0.275 C 
BRANCH  73  74
ATOM     74  O   UNL A   1      41.822  18.540  25.745  1.00  0.00    -0.457 OA
BRANCH  74  75
ATOM     75  C   UNL A   1      43.116  18.223  26.044  1.00  0.00     0.360 C 
ATOM     76  O   UNL A   1      43.459  17.282  26.768  1.00  0.00    -0.244 OA
BRANCH  75  77
ATOM     77  C   UNL A   1      44.056  19.135  25.440  1.00  0.00     0.190 A 
ATOM     78  C   UNL A   1      43.957  20.510  25.362  1.00  0.00     0.147 A 
ATOM     79  N   UNL A   1      45.247  18.742  24.889  1.00  0.00    -0.123 NA
ATOM     80  N   UNL A   1      45.135  20.891  24.782  1.00  0.00    -0.245 N 
ATOM     81  N   UNL A   1      45.878  19.823  24.449  1.00  0.00    -0.066 NA
BRANCH  80  82
ATOM     82  C   UNL A   1      45.674  22.213  24.675  1.00  0.00     0.148 C 
ATOM     83  C   UNL A   1      44.698  23.347  24.324  1.00  0.00     0.148 C 
ATOM     84  C   UNL A   1      45.786  22.860  26.078  1.00  0.00     0.148 C 
ATOM     85  N   UNL A   1      45.262  24.056  25.464  1.00  0.00    -0.338 N 
ATOM     86  C   UNL A   1      45.204  25.383  25.756  1.00  0.00     0.226 C 
ATOM     87  O   UNL A   1      44.579  26.158  25.028  1.00  0.00    -0.275 OA
BRANCH  86  88
ATOM     88  C   UNL A   1      45.901  25.913  27.002  1.00  0.00     0.083 C 
ATOM     89  C   UNL A   1      47.432  25.875  26.902  1.00  0.00     0.040 C 
ATOM     90  C   UNL A   1      45.398  25.265  28.294  1.00  0.00     0.018 C 
ATOM     91  C   UNL A   1      48.106  26.192  28.208  1.00  0.00    -0.030 C 
ATOM     92  C   UNL A   1      45.984  25.975  29.518  1.00  0.00     0.028 C 
ATOM     93  C   UNL A   1      47.454  26.255  29.380  1.00  0.00    -0.031 C 
ENDBRANCH  86  88
ENDBRANCH  80  82
ENDBRANCH  75  77
ENDBRANCH  74  75
ENDBRANCH  73  74
ENDBRANCH   1  73
TORSDOF 16
ENDMDL
MODEL 3
REMARK VINA RESULT:     -10.8      3.354     11.579
REMARK SMILES O=C(OCCOC(=O)c1cn(C2CN(C(=O)[C@@H]3CC=CCC3)C2)nn1)c1ccc(-c2c3nc(c(-c4c(F)cc(S(=O)(=O)[O-])cc4F)c4ccc([nH]4)c(-c4c(F)cc(S(=O)(=O)[O-])cc4F)c4nc(c(-c5c(F)cc(S(=O)(=O)[O-])cc5F)c5ccc2[nH]5)C=C4)C=C3)cc1
REMARK SMILES IDX 4 1 3 2 2 3 1 4 26 5 27 6 91 7 28 8 90 9 29 10 30 11 31 12
REMARK SMILES IDX 84 13 32 14 89 15 83 16 85 17 33 18 88 19 82 20 81 21 34 23
REMARK SMILES IDX 68 24 47 25 67 26 48 27 51 28 66 29 86 30 49 31 50 32 65 34
REMARK SMILES IDX 87 35 52 36 35 37 36 38 45 39 37 40 38 41 44 42 46 43 39 44
REMARK SMILES IDX 40 45 41 46 42 47 43 48 69 49 70 50 79 51 71 52 72 53 78 54
REMARK SMILES IDX 80 55 73 56 74 57 75 58 76 59 77 60 53 61 54 62 63 63 55 64
REMARK SMILES IDX 56 65 62 66 64 67 57 68 58 69 59 70 60 71 61 72 5 73 6 74
REMARK SMILES IDX 7 75 8 76 9 77 10 78 25 79 11 80 24 81 12 82 13 83 23 84
REMARK SMILES IDX 14 85 15 86 16 87 17 88 18 89 22 90 19 91 21 92 20 93
REMARK H PARENT 85 22 51 33
REMARK Flexibility Score: inf
ROOT
ATOM      1  C   UNL A   1      40.515  19.528  26.103  1.00  0.00     0.275 C 
ENDROOT
BRANCH   1   2
ATOM      2  O   UNL A   1      40.251  20.693  26.911  1.00  0.00    -0.458 OA
BRANCH   2   3
ATOM      3  C   UNL A   1      39.713  21.813  26.380  1.00  0.00     0.338 C 
ATOM      4  O   UNL A   1      38.657  21.803  25.764  1.00  0.00    -0.246 OA
BRANCH   3   5
ATOM      5  C   UNL A   1      40.346  23.077  26.837  1.00  0.00     0.060 A 
ATOM      6  C   UNL A   1      41.481  23.123  27.657  1.00  0.00     0.016 A 
ATOM      7  C   UNL A   1      39.725  24.270  26.444  1.00  0.00     0.016 A 
ATOM      8  C   UNL A   1      41.905  24.321  28.202  1.00  0.00     0.010 A 
ATOM      9  C   UNL A   1      40.161  25.474  26.967  1.00  0.00     0.010 A 
ATOM     10  C   UNL A   1      41.196  25.478  27.905  1.00  0.00    -0.014 A 
BRANCH  10  11
ATOM     11  C   UNL A   1      41.550  26.704  28.606  1.00  0.00     0.031 A 
ATOM     12  C   UNL A   1      42.787  27.391  28.127  1.00  0.00     0.074 A 
ATOM     13  C   UNL A   1      40.667  27.215  29.488  1.00  0.00     0.049 A 
ATOM     14  N   UNL A   1      43.799  27.829  28.808  1.00  0.00    -0.248 NA
ATOM     15  C   UNL A   1      42.965  27.514  26.667  1.00  0.00     0.031 C 
ATOM     16  C   UNL A   1      39.325  26.706  29.811  1.00  0.00     0.029 A 
ATOM     17  N   UNL A   1      40.708  28.385  30.176  1.00  0.00    -0.354 N 
ATOM     18  C   UNL A   1      44.627  28.481  27.890  1.00  0.00     0.074 A 
ATOM     19  C   UNL A   1      44.149  28.120  26.582  1.00  0.00     0.031 C 
ATOM     20  C   UNL A   1      38.602  27.683  30.397  1.00  0.00     0.029 A 
ATOM     21  C   UNL A   1      39.464  28.827  30.615  1.00  0.00     0.049 A 
ATOM     22  H   UNL A   1      41.544  28.876  30.349  1.00  0.00     0.167 HD
ATOM     23  C   UNL A   1      45.506  29.453  28.263  1.00  0.00     0.037 A 
ATOM     24  C   UNL A   1      39.161  30.090  31.002  1.00  0.00     0.037 A 
ATOM     25  C   UNL A   1      45.832  29.366  29.660  1.00  0.00     0.049 A 
ATOM     26  C   UNL A   1      40.450  30.755  31.339  1.00  0.00     0.074 A 
ATOM     27  C   UNL A   1      46.436  28.411  30.455  1.00  0.00     0.029 A 
ATOM     28  N   UNL A   1      45.213  30.230  30.531  1.00  0.00    -0.354 N 
ATOM     29  N   UNL A   1      41.227  30.374  32.320  1.00  0.00    -0.248 NA
ATOM     30  C   UNL A   1      41.108  31.520  30.288  1.00  0.00     0.031 C 
ATOM     31  C   UNL A   1      45.727  28.459  31.691  1.00  0.00     0.029 A 
ATOM     32  C   UNL A   1      44.779  29.479  31.594  1.00  0.00     0.049 A 
ATOM     33  H   UNL A   1      45.103  31.201  30.414  1.00  0.00     0.167 HD
ATOM     34  C   UNL A   1      42.520  30.495  31.828  1.00  0.00     0.074 A 
ATOM     35  C   UNL A   1      42.384  31.265  30.592  1.00  0.00     0.031 C 
ATOM     36  C   UNL A   1      43.544  29.726  32.306  1.00  0.00     0.037 A 
BRANCH  23  37
ATOM     37  C   UNL A   1      45.793  30.690  27.439  1.00  0.00     0.058 A 
ATOM     38  C   UNL A   1      47.126  31.044  27.148  1.00  0.00     0.135 A 
ATOM     39  C   UNL A   1      44.830  31.693  27.181  1.00  0.00     0.135 A 
ATOM     40  F   UNL A   1      48.126  30.170  27.350  1.00  0.00    -0.206 F 
ATOM     41  C   UNL A   1      47.485  32.326  26.721  1.00  0.00     0.059 A 
ATOM     42  C   UNL A   1      45.158  32.957  26.708  1.00  0.00     0.059 A 
ATOM     43  F   UNL A   1      43.532  31.529  27.468  1.00  0.00    -0.206 F 
ATOM     44  C   UNL A   1      46.491  33.282  26.528  1.00  0.00     0.060 A 
BRANCH  44  45
ATOM     45  S   UNL A   1      46.954  34.976  26.124  1.00  0.00     0.124 S 
ATOM     46  O   UNL A   1      45.667  35.544  25.741  1.00  0.00    -0.237 OA
ATOM     47  O   UNL A   1      47.512  35.447  27.387  1.00  0.00    -0.237 OA
ATOM     48  O   UNL A   1      47.919  34.811  25.041  1.00  0.00    -0.744 OA
ENDBRANCH  44  45
ENDBRANCH  23  37
BRANCH  24  49
ATOM     49  C   UNL A   1      37.918  30.830  30.644  1.00  0.00     0.058 A 
ATOM     50  C   UNL A   1      37.264  31.669  31.560  1.00  0.00     0.135 A 
ATOM     51  C   UNL A   1      37.474  30.914  29.305  1.00  0.00     0.135 A 
ATOM     52  F   UNL A   1      37.643  31.682  32.847  1.00  0.00    -0.206 F 
ATOM     53  C   UNL A   1      36.246  32.551  31.170  1.00  0.00     0.059 A 
ATOM     54  C   UNL A   1      36.455  31.772  28.896  1.00  0.00     0.059 A 
ATOM     55  F   UNL A   1      38.079  30.222  28.327  1.00  0.00    -0.206 F 
ATOM     56  C   UNL A   1      35.856  32.604  29.831  1.00  0.00     0.060 A 
BRANCH  56  57
ATOM     57  S   UNL A   1      34.643  33.834  29.296  1.00  0.00     0.124 S 
ATOM     58  O   UNL A   1      33.984  33.147  28.191  1.00  0.00    -0.237 OA
ATOM     59  O   UNL A   1      33.841  34.021  30.500  1.00  0.00    -0.237 OA
ATOM     60  O   UNL A   1      35.465  34.980  28.914  1.00  0.00    -0.744 OA
ENDBRANCH  56  57
ENDBRANCH  24  49
BRANCH  36  61
ATOM     61  C   UNL A   1      43.290  28.867  33.522  1.00  0.00     0.058 A 
ATOM     62  C   UNL A   1      43.250  29.369  34.836  1.00  0.00     0.135 A 
ATOM     63  C   UNL A   1      42.876  27.541  33.339  1.00  0.00     0.135 A 
ATOM     64  F   UNL A   1      43.518  30.656  35.085  1.00  0.00    -0.206 F 
ATOM     65  C   UNL A   1      42.852  28.585  35.921  1.00  0.00     0.059 A 
ATOM     66  C   UNL A   1      42.445  26.747  34.401  1.00  0.00     0.059 A 
ATOM     67  F   UNL A   1      42.818  27.020  32.102  1.00  0.00    -0.206 F 
ATOM     68  C   UNL A   1      42.443  27.274  35.692  1.00  0.00     0.060 A 
BRANCH  68  69
ATOM     69  S   UNL A   1      41.826  26.296  37.080  1.00  0.00     0.124 S 
ATOM     70  O   UNL A   1      40.579  26.978  37.407  1.00  0.00    -0.237 OA
ATOM     71  O   UNL A   1      41.685  24.965  36.494  1.00  0.00    -0.237 OA
ATOM     72  O   UNL A   1      42.886  26.416  38.079  1.00  0.00    -0.744 OA
ENDBRANCH  68  69
ENDBRANCH  36  61
ENDBRANCH  10  11
ENDBRANCH   3   5
ENDBRANCH   2   3
ENDBRANCH   1   2
BRANCH   1  73
ATOM     73  C   UNL A   1      41.938  18.970  26.129  1.00  0.00     0.275 C 
BRANCH  73  74
ATOM     74  O   UNL A   1      42.910  19.992  26.408  1.00  0.00    -0.457 OA
BRANCH  74  75
ATOM     75  C   UNL A   1      43.686  20.393  25.359  1.00  0.00     0.360 C 
ATOM     76  O   UNL A   1      44.184  19.631  24.523  1.00  0.00    -0.244 OA
BRANCH  75  77
ATOM     77  C   UNL A   1      43.891  21.820  25.343  1.00  0.00     0.190 A 
ATOM     78  C   UNL A   1      44.894  22.529  25.976  1.00  0.00     0.147 A 
ATOM     79  N   UNL A   1      43.116  22.692  24.625  1.00  0.00    -0.123 NA
ATOM     80  N   UNL A   1      44.688  23.819  25.574  1.00  0.00    -0.245 N 
ATOM     81  N   UNL A   1      43.588  23.917  24.810  1.00  0.00    -0.066 NA
BRANCH  80  82
ATOM     82  C   UNL A   1      45.567  24.939  25.730  1.00  0.00     0.148 C 
ATOM     83  C   UNL A   1      46.322  25.061  27.063  1.00  0.00     0.148 C 
ATOM     84  C   UNL A   1      46.939  24.637  25.079  1.00  0.00     0.148 C 
ATOM     85  N   UNL A   1      47.522  25.233  26.256  1.00  0.00    -0.338 N 
ATOM     86  C   UNL A   1      48.727  25.748  26.620  1.00  0.00     0.226 C 
ATOM     87  O   UNL A   1      48.929  26.111  27.782  1.00  0.00    -0.275 OA
BRANCH  86  88
ATOM     88  C   UNL A   1      49.843  25.860  25.590  1.00  0.00     0.083 C 
ATOM     89  C   UNL A   1      51.232  25.554  26.166  1.00  0.00     0.040 C 
ATOM     90  C   UNL A   1      49.823  27.186  24.825  1.00  0.00     0.018 C 
ATOM     91  C   UNL A   1      52.342  25.878  25.205  1.00  0.00    -0.030 C 
ATOM     92  C   UNL A   1      50.834  27.160  23.674  1.00  0.00     0.028 C 
ATOM     93  C   UNL A   1      52.161  26.584  24.078  1.00  0.00    -0.031 C 
ENDBRANCH  86  88
ENDBRANCH  80  82
ENDBRANCH  75  77
ENDBRANCH  74  75
ENDBRANCH  73  74
ENDBRANCH   1  73
TORSDOF 16
ENDMDL
