MODEL 1
REMARK VINA RESULT:     -11.5      0.000      0.000
REMARK SMILES C/C=C/c1cncc(-c2ccc([C@@H](C)C(=O)OCCOC(=O)c3ccc(-c4c5nc(c(-c6c(F)cc(S(=O)(=O)[O-])cc6F)c6ccc([nH]6)c(-c6c(F)cc(S(=O)(=O)[O-])cc6F)c6nc(c(-c7c(F)cc(S(=O)(=O)[O-])cc7F)c7ccc4[nH]7)C=C6)C=C5)cc3)cc2)c1
REMARK SMILES IDX 18 1 17 2 15 3 16 4 13 5 14 6 12 7 9 8 10 9 90 10 11 11
REMARK SMILES IDX 89 12 8 13 4 14 5 15 91 16 6 17 7 18 3 19 1 20 2 21 19 22
REMARK SMILES IDX 20 23 21 24 22 25 23 26 24 27 88 28 25 29 87 30 26 31 27 32
REMARK SMILES IDX 28 33 81 34 29 35 86 36 80 37 82 38 30 39 85 40 79 41 78 42
REMARK SMILES IDX 31 44 65 45 44 46 64 47 45 48 48 49 63 50 83 51 46 52 47 53
REMARK SMILES IDX 62 55 84 56 49 57 32 58 33 59 42 60 34 61 35 62 41 63 43 64
REMARK SMILES IDX 36 65 37 66 38 67 39 68 40 69 66 70 67 71 76 72 68 73 69 74
REMARK SMILES IDX 75 75 77 76 70 77 71 78 72 79 73 80 74 81 50 82 51 83 60 84
REMARK SMILES IDX 52 85 53 86 59 87 61 88 54 89 55 90 56 91 57 92 58 93
REMARK H PARENT 82 43 48 54
REMARK Flexibility Score: inf
ROOT
ATOM      1  C   UNL A   1      33.610  31.267  27.283  1.00  0.00     0.274 C 
ENDROOT
BRANCH   1   2
ATOM      2  O   UNL A   1      33.453  29.839  27.172  1.00  0.00    -0.462 OA
BRANCH   2   3
ATOM      3  C   UNL A   1      32.705  29.388  26.133  1.00  0.00     0.313 C 
ATOM      4  O   UNL A   1      32.619  29.957  25.050  1.00  0.00    -0.252 OA
BRANCH   3   5
ATOM      5  C   UNL A   1      31.911  28.126  26.446  1.00  0.00     0.126 C 
ATOM      6  C   UNL A   1      31.428  28.171  27.896  1.00  0.00     0.025 C 
BRANCH   5   7
ATOM      7  C   UNL A   1      32.581  26.804  26.101  1.00  0.00    -0.034 A 
ATOM      8  C   UNL A   1      33.861  24.309  25.610  1.00  0.00    -0.017 A 
ATOM      9  C   UNL A   1      34.455  25.523  25.228  1.00  0.00     0.009 A 
ATOM     10  C   UNL A   1      32.591  24.364  26.199  1.00  0.00     0.009 A 
ATOM     11  C   UNL A   1      33.831  26.750  25.474  1.00  0.00     0.005 A 
ATOM     12  C   UNL A   1      31.962  25.592  26.443  1.00  0.00     0.005 A 
BRANCH   8  13
ATOM     13  C   UNL A   1      34.587  23.037  25.460  1.00  0.00     0.001 A 
ATOM     14  C   UNL A   1      34.708  20.655  24.965  1.00  0.00    -0.007 A 
ATOM     15  C   UNL A   1      36.061  20.717  25.294  1.00  0.00     0.119 A 
ATOM     16  C   UNL A   1      33.969  21.841  25.060  1.00  0.00     0.020 A 
ATOM     17  N   UNL A   1      36.708  21.839  25.677  1.00  0.00    -0.263 NA
ATOM     18  C   UNL A   1      35.952  22.959  25.754  1.00  0.00     0.119 A 
BRANCH  14  19
ATOM     19  C   UNL A   1      34.125  19.358  24.605  1.00  0.00     0.005 C 
ATOM     20  C   UNL A   1      32.417  17.864  23.564  1.00  0.00     0.035 C 
ATOM     21  C   UNL A   1      32.963  19.202  23.952  1.00  0.00    -0.030 C 
ENDBRANCH  14  19
ENDBRANCH   8  13
ENDBRANCH   5   7
ENDBRANCH   3   5
ENDBRANCH   2   3
ENDBRANCH   1   2
BRANCH   1  22
ATOM     22  C   UNL A   1      34.621  31.628  28.372  1.00  0.00     0.275 C 
BRANCH  22  23
ATOM     23  O   UNL A   1      35.557  30.557  28.587  1.00  0.00    -0.458 OA
BRANCH  23  24
ATOM     24  C   UNL A   1      36.246  30.619  29.750  1.00  0.00     0.338 C 
ATOM     25  O   UNL A   1      35.800  30.797  30.869  1.00  0.00    -0.246 OA
BRANCH  24  26
ATOM     26  C   UNL A   1      37.664  30.339  29.489  1.00  0.00     0.060 A 
ATOM     27  C   UNL A   1      38.061  30.083  28.175  1.00  0.00     0.016 A 
ATOM     28  C   UNL A   1      38.577  30.241  30.539  1.00  0.00     0.016 A 
ATOM     29  C   UNL A   1      39.375  29.712  27.901  1.00  0.00     0.010 A 
ATOM     30  C   UNL A   1      39.899  29.881  30.263  1.00  0.00     0.010 A 
ATOM     31  C   UNL A   1      40.302  29.600  28.945  1.00  0.00    -0.014 A 
BRANCH  31  32
ATOM     32  C   UNL A   1      41.685  29.145  28.661  1.00  0.00     0.031 A 
ATOM     33  C   UNL A   1      42.820  30.128  28.718  1.00  0.00     0.074 A 
ATOM     34  C   UNL A   1      41.916  27.854  28.359  1.00  0.00     0.049 A 
ATOM     35  N   UNL A   1      44.079  29.954  28.412  1.00  0.00    -0.248 NA
ATOM     36  C   UNL A   1      42.495  31.488  29.178  1.00  0.00     0.031 C 
ATOM     37  C   UNL A   1      40.899  26.802  28.310  1.00  0.00     0.029 A 
ATOM     38  N   UNL A   1      43.079  27.208  28.026  1.00  0.00    -0.354 N 
ATOM     39  C   UNL A   1      44.692  31.185  28.610  1.00  0.00     0.074 A 
ATOM     40  C   UNL A   1      43.665  32.101  29.061  1.00  0.00     0.031 C 
ATOM     41  C   UNL A   1      41.484  25.641  27.969  1.00  0.00     0.029 A 
ATOM     42  C   UNL A   1      42.905  25.877  27.729  1.00  0.00     0.049 A 
ATOM     43  H   UNL A   1      43.956  27.655  28.001  1.00  0.00     0.167 HD
ATOM     44  C   UNL A   1      45.992  31.518  28.430  1.00  0.00     0.037 A 
ATOM     45  C   UNL A   1      43.786  24.961  27.285  1.00  0.00     0.037 A 
ATOM     46  C   UNL A   1      47.012  30.593  28.011  1.00  0.00     0.049 A 
ATOM     47  C   UNL A   1      45.217  25.368  27.055  1.00  0.00     0.074 A 
ATOM     48  C   UNL A   1      48.366  30.826  27.838  1.00  0.00     0.029 A 
ATOM     49  N   UNL A   1      46.793  29.259  27.701  1.00  0.00    -0.354 N 
ATOM     50  N   UNL A   1      45.783  26.535  27.253  1.00  0.00    -0.248 NA
ATOM     51  C   UNL A   1      46.126  24.339  26.532  1.00  0.00     0.031 C 
ATOM     52  C   UNL A   1      48.960  29.641  27.389  1.00  0.00     0.029 A 
ATOM     53  C   UNL A   1      47.982  28.662  27.317  1.00  0.00     0.049 A 
ATOM     54  H   UNL A   1      45.921  28.804  27.747  1.00  0.00     0.167 HD
ATOM     55  C   UNL A   1      47.118  26.373  26.900  1.00  0.00     0.074 A 
ATOM     56  C   UNL A   1      47.277  24.995  26.484  1.00  0.00     0.031 C 
ATOM     57  C   UNL A   1      48.123  27.284  26.918  1.00  0.00     0.037 A 
BRANCH  44  58
ATOM     58  C   UNL A   1      46.385  32.949  28.655  1.00  0.00     0.058 A 
ATOM     59  C   UNL A   1      46.242  33.923  27.656  1.00  0.00     0.135 A 
ATOM     60  C   UNL A   1      46.863  33.361  29.910  1.00  0.00     0.135 A 
ATOM     61  F   UNL A   1      45.806  33.578  26.434  1.00  0.00    -0.206 F 
ATOM     62  C   UNL A   1      46.574  35.255  27.887  1.00  0.00     0.059 A 
ATOM     63  C   UNL A   1      47.183  34.690  30.170  1.00  0.00     0.059 A 
ATOM     64  F   UNL A   1      47.021  32.466  30.899  1.00  0.00    -0.206 F 
ATOM     65  C   UNL A   1      47.044  35.628  29.148  1.00  0.00     0.060 A 
BRANCH  65  66
ATOM     66  S   UNL A   1      47.455  37.362  29.442  1.00  0.00     0.124 S 
ATOM     67  O   UNL A   1      47.783  37.345  30.864  1.00  0.00    -0.237 OA
ATOM     68  O   UNL A   1      48.577  37.577  28.535  1.00  0.00    -0.237 OA
ATOM     69  O   UNL A   1      46.226  38.067  29.091  1.00  0.00    -0.744 OA
ENDBRANCH  65  66
ENDBRANCH  44  58
BRANCH  45  70
ATOM     70  C   UNL A   1      43.342  23.571  27.004  1.00  0.00     0.058 A 
ATOM     71  C   UNL A   1      43.135  22.654  28.045  1.00  0.00     0.135 A 
ATOM     72  C   UNL A   1      43.129  23.128  25.689  1.00  0.00     0.135 A 
ATOM     73  F   UNL A   1      43.335  23.029  29.318  1.00  0.00    -0.206 F 
ATOM     74  C   UNL A   1      42.750  21.341  27.794  1.00  0.00     0.059 A 
ATOM     75  C   UNL A   1      42.721  21.827  25.414  1.00  0.00     0.059 A 
ATOM     76  F   UNL A   1      43.303  23.970  24.659  1.00  0.00    -0.206 F 
ATOM     77  C   UNL A   1      42.549  20.936  26.473  1.00  0.00     0.060 A 
BRANCH  77  78
ATOM     78  S   UNL A   1      42.021  19.239  26.152  1.00  0.00     0.124 S 
ATOM     79  O   UNL A   1      40.594  19.416  25.918  1.00  0.00    -0.237 OA
ATOM     80  O   UNL A   1      42.820  18.881  24.983  1.00  0.00    -0.237 OA
ATOM     81  O   UNL A   1      42.380  18.540  27.383  1.00  0.00    -0.744 OA
ENDBRANCH  77  78
ENDBRANCH  45  70
BRANCH  57  82
ATOM     82  C   UNL A   1      49.488  26.810  26.511  1.00  0.00     0.058 A 
ATOM     83  C   UNL A   1      50.372  26.237  27.437  1.00  0.00     0.135 A 
ATOM     84  C   UNL A   1      49.896  26.887  25.170  1.00  0.00     0.135 A 
ATOM     85  F   UNL A   1      50.030  26.149  28.733  1.00  0.00    -0.206 F 
ATOM     86  C   UNL A   1      51.624  25.770  27.050  1.00  0.00     0.059 A 
ATOM     87  C   UNL A   1      51.134  26.406  24.758  1.00  0.00     0.059 A 
ATOM     88  F   UNL A   1      49.081  27.419  24.245  1.00  0.00    -0.206 F 
ATOM     89  C   UNL A   1      51.995  25.859  25.707  1.00  0.00     0.060 A 
BRANCH  89  90
ATOM     90  S   UNL A   1      53.606  25.216  25.205  1.00  0.00     0.124 S 
ATOM     91  O   UNL A   1      53.381  23.777  25.271  1.00  0.00    -0.237 OA
ATOM     92  O   UNL A   1      53.765  25.772  23.864  1.00  0.00    -0.237 OA
ATOM     93  O   UNL A   1      54.515  25.758  26.211  1.00  0.00    -0.744 OA
ENDBRANCH  89  90
ENDBRANCH  57  82
ENDBRANCH  31  32
ENDBRANCH  24  26
ENDBRANCH  23  24
ENDBRANCH  22  23
ENDBRANCH   1  22
TORSDOF 17
ENDMDL
MODEL 2
REMARK VINA RESULT:     -11.5      3.915     11.066
REMARK SMILES C/C=C/c1cncc(-c2ccc([C@@H](C)C(=O)OCCOC(=O)c3ccc(-c4c5nc(c(-c6c(F)cc(S(=O)(=O)[O-])cc6F)c6ccc([nH]6)c(-c6c(F)cc(S(=O)(=O)[O-])cc6F)c6nc(c(-c7c(F)cc(S(=O)(=O)[O-])cc7F)c7ccc4[nH]7)C=C6)C=C5)cc3)cc2)c1
REMARK SMILES IDX 18 1 17 2 15 3 16 4 13 5 14 6 12 7 9 8 10 9 90 10 11 11
REMARK SMILES IDX 89 12 8 13 4 14 5 15 91 16 6 17 7 18 3 19 1 20 2 21 19 22
REMARK SMILES IDX 20 23 21 24 22 25 23 26 24 27 88 28 25 29 87 30 26 31 27 32
REMARK SMILES IDX 28 33 81 34 29 35 86 36 80 37 82 38 30 39 85 40 79 41 78 42
REMARK SMILES IDX 31 44 65 45 44 46 64 47 45 48 48 49 63 50 83 51 46 52 47 53
REMARK SMILES IDX 62 55 84 56 49 57 32 58 33 59 42 60 34 61 35 62 41 63 43 64
REMARK SMILES IDX 36 65 37 66 38 67 39 68 40 69 66 70 67 71 76 72 68 73 69 74
REMARK SMILES IDX 75 75 77 76 70 77 71 78 72 79 73 80 74 81 50 82 51 83 60 84
REMARK SMILES IDX 52 85 53 86 59 87 61 88 54 89 55 90 56 91 57 92 58 93
REMARK H PARENT 82 43 48 54
REMARK Flexibility Score: inf
ROOT
ATOM      1  C   UNL A   1      40.915  19.676  26.436  1.00  0.00     0.274 C 
ENDROOT
BRANCH   1   2
ATOM      2  O   UNL A   1      42.151  20.307  26.823  1.00  0.00    -0.462 OA
BRANCH   2   3
ATOM      3  C   UNL A   1      42.930  20.784  25.819  1.00  0.00     0.313 C 
ATOM      4  O   UNL A   1      43.460  20.079  24.966  1.00  0.00    -0.252 OA
BRANCH   3   5
ATOM      5  C   UNL A   1      43.152  22.291  25.872  1.00  0.00     0.126 C 
ATOM      6  C   UNL A   1      44.148  22.701  24.788  1.00  0.00     0.025 C 
BRANCH   5   7
ATOM      7  C   UNL A   1      43.505  22.874  27.232  1.00  0.00    -0.034 A 
ATOM      8  C   UNL A   1      44.097  24.099  29.734  1.00  0.00    -0.017 A 
ATOM      9  C   UNL A   1      45.110  23.801  28.808  1.00  0.00     0.009 A 
ATOM     10  C   UNL A   1      42.786  23.727  29.404  1.00  0.00     0.009 A 
ATOM     11  C   UNL A   1      44.820  23.205  27.576  1.00  0.00     0.005 A 
ATOM     12  C   UNL A   1      42.495  23.127  28.172  1.00  0.00     0.005 A 
BRANCH   8  13
ATOM     13  C   UNL A   1      44.400  24.841  30.968  1.00  0.00     0.001 A 
ATOM     14  C   UNL A   1      44.857  26.884  32.214  1.00  0.00    -0.007 A 
ATOM     15  C   UNL A   1      45.041  26.084  33.341  1.00  0.00     0.119 A 
ATOM     16  C   UNL A   1      44.538  26.238  31.013  1.00  0.00     0.020 A 
ATOM     17  N   UNL A   1      44.913  24.739  33.357  1.00  0.00    -0.263 NA
ATOM     18  C   UNL A   1      44.604  24.161  32.173  1.00  0.00     0.119 A 
BRANCH  14  19
ATOM     19  C   UNL A   1      45.068  28.331  32.330  1.00  0.00     0.005 C 
ATOM     20  C   UNL A   1      46.374  30.380  32.904  1.00  0.00     0.035 C 
ATOM     21  C   UNL A   1      46.173  28.899  32.838  1.00  0.00    -0.030 C 
ENDBRANCH  14  19
ENDBRANCH   8  13
ENDBRANCH   5   7
ENDBRANCH   3   5
ENDBRANCH   2   3
ENDBRANCH   1   2
BRANCH   1  22
ATOM     22  C   UNL A   1      39.932  20.695  25.858  1.00  0.00     0.275 C 
BRANCH  22  23
ATOM     23  O   UNL A   1      39.643  21.734  26.810  1.00  0.00    -0.458 OA
BRANCH  23  24
ATOM     24  C   UNL A   1      38.799  22.698  26.372  1.00  0.00     0.338 C 
ATOM     25  O   UNL A   1      37.748  22.549  25.775  1.00  0.00    -0.246 OA
BRANCH  24  26
ATOM     26  C   UNL A   1      39.292  24.010  26.811  1.00  0.00     0.060 A 
ATOM     27  C   UNL A   1      40.004  24.792  25.899  1.00  0.00     0.016 A 
ATOM     28  C   UNL A   1      39.132  24.426  28.132  1.00  0.00     0.016 A 
ATOM     29  C   UNL A   1      40.576  25.994  26.307  1.00  0.00     0.010 A 
ATOM     30  C   UNL A   1      39.695  25.639  28.539  1.00  0.00     0.010 A 
ATOM     31  C   UNL A   1      40.432  26.423  27.633  1.00  0.00    -0.014 A 
BRANCH  31  32
ATOM     32  C   UNL A   1      41.093  27.672  28.083  1.00  0.00     0.031 A 
ATOM     33  C   UNL A   1      42.586  27.807  27.977  1.00  0.00     0.074 A 
ATOM     34  C   UNL A   1      40.352  28.680  28.581  1.00  0.00     0.049 A 
ATOM     35  N   UNL A   1      43.360  28.771  28.400  1.00  0.00    -0.248 NA
ATOM     36  C   UNL A   1      43.302  26.709  27.306  1.00  0.00     0.031 C 
ATOM     37  C   UNL A   1      38.892  28.678  28.698  1.00  0.00     0.029 A 
ATOM     38  N   UNL A   1      40.726  29.897  29.090  1.00  0.00    -0.354 N 
ATOM     39  C   UNL A   1      44.656  28.386  28.079  1.00  0.00     0.074 A 
ATOM     40  C   UNL A   1      44.565  27.097  27.427  1.00  0.00     0.031 C 
ATOM     41  C   UNL A   1      38.495  29.841  29.243  1.00  0.00     0.029 A 
ATOM     42  C   UNL A   1      39.671  30.647  29.556  1.00  0.00     0.049 A 
ATOM     43  H   UNL A   1      41.660  30.206  29.119  1.00  0.00     0.167 HD
ATOM     44  C   UNL A   1      45.814  29.048  28.310  1.00  0.00     0.037 A 
ATOM     45  C   UNL A   1      39.660  31.834  30.191  1.00  0.00     0.037 A 
ATOM     46  C   UNL A   1      45.893  30.344  28.932  1.00  0.00     0.049 A 
ATOM     47  C   UNL A   1      40.965  32.531  30.471  1.00  0.00     0.074 A 
ATOM     48  C   UNL A   1      47.017  31.115  29.175  1.00  0.00     0.029 A 
ATOM     49  N   UNL A   1      44.806  31.062  29.409  1.00  0.00    -0.354 N 
ATOM     50  N   UNL A   1      42.182  32.157  30.155  1.00  0.00    -0.248 NA
ATOM     51  C   UNL A   1      40.896  33.804  31.202  1.00  0.00     0.031 C 
ATOM     52  C   UNL A   1      46.613  32.284  29.830  1.00  0.00     0.029 A 
ATOM     53  C   UNL A   1      45.234  32.256  29.963  1.00  0.00     0.049 A 
ATOM     54  H   UNL A   1      43.868  30.766  29.360  1.00  0.00     0.167 HD
ATOM     55  C   UNL A   1      43.021  33.159  30.630  1.00  0.00     0.074 A 
ATOM     56  C   UNL A   1      42.173  34.158  31.245  1.00  0.00     0.031 C 
ATOM     57  C   UNL A   1      44.373  33.244  30.561  1.00  0.00     0.037 A 
BRANCH  44  58
ATOM     58  C   UNL A   1      47.097  28.374  27.917  1.00  0.00     0.058 A 
ATOM     59  C   UNL A   1      47.792  27.533  28.799  1.00  0.00     0.135 A 
ATOM     60  C   UNL A   1      47.608  28.531  26.618  1.00  0.00     0.135 A 
ATOM     61  F   UNL A   1      47.355  27.363  30.056  1.00  0.00    -0.206 F 
ATOM     62  C   UNL A   1      48.960  26.883  28.412  1.00  0.00     0.059 A 
ATOM     63  C   UNL A   1      48.763  27.876  26.203  1.00  0.00     0.059 A 
ATOM     64  F   UNL A   1      46.981  29.328  25.738  1.00  0.00    -0.206 F 
ATOM     65  C   UNL A   1      49.438  27.061  27.112  1.00  0.00     0.060 A 
BRANCH  65  66
ATOM     66  S   UNL A   1      50.944  26.198  26.615  1.00  0.00     0.124 S 
ATOM     67  O   UNL A   1      50.751  26.081  25.174  1.00  0.00    -0.237 OA
ATOM     68  O   UNL A   1      51.990  27.121  27.042  1.00  0.00    -0.237 OA
ATOM     69  O   UNL A   1      50.879  24.944  27.360  1.00  0.00    -0.744 OA
ENDBRANCH  65  66
ENDBRANCH  44  58
BRANCH  45  70
ATOM     70  C   UNL A   1      38.373  32.436  30.629  1.00  0.00     0.058 A 
ATOM     71  C   UNL A   1      37.808  32.108  31.870  1.00  0.00     0.135 A 
ATOM     72  C   UNL A   1      37.677  33.338  29.810  1.00  0.00     0.135 A 
ATOM     73  F   UNL A   1      38.433  31.242  32.683  1.00  0.00    -0.206 F 
ATOM     74  C   UNL A   1      36.589  32.638  32.278  1.00  0.00     0.059 A 
ATOM     75  C   UNL A   1      36.468  33.900  30.206  1.00  0.00     0.059 A 
ATOM     76  F   UNL A   1      38.182  33.692  28.618  1.00  0.00    -0.206 F 
ATOM     77  C   UNL A   1      35.924  33.532  31.436  1.00  0.00     0.060 A 
BRANCH  77  78
ATOM     78  S   UNL A   1      34.355  34.241  31.982  1.00  0.00     0.124 S 
ATOM     79  O   UNL A   1      34.791  35.510  32.551  1.00  0.00    -0.237 OA
ATOM     80  O   UNL A   1      33.603  34.327  30.734  1.00  0.00    -0.237 OA
ATOM     81  O   UNL A   1      33.858  33.255  32.936  1.00  0.00    -0.744 OA
ENDBRANCH  77  78
ENDBRANCH  45  70
BRANCH  57  82
ATOM     82  C   UNL A   1      45.014  34.475  31.134  1.00  0.00     0.058 A 
ATOM     83  C   UNL A   1      45.430  34.531  32.472  1.00  0.00     0.135 A 
ATOM     84  C   UNL A   1      45.259  35.592  30.320  1.00  0.00     0.135 A 
ATOM     85  F   UNL A   1      45.211  33.490  33.292  1.00  0.00    -0.206 F 
ATOM     86  C   UNL A   1      46.053  35.661  32.990  1.00  0.00     0.059 A 
ATOM     87  C   UNL A   1      45.900  36.725  30.812  1.00  0.00     0.059 A 
ATOM     88  F   UNL A   1      44.887  35.584  29.030  1.00  0.00    -0.206 F 
ATOM     89  C   UNL A   1      46.284  36.753  32.152  1.00  0.00     0.060 A 
BRANCH  89  90
ATOM     90  S   UNL A   1      47.127  38.203  32.822  1.00  0.00     0.124 S 
ATOM     91  O   UNL A   1      46.038  39.170  32.888  1.00  0.00    -0.237 OA
ATOM     92  O   UNL A   1      47.620  37.715  34.107  1.00  0.00    -0.237 OA
ATOM     93  O   UNL A   1      48.159  38.484  31.828  1.00  0.00    -0.744 OA
ENDBRANCH  89  90
ENDBRANCH  57  82
ENDBRANCH  31  32
ENDBRANCH  24  26
ENDBRANCH  23  24
ENDBRANCH  22  23
ENDBRANCH   1  22
TORSDOF 17
ENDMDL
MODEL 3
REMARK VINA RESULT:     -11.5      6.595     12.061
REMARK SMILES C/C=C/c1cncc(-c2ccc([C@@H](C)C(=O)OCCOC(=O)c3ccc(-c4c5nc(c(-c6c(F)cc(S(=O)(=O)[O-])cc6F)c6ccc([nH]6)c(-c6c(F)cc(S(=O)(=O)[O-])cc6F)c6nc(c(-c7c(F)cc(S(=O)(=O)[O-])cc7F)c7ccc4[nH]7)C=C6)C=C5)cc3)cc2)c1
REMARK SMILES IDX 18 1 17 2 15 3 16 4 13 5 14 6 12 7 9 8 10 9 90 10 11 11
REMARK SMILES IDX 89 12 8 13 4 14 5 15 91 16 6 17 7 18 3 19 1 20 2 21 19 22
REMARK SMILES IDX 20 23 21 24 22 25 23 26 24 27 88 28 25 29 87 30 26 31 27 32
REMARK SMILES IDX 28 33 81 34 29 35 86 36 80 37 82 38 30 39 85 40 79 41 78 42
REMARK SMILES IDX 31 44 65 45 44 46 64 47 45 48 48 49 63 50 83 51 46 52 47 53
REMARK SMILES IDX 62 55 84 56 49 57 32 58 33 59 42 60 34 61 35 62 41 63 43 64
REMARK SMILES IDX 36 65 37 66 38 67 39 68 40 69 66 70 67 71 76 72 68 73 69 74
REMARK SMILES IDX 75 75 77 76 70 77 71 78 72 79 73 80 74 81 50 82 51 83 60 84
REMARK SMILES IDX 52 85 53 86 59 87 61 88 54 89 55 90 56 91 57 92 58 93
REMARK H PARENT 82 43 48 54
REMARK Flexibility Score: inf
ROOT
ATOM      1  C   UNL A   1      43.467  23.227  26.264  1.00  0.00     0.274 C 
ENDROOT
BRANCH   1   2
ATOM      2  O   UNL A   1      42.785  22.340  25.357  1.00  0.00    -0.462 OA
BRANCH   2   3
ATOM      3  C   UNL A   1      42.296  21.189  25.884  1.00  0.00     0.313 C 
ATOM      4  O   UNL A   1      42.631  20.067  25.516  1.00  0.00    -0.252 OA
BRANCH   3   5
ATOM      5  C   UNL A   1      41.227  21.403  26.949  1.00  0.00     0.126 C 
ATOM      6  C   UNL A   1      41.058  20.124  27.769  1.00  0.00     0.025 C 
BRANCH   5   7
ATOM      7  C   UNL A   1      39.896  21.961  26.467  1.00  0.00    -0.034 A 
ATOM      8  C   UNL A   1      37.461  22.998  25.417  1.00  0.00    -0.017 A 
ATOM      9  C   UNL A   1      38.333  23.801  26.171  1.00  0.00     0.009 A 
ATOM     10  C   UNL A   1      37.808  21.652  25.239  1.00  0.00     0.009 A 
ATOM     11  C   UNL A   1      39.532  23.295  26.682  1.00  0.00     0.005 A 
ATOM     12  C   UNL A   1      39.007  21.142  25.754  1.00  0.00     0.005 A 
BRANCH   8  13
ATOM     13  C   UNL A   1      36.268  23.577  24.778  1.00  0.00     0.001 A 
ATOM     14  C   UNL A   1      34.282  24.987  24.768  1.00  0.00    -0.007 A 
ATOM     15  C   UNL A   1      34.029  24.518  23.480  1.00  0.00     0.119 A 
ATOM     16  C   UNL A   1      35.420  24.495  25.419  1.00  0.00     0.020 A 
ATOM     17  N   UNL A   1      34.812  23.643  22.814  1.00  0.00    -0.263 NA
ATOM     18  C   UNL A   1      35.900  23.196  23.484  1.00  0.00     0.119 A 
BRANCH  14  19
ATOM     19  C   UNL A   1      33.322  25.907  25.389  1.00  0.00     0.005 C 
ATOM     20  C   UNL A   1      32.657  27.892  26.749  1.00  0.00     0.035 C 
ATOM     21  C   UNL A   1      33.660  26.948  26.165  1.00  0.00    -0.030 C 
ENDBRANCH  14  19
ENDBRANCH   8  13
ENDBRANCH   5   7
ENDBRANCH   3   5
ENDBRANCH   2   3
ENDBRANCH   1   2
BRANCH   1  22
ATOM     22  C   UNL A   1      44.150  24.369  25.509  1.00  0.00     0.275 C 
BRANCH  22  23
ATOM     23  O   UNL A   1      43.854  25.640  26.114  1.00  0.00    -0.458 OA
BRANCH  23  24
ATOM     24  C   UNL A   1      42.605  26.110  25.886  1.00  0.00     0.338 C 
ATOM     25  O   UNL A   1      41.900  25.902  24.915  1.00  0.00    -0.246 OA
BRANCH  24  26
ATOM     26  C   UNL A   1      42.149  26.866  27.059  1.00  0.00     0.060 A 
ATOM     27  C   UNL A   1      42.646  28.157  27.253  1.00  0.00     0.016 A 
ATOM     28  C   UNL A   1      41.312  26.277  28.006  1.00  0.00     0.016 A 
ATOM     29  C   UNL A   1      42.318  28.866  28.406  1.00  0.00     0.010 A 
ATOM     30  C   UNL A   1      40.973  26.993  29.158  1.00  0.00     0.010 A 
ATOM     31  C   UNL A   1      41.486  28.286  29.371  1.00  0.00    -0.014 A 
BRANCH  31  32
ATOM     32  C   UNL A   1      41.188  29.015  30.627  1.00  0.00     0.031 A 
ATOM     33  C   UNL A   1      40.029  29.971  30.678  1.00  0.00     0.074 A 
ATOM     34  C   UNL A   1      41.954  28.815  31.716  1.00  0.00     0.049 A 
ATOM     35  N   UNL A   1      39.662  30.773  31.643  1.00  0.00    -0.248 NA
ATOM     36  C   UNL A   1      39.172  30.035  29.483  1.00  0.00     0.031 C 
ATOM     37  C   UNL A   1      43.081  27.884  31.797  1.00  0.00     0.029 A 
ATOM     38  N   UNL A   1      41.905  29.388  32.961  1.00  0.00    -0.354 N 
ATOM     39  C   UNL A   1      38.553  31.460  31.164  1.00  0.00     0.074 A 
ATOM     40  C   UNL A   1      38.308  30.983  29.820  1.00  0.00     0.031 C 
ATOM     41  C   UNL A   1      43.616  27.950  33.028  1.00  0.00     0.029 A 
ATOM     42  C   UNL A   1      42.902  28.958  33.805  1.00  0.00     0.049 A 
ATOM     43  H   UNL A   1      41.222  30.046  33.226  1.00  0.00     0.167 HD
ATOM     44  C   UNL A   1      37.811  32.403  31.791  1.00  0.00     0.037 A 
ATOM     45  C   UNL A   1      43.219  29.356  35.052  1.00  0.00     0.037 A 
ATOM     46  C   UNL A   1      38.043  32.849  33.139  1.00  0.00     0.049 A 
ATOM     47  C   UNL A   1      42.402  30.435  35.710  1.00  0.00     0.074 A 
ATOM     48  C   UNL A   1      37.321  33.773  33.877  1.00  0.00     0.029 A 
ATOM     49  N   UNL A   1      39.074  32.405  33.955  1.00  0.00    -0.354 N 
ATOM     50  N   UNL A   1      41.352  31.071  35.247  1.00  0.00    -0.248 NA
ATOM     51  C   UNL A   1      42.817  30.858  37.055  1.00  0.00     0.031 C 
ATOM     52  C   UNL A   1      37.937  33.913  35.126  1.00  0.00     0.029 A 
ATOM     53  C   UNL A   1      39.020  33.050  35.179  1.00  0.00     0.049 A 
ATOM     54  H   UNL A   1      39.744  31.731  33.701  1.00  0.00     0.167 HD
ATOM     55  C   UNL A   1      40.969  31.952  36.252  1.00  0.00     0.074 A 
ATOM     56  C   UNL A   1      41.894  31.762  37.350  1.00  0.00     0.031 C 
ATOM     57  C   UNL A   1      39.943  32.839  36.265  1.00  0.00     0.037 A 
BRANCH  44  58
ATOM     58  C   UNL A   1      36.693  33.041  31.018  1.00  0.00     0.058 A 
ATOM     59  C   UNL A   1      35.347  32.746  31.282  1.00  0.00     0.135 A 
ATOM     60  C   UNL A   1      36.974  34.004  30.034  1.00  0.00     0.135 A 
ATOM     61  F   UNL A   1      35.026  31.821  32.200  1.00  0.00    -0.206 F 
ATOM     62  C   UNL A   1      34.317  33.372  30.587  1.00  0.00     0.059 A 
ATOM     63  C   UNL A   1      35.960  34.656  29.340  1.00  0.00     0.059 A 
ATOM     64  F   UNL A   1      38.245  34.319  29.742  1.00  0.00    -0.206 F 
ATOM     65  C   UNL A   1      34.633  34.326  29.617  1.00  0.00     0.060 A 
BRANCH  65  66
ATOM     66  S   UNL A   1      33.288  35.144  28.734  1.00  0.00     0.124 S 
ATOM     67  O   UNL A   1      32.476  35.643  29.839  1.00  0.00    -0.237 OA
ATOM     68  O   UNL A   1      33.993  36.158  27.957  1.00  0.00    -0.237 OA
ATOM     69  O   UNL A   1      32.689  34.066  27.953  1.00  0.00    -0.744 OA
ENDBRANCH  65  66
ENDBRANCH  44  58
BRANCH  45  70
ATOM     70  C   UNL A   1      44.379  28.750  35.757  1.00  0.00     0.058 A 
ATOM     71  C   UNL A   1      45.678  29.244  35.567  1.00  0.00     0.135 A 
ATOM     72  C   UNL A   1      44.213  27.658  36.623  1.00  0.00     0.135 A 
ATOM     73  F   UNL A   1      45.887  30.280  34.740  1.00  0.00    -0.206 F 
ATOM     74  C   UNL A   1      46.776  28.665  36.195  1.00  0.00     0.059 A 
ATOM     75  C   UNL A   1      45.292  27.078  37.281  1.00  0.00     0.059 A 
ATOM     76  F   UNL A   1      42.989  27.157  36.847  1.00  0.00    -0.206 F 
ATOM     77  C   UNL A   1      46.573  27.579  37.049  1.00  0.00     0.060 A 
BRANCH  77  78
ATOM     78  S   UNL A   1      47.997  26.850  37.886  1.00  0.00     0.124 S 
ATOM     79  O   UNL A   1      47.547  26.840  39.273  1.00  0.00    -0.237 OA
ATOM     80  O   UNL A   1      48.101  25.544  37.240  1.00  0.00    -0.237 OA
ATOM     81  O   UNL A   1      49.078  27.780  37.576  1.00  0.00    -0.744 OA
ENDBRANCH  77  78
ENDBRANCH  45  70
BRANCH  57  82
ATOM     82  C   UNL A   1      39.746  33.644  37.516  1.00  0.00     0.058 A 
ATOM     83  C   UNL A   1      40.446  34.838  37.739  1.00  0.00     0.135 A 
ATOM     84  C   UNL A   1      38.807  33.240  38.479  1.00  0.00     0.135 A 
ATOM     85  F   UNL A   1      41.360  35.262  36.851  1.00  0.00    -0.206 F 
ATOM     86  C   UNL A   1      40.237  35.598  38.885  1.00  0.00     0.059 A 
ATOM     87  C   UNL A   1      38.567  33.995  39.622  1.00  0.00     0.059 A 
ATOM     88  F   UNL A   1      38.105  32.109  38.307  1.00  0.00    -0.206 F 
ATOM     89  C   UNL A   1      39.294  35.168  39.821  1.00  0.00     0.060 A 
BRANCH  89  90
ATOM     90  S   UNL A   1      39.000  36.179  41.288  1.00  0.00     0.124 S 
ATOM     91  O   UNL A   1      38.707  37.478  40.694  1.00  0.00    -0.237 OA
ATOM     92  O   UNL A   1      37.870  35.501  41.918  1.00  0.00    -0.237 OA
ATOM     93  O   UNL A   1      40.261  36.090  42.019  1.00  0.00    -0.744 OA
ENDBRANCH  89  90
ENDBRANCH  57  82
ENDBRANCH  31  32
ENDBRANCH  24  26
ENDBRANCH  23  24
ENDBRANCH  22  23
ENDBRANCH   1  22
TORSDOF 17
ENDMDL
