MODEL 1
REMARK VINA RESULT:     -10.9      0.000      0.000
REMARK SMILES CO[C@H]1C[C@@H](C(=O)OCCOC(=O)c2ccc(-c3c4nc(c(-c5c(F)cc(S(=O)(=O)[O-])cc5F)c5ccc([nH]5)c(-c5c(F)cc(S(=O)(=O)[O-])cc5F)c5nc(c(-c6c(F)cc(S(=O)(=O)[O-])cc6F)c6ccc3[nH]6)C=C5)C=C4)cc2)N(C(=O)c2cc(SC)ccc2C)C1
REMARK SMILES IDX 9 1 8 2 6 3 7 4 5 5 3 6 4 7 92 8 80 9 2 10 1 11 81 12 82 13
REMARK SMILES IDX 83 14 84 15 90 16 85 17 89 18 91 19 88 20 86 21 87 22 10 23
REMARK SMILES IDX 11 24 12 25 13 26 14 27 15 28 79 29 16 30 78 31 17 32 18 33
REMARK SMILES IDX 19 34 72 35 20 36 77 37 71 38 73 39 21 40 76 41 70 42 69 43
REMARK SMILES IDX 22 45 56 46 35 47 55 48 36 49 39 50 54 51 74 52 37 53 38 54
REMARK SMILES IDX 53 56 75 57 40 58 23 59 24 60 33 61 25 62 26 63 32 64 34 65
REMARK SMILES IDX 27 66 28 67 29 68 30 69 31 70 57 71 58 72 67 73 59 74 60 75
REMARK SMILES IDX 66 76 68 77 61 78 62 79 63 80 64 81 65 82 41 83 42 84 51 85
REMARK SMILES IDX 43 86 44 87 50 88 52 89 45 90 46 91 47 92 48 93 49 94
REMARK H PARENT 73 44 39 55
REMARK Flexibility Score: inf
ROOT
ATOM      1  C   UNL A   1      33.867  28.591  24.973  1.00  0.00     0.274 C 
ENDROOT
BRANCH   1   2
ATOM      2  O   UNL A   1      32.934  28.757  23.894  1.00  0.00    -0.461 OA
BRANCH   2   3
ATOM      3  C   UNL A   1      33.058  27.906  22.844  1.00  0.00     0.329 C 
ATOM      4  O   UNL A   1      34.030  27.881  22.099  1.00  0.00    -0.250 OA
BRANCH   3   5
ATOM      5  C   UNL A   1      31.870  26.932  22.747  1.00  0.00     0.198 C 
ATOM      6  C   UNL A   1      29.914  26.064  23.989  1.00  0.00     0.140 C 
ATOM      7  C   UNL A   1      30.723  27.331  23.708  1.00  0.00     0.071 C 
ATOM      8  C   UNL A   1      30.754  24.928  23.403  1.00  0.00     0.152 C 
ATOM      9  N   UNL A   1      32.047  25.498  23.027  1.00  0.00    -0.322 N 
BRANCH   6  10
ATOM     10  O   UNL A   1      29.734  25.810  25.385  1.00  0.00    -0.380 OA
ATOM     11  C   UNL A   1      30.722  26.358  26.245  1.00  0.00     0.195 C 
ENDBRANCH   6  10
BRANCH   9  12
ATOM     12  C   UNL A   1      33.010  24.592  22.592  1.00  0.00     0.254 C 
ATOM     13  O   UNL A   1      33.372  24.550  21.417  1.00  0.00    -0.269 OA
BRANCH  12  14
ATOM     14  C   UNL A   1      33.641  23.602  23.493  1.00  0.00     0.044 A 
ATOM     15  C   UNL A   1      34.803  24.013  24.166  1.00  0.00     0.029 A 
ATOM     16  C   UNL A   1      33.269  22.244  23.509  1.00  0.00    -0.038 A 
ATOM     17  C   UNL A   1      35.562  23.100  24.909  1.00  0.00     0.008 A 
ATOM     18  C   UNL A   1      33.998  21.351  24.304  1.00  0.00     0.005 A 
ATOM     19  C   UNL A   1      32.171  21.696  22.658  1.00  0.00     0.045 C 
ATOM     20  C   UNL A   1      35.124  21.778  25.006  1.00  0.00     0.015 A 
BRANCH  17  21
ATOM     21  S   UNL A   1      37.069  23.681  25.681  1.00  0.00    -0.130 SA
ATOM     22  C   UNL A   1      38.078  22.169  25.718  1.00  0.00     0.091 C 
ENDBRANCH  17  21
ENDBRANCH  12  14
ENDBRANCH   9  12
ENDBRANCH   3   5
ENDBRANCH   2   3
ENDBRANCH   1   2
BRANCH   1  23
ATOM     23  C   UNL A   1      33.200  29.133  26.238  1.00  0.00     0.275 C 
BRANCH  23  24
ATOM     24  O   UNL A   1      34.083  28.902  27.357  1.00  0.00    -0.458 OA
BRANCH  24  25
ATOM     25  C   UNL A   1      34.597  29.996  27.967  1.00  0.00     0.338 C 
ATOM     26  O   UNL A   1      34.002  31.019  28.278  1.00  0.00    -0.246 OA
BRANCH  25  27
ATOM     27  C   UNL A   1      36.030  29.768  28.225  1.00  0.00     0.060 A 
ATOM     28  C   UNL A   1      36.949  29.949  27.189  1.00  0.00     0.016 A 
ATOM     29  C   UNL A   1      36.469  29.319  29.467  1.00  0.00     0.016 A 
ATOM     30  C   UNL A   1      38.309  29.715  27.385  1.00  0.00     0.010 A 
ATOM     31  C   UNL A   1      37.835  29.082  29.669  1.00  0.00     0.010 A 
ATOM     32  C   UNL A   1      38.762  29.274  28.627  1.00  0.00    -0.014 A 
BRANCH  32  33
ATOM     33  C   UNL A   1      40.184  28.905  28.817  1.00  0.00     0.031 A 
ATOM     34  C   UNL A   1      41.147  29.956  29.283  1.00  0.00     0.074 A 
ATOM     35  C   UNL A   1      40.615  27.652  28.588  1.00  0.00     0.049 A 
ATOM     36  N   UNL A   1      42.452  29.945  29.280  1.00  0.00    -0.248 NA
ATOM     37  C   UNL A   1      40.552  31.188  29.827  1.00  0.00     0.031 C 
ATOM     38  C   UNL A   1      39.763  26.509  28.258  1.00  0.00     0.029 A 
ATOM     39  N   UNL A   1      41.886  27.135  28.585  1.00  0.00    -0.354 N 
ATOM     40  C   UNL A   1      42.841  31.180  29.781  1.00  0.00     0.074 A 
ATOM     41  C   UNL A   1      41.631  31.913  30.089  1.00  0.00     0.031 C 
ATOM     42  C   UNL A   1      40.540  25.429  28.062  1.00  0.00     0.029 A 
ATOM     43  C   UNL A   1      41.942  25.820  28.190  1.00  0.00     0.049 A 
ATOM     44  H   UNL A   1      42.681  27.656  28.841  1.00  0.00     0.167 HD
ATOM     45  C   UNL A   1      44.095  31.659  29.955  1.00  0.00     0.037 A 
ATOM     46  C   UNL A   1      43.005  25.039  27.912  1.00  0.00     0.037 A 
ATOM     47  C   UNL A   1      45.289  30.912  29.661  1.00  0.00     0.049 A 
ATOM     48  C   UNL A   1      44.391  25.618  28.022  1.00  0.00     0.074 A 
ATOM     49  C   UNL A   1      46.608  31.319  29.754  1.00  0.00     0.029 A 
ATOM     50  N   UNL A   1      45.306  29.595  29.226  1.00  0.00    -0.354 N 
ATOM     51  N   UNL A   1      44.755  26.822  28.399  1.00  0.00    -0.248 NA
ATOM     52  C   UNL A   1      45.511  24.744  27.647  1.00  0.00     0.031 C 
ATOM     53  C   UNL A   1      47.422  30.255  29.348  1.00  0.00     0.029 A 
ATOM     54  C   UNL A   1      46.611  29.174  29.038  1.00  0.00     0.049 A 
ATOM     55  H   UNL A   1      44.507  29.039  29.075  1.00  0.00     0.167 HD
ATOM     56  C   UNL A   1      46.144  26.843  28.322  1.00  0.00     0.074 A 
ATOM     57  C   UNL A   1      46.557  25.529  27.871  1.00  0.00     0.031 C 
ATOM     58  C   UNL A   1      47.001  27.857  28.598  1.00  0.00     0.037 A 
BRANCH  45  59
ATOM     59  C   UNL A   1      44.228  33.078  30.426  1.00  0.00     0.058 A 
ATOM     60  C   UNL A   1      44.243  34.159  29.533  1.00  0.00     0.135 A 
ATOM     61  C   UNL A   1      44.348  33.357  31.797  1.00  0.00     0.135 A 
ATOM     62  F   UNL A   1      44.155  33.946  28.211  1.00  0.00    -0.206 F 
ATOM     63  C   UNL A   1      44.402  35.468  29.980  1.00  0.00     0.059 A 
ATOM     64  C   UNL A   1      44.486  34.657  32.269  1.00  0.00     0.059 A 
ATOM     65  F   UNL A   1      44.344  32.356  32.693  1.00  0.00    -0.206 F 
ATOM     66  C   UNL A   1      44.531  35.706  31.350  1.00  0.00     0.060 A 
BRANCH  66  67
ATOM     67  S   UNL A   1      44.760  37.403  31.920  1.00  0.00     0.124 S 
ATOM     68  O   UNL A   1      45.680  37.925  30.915  1.00  0.00    -0.237 OA
ATOM     69  O   UNL A   1      43.403  37.937  31.876  1.00  0.00    -0.237 OA
ATOM     70  O   UNL A   1      45.320  37.239  33.259  1.00  0.00    -0.744 OA
ENDBRANCH  66  67
ENDBRANCH  45  59
BRANCH  46  71
ATOM     71  C   UNL A   1      42.801  23.643  27.440  1.00  0.00     0.058 A 
ATOM     72  C   UNL A   1      42.783  23.335  26.072  1.00  0.00     0.135 A 
ATOM     73  C   UNL A   1      42.612  22.589  28.348  1.00  0.00     0.135 A 
ATOM     74  F   UNL A   1      42.939  24.310  25.164  1.00  0.00    -0.206 F 
ATOM     75  C   UNL A   1      42.578  22.034  25.620  1.00  0.00     0.059 A 
ATOM     76  C   UNL A   1      42.429  21.278  27.922  1.00  0.00     0.059 A 
ATOM     77  F   UNL A   1      42.623  22.829  29.669  1.00  0.00    -0.206 F 
ATOM     78  C   UNL A   1      42.404  21.011  26.554  1.00  0.00     0.060 A 
BRANCH  78  79
ATOM     79  S   UNL A   1      42.185  19.318  25.965  1.00  0.00     0.124 S 
ATOM     80  O   UNL A   1      43.059  19.298  24.798  1.00  0.00    -0.237 OA
ATOM     81  O   UNL A   1      42.631  18.530  27.110  1.00  0.00    -0.237 OA
ATOM     82  O   UNL A   1      40.754  19.243  25.685  1.00  0.00    -0.744 OA
ENDBRANCH  78  79
ENDBRANCH  46  71
BRANCH  58  83
ATOM     83  C   UNL A   1      48.469  27.579  28.454  1.00  0.00     0.058 A 
ATOM     84  C   UNL A   1      49.226  27.057  29.513  1.00  0.00     0.135 A 
ATOM     85  C   UNL A   1      49.111  27.779  27.221  1.00  0.00     0.135 A 
ATOM     86  F   UNL A   1      48.659  26.854  30.713  1.00  0.00    -0.206 F 
ATOM     87  C   UNL A   1      50.576  26.756  29.361  1.00  0.00     0.059 A 
ATOM     88  C   UNL A   1      50.455  27.465  27.040  1.00  0.00     0.059 A 
ATOM     89  F   UNL A   1      48.428  28.266  26.174  1.00  0.00    -0.206 F 
ATOM     90  C   UNL A   1      51.181  26.963  28.119  1.00  0.00     0.060 A 
BRANCH  90  91
ATOM     91  S   UNL A   1      52.922  26.527  27.916  1.00  0.00     0.124 S 
ATOM     92  O   UNL A   1      52.829  25.315  27.108  1.00  0.00    -0.237 OA
ATOM     93  O   UNL A   1      53.465  27.701  27.239  1.00  0.00    -0.237 OA
ATOM     94  O   UNL A   1      53.385  26.335  29.287  1.00  0.00    -0.744 OA
ENDBRANCH  90  91
ENDBRANCH  58  83
ENDBRANCH  32  33
ENDBRANCH  25  27
ENDBRANCH  24  25
ENDBRANCH  23  24
ENDBRANCH   1  23
TORSDOF 18
ENDMDL
MODEL 2
REMARK VINA RESULT:     -10.7      1.233      2.325
REMARK SMILES CO[C@H]1C[C@@H](C(=O)OCCOC(=O)c2ccc(-c3c4nc(c(-c5c(F)cc(S(=O)(=O)[O-])cc5F)c5ccc([nH]5)c(-c5c(F)cc(S(=O)(=O)[O-])cc5F)c5nc(c(-c6c(F)cc(S(=O)(=O)[O-])cc6F)c6ccc3[nH]6)C=C5)C=C4)cc2)N(C(=O)c2cc(SC)ccc2C)C1
REMARK SMILES IDX 9 1 8 2 6 3 7 4 5 5 3 6 4 7 92 8 80 9 2 10 1 11 81 12 82 13
REMARK SMILES IDX 83 14 84 15 90 16 85 17 89 18 91 19 88 20 86 21 87 22 10 23
REMARK SMILES IDX 11 24 12 25 13 26 14 27 15 28 79 29 16 30 78 31 17 32 18 33
REMARK SMILES IDX 19 34 72 35 20 36 77 37 71 38 73 39 21 40 76 41 70 42 69 43
REMARK SMILES IDX 22 45 56 46 35 47 55 48 36 49 39 50 54 51 74 52 37 53 38 54
REMARK SMILES IDX 53 56 75 57 40 58 23 59 24 60 33 61 25 62 26 63 32 64 34 65
REMARK SMILES IDX 27 66 28 67 29 68 30 69 31 70 57 71 58 72 67 73 59 74 60 75
REMARK SMILES IDX 66 76 68 77 61 78 62 79 63 80 64 81 65 82 41 83 42 84 51 85
REMARK SMILES IDX 43 86 44 87 50 88 52 89 45 90 46 91 47 92 48 93 49 94
REMARK H PARENT 73 44 39 55
REMARK Flexibility Score: inf
ROOT
ATOM      1  C   UNL A   1      32.555  29.817  25.412  1.00  0.00     0.274 C 
ENDROOT
BRANCH   1   2
ATOM      2  O   UNL A   1      31.230  29.444  25.002  1.00  0.00    -0.461 OA
BRANCH   2   3
ATOM      3  C   UNL A   1      31.130  28.403  24.137  1.00  0.00     0.329 C 
ATOM      4  O   UNL A   1      30.073  28.017  23.655  1.00  0.00    -0.250 OA
BRANCH   3   5
ATOM      5  C   UNL A   1      32.508  27.815  23.780  1.00  0.00     0.198 C 
ATOM      6  C   UNL A   1      33.740  26.578  22.027  1.00  0.00     0.140 C 
ATOM      7  C   UNL A   1      32.686  27.665  22.249  1.00  0.00     0.071 C 
ATOM      8  C   UNL A   1      33.948  25.951  23.406  1.00  0.00     0.152 C 
ATOM      9  N   UNL A   1      32.918  26.496  24.288  1.00  0.00    -0.322 N 
BRANCH   6  10
ATOM     10  O   UNL A   1      33.306  25.550  21.131  1.00  0.00    -0.380 OA
ATOM     11  C   UNL A   1      32.152  25.849  20.360  1.00  0.00     0.195 C 
ENDBRANCH   6  10
BRANCH   9  12
ATOM     12  C   UNL A   1      32.854  25.946  25.565  1.00  0.00     0.254 C 
ATOM     13  O   UNL A   1      33.256  26.561  26.553  1.00  0.00    -0.269 OA
BRANCH  12  14
ATOM     14  C   UNL A   1      32.334  24.586  25.824  1.00  0.00     0.044 A 
ATOM     15  C   UNL A   1      33.229  23.521  25.632  1.00  0.00     0.029 A 
ATOM     16  C   UNL A   1      30.965  24.319  26.012  1.00  0.00    -0.038 A 
ATOM     17  C   UNL A   1      32.788  22.193  25.692  1.00  0.00     0.008 A 
ATOM     18  C   UNL A   1      30.542  22.989  26.132  1.00  0.00     0.005 A 
ATOM     19  C   UNL A   1      29.925  25.392  26.020  1.00  0.00     0.045 C 
ATOM     20  C   UNL A   1      31.448  21.939  25.986  1.00  0.00     0.015 A 
BRANCH  17  21
ATOM     21  S   UNL A   1      33.972  20.891  25.366  1.00  0.00    -0.130 SA
ATOM     22  C   UNL A   1      32.905  19.421  25.303  1.00  0.00     0.091 C 
ENDBRANCH  17  21
ENDBRANCH  12  14
ENDBRANCH   9  12
ENDBRANCH   3   5
ENDBRANCH   2   3
ENDBRANCH   1   2
BRANCH   1  23
ATOM     23  C   UNL A   1      32.497  30.121  26.910  1.00  0.00     0.275 C 
BRANCH  23  24
ATOM     24  O   UNL A   1      33.725  29.666  27.519  1.00  0.00    -0.458 OA
BRANCH  24  25
ATOM     25  C   UNL A   1      34.434  30.579  28.223  1.00  0.00     0.338 C 
ATOM     26  O   UNL A   1      34.024  31.629  28.698  1.00  0.00    -0.246 OA
BRANCH  25  27
ATOM     27  C   UNL A   1      35.824  30.105  28.353  1.00  0.00     0.060 A 
ATOM     28  C   UNL A   1      36.296  29.708  29.605  1.00  0.00     0.016 A 
ATOM     29  C   UNL A   1      36.683  30.104  27.258  1.00  0.00     0.016 A 
ATOM     30  C   UNL A   1      37.612  29.281  29.776  1.00  0.00     0.010 A 
ATOM     31  C   UNL A   1      38.006  29.676  27.424  1.00  0.00     0.010 A 
ATOM     32  C   UNL A   1      38.480  29.267  28.685  1.00  0.00    -0.014 A 
BRANCH  32  33
ATOM     33  C   UNL A   1      39.911  28.932  28.871  1.00  0.00     0.031 A 
ATOM     34  C   UNL A   1      40.851  30.007  29.329  1.00  0.00     0.074 A 
ATOM     35  C   UNL A   1      40.369  27.688  28.645  1.00  0.00     0.049 A 
ATOM     36  N   UNL A   1      42.157  30.025  29.321  1.00  0.00    -0.248 NA
ATOM     37  C   UNL A   1      40.231  31.227  29.870  1.00  0.00     0.031 C 
ATOM     38  C   UNL A   1      39.543  26.524  28.323  1.00  0.00     0.029 A 
ATOM     39  N   UNL A   1      41.652  27.200  28.640  1.00  0.00    -0.354 N 
ATOM     40  C   UNL A   1      42.519  31.271  29.815  1.00  0.00     0.074 A 
ATOM     41  C   UNL A   1      41.293  31.977  30.124  1.00  0.00     0.031 C 
ATOM     42  C   UNL A   1      40.343  25.462  28.129  1.00  0.00     0.029 A 
ATOM     43  C   UNL A   1      41.736  25.885  28.250  1.00  0.00     0.049 A 
ATOM     44  H   UNL A   1      42.436  27.741  28.890  1.00  0.00     0.167 HD
ATOM     45  C   UNL A   1      43.762  31.779  29.983  1.00  0.00     0.037 A 
ATOM     46  C   UNL A   1      42.816  25.127  27.971  1.00  0.00     0.037 A 
ATOM     47  C   UNL A   1      44.972  31.058  29.687  1.00  0.00     0.049 A 
ATOM     48  C   UNL A   1      44.189  25.738  28.073  1.00  0.00     0.074 A 
ATOM     49  C   UNL A   1      46.282  31.496  29.774  1.00  0.00     0.029 A 
ATOM     50  N   UNL A   1      45.017  29.740  29.258  1.00  0.00    -0.354 N 
ATOM     51  N   UNL A   1      44.527  26.952  28.443  1.00  0.00    -0.248 NA
ATOM     52  C   UNL A   1      45.327  24.888  27.697  1.00  0.00     0.031 C 
ATOM     53  C   UNL A   1      47.119  30.449  29.369  1.00  0.00     0.029 A 
ATOM     54  C   UNL A   1      46.331  29.348  29.066  1.00  0.00     0.049 A 
ATOM     55  H   UNL A   1      44.231  29.166  29.111  1.00  0.00     0.167 HD
ATOM     56  C   UNL A   1      45.914  27.004  28.362  1.00  0.00     0.074 A 
ATOM     57  C   UNL A   1      46.355  25.698  27.915  1.00  0.00     0.031 C 
ATOM     58  C   UNL A   1      46.749  28.039  28.630  1.00  0.00     0.037 A 
BRANCH  45  59
ATOM     59  C   UNL A   1      43.864  33.202  30.447  1.00  0.00     0.058 A 
ATOM     60  C   UNL A   1      43.902  34.277  29.547  1.00  0.00     0.135 A 
ATOM     61  C   UNL A   1      43.932  33.492  31.820  1.00  0.00     0.135 A 
ATOM     62  F   UNL A   1      43.864  34.054  28.224  1.00  0.00    -0.206 F 
ATOM     63  C   UNL A   1      44.032  35.591  29.990  1.00  0.00     0.059 A 
ATOM     64  C   UNL A   1      44.040  34.798  32.287  1.00  0.00     0.059 A 
ATOM     65  F   UNL A   1      43.904  32.498  32.722  1.00  0.00    -0.206 F 
ATOM     66  C   UNL A   1      44.109  35.840  31.362  1.00  0.00     0.060 A 
BRANCH  66  67
ATOM     67  S   UNL A   1      44.301  37.543  31.927  1.00  0.00     0.124 S 
ATOM     68  O   UNL A   1      43.491  37.540  33.140  1.00  0.00    -0.237 OA
ATOM     69  O   UNL A   1      45.743  37.648  32.129  1.00  0.00    -0.237 OA
ATOM     70  O   UNL A   1      43.770  38.331  30.819  1.00  0.00    -0.744 OA
ENDBRANCH  66  67
ENDBRANCH  45  59
BRANCH  46  71
ATOM     71  C   UNL A   1      42.642  23.726  27.505  1.00  0.00     0.058 A 
ATOM     72  C   UNL A   1      42.466  22.674  28.417  1.00  0.00     0.135 A 
ATOM     73  C   UNL A   1      42.655  23.407  26.138  1.00  0.00     0.135 A 
ATOM     74  F   UNL A   1      42.466  22.923  29.735  1.00  0.00    -0.206 F 
ATOM     75  C   UNL A   1      42.317  21.357  27.991  1.00  0.00     0.059 A 
ATOM     76  C   UNL A   1      42.485  22.103  25.687  1.00  0.00     0.059 A 
ATOM     77  F   UNL A   1      42.817  24.376  25.223  1.00  0.00    -0.206 F 
ATOM     78  C   UNL A   1      42.326  21.081  26.622  1.00  0.00     0.060 A 
BRANCH  78  79
ATOM     79  S   UNL A   1      42.086  19.378  26.071  1.00  0.00     0.124 S 
ATOM     80  O   UNL A   1      40.657  19.363  25.778  1.00  0.00    -0.237 OA
ATOM     81  O   UNL A   1      42.975  19.295  24.917  1.00  0.00    -0.237 OA
ATOM     82  O   UNL A   1      42.502  18.591  27.228  1.00  0.00    -0.744 OA
ENDBRANCH  78  79
ENDBRANCH  46  71
BRANCH  58  83
ATOM     83  C   UNL A   1      48.223  27.794  28.481  1.00  0.00     0.058 A 
ATOM     84  C   UNL A   1      48.969  27.165  29.489  1.00  0.00     0.135 A 
ATOM     85  C   UNL A   1      48.882  28.136  27.290  1.00  0.00     0.135 A 
ATOM     86  F   UNL A   1      48.385  26.824  30.649  1.00  0.00    -0.206 F 
ATOM     87  C   UNL A   1      50.324  26.896  29.328  1.00  0.00     0.059 A 
ATOM     88  C   UNL A   1      50.232  27.859  27.099  1.00  0.00     0.059 A 
ATOM     89  F   UNL A   1      48.210  28.730  26.291  1.00  0.00    -0.206 F 
ATOM     90  C   UNL A   1      50.947  27.247  28.127  1.00  0.00     0.060 A 
BRANCH  90  91
ATOM     91  S   UNL A   1      52.696  26.854  27.908  1.00  0.00     0.124 S 
ATOM     92  O   UNL A   1      53.161  28.003  27.138  1.00  0.00    -0.237 OA
ATOM     93  O   UNL A   1      53.177  26.776  29.285  1.00  0.00    -0.237 OA
ATOM     94  O   UNL A   1      52.670  25.583  27.189  1.00  0.00    -0.744 OA
ENDBRANCH  90  91
ENDBRANCH  58  83
ENDBRANCH  32  33
ENDBRANCH  25  27
ENDBRANCH  24  25
ENDBRANCH  23  24
ENDBRANCH   1  23
TORSDOF 18
ENDMDL
MODEL 3
REMARK VINA RESULT:     -10.5      2.365      3.899
REMARK SMILES CO[C@H]1C[C@@H](C(=O)OCCOC(=O)c2ccc(-c3c4nc(c(-c5c(F)cc(S(=O)(=O)[O-])cc5F)c5ccc([nH]5)c(-c5c(F)cc(S(=O)(=O)[O-])cc5F)c5nc(c(-c6c(F)cc(S(=O)(=O)[O-])cc6F)c6ccc3[nH]6)C=C5)C=C4)cc2)N(C(=O)c2cc(SC)ccc2C)C1
REMARK SMILES IDX 9 1 8 2 6 3 7 4 5 5 3 6 4 7 92 8 80 9 2 10 1 11 81 12 82 13
REMARK SMILES IDX 83 14 84 15 90 16 85 17 89 18 91 19 88 20 86 21 87 22 10 23
REMARK SMILES IDX 11 24 12 25 13 26 14 27 15 28 79 29 16 30 78 31 17 32 18 33
REMARK SMILES IDX 19 34 72 35 20 36 77 37 71 38 73 39 21 40 76 41 70 42 69 43
REMARK SMILES IDX 22 45 56 46 35 47 55 48 36 49 39 50 54 51 74 52 37 53 38 54
REMARK SMILES IDX 53 56 75 57 40 58 23 59 24 60 33 61 25 62 26 63 32 64 34 65
REMARK SMILES IDX 27 66 28 67 29 68 30 69 31 70 57 71 58 72 67 73 59 74 60 75
REMARK SMILES IDX 66 76 68 77 61 78 62 79 63 80 64 81 65 82 41 83 42 84 51 85
REMARK SMILES IDX 43 86 44 87 50 88 52 89 45 90 46 91 47 92 48 93 49 94
REMARK H PARENT 73 44 39 55
REMARK Flexibility Score: inf
ROOT
ATOM      1  C   UNL A   1      33.147  30.803  26.772  1.00  0.00     0.274 C 
ENDROOT
BRANCH   1   2
ATOM      2  O   UNL A   1      32.108  29.863  26.454  1.00  0.00    -0.461 OA
BRANCH   2   3
ATOM      3  C   UNL A   1      32.226  29.200  25.276  1.00  0.00     0.329 C 
ATOM      4  O   UNL A   1      32.806  29.651  24.296  1.00  0.00    -0.250 OA
BRANCH   3   5
ATOM      5  C   UNL A   1      31.609  27.791  25.343  1.00  0.00     0.198 C 
ATOM      6  C   UNL A   1      32.159  25.402  25.679  1.00  0.00     0.140 C 
ATOM      7  C   UNL A   1      32.497  26.816  26.154  1.00  0.00     0.071 C 
ATOM      8  C   UNL A   1      31.288  25.608  24.438  1.00  0.00     0.152 C 
ATOM      9  N   UNL A   1      31.330  27.032  24.114  1.00  0.00    -0.322 N 
BRANCH   6  10
ATOM     10  O   UNL A   1      33.312  24.648  25.293  1.00  0.00    -0.380 OA
ATOM     11  C   UNL A   1      33.172  23.863  24.119  1.00  0.00     0.195 C 
ENDBRANCH   6  10
BRANCH   9  12
ATOM     12  C   UNL A   1      30.702  27.407  22.929  1.00  0.00     0.254 C 
ATOM     13  O   UNL A   1      31.157  27.090  21.830  1.00  0.00    -0.269 OA
BRANCH  12  14
ATOM     14  C   UNL A   1      29.472  28.230  22.901  1.00  0.00     0.044 A 
ATOM     15  C   UNL A   1      29.629  29.585  22.570  1.00  0.00     0.029 A 
ATOM     16  C   UNL A   1      28.242  27.775  23.411  1.00  0.00    -0.038 A 
ATOM     17  C   UNL A   1      28.555  30.479  22.676  1.00  0.00     0.008 A 
ATOM     18  C   UNL A   1      27.157  28.660  23.457  1.00  0.00     0.005 A 
ATOM     19  C   UNL A   1      28.057  26.404  23.974  1.00  0.00     0.045 C 
ATOM     20  C   UNL A   1      27.311  29.993  23.080  1.00  0.00     0.015 A 
BRANCH  17  21
ATOM     21  S   UNL A   1      28.848  32.205  22.305  1.00  0.00    -0.130 SA
ATOM     22  C   UNL A   1      28.087  32.369  20.662  1.00  0.00     0.091 C 
ENDBRANCH  17  21
ENDBRANCH  12  14
ENDBRANCH   9  12
ENDBRANCH   3   5
ENDBRANCH   2   3
ENDBRANCH   1   2
BRANCH   1  23
ATOM     23  C   UNL A   1      33.956  30.211  27.928  1.00  0.00     0.275 C 
BRANCH  23  24
ATOM     24  O   UNL A   1      35.344  30.565  27.745  1.00  0.00    -0.458 OA
BRANCH  24  25
ATOM     25  C   UNL A   1      36.050  30.868  28.860  1.00  0.00     0.338 C 
ATOM     26  O   UNL A   1      35.671  31.522  29.821  1.00  0.00    -0.246 OA
BRANCH  25  27
ATOM     27  C   UNL A   1      37.390  30.263  28.754  1.00  0.00     0.060 A 
ATOM     28  C   UNL A   1      38.139  30.053  29.912  1.00  0.00     0.016 A 
ATOM     29  C   UNL A   1      37.936  29.954  27.511  1.00  0.00     0.016 A 
ATOM     30  C   UNL A   1      39.422  29.510  29.852  1.00  0.00     0.010 A 
ATOM     31  C   UNL A   1      39.225  29.408  27.445  1.00  0.00     0.010 A 
ATOM     32  C   UNL A   1      39.977  29.188  28.614  1.00  0.00    -0.014 A 
BRANCH  32  33
ATOM     33  C   UNL A   1      41.381  28.724  28.522  1.00  0.00     0.031 A 
ATOM     34  C   UNL A   1      42.485  29.728  28.671  1.00  0.00     0.074 A 
ATOM     35  C   UNL A   1      41.672  27.427  28.318  1.00  0.00     0.049 A 
ATOM     36  N   UNL A   1      43.754  29.613  28.384  1.00  0.00    -0.248 NA
ATOM     37  C   UNL A   1      42.103  31.039  29.218  1.00  0.00     0.031 C 
ATOM     38  C   UNL A   1      40.702  26.333  28.286  1.00  0.00     0.029 A 
ATOM     39  N   UNL A   1      42.878  26.813  28.085  1.00  0.00    -0.354 N 
ATOM     40  C   UNL A   1      44.318  30.848  28.675  1.00  0.00     0.074 A 
ATOM     41  C   UNL A   1      43.254  31.694  29.172  1.00  0.00     0.031 C 
ATOM     42  C   UNL A   1      41.348  25.184  28.023  1.00  0.00     0.029 A 
ATOM     43  C   UNL A   1      42.764  25.472  27.807  1.00  0.00     0.049 A 
ATOM     44  H   UNL A   1      43.740  27.288  28.113  1.00  0.00     0.167 HD
ATOM     45  C   UNL A   1      45.606  31.238  28.528  1.00  0.00     0.037 A 
ATOM     46  C   UNL A   1      43.689  24.591  27.375  1.00  0.00     0.037 A 
ATOM     47  C   UNL A   1      46.656  30.379  28.048  1.00  0.00     0.049 A 
ATOM     48  C   UNL A   1      45.097  25.066  27.127  1.00  0.00     0.074 A 
ATOM     49  C   UNL A   1      47.986  30.687  27.815  1.00  0.00     0.029 A 
ATOM     50  N   UNL A   1      46.496  29.036  27.741  1.00  0.00    -0.354 N 
ATOM     51  N   UNL A   1      45.608  26.262  27.306  1.00  0.00    -0.248 NA
ATOM     52  C   UNL A   1      46.049  24.080  26.597  1.00  0.00     0.031 C 
ATOM     53  C   UNL A   1      48.622  29.535  27.338  1.00  0.00     0.029 A 
ATOM     54  C   UNL A   1      47.699  28.501  27.311  1.00  0.00     0.049 A 
ATOM     55  H   UNL A   1      45.652  28.536  27.818  1.00  0.00     0.167 HD
ATOM     56  C   UNL A   1      46.943  26.167  26.927  1.00  0.00     0.074 A 
ATOM     57  C   UNL A   1      47.164  24.796  26.517  1.00  0.00     0.031 C 
ATOM     58  C   UNL A   1      47.899  27.129  26.917  1.00  0.00     0.037 A 
BRANCH  45  59
ATOM     59  C   UNL A   1      45.926  32.673  28.829  1.00  0.00     0.058 A 
ATOM     60  C   UNL A   1      45.819  33.678  27.857  1.00  0.00     0.135 A 
ATOM     61  C   UNL A   1      46.354  33.044  30.114  1.00  0.00     0.135 A 
ATOM     62  F   UNL A   1      45.437  33.373  26.607  1.00  0.00    -0.206 F 
ATOM     63  C   UNL A   1      46.153  35.000  28.140  1.00  0.00     0.059 A 
ATOM     64  C   UNL A   1      46.672  34.362  30.426  1.00  0.00     0.059 A 
ATOM     65  F   UNL A   1      46.477  32.119  31.078  1.00  0.00    -0.206 F 
ATOM     66  C   UNL A   1      46.586  35.330  29.425  1.00  0.00     0.060 A 
BRANCH  66  67
ATOM     67  S   UNL A   1      47.040  37.041  29.778  1.00  0.00     0.124 S 
ATOM     68  O   UNL A   1      45.856  37.516  30.486  1.00  0.00    -0.237 OA
ATOM     69  O   UNL A   1      48.244  36.888  30.589  1.00  0.00    -0.237 OA
ATOM     70  O   UNL A   1      47.252  37.616  28.453  1.00  0.00    -0.744 OA
ENDBRANCH  66  67
ENDBRANCH  45  59
BRANCH  46  71
ATOM     71  C   UNL A   1      43.300  23.185  27.086  1.00  0.00     0.058 A 
ATOM     72  C   UNL A   1      43.105  22.742  25.770  1.00  0.00     0.135 A 
ATOM     73  C   UNL A   1      43.110  22.256  28.121  1.00  0.00     0.135 A 
ATOM     74  F   UNL A   1      43.255  23.595  24.746  1.00  0.00    -0.206 F 
ATOM     75  C   UNL A   1      42.727  21.431  25.490  1.00  0.00     0.059 A 
ATOM     76  C   UNL A   1      42.755  20.935  27.866  1.00  0.00     0.059 A 
ATOM     77  F   UNL A   1      43.286  22.628  29.399  1.00  0.00    -0.206 F 
ATOM     78  C   UNL A   1      42.556  20.534  26.546  1.00  0.00     0.060 A 
BRANCH  78  79
ATOM     79  S   UNL A   1      42.111  18.822  26.177  1.00  0.00     0.124 S 
ATOM     80  O   UNL A   1      40.708  18.958  25.805  1.00  0.00    -0.237 OA
ATOM     81  O   UNL A   1      43.030  18.488  25.094  1.00  0.00    -0.237 OA
ATOM     82  O   UNL A   1      42.367  18.132  27.438  1.00  0.00    -0.744 OA
ENDBRANCH  78  79
ENDBRANCH  46  71
BRANCH  58  83
ATOM     83  C   UNL A   1      49.279  26.726  26.481  1.00  0.00     0.058 A 
ATOM     84  C   UNL A   1      50.213  26.204  27.389  1.00  0.00     0.135 A 
ATOM     85  C   UNL A   1      49.646  26.804  25.129  1.00  0.00     0.135 A 
ATOM     86  F   UNL A   1      49.910  26.115  28.693  1.00  0.00    -0.206 F 
ATOM     87  C   UNL A   1      51.473  25.788  26.972  1.00  0.00     0.059 A 
ATOM     88  C   UNL A   1      50.894  26.374  24.687  1.00  0.00     0.059 A 
ATOM     89  F   UNL A   1      48.784  27.286  24.220  1.00  0.00    -0.206 F 
ATOM     90  C   UNL A   1      51.804  25.876  25.618  1.00  0.00     0.060 A 
BRANCH  90  91
ATOM     91  S   UNL A   1      53.425  25.291  25.079  1.00  0.00     0.124 S 
ATOM     92  O   UNL A   1      53.462  25.759  23.697  1.00  0.00    -0.237 OA
ATOM     93  O   UNL A   1      54.330  25.969  26.003  1.00  0.00    -0.237 OA
ATOM     94  O   UNL A   1      53.337  23.844  25.250  1.00  0.00    -0.744 OA
ENDBRANCH  90  91
ENDBRANCH  58  83
ENDBRANCH  32  33
ENDBRANCH  25  27
ENDBRANCH  24  25
ENDBRANCH  23  24
ENDBRANCH   1  23
TORSDOF 18
ENDMDL
