MODEL 1
REMARK VINA RESULT:     -13.1      0.000      0.000
REMARK SMILES Cn1cc(/C=C2\SC(=S)N(c3cccc(C(=O)OCCOC(=O)c4ccc(-c5c6nc(c(-c7c(F)cc(S(=O)(=O)[O-])cc7F)c7ccc([nH]7)c(-c7c(F)cc(S(=O)(=O)[O-])cc7F)c7nc(c(-c8c(F)cc(S(=O)(=O)[O-])cc8F)c8ccc5[nH]8)C=C7)C=C6)cc4)c3)C2=O)c2ccccc21
REMARK SMILES IDX 20 1 19 2 18 3 16 4 17 5 15 6 11 7 12 8 90 9 13 10 14 11
REMARK SMILES IDX 10 12 5 13 6 14 7 15 91 16 8 17 92 18 9 19 4 20 1 21 2 22
REMARK SMILES IDX 3 23 98 24 93 25 97 26 94 27 96 28 95 29 21 30 22 31 23 32
REMARK SMILES IDX 24 33 25 34 89 35 26 36 88 37 27 38 28 39 29 40 82 41 30 42
REMARK SMILES IDX 87 43 81 44 83 45 31 46 86 47 80 48 79 49 32 51 66 52 45 53
REMARK SMILES IDX 65 54 46 55 49 56 64 57 84 58 47 59 48 60 63 62 85 63 50 64
REMARK SMILES IDX 33 65 34 66 43 67 35 68 36 69 42 70 44 71 37 72 38 73 39 74
REMARK SMILES IDX 40 75 41 76 67 77 68 78 77 79 69 80 70 81 76 82 78 83 71 84
REMARK SMILES IDX 72 85 73 86 74 87 75 88 51 89 52 90 61 91 53 92 54 93 60 94
REMARK SMILES IDX 62 95 55 96 56 97 57 98 58 99 59 100
REMARK H PARENT 83 50 49 61
REMARK Flexibility Score: inf
ROOT
ATOM      1  C   UNL A   1      40.383  22.444  27.251  1.00  0.00     0.275 C 
ENDROOT
BRANCH   1   2
ATOM      2  C   UNL A   1      40.117  21.295  26.278  1.00  0.00     0.275 C 
BRANCH   2   3
ATOM      3  O   UNL A   1      38.771  21.354  25.766  1.00  0.00    -0.458 OA
BRANCH   3   4
ATOM      4  C   UNL A   1      38.263  20.195  25.279  1.00  0.00     0.338 C 
ATOM      5  O   UNL A   1      38.879  19.159  25.083  1.00  0.00    -0.246 OA
BRANCH   4   6
ATOM      6  C   UNL A   1      36.793  20.309  25.107  1.00  0.00     0.062 A 
ATOM      7  C   UNL A   1      34.710  21.557  25.249  1.00  0.00     0.051 A 
ATOM      8  C   UNL A   1      34.002  20.381  24.967  1.00  0.00     0.027 A 
ATOM      9  C   UNL A   1      36.107  21.501  25.365  1.00  0.00     0.042 A 
ATOM     10  C   UNL A   1      34.685  19.200  24.672  1.00  0.00     0.003 A 
ATOM     11  C   UNL A   1      36.078  19.177  24.698  1.00  0.00     0.016 A 
BRANCH   7  12
ATOM     12  N   UNL A   1      34.020  22.801  25.363  1.00  0.00    -0.261 N 
ATOM     13  C   UNL A   1      33.348  26.097  23.995  1.00  0.00     0.031 C 
ATOM     14  C   UNL A   1      33.386  24.992  24.754  1.00  0.00     0.081 C 
ATOM     15  S   UNL A   1      32.557  24.740  26.239  1.00  0.00    -0.054 SA
ATOM     16  C   UNL A   1      34.168  23.782  24.384  1.00  0.00     0.270 C 
ATOM     17  C   UNL A   1      33.244  23.140  26.465  1.00  0.00     0.152 C 
ATOM     18  O   UNL A   1      34.816  23.717  23.347  1.00  0.00    -0.268 OA
ATOM     19  S   UNL A   1      33.000  22.328  27.910  1.00  0.00    -0.051 S 
BRANCH  13  20
ATOM     20  C   UNL A   1      32.649  27.296  24.327  1.00  0.00     0.001 A 
ATOM     21  C   UNL A   1      30.124  29.802  23.702  1.00  0.00     0.149 C 
ATOM     22  N   UNL A   1      31.198  28.966  24.188  1.00  0.00    -0.350 N 
ATOM     23  C   UNL A   1      31.542  27.756  23.650  1.00  0.00     0.094 A 
ATOM     24  C   UNL A   1      32.044  29.285  25.232  1.00  0.00     0.048 A 
ATOM     25  C   UNL A   1      32.962  28.234  25.351  1.00  0.00     0.007 A 
ATOM     26  C   UNL A   1      32.088  30.410  26.071  1.00  0.00     0.027 A 
ATOM     27  C   UNL A   1      33.957  28.311  26.347  1.00  0.00     0.011 A 
ATOM     28  C   UNL A   1      33.085  30.462  27.049  1.00  0.00     0.002 A 
ATOM     29  C   UNL A   1      34.007  29.428  27.188  1.00  0.00     0.001 A 
ENDBRANCH  13  20
ENDBRANCH   7  12
ENDBRANCH   4   6
ENDBRANCH   3   4
ENDBRANCH   2   3
ENDBRANCH   1   2
BRANCH   1  30
ATOM     30  O   UNL A   1      40.159  23.712  26.605  1.00  0.00    -0.458 OA
BRANCH  30  31
ATOM     31  C   UNL A   1      41.172  24.604  26.701  1.00  0.00     0.338 C 
ATOM     32  O   UNL A   1      42.194  24.641  26.040  1.00  0.00    -0.246 OA
BRANCH  31  33
ATOM     33  C   UNL A   1      40.800  25.656  27.660  1.00  0.00     0.060 A 
ATOM     34  C   UNL A   1      41.704  26.699  27.842  1.00  0.00     0.016 A 
ATOM     35  C   UNL A   1      39.656  25.571  28.453  1.00  0.00     0.016 A 
ATOM     36  C   UNL A   1      41.484  27.663  28.820  1.00  0.00     0.010 A 
ATOM     37  C   UNL A   1      39.425  26.553  29.431  1.00  0.00     0.010 A 
ATOM     38  C   UNL A   1      40.347  27.597  29.637  1.00  0.00    -0.014 A 
BRANCH  38  39
ATOM     39  C   UNL A   1      40.201  28.579  30.748  1.00  0.00     0.031 A 
ATOM     40  C   UNL A   1      41.135  28.527  31.931  1.00  0.00     0.074 A 
ATOM     41  C   UNL A   1      39.287  29.568  30.664  1.00  0.00     0.049 A 
ATOM     42  N   UNL A   1      41.162  29.287  32.998  1.00  0.00    -0.248 NA
ATOM     43  C   UNL A   1      42.172  27.485  31.915  1.00  0.00     0.031 C 
ATOM     44  C   UNL A   1      38.343  29.756  29.562  1.00  0.00     0.029 A 
ATOM     45  N   UNL A   1      39.018  30.616  31.511  1.00  0.00    -0.354 N 
ATOM     46  C   UNL A   1      42.186  28.790  33.796  1.00  0.00     0.074 A 
ATOM     47  C   UNL A   1      42.755  27.660  33.094  1.00  0.00     0.031 C 
ATOM     48  C   UNL A   1      37.625  30.869  29.781  1.00  0.00     0.029 A 
ATOM     49  C   UNL A   1      38.019  31.450  31.063  1.00  0.00     0.049 A 
ATOM     50  H   UNL A   1      39.496  30.758  32.361  1.00  0.00     0.167 HD
ATOM     51  C   UNL A   1      42.616  29.234  35.001  1.00  0.00     0.037 A 
ATOM     52  C   UNL A   1      37.474  32.547  31.623  1.00  0.00     0.037 A 
ATOM     53  C   UNL A   1      42.094  30.396  35.675  1.00  0.00     0.049 A 
ATOM     54  C   UNL A   1      37.975  33.019  32.963  1.00  0.00     0.074 A 
ATOM     55  C   UNL A   1      42.499  30.946  36.881  1.00  0.00     0.029 A 
ATOM     56  N   UNL A   1      41.065  31.195  35.201  1.00  0.00    -0.354 N 
ATOM     57  N   UNL A   1      38.938  32.529  33.705  1.00  0.00    -0.248 NA
ATOM     58  C   UNL A   1      37.304  34.192  33.545  1.00  0.00     0.031 C 
ATOM     59  C   UNL A   1      41.691  32.057  37.152  1.00  0.00     0.029 A 
ATOM     60  C   UNL A   1      40.810  32.221  36.098  1.00  0.00     0.049 A 
ATOM     61  H   UNL A   1      40.585  31.054  34.354  1.00  0.00     0.167 HD
ATOM     62  C   UNL A   1      38.999  33.340  34.834  1.00  0.00     0.074 A 
ATOM     63  C   UNL A   1      37.993  34.369  34.663  1.00  0.00     0.031 C 
ATOM     64  C   UNL A   1      39.807  33.239  35.917  1.00  0.00     0.037 A 
BRANCH  51  65
ATOM     65  C   UNL A   1      43.694  28.451  35.697  1.00  0.00     0.058 A 
ATOM     66  C   UNL A   1      45.056  28.715  35.492  1.00  0.00     0.135 A 
ATOM     67  C   UNL A   1      43.351  27.464  36.636  1.00  0.00     0.135 A 
ATOM     68  F   UNL A   1      45.440  29.635  34.594  1.00  0.00    -0.206 F 
ATOM     69  C   UNL A   1      46.042  28.018  36.186  1.00  0.00     0.059 A 
ATOM     70  C   UNL A   1      44.318  26.772  37.357  1.00  0.00     0.059 A 
ATOM     71  F   UNL A   1      42.061  27.172  36.868  1.00  0.00    -0.206 F 
ATOM     72  C   UNL A   1      45.663  27.051  37.120  1.00  0.00     0.060 A 
BRANCH  72  73
ATOM     73  S   UNL A   1      46.951  26.179  38.038  1.00  0.00     0.124 S 
ATOM     74  O   UNL A   1      47.420  25.221  37.041  1.00  0.00    -0.237 OA
ATOM     75  O   UNL A   1      47.881  27.254  38.371  1.00  0.00    -0.237 OA
ATOM     76  O   UNL A   1      46.231  25.606  39.171  1.00  0.00    -0.744 OA
ENDBRANCH  72  73
ENDBRANCH  51  65
BRANCH  52  77
ATOM     77  C   UNL A   1      36.367  33.272  30.941  1.00  0.00     0.058 A 
ATOM     78  C   UNL A   1      36.609  34.067  29.810  1.00  0.00     0.135 A 
ATOM     79  C   UNL A   1      35.054  33.217  31.432  1.00  0.00     0.135 A 
ATOM     80  F   UNL A   1      37.851  34.162  29.310  1.00  0.00    -0.206 F 
ATOM     81  C   UNL A   1      35.595  34.805  29.207  1.00  0.00     0.059 A 
ATOM     82  C   UNL A   1      34.018  33.923  30.830  1.00  0.00     0.059 A 
ATOM     83  F   UNL A   1      34.767  32.465  32.505  1.00  0.00    -0.206 F 
ATOM     84  C   UNL A   1      34.302  34.729  29.728  1.00  0.00     0.060 A 
BRANCH  84  85
ATOM     85  S   UNL A   1      32.984  35.673  28.934  1.00  0.00     0.124 S 
ATOM     86  O   UNL A   1      32.363  34.657  28.091  1.00  0.00    -0.237 OA
ATOM     87  O   UNL A   1      32.194  36.126  30.075  1.00  0.00    -0.237 OA
ATOM     88  O   UNL A   1      33.707  36.726  28.227  1.00  0.00    -0.744 OA
ENDBRANCH  84  85
ENDBRANCH  52  77
BRANCH  64  89
ATOM     89  C   UNL A   1      39.650  34.284  36.986  1.00  0.00     0.058 A 
ATOM     90  C   UNL A   1      40.244  35.552  36.868  1.00  0.00     0.135 A 
ATOM     91  C   UNL A   1      38.904  34.016  38.144  1.00  0.00     0.135 A 
ATOM     92  F   UNL A   1      40.971  35.858  35.781  1.00  0.00    -0.206 F 
ATOM     93  C   UNL A   1      40.139  36.500  37.880  1.00  0.00     0.059 A 
ATOM     94  C   UNL A   1      38.764  34.959  39.158  1.00  0.00     0.059 A 
ATOM     95  F   UNL A   1      38.303  32.825  38.301  1.00  0.00    -0.206 F 
ATOM     96  C   UNL A   1      39.405  36.191  39.026  1.00  0.00     0.060 A 
BRANCH  96  97
ATOM     97  S   UNL A   1      39.287  37.419  40.343  1.00  0.00     0.124 S 
ATOM     98  O   UNL A   1      38.327  38.362  39.779  1.00  0.00    -0.237 OA
ATOM     99  O   UNL A   1      38.809  36.628  41.473  1.00  0.00    -0.237 OA
ATOM    100  O   UNL A   1      40.655  37.913  40.469  1.00  0.00    -0.744 OA
ENDBRANCH  96  97
ENDBRANCH  64  89
ENDBRANCH  38  39
ENDBRANCH  31  33
ENDBRANCH  30  31
ENDBRANCH   1  30
TORSDOF 16
ENDMDL
MODEL 2
REMARK VINA RESULT:     -12.7      1.038      1.625
REMARK SMILES Cn1cc(/C=C2\SC(=S)N(c3cccc(C(=O)OCCOC(=O)c4ccc(-c5c6nc(c(-c7c(F)cc(S(=O)(=O)[O-])cc7F)c7ccc([nH]7)c(-c7c(F)cc(S(=O)(=O)[O-])cc7F)c7nc(c(-c8c(F)cc(S(=O)(=O)[O-])cc8F)c8ccc5[nH]8)C=C7)C=C6)cc4)c3)C2=O)c2ccccc21
REMARK SMILES IDX 20 1 19 2 18 3 16 4 17 5 15 6 11 7 12 8 90 9 13 10 14 11
REMARK SMILES IDX 10 12 5 13 6 14 7 15 91 16 8 17 92 18 9 19 4 20 1 21 2 22
REMARK SMILES IDX 3 23 98 24 93 25 97 26 94 27 96 28 95 29 21 30 22 31 23 32
REMARK SMILES IDX 24 33 25 34 89 35 26 36 88 37 27 38 28 39 29 40 82 41 30 42
REMARK SMILES IDX 87 43 81 44 83 45 31 46 86 47 80 48 79 49 32 51 66 52 45 53
REMARK SMILES IDX 65 54 46 55 49 56 64 57 84 58 47 59 48 60 63 62 85 63 50 64
REMARK SMILES IDX 33 65 34 66 43 67 35 68 36 69 42 70 44 71 37 72 38 73 39 74
REMARK SMILES IDX 40 75 41 76 67 77 68 78 77 79 69 80 70 81 76 82 78 83 71 84
REMARK SMILES IDX 72 85 73 86 74 87 75 88 51 89 52 90 61 91 53 92 54 93 60 94
REMARK SMILES IDX 62 95 55 96 56 97 57 98 58 99 59 100
REMARK H PARENT 83 50 49 61
REMARK Flexibility Score: inf
ROOT
ATOM      1  C   UNL A   1      42.915  22.861  25.795  1.00  0.00     0.275 C 
ENDROOT
BRANCH   1   2
ATOM      2  C   UNL A   1      42.287  21.471  25.892  1.00  0.00     0.275 C 
BRANCH   2   3
ATOM      3  O   UNL A   1      40.914  21.494  25.454  1.00  0.00    -0.458 OA
BRANCH   3   4
ATOM      4  C   UNL A   1      39.973  21.401  26.427  1.00  0.00     0.338 C 
ATOM      5  O   UNL A   1      40.144  21.585  27.621  1.00  0.00    -0.246 OA
BRANCH   4   6
ATOM      6  C   UNL A   1      38.639  21.141  25.828  1.00  0.00     0.062 A 
ATOM      7  C   UNL A   1      36.340  21.781  25.361  1.00  0.00     0.051 A 
ATOM      8  C   UNL A   1      36.095  20.490  24.870  1.00  0.00     0.027 A 
ATOM      9  C   UNL A   1      37.605  22.082  25.885  1.00  0.00     0.042 A 
ATOM     10  C   UNL A   1      37.133  19.562  24.778  1.00  0.00     0.003 A 
ATOM     11  C   UNL A   1      38.412  19.904  25.214  1.00  0.00     0.016 A 
BRANCH   7  12
ATOM     12  N   UNL A   1      35.328  22.784  25.279  1.00  0.00    -0.261 N 
ATOM     13  C   UNL A   1      33.968  25.663  23.534  1.00  0.00     0.031 C 
ATOM     14  C   UNL A   1      34.206  24.663  24.396  1.00  0.00     0.081 C 
ATOM     15  S   UNL A   1      33.291  24.283  25.801  1.00  0.00    -0.054 SA
ATOM     16  C   UNL A   1      35.329  23.703  24.232  1.00  0.00     0.270 C 
ATOM     17  C   UNL A   1      34.352  22.960  26.254  1.00  0.00     0.152 C 
ATOM     18  O   UNL A   1      36.100  23.757  23.281  1.00  0.00    -0.268 OA
ATOM     19  S   UNL A   1      34.153  22.204  27.736  1.00  0.00    -0.051 S 
BRANCH  13  20
ATOM     20  C   UNL A   1      32.932  26.635  23.671  1.00  0.00     0.001 A 
ATOM     21  C   UNL A   1      29.869  28.216  22.593  1.00  0.00     0.149 C 
ATOM     22  N   UNL A   1      31.087  27.786  23.241  1.00  0.00    -0.350 N 
ATOM     23  C   UNL A   1      31.805  26.677  22.881  1.00  0.00     0.094 A 
ATOM     24  C   UNL A   1      31.711  28.445  24.280  1.00  0.00     0.048 A 
ATOM     25  C   UNL A   1      32.874  27.726  24.582  1.00  0.00     0.007 A 
ATOM     26  C   UNL A   1      31.359  29.617  24.969  1.00  0.00     0.027 A 
ATOM     27  C   UNL A   1      33.713  28.195  25.614  1.00  0.00     0.011 A 
ATOM     28  C   UNL A   1      32.210  30.061  25.986  1.00  0.00     0.002 A 
ATOM     29  C   UNL A   1      33.369  29.361  26.308  1.00  0.00     0.001 A 
ENDBRANCH  13  20
ENDBRANCH   7  12
ENDBRANCH   4   6
ENDBRANCH   3   4
ENDBRANCH   2   3
ENDBRANCH   1   2
BRANCH   1  30
ATOM     30  O   UNL A   1      41.918  23.879  26.005  1.00  0.00    -0.458 OA
BRANCH  30  31
ATOM     31  C   UNL A   1      42.318  25.149  25.764  1.00  0.00     0.338 C 
ATOM     32  O   UNL A   1      42.886  25.573  24.774  1.00  0.00    -0.246 OA
BRANCH  31  33
ATOM     33  C   UNL A   1      41.834  26.022  26.845  1.00  0.00     0.060 A 
ATOM     34  C   UNL A   1      42.425  27.277  26.962  1.00  0.00     0.016 A 
ATOM     35  C   UNL A   1      40.913  25.587  27.798  1.00  0.00     0.016 A 
ATOM     36  C   UNL A   1      42.112  28.109  28.032  1.00  0.00     0.010 A 
ATOM     37  C   UNL A   1      40.586  26.433  28.871  1.00  0.00     0.010 A 
ATOM     38  C   UNL A   1      41.198  27.694  29.009  1.00  0.00    -0.014 A 
BRANCH  38  39
ATOM     39  C   UNL A   1      40.973  28.561  30.199  1.00  0.00     0.031 A 
ATOM     40  C   UNL A   1      41.909  28.484  31.379  1.00  0.00     0.074 A 
ATOM     41  C   UNL A   1      39.981  29.476  30.196  1.00  0.00     0.049 A 
ATOM     42  N   UNL A   1      41.875  29.149  32.507  1.00  0.00    -0.248 NA
ATOM     43  C   UNL A   1      43.028  27.535  31.280  1.00  0.00     0.031 C 
ATOM     44  C   UNL A   1      39.023  29.680  29.108  1.00  0.00     0.029 A 
ATOM     45  N   UNL A   1      39.628  30.421  31.128  1.00  0.00    -0.354 N 
ATOM     46  C   UNL A   1      42.937  28.670  33.266  1.00  0.00     0.074 A 
ATOM     47  C   UNL A   1      43.596  27.655  32.472  1.00  0.00     0.031 C 
ATOM     48  C   UNL A   1      38.216  30.708  29.418  1.00  0.00     0.029 A 
ATOM     49  C   UNL A   1      38.564  31.206  30.747  1.00  0.00     0.049 A 
ATOM     50  H   UNL A   1      40.093  30.527  31.989  1.00  0.00     0.167 HD
ATOM     51  C   UNL A   1      43.330  29.042  34.508  1.00  0.00     0.037 A 
ATOM     52  C   UNL A   1      37.931  32.202  31.397  1.00  0.00     0.037 A 
ATOM     53  C   UNL A   1      42.716  30.095  35.276  1.00  0.00     0.049 A 
ATOM     54  C   UNL A   1      38.393  32.597  32.775  1.00  0.00     0.074 A 
ATOM     55  C   UNL A   1      43.076  30.570  36.527  1.00  0.00     0.029 A 
ATOM     56  N   UNL A   1      41.624  30.844  34.866  1.00  0.00    -0.354 N 
ATOM     57  N   UNL A   1      39.394  32.124  33.478  1.00  0.00    -0.248 NA
ATOM     58  C   UNL A   1      37.629  33.656  33.452  1.00  0.00     0.031 C 
ATOM     59  C   UNL A   1      42.181  31.583  36.888  1.00  0.00     0.029 A 
ATOM     60  C   UNL A   1      41.288  31.765  35.846  1.00  0.00     0.049 A 
ATOM     61  H   UNL A   1      41.157  30.739  34.007  1.00  0.00     0.167 HD
ATOM     62  C   UNL A   1      39.389  32.838  34.672  1.00  0.00     0.074 A 
ATOM     63  C   UNL A   1      38.303  33.791  34.586  1.00  0.00     0.031 C 
ATOM     64  C   UNL A   1      40.204  32.710  35.748  1.00  0.00     0.037 A 
BRANCH  51  65
ATOM     65  C   UNL A   1      44.470  28.292  35.139  1.00  0.00     0.058 A 
ATOM     66  C   UNL A   1      45.800  28.725  35.028  1.00  0.00     0.135 A 
ATOM     67  C   UNL A   1      44.214  27.157  35.926  1.00  0.00     0.135 A 
ATOM     68  F   UNL A   1      46.102  29.793  34.274  1.00  0.00    -0.206 F 
ATOM     69  C   UNL A   1      46.838  28.051  35.666  1.00  0.00     0.059 A 
ATOM     70  C   UNL A   1      45.232  26.482  36.591  1.00  0.00     0.059 A 
ATOM     71  F   UNL A   1      42.959  26.700  36.064  1.00  0.00    -0.206 F 
ATOM     72  C   UNL A   1      46.544  26.932  36.448  1.00  0.00     0.060 A 
BRANCH  72  73
ATOM     73  S   UNL A   1      47.895  26.088  37.298  1.00  0.00     0.124 S 
ATOM     74  O   UNL A   1      47.165  25.266  38.259  1.00  0.00    -0.237 OA
ATOM     75  O   UNL A   1      48.546  25.364  36.211  1.00  0.00    -0.237 OA
ATOM     76  O   UNL A   1      48.672  27.183  37.871  1.00  0.00    -0.744 OA
ENDBRANCH  72  73
ENDBRANCH  51  65
BRANCH  52  77
ATOM     77  C   UNL A   1      36.768  32.891  30.773  1.00  0.00     0.058 A 
ATOM     78  C   UNL A   1      36.950  33.901  29.816  1.00  0.00     0.135 A 
ATOM     79  C   UNL A   1      35.453  32.581  31.153  1.00  0.00     0.135 A 
ATOM     80  F   UNL A   1      38.189  34.243  29.429  1.00  0.00    -0.206 F 
ATOM     81  C   UNL A   1      35.873  34.600  29.279  1.00  0.00     0.059 A 
ATOM     82  C   UNL A   1      34.359  33.245  30.609  1.00  0.00     0.059 A 
ATOM     83  F   UNL A   1      35.223  31.616  32.057  1.00  0.00    -0.206 F 
ATOM     84  C   UNL A   1      34.581  34.267  29.685  1.00  0.00     0.060 A 
BRANCH  84  85
ATOM     85  S   UNL A   1      33.183  35.162  28.975  1.00  0.00     0.124 S 
ATOM     86  O   UNL A   1      32.679  34.195  28.006  1.00  0.00    -0.237 OA
ATOM     87  O   UNL A   1      32.337  35.397  30.142  1.00  0.00    -0.237 OA
ATOM     88  O   UNL A   1      33.804  36.357  28.411  1.00  0.00    -0.744 OA
ENDBRANCH  84  85
ENDBRANCH  52  77
BRANCH  64  89
ATOM     89  C   UNL A   1      39.964  33.643  36.902  1.00  0.00     0.058 A 
ATOM     90  C   UNL A   1      39.034  33.341  37.910  1.00  0.00     0.135 A 
ATOM     91  C   UNL A   1      40.666  34.855  36.999  1.00  0.00     0.135 A 
ATOM     92  F   UNL A   1      38.333  32.197  37.862  1.00  0.00    -0.206 F 
ATOM     93  C   UNL A   1      38.777  34.228  38.951  1.00  0.00     0.059 A 
ATOM     94  C   UNL A   1      40.444  35.745  38.045  1.00  0.00     0.059 A 
ATOM     95  F   UNL A   1      41.577  35.185  36.069  1.00  0.00    -0.206 F 
ATOM     96  C   UNL A   1      39.480  35.432  39.004  1.00  0.00     0.060 A 
BRANCH  96  97
ATOM     97  S   UNL A   1      39.131  36.587  40.347  1.00  0.00     0.124 S 
ATOM     98  O   UNL A   1      40.458  36.779  40.921  1.00  0.00    -0.237 OA
ATOM     99  O   UNL A   1      38.573  37.736  39.641  1.00  0.00    -0.237 OA
ATOM    100  O   UNL A   1      38.183  35.855  41.184  1.00  0.00    -0.744 OA
ENDBRANCH  96  97
ENDBRANCH  64  89
ENDBRANCH  38  39
ENDBRANCH  31  33
ENDBRANCH  30  31
ENDBRANCH   1  30
TORSDOF 16
ENDMDL
MODEL 3
REMARK VINA RESULT:     -12.5      5.163      6.696
REMARK SMILES Cn1cc(/C=C2\SC(=S)N(c3cccc(C(=O)OCCOC(=O)c4ccc(-c5c6nc(c(-c7c(F)cc(S(=O)(=O)[O-])cc7F)c7ccc([nH]7)c(-c7c(F)cc(S(=O)(=O)[O-])cc7F)c7nc(c(-c8c(F)cc(S(=O)(=O)[O-])cc8F)c8ccc5[nH]8)C=C7)C=C6)cc4)c3)C2=O)c2ccccc21
REMARK SMILES IDX 20 1 19 2 18 3 16 4 17 5 15 6 11 7 12 8 90 9 13 10 14 11
REMARK SMILES IDX 10 12 5 13 6 14 7 15 91 16 8 17 92 18 9 19 4 20 1 21 2 22
REMARK SMILES IDX 3 23 98 24 93 25 97 26 94 27 96 28 95 29 21 30 22 31 23 32
REMARK SMILES IDX 24 33 25 34 89 35 26 36 88 37 27 38 28 39 29 40 82 41 30 42
REMARK SMILES IDX 87 43 81 44 83 45 31 46 86 47 80 48 79 49 32 51 66 52 45 53
REMARK SMILES IDX 65 54 46 55 49 56 64 57 84 58 47 59 48 60 63 62 85 63 50 64
REMARK SMILES IDX 33 65 34 66 43 67 35 68 36 69 42 70 44 71 37 72 38 73 39 74
REMARK SMILES IDX 40 75 41 76 67 77 68 78 77 79 69 80 70 81 76 82 78 83 71 84
REMARK SMILES IDX 72 85 73 86 74 87 75 88 51 89 52 90 61 91 53 92 54 93 60 94
REMARK SMILES IDX 62 95 55 96 56 97 57 98 58 99 59 100
REMARK H PARENT 83 50 49 61
REMARK Flexibility Score: inf
ROOT
ATOM      1  C   UNL A   1      37.403  21.851  24.738  1.00  0.00     0.275 C 
ENDROOT
BRANCH   1   2
ATOM      2  C   UNL A   1      36.708  20.507  24.956  1.00  0.00     0.275 C 
BRANCH   2   3
ATOM      3  O   UNL A   1      35.373  20.693  25.466  1.00  0.00    -0.458 OA
BRANCH   3   4
ATOM      4  C   UNL A   1      34.372  20.131  24.743  1.00  0.00     0.338 C 
ATOM      5  O   UNL A   1      34.153  18.937  24.613  1.00  0.00    -0.246 OA
BRANCH   4   6
ATOM      6  C   UNL A   1      33.479  21.184  24.196  1.00  0.00     0.062 A 
ATOM      7  C   UNL A   1      32.642  23.466  24.142  1.00  0.00     0.051 A 
ATOM      8  C   UNL A   1      31.620  23.055  23.273  1.00  0.00     0.027 A 
ATOM      9  C   UNL A   1      33.539  22.509  24.638  1.00  0.00     0.042 A 
ATOM     10  C   UNL A   1      31.580  21.742  22.802  1.00  0.00     0.003 A 
ATOM     11  C   UNL A   1      32.535  20.821  23.228  1.00  0.00     0.016 A 
BRANCH   7  12
ATOM     12  N   UNL A   1      32.792  24.846  24.471  1.00  0.00    -0.261 N 
ATOM     13  C   UNL A   1      32.565  27.465  26.976  1.00  0.00     0.031 C 
ATOM     14  C   UNL A   1      32.736  26.765  25.845  1.00  0.00     0.081 C 
ATOM     15  S   UNL A   1      33.202  27.391  24.314  1.00  0.00    -0.054 SA
ATOM     16  C   UNL A   1      32.553  25.291  25.770  1.00  0.00     0.270 C 
ATOM     17  C   UNL A   1      33.096  25.823  23.530  1.00  0.00     0.152 C 
ATOM     18  O   UNL A   1      32.251  24.621  26.750  1.00  0.00    -0.268 OA
ATOM     19  S   UNL A   1      33.246  25.714  21.865  1.00  0.00    -0.051 S 
BRANCH  13  20
ATOM     20  C   UNL A   1      32.685  28.883  27.089  1.00  0.00     0.001 A 
ATOM     21  C   UNL A   1      31.401  32.239  26.727  1.00  0.00     0.149 C 
ATOM     22  N   UNL A   1      32.158  31.033  26.971  1.00  0.00    -0.350 N 
ATOM     23  C   UNL A   1      31.655  29.765  26.851  1.00  0.00     0.094 A 
ATOM     24  C   UNL A   1      33.493  30.988  27.321  1.00  0.00     0.048 A 
ATOM     25  C   UNL A   1      33.846  29.637  27.419  1.00  0.00     0.007 A 
ATOM     26  C   UNL A   1      34.420  32.019  27.546  1.00  0.00     0.027 A 
ATOM     27  C   UNL A   1      35.174  29.306  27.757  1.00  0.00     0.011 A 
ATOM     28  C   UNL A   1      35.730  31.663  27.879  1.00  0.00     0.002 A 
ATOM     29  C   UNL A   1      36.104  30.326  27.985  1.00  0.00     0.001 A 
ENDBRANCH  13  20
ENDBRANCH   7  12
ENDBRANCH   4   6
ENDBRANCH   3   4
ENDBRANCH   2   3
ENDBRANCH   1   2
BRANCH   1  30
ATOM     30  O   UNL A   1      37.853  22.394  25.995  1.00  0.00    -0.458 OA
BRANCH  30  31
ATOM     31  C   UNL A   1      39.154  22.173  26.295  1.00  0.00     0.338 C 
ATOM     32  O   UNL A   1      39.834  21.210  25.989  1.00  0.00    -0.246 OA
BRANCH  31  33
ATOM     33  C   UNL A   1      39.707  23.367  26.954  1.00  0.00     0.060 A 
ATOM     34  C   UNL A   1      39.293  24.606  26.474  1.00  0.00     0.016 A 
ATOM     35  C   UNL A   1      40.696  23.286  27.934  1.00  0.00     0.016 A 
ATOM     36  C   UNL A   1      39.865  25.778  26.959  1.00  0.00     0.010 A 
ATOM     37  C   UNL A   1      41.263  24.470  28.435  1.00  0.00     0.010 A 
ATOM     38  C   UNL A   1      40.867  25.727  27.937  1.00  0.00    -0.014 A 
BRANCH  38  39
ATOM     39  C   UNL A   1      41.536  26.992  28.350  1.00  0.00     0.031 A 
ATOM     40  C   UNL A   1      42.995  27.212  28.039  1.00  0.00     0.074 A 
ATOM     41  C   UNL A   1      40.823  27.980  28.930  1.00  0.00     0.049 A 
ATOM     42  N   UNL A   1      43.756  28.240  28.323  1.00  0.00    -0.248 NA
ATOM     43  C   UNL A   1      43.692  26.136  27.318  1.00  0.00     0.031 C 
ATOM     44  C   UNL A   1      39.398  27.913  29.259  1.00  0.00     0.029 A 
ATOM     45  N   UNL A   1      41.194  29.242  29.326  1.00  0.00    -0.354 N 
ATOM     46  C   UNL A   1      45.025  27.918  27.855  1.00  0.00     0.074 A 
ATOM     47  C   UNL A   1      44.935  26.597  27.271  1.00  0.00     0.031 C 
ATOM     48  C   UNL A   1      39.008  29.092  29.771  1.00  0.00     0.029 A 
ATOM     49  C   UNL A   1      40.163  29.983  29.856  1.00  0.00     0.049 A 
ATOM     50  H   UNL A   1      42.113  29.584  29.239  1.00  0.00     0.167 HD
ATOM     51  C   UNL A   1      46.160  28.655  27.903  1.00  0.00     0.037 A 
ATOM     52  C   UNL A   1      40.150  31.230  30.365  1.00  0.00     0.037 A 
ATOM     53  C   UNL A   1      46.241  29.995  28.426  1.00  0.00     0.049 A 
ATOM     54  C   UNL A   1      41.427  32.027  30.402  1.00  0.00     0.074 A 
ATOM     55  C   UNL A   1      47.342  30.835  28.476  1.00  0.00     0.029 A 
ATOM     56  N   UNL A   1      45.181  30.698  28.979  1.00  0.00    -0.354 N 
ATOM     57  N   UNL A   1      42.618  31.700  29.962  1.00  0.00    -0.248 NA
ATOM     58  C   UNL A   1      41.358  33.362  31.016  1.00  0.00     0.031 C 
ATOM     59  C   UNL A   1      46.956  32.032  29.090  1.00  0.00     0.029 A 
ATOM     60  C   UNL A   1      45.607  31.953  29.388  1.00  0.00     0.049 A 
ATOM     61  H   UNL A   1      44.263  30.357  29.069  1.00  0.00     0.167 HD
ATOM     62  C   UNL A   1      43.436  32.793  30.233  1.00  0.00     0.074 A 
ATOM     63  C   UNL A   1      42.598  33.800  30.850  1.00  0.00     0.031 C 
ATOM     64  C   UNL A   1      44.762  32.947  30.000  1.00  0.00     0.037 A 
BRANCH  51  65
ATOM     65  C   UNL A   1      47.429  28.027  27.398  1.00  0.00     0.058 A 
ATOM     66  C   UNL A   1      47.836  28.140  26.061  1.00  0.00     0.135 A 
ATOM     67  C   UNL A   1      48.284  27.357  28.289  1.00  0.00     0.135 A 
ATOM     68  F   UNL A   1      47.049  28.755  25.164  1.00  0.00    -0.206 F 
ATOM     69  C   UNL A   1      49.042  27.600  25.621  1.00  0.00     0.059 A 
ATOM     70  C   UNL A   1      49.503  26.830  27.877  1.00  0.00     0.059 A 
ATOM     71  F   UNL A   1      47.941  27.219  29.580  1.00  0.00    -0.206 F 
ATOM     72  C   UNL A   1      49.871  26.950  26.538  1.00  0.00     0.060 A 
BRANCH  72  73
ATOM     73  S   UNL A   1      51.448  26.285  25.962  1.00  0.00     0.124 S 
ATOM     74  O   UNL A   1      51.275  26.342  24.513  1.00  0.00    -0.237 OA
ATOM     75  O   UNL A   1      52.410  27.228  26.523  1.00  0.00    -0.237 OA
ATOM     76  O   UNL A   1      51.482  24.944  26.538  1.00  0.00    -0.744 OA
ENDBRANCH  72  73
ENDBRANCH  51  65
BRANCH  52  77
ATOM     77  C   UNL A   1      38.892  31.809  30.912  1.00  0.00     0.058 A 
ATOM     78  C   UNL A   1      38.138  32.736  30.174  1.00  0.00     0.135 A 
ATOM     79  C   UNL A   1      38.441  31.478  32.199  1.00  0.00     0.135 A 
ATOM     80  F   UNL A   1      38.535  33.095  28.943  1.00  0.00    -0.206 F 
ATOM     81  C   UNL A   1      37.000  33.337  30.703  1.00  0.00     0.059 A 
ATOM     82  C   UNL A   1      37.290  32.043  32.739  1.00  0.00     0.059 A 
ATOM     83  F   UNL A   1      39.119  30.590  32.942  1.00  0.00    -0.206 F 
ATOM     84  C   UNL A   1      36.586  32.986  31.989  1.00  0.00     0.060 A 
BRANCH  84  85
ATOM     85  S   UNL A   1      35.099  33.752  32.668  1.00  0.00     0.124 S 
ATOM     86  O   UNL A   1      35.576  35.096  32.974  1.00  0.00    -0.237 OA
ATOM     87  O   UNL A   1      34.158  33.646  31.556  1.00  0.00    -0.237 OA
ATOM     88  O   UNL A   1      34.789  32.913  33.822  1.00  0.00    -0.744 OA
ENDBRANCH  84  85
ENDBRANCH  52  77
BRANCH  64  89
ATOM     89  C   UNL A   1      45.377  34.261  30.392  1.00  0.00     0.058 A 
ATOM     90  C   UNL A   1      45.428  35.344  29.499  1.00  0.00     0.135 A 
ATOM     91  C   UNL A   1      45.926  34.441  31.671  1.00  0.00     0.135 A 
ATOM     92  F   UNL A   1      44.920  35.224  28.262  1.00  0.00    -0.206 F 
ATOM     93  C   UNL A   1      46.041  36.544  29.847  1.00  0.00     0.059 A 
ATOM     94  C   UNL A   1      46.521  35.641  32.049  1.00  0.00     0.059 A 
ATOM     95  F   UNL A   1      45.891  33.442  32.569  1.00  0.00    -0.206 F 
ATOM     96  C   UNL A   1      46.594  36.679  31.121  1.00  0.00     0.060 A 
BRANCH  96  97
ATOM     97  S   UNL A   1      47.403  38.232  31.559  1.00  0.00     0.124 S 
ATOM     98  O   UNL A   1      46.628  38.647  32.724  1.00  0.00    -0.237 OA
ATOM     99  O   UNL A   1      48.774  37.810  31.828  1.00  0.00    -0.237 OA
ATOM    100  O   UNL A   1      47.231  39.052  30.364  1.00  0.00    -0.744 OA
ENDBRANCH  96  97
ENDBRANCH  64  89
ENDBRANCH  38  39
ENDBRANCH  31  33
ENDBRANCH  30  31
ENDBRANCH   1  30
TORSDOF 16
ENDMDL
