MODEL 1
REMARK VINA RESULT:     -11.0      0.000      0.000
REMARK SMILES CC(C)(C)OC(=O)N1CCC[C@](Cc2ccccc2)(C(=O)OCCOC(=O)c2ccc(-c3c4nc(c(-c5c(F)cc(S(=O)(=O)[O-])cc5F)c5ccc([nH]5)c(-c5c(F)cc(S(=O)(=O)[O-])cc5F)c5nc(c(-c6c(F)cc(S(=O)(=O)[O-])cc6F)c6ccc3[nH]6)C=C5)C=C4)cc2)C1
REMARK SMILES IDX 23 1 22 2 20 3 21 4 12 5 8 6 9 7 94 8 10 9 11 10 6 11 7 12
REMARK SMILES IDX 5 13 2 14 1 15 3 16 4 17 13 18 14 19 15 20 19 21 16 22 18 23
REMARK SMILES IDX 17 24 24 25 25 26 26 27 27 28 28 29 29 30 93 31 30 32 92 33
REMARK SMILES IDX 31 34 32 35 33 36 86 37 34 38 91 39 85 40 87 41 35 42 90 43
REMARK SMILES IDX 84 44 83 45 36 47 70 48 49 49 69 50 50 51 53 52 68 53 88 54
REMARK SMILES IDX 51 55 52 56 67 58 89 59 54 60 37 61 38 62 47 63 39 64 40 65
REMARK SMILES IDX 46 66 48 67 41 68 42 69 43 70 44 71 45 72 71 73 72 74 81 75
REMARK SMILES IDX 73 76 74 77 80 78 82 79 75 80 76 81 77 82 78 83 79 84 55 85
REMARK SMILES IDX 56 86 65 87 57 88 58 89 64 90 66 91 59 92 60 93 61 94 62 95
REMARK SMILES IDX 63 96
REMARK H PARENT 87 46 53 57
REMARK Flexibility Score: inf
ROOT
ATOM      1  C   UNL A   1      34.033  28.201  24.650  1.00  0.00     0.274 C 
ENDROOT
BRANCH   1   2
ATOM      2  O   UNL A   1      33.839  26.791  24.898  1.00  0.00    -0.462 OA
BRANCH   2   3
ATOM      3  C   UNL A   1      33.330  26.097  23.843  1.00  0.00     0.314 C 
ATOM      4  O   UNL A   1      33.688  26.290  22.686  1.00  0.00    -0.252 OA
BRANCH   3   5
ATOM      5  C   UNL A   1      32.279  25.042  24.244  1.00  0.00     0.090 C 
ATOM      6  N   UNL A   1      30.435  26.613  23.677  1.00  0.00    -0.307 N 
ATOM      7  C   UNL A   1      30.024  26.787  25.059  1.00  0.00     0.123 C 
ATOM      8  C   UNL A   1      31.034  25.316  23.349  1.00  0.00     0.142 C 
ATOM      9  C   UNL A   1      31.194  26.552  26.006  1.00  0.00     0.023 C 
ATOM     10  C   UNL A   1      31.871  25.207  25.730  1.00  0.00     0.023 C 
BRANCH   6  11
ATOM     11  C   UNL A   1      30.380  27.690  22.802  1.00  0.00     0.410 C 
ATOM     12  O   UNL A   1      30.673  27.585  21.615  1.00  0.00    -0.224 OA
BRANCH  11  13
ATOM     13  O   UNL A   1      30.029  28.850  23.413  1.00  0.00    -0.444 OA
BRANCH  13  14
ATOM     14  C   UNL A   1      28.978  29.704  22.872  1.00  0.00     0.106 C 
ATOM     15  C   UNL A   1      28.922  30.925  23.804  1.00  0.00     0.056 C 
ATOM     16  C   UNL A   1      27.637  28.967  22.934  1.00  0.00     0.056 C 
ATOM     17  C   UNL A   1      29.269  30.215  21.452  1.00  0.00     0.056 C 
ENDBRANCH  13  14
ENDBRANCH  11  13
ENDBRANCH   6  11
BRANCH   5  18
ATOM     18  C   UNL A   1      32.920  23.641  24.028  1.00  0.00     0.056 C 
BRANCH  18  19
ATOM     19  C   UNL A   1      34.379  23.416  24.366  1.00  0.00    -0.047 A 
ATOM     20  C   UNL A   1      34.825  23.557  25.687  1.00  0.00     0.004 A 
ATOM     21  C   UNL A   1      35.334  23.196  23.362  1.00  0.00     0.004 A 
ATOM     22  C   UNL A   1      36.182  23.438  26.000  1.00  0.00     0.000 A 
ATOM     23  C   UNL A   1      36.686  23.048  23.677  1.00  0.00     0.000 A 
ATOM     24  C   UNL A   1      37.111  23.168  24.998  1.00  0.00     0.000 A 
ENDBRANCH  18  19
ENDBRANCH   5  18
ENDBRANCH   3   5
ENDBRANCH   2   3
ENDBRANCH   1   2
BRANCH   1  25
ATOM     25  C   UNL A   1      33.470  29.085  25.765  1.00  0.00     0.275 C 
BRANCH  25  26
ATOM     26  O   UNL A   1      34.132  28.851  27.019  1.00  0.00    -0.458 OA
BRANCH  26  27
ATOM     27  C   UNL A   1      34.479  29.971  27.693  1.00  0.00     0.338 C 
ATOM     28  O   UNL A   1      33.755  30.907  27.991  1.00  0.00    -0.246 OA
BRANCH  27  29
ATOM     29  C   UNL A   1      35.881  29.898  28.128  1.00  0.00     0.060 A 
ATOM     30  C   UNL A   1      36.874  30.126  27.181  1.00  0.00     0.016 A 
ATOM     31  C   UNL A   1      36.218  29.410  29.387  1.00  0.00     0.016 A 
ATOM     32  C   UNL A   1      38.180  29.736  27.423  1.00  0.00     0.010 A 
ATOM     33  C   UNL A   1      37.562  29.156  29.683  1.00  0.00     0.010 A 
ATOM     34  C   UNL A   1      38.552  29.287  28.692  1.00  0.00    -0.014 A 
BRANCH  34  35
ATOM     35  C   UNL A   1      39.981  28.984  28.959  1.00  0.00     0.031 A 
ATOM     36  C   UNL A   1      40.889  30.040  29.523  1.00  0.00     0.074 A 
ATOM     37  C   UNL A   1      40.448  27.743  28.712  1.00  0.00     0.049 A 
ATOM     38  N   UNL A   1      42.189  30.019  29.657  1.00  0.00    -0.248 NA
ATOM     39  C   UNL A   1      40.259  31.285  29.990  1.00  0.00     0.031 C 
ATOM     40  C   UNL A   1      39.649  26.617  28.215  1.00  0.00     0.029 A 
ATOM     41  N   UNL A   1      41.706  27.212  28.845  1.00  0.00    -0.354 N 
ATOM     42  C   UNL A   1      42.540  31.263  30.169  1.00  0.00     0.074 A 
ATOM     43  C   UNL A   1      41.314  32.015  30.328  1.00  0.00     0.031 C 
ATOM     44  C   UNL A   1      40.425  25.530  28.111  1.00  0.00     0.029 A 
ATOM     45  C   UNL A   1      41.795  25.903  28.431  1.00  0.00     0.049 A 
ATOM     46  H   UNL A   1      42.471  27.719  29.203  1.00  0.00     0.167 HD
ATOM     47  C   UNL A   1      43.776  31.729  30.468  1.00  0.00     0.037 A 
ATOM     48  C   UNL A   1      42.867  25.108  28.260  1.00  0.00     0.037 A 
ATOM     49  C   UNL A   1      44.979  30.944  30.347  1.00  0.00     0.049 A 
ATOM     50  C   UNL A   1      44.229  25.664  28.557  1.00  0.00     0.074 A 
ATOM     51  C   UNL A   1      46.279  31.310  30.648  1.00  0.00     0.029 A 
ATOM     52  N   UNL A   1      45.028  29.633  29.896  1.00  0.00    -0.354 N 
ATOM     53  N   UNL A   1      44.550  26.855  29.001  1.00  0.00    -0.248 NA
ATOM     54  C   UNL A   1      45.374  24.779  28.310  1.00  0.00     0.031 C 
ATOM     55  C   UNL A   1      47.118  30.235  30.338  1.00  0.00     0.029 A 
ATOM     56  C   UNL A   1      46.337  29.182  29.887  1.00  0.00     0.049 A 
ATOM     57  H   UNL A   1      44.245  29.100  29.622  1.00  0.00     0.167 HD
ATOM     58  C   UNL A   1      45.935  26.863  29.093  1.00  0.00     0.074 A 
ATOM     59  C   UNL A   1      46.387  25.548  28.682  1.00  0.00     0.031 C 
ATOM     60  C   UNL A   1      46.760  27.868  29.473  1.00  0.00     0.037 A 
BRANCH  47  61
ATOM     61  C   UNL A   1      43.906  33.158  30.914  1.00  0.00     0.058 A 
ATOM     62  C   UNL A   1      43.979  33.516  32.268  1.00  0.00     0.135 A 
ATOM     63  C   UNL A   1      44.024  34.184  29.960  1.00  0.00     0.135 A 
ATOM     64  F   UNL A   1      43.854  32.580  33.223  1.00  0.00    -0.206 F 
ATOM     65  C   UNL A   1      44.154  34.840  32.663  1.00  0.00     0.059 A 
ATOM     66  C   UNL A   1      44.223  35.511  30.330  1.00  0.00     0.059 A 
ATOM     67  F   UNL A   1      43.957  33.898  28.650  1.00  0.00    -0.206 F 
ATOM     68  C   UNL A   1      44.279  35.831  31.685  1.00  0.00     0.060 A 
BRANCH  68  69
ATOM     69  S   UNL A   1      44.536  37.539  32.211  1.00  0.00     0.124 S 
ATOM     70  O   UNL A   1      43.389  37.751  33.088  1.00  0.00    -0.237 OA
ATOM     71  O   UNL A   1      45.835  37.470  32.872  1.00  0.00    -0.237 OA
ATOM     72  O   UNL A   1      44.515  38.288  30.958  1.00  0.00    -0.744 OA
ENDBRANCH  68  69
ENDBRANCH  47  61
BRANCH  48  73
ATOM     73  C   UNL A   1      42.693  23.736  27.710  1.00  0.00     0.058 A 
ATOM     74  C   UNL A   1      42.513  22.632  28.555  1.00  0.00     0.135 A 
ATOM     75  C   UNL A   1      42.688  23.507  26.324  1.00  0.00     0.135 A 
ATOM     76  F   UNL A   1      42.517  22.798  29.886  1.00  0.00    -0.206 F 
ATOM     77  C   UNL A   1      42.351  21.347  28.046  1.00  0.00     0.059 A 
ATOM     78  C   UNL A   1      42.496  22.239  25.792  1.00  0.00     0.059 A 
ATOM     79  F   UNL A   1      42.840  24.533  25.471  1.00  0.00    -0.206 F 
ATOM     80  C   UNL A   1      42.341  21.161  26.662  1.00  0.00     0.060 A 
BRANCH  80  81
ATOM     81  S   UNL A   1      42.090  19.497  26.008  1.00  0.00     0.124 S 
ATOM     82  O   UNL A   1      42.941  19.517  24.825  1.00  0.00    -0.237 OA
ATOM     83  O   UNL A   1      42.549  18.660  27.112  1.00  0.00    -0.237 OA
ATOM     84  O   UNL A   1      40.653  19.451  25.755  1.00  0.00    -0.744 OA
ENDBRANCH  80  81
ENDBRANCH  48  73
BRANCH  60  85
ATOM     85  C   UNL A   1      48.233  27.573  29.481  1.00  0.00     0.058 A 
ATOM     86  C   UNL A   1      49.038  27.836  28.362  1.00  0.00     0.135 A 
ATOM     87  C   UNL A   1      48.848  27.053  30.629  1.00  0.00     0.135 A 
ATOM     88  F   UNL A   1      48.493  28.322  27.235  1.00  0.00    -0.206 F 
ATOM     89  C   UNL A   1      50.404  27.573  28.375  1.00  0.00     0.059 A 
ATOM     90  C   UNL A   1      50.216  26.807  30.674  1.00  0.00     0.059 A 
ATOM     91  F   UNL A   1      48.120  26.791  31.727  1.00  0.00    -0.206 F 
ATOM     92  C   UNL A   1      50.982  27.059  29.536  1.00  0.00     0.060 A 
BRANCH  92  93
ATOM     93  S   UNL A   1      52.761  26.748  29.552  1.00  0.00     0.124 S 
ATOM     94  O   UNL A   1      52.901  25.912  30.738  1.00  0.00    -0.237 OA
ATOM     95  O   UNL A   1      52.971  26.076  28.273  1.00  0.00    -0.237 OA
ATOM     96  O   UNL A   1      53.338  28.085  29.654  1.00  0.00    -0.744 OA
ENDBRANCH  92  93
ENDBRANCH  60  85
ENDBRANCH  34  35
ENDBRANCH  27  29
ENDBRANCH  26  27
ENDBRANCH  25  26
ENDBRANCH   1  25
TORSDOF 19
ENDMDL
MODEL 2
REMARK VINA RESULT:     -10.9      5.397     10.877
REMARK SMILES CC(C)(C)OC(=O)N1CCC[C@](Cc2ccccc2)(C(=O)OCCOC(=O)c2ccc(-c3c4nc(c(-c5c(F)cc(S(=O)(=O)[O-])cc5F)c5ccc([nH]5)c(-c5c(F)cc(S(=O)(=O)[O-])cc5F)c5nc(c(-c6c(F)cc(S(=O)(=O)[O-])cc6F)c6ccc3[nH]6)C=C5)C=C4)cc2)C1
REMARK SMILES IDX 23 1 22 2 20 3 21 4 12 5 8 6 9 7 94 8 10 9 11 10 6 11 7 12
REMARK SMILES IDX 5 13 2 14 1 15 3 16 4 17 13 18 14 19 15 20 19 21 16 22 18 23
REMARK SMILES IDX 17 24 24 25 25 26 26 27 27 28 28 29 29 30 93 31 30 32 92 33
REMARK SMILES IDX 31 34 32 35 33 36 86 37 34 38 91 39 85 40 87 41 35 42 90 43
REMARK SMILES IDX 84 44 83 45 36 47 70 48 49 49 69 50 50 51 53 52 68 53 88 54
REMARK SMILES IDX 51 55 52 56 67 58 89 59 54 60 37 61 38 62 47 63 39 64 40 65
REMARK SMILES IDX 46 66 48 67 41 68 42 69 43 70 44 71 45 72 71 73 72 74 81 75
REMARK SMILES IDX 73 76 74 77 80 78 82 79 75 80 76 81 77 82 78 83 79 84 55 85
REMARK SMILES IDX 56 86 65 87 57 88 58 89 64 90 66 91 59 92 60 93 61 94 62 95
REMARK SMILES IDX 63 96
REMARK H PARENT 87 46 53 57
REMARK Flexibility Score: inf
ROOT
ATOM      1  C   UNL A   1      37.915  22.388  25.115  1.00  0.00     0.274 C 
ENDROOT
BRANCH   1   2
ATOM      2  O   UNL A   1      36.536  22.714  25.392  1.00  0.00    -0.462 OA
BRANCH   2   3
ATOM      3  C   UNL A   1      35.838  23.178  24.319  1.00  0.00     0.314 C 
ATOM      4  O   UNL A   1      36.277  23.139  23.174  1.00  0.00    -0.252 OA
BRANCH   3   5
ATOM      5  C   UNL A   1      34.447  23.739  24.680  1.00  0.00     0.090 C 
ATOM      6  N   UNL A   1      33.481  21.446  24.678  1.00  0.00    -0.307 N 
ATOM      7  C   UNL A   1      32.686  21.676  23.484  1.00  0.00     0.123 C 
ATOM      8  C   UNL A   1      33.738  22.627  25.508  1.00  0.00     0.142 C 
ATOM      9  C   UNL A   1      33.323  22.745  22.605  1.00  0.00     0.023 C 
ATOM     10  C   UNL A   1      33.616  24.018  23.403  1.00  0.00     0.023 C 
BRANCH   6  11
ATOM     11  C   UNL A   1      34.061  20.203  24.890  1.00  0.00     0.410 C 
ATOM     12  O   UNL A   1      35.272  20.022  24.805  1.00  0.00    -0.224 OA
BRANCH  11  13
ATOM     13  O   UNL A   1      33.148  19.229  25.137  1.00  0.00    -0.444 OA
BRANCH  13  14
ATOM     14  C   UNL A   1      33.239  17.925  24.490  1.00  0.00     0.106 C 
ATOM     15  C   UNL A   1      32.554  18.098  23.124  1.00  0.00     0.056 C 
ATOM     16  C   UNL A   1      32.461  16.892  25.310  1.00  0.00     0.056 C 
ATOM     17  C   UNL A   1      34.681  17.463  24.232  1.00  0.00     0.056 C 
ENDBRANCH  13  14
ENDBRANCH  11  13
ENDBRANCH   6  11
BRANCH   5  18
ATOM     18  C   UNL A   1      34.672  25.066  25.461  1.00  0.00     0.056 C 
BRANCH  18  19
ATOM     19  C   UNL A   1      33.568  26.101  25.528  1.00  0.00    -0.047 A 
ATOM     20  C   UNL A   1      32.396  25.835  26.250  1.00  0.00     0.004 A 
ATOM     21  C   UNL A   1      33.628  27.281  24.771  1.00  0.00     0.004 A 
ATOM     22  C   UNL A   1      31.335  26.743  26.249  1.00  0.00     0.000 A 
ATOM     23  C   UNL A   1      32.579  28.202  24.793  1.00  0.00     0.000 A 
ATOM     24  C   UNL A   1      31.431  27.934  25.534  1.00  0.00     0.000 A 
ENDBRANCH  18  19
ENDBRANCH   5  18
ENDBRANCH   3   5
ENDBRANCH   2   3
ENDBRANCH   1   2
BRANCH   1  25
ATOM     25  C   UNL A   1      38.863  22.796  26.246  1.00  0.00     0.275 C 
BRANCH  25  26
ATOM     26  O   UNL A   1      39.145  24.205  26.225  1.00  0.00    -0.458 OA
BRANCH  26  27
ATOM     27  C   UNL A   1      40.312  24.557  26.811  1.00  0.00     0.338 C 
ATOM     28  O   UNL A   1      41.417  24.089  26.592  1.00  0.00    -0.246 OA
BRANCH  27  29
ATOM     29  C   UNL A   1      40.109  25.689  27.727  1.00  0.00     0.060 A 
ATOM     30  C   UNL A   1      40.974  26.774  27.629  1.00  0.00     0.016 A 
ATOM     31  C   UNL A   1      39.224  25.596  28.797  1.00  0.00     0.016 A 
ATOM     32  C   UNL A   1      41.068  27.693  28.660  1.00  0.00     0.010 A 
ATOM     33  C   UNL A   1      39.217  26.607  29.766  1.00  0.00     0.010 A 
ATOM     34  C   UNL A   1      40.162  27.649  29.722  1.00  0.00    -0.014 A 
BRANCH  34  35
ATOM     35  C   UNL A   1      40.211  28.713  30.756  1.00  0.00     0.031 A 
ATOM     36  C   UNL A   1      41.189  28.623  31.895  1.00  0.00     0.074 A 
ATOM     37  C   UNL A   1      39.385  29.774  30.649  1.00  0.00     0.049 A 
ATOM     38  N   UNL A   1      41.260  29.354  32.976  1.00  0.00    -0.248 NA
ATOM     39  C   UNL A   1      42.214  27.570  31.814  1.00  0.00     0.031 C 
ATOM     40  C   UNL A   1      38.430  30.001  29.558  1.00  0.00     0.029 A 
ATOM     41  N   UNL A   1      39.212  30.865  31.462  1.00  0.00    -0.354 N 
ATOM     42  C   UNL A   1      42.297  28.817  33.730  1.00  0.00     0.074 A 
ATOM     43  C   UNL A   1      42.832  27.702  32.981  1.00  0.00     0.031 C 
ATOM     44  C   UNL A   1      37.795  31.164  29.756  1.00  0.00     0.029 A 
ATOM     45  C   UNL A   1      38.217  31.714  31.035  1.00  0.00     0.049 A 
ATOM     46  H   UNL A   1      39.748  31.026  32.272  1.00  0.00     0.167 HD
ATOM     47  C   UNL A   1      42.749  29.222  34.941  1.00  0.00     0.037 A 
ATOM     48  C   UNL A   1      37.655  32.780  31.635  1.00  0.00     0.037 A 
ATOM     49  C   UNL A   1      42.233  30.367  35.647  1.00  0.00     0.049 A 
ATOM     50  C   UNL A   1      38.145  33.180  32.995  1.00  0.00     0.074 A 
ATOM     51  C   UNL A   1      42.637  30.880  36.868  1.00  0.00     0.029 A 
ATOM     52  N   UNL A   1      41.206  31.182  35.193  1.00  0.00    -0.354 N 
ATOM     53  N   UNL A   1      39.099  32.639  33.716  1.00  0.00    -0.248 NA
ATOM     54  C   UNL A   1      37.472  34.317  33.635  1.00  0.00     0.031 C 
ATOM     55  C   UNL A   1      41.825  31.978  37.171  1.00  0.00     0.029 A 
ATOM     56  C   UNL A   1      40.946  32.179  36.119  1.00  0.00     0.049 A 
ATOM     57  H   UNL A   1      40.731  31.068  34.337  1.00  0.00     0.167 HD
ATOM     58  C   UNL A   1      39.145  33.374  34.893  1.00  0.00     0.074 A 
ATOM     59  C   UNL A   1      38.141  34.412  34.776  1.00  0.00     0.031 C 
ATOM     60  C   UNL A   1      39.939  33.200  35.978  1.00  0.00     0.037 A 
BRANCH  47  61
ATOM     61  C   UNL A   1      43.824  28.408  35.605  1.00  0.00     0.058 A 
ATOM     62  C   UNL A   1      43.532  27.354  36.483  1.00  0.00     0.135 A 
ATOM     63  C   UNL A   1      45.176  28.650  35.303  1.00  0.00     0.135 A 
ATOM     64  F   UNL A   1      42.259  27.090  36.822  1.00  0.00    -0.206 F 
ATOM     65  C   UNL A   1      44.538  26.576  37.047  1.00  0.00     0.059 A 
ATOM     66  C   UNL A   1      46.198  27.870  35.836  1.00  0.00     0.059 A 
ATOM     67  F   UNL A   1      45.513  29.649  34.472  1.00  0.00    -0.206 F 
ATOM     68  C   UNL A   1      45.870  26.839  36.714  1.00  0.00     0.060 A 
BRANCH  68  69
ATOM     69  S   UNL A   1      47.163  25.801  37.429  1.00  0.00     0.124 S 
ATOM     70  O   UNL A   1      48.201  25.881  36.406  1.00  0.00    -0.237 OA
ATOM     71  O   UNL A   1      47.456  26.486  38.683  1.00  0.00    -0.237 OA
ATOM     72  O   UNL A   1      46.518  24.499  37.566  1.00  0.00    -0.744 OA
ENDBRANCH  68  69
ENDBRANCH  47  61
BRANCH  48  73
ATOM     73  C   UNL A   1      36.519  33.485  30.983  1.00  0.00     0.058 A 
ATOM     74  C   UNL A   1      36.718  34.306  29.865  1.00  0.00     0.135 A 
ATOM     75  C   UNL A   1      35.206  33.336  31.460  1.00  0.00     0.135 A 
ATOM     76  F   UNL A   1      37.954  34.485  29.376  1.00  0.00    -0.206 F 
ATOM     77  C   UNL A   1      35.658  34.968  29.251  1.00  0.00     0.059 A 
ATOM     78  C   UNL A   1      34.128  33.961  30.846  1.00  0.00     0.059 A 
ATOM     79  F   UNL A   1      34.958  32.548  32.518  1.00  0.00    -0.206 F 
ATOM     80  C   UNL A   1      34.366  34.787  29.748  1.00  0.00     0.060 A 
BRANCH  80  81
ATOM     81  S   UNL A   1      32.991  35.618  28.924  1.00  0.00     0.124 S 
ATOM     82  O   UNL A   1      33.690  36.619  28.128  1.00  0.00    -0.237 OA
ATOM     83  O   UNL A   1      32.374  34.525  28.179  1.00  0.00    -0.237 OA
ATOM     84  O   UNL A   1      32.197  36.133  30.036  1.00  0.00    -0.744 OA
ENDBRANCH  80  81
ENDBRANCH  48  73
BRANCH  60  85
ATOM     85  C   UNL A   1      39.763  34.170  37.111  1.00  0.00     0.058 A 
ATOM     86  C   UNL A   1      38.939  33.874  38.206  1.00  0.00     0.135 A 
ATOM     87  C   UNL A   1      40.452  35.393  37.114  1.00  0.00     0.135 A 
ATOM     88  F   UNL A   1      38.249  32.723  38.243  1.00  0.00    -0.206 F 
ATOM     89  C   UNL A   1      38.786  34.769  39.260  1.00  0.00     0.059 A 
ATOM     90  C   UNL A   1      40.336  36.291  38.170  1.00  0.00     0.059 A 
ATOM     91  F   UNL A   1      41.259  35.718  36.090  1.00  0.00    -0.206 F 
ATOM     92  C   UNL A   1      39.490  35.974  39.232  1.00  0.00     0.060 A 
BRANCH  92  93
ATOM     93  S   UNL A   1      39.307  37.115  40.619  1.00  0.00     0.124 S 
ATOM     94  O   UNL A   1      38.818  36.226  41.666  1.00  0.00    -0.237 OA
ATOM     95  O   UNL A   1      40.667  37.615  40.794  1.00  0.00    -0.237 OA
ATOM     96  O   UNL A   1      38.343  38.095  40.127  1.00  0.00    -0.744 OA
ENDBRANCH  92  93
ENDBRANCH  60  85
ENDBRANCH  34  35
ENDBRANCH  27  29
ENDBRANCH  26  27
ENDBRANCH  25  26
ENDBRANCH   1  25
TORSDOF 19
ENDMDL
MODEL 3
REMARK VINA RESULT:     -10.8      0.924      3.987
REMARK SMILES CC(C)(C)OC(=O)N1CCC[C@](Cc2ccccc2)(C(=O)OCCOC(=O)c2ccc(-c3c4nc(c(-c5c(F)cc(S(=O)(=O)[O-])cc5F)c5ccc([nH]5)c(-c5c(F)cc(S(=O)(=O)[O-])cc5F)c5nc(c(-c6c(F)cc(S(=O)(=O)[O-])cc6F)c6ccc3[nH]6)C=C5)C=C4)cc2)C1
REMARK SMILES IDX 23 1 22 2 20 3 21 4 12 5 8 6 9 7 94 8 10 9 11 10 6 11 7 12
REMARK SMILES IDX 5 13 2 14 1 15 3 16 4 17 13 18 14 19 15 20 19 21 16 22 18 23
REMARK SMILES IDX 17 24 24 25 25 26 26 27 27 28 28 29 29 30 93 31 30 32 92 33
REMARK SMILES IDX 31 34 32 35 33 36 86 37 34 38 91 39 85 40 87 41 35 42 90 43
REMARK SMILES IDX 84 44 83 45 36 47 70 48 49 49 69 50 50 51 53 52 68 53 88 54
REMARK SMILES IDX 51 55 52 56 67 58 89 59 54 60 37 61 38 62 47 63 39 64 40 65
REMARK SMILES IDX 46 66 48 67 41 68 42 69 43 70 44 71 45 72 71 73 72 74 81 75
REMARK SMILES IDX 73 76 74 77 80 78 82 79 75 80 76 81 77 82 78 83 79 84 55 85
REMARK SMILES IDX 56 86 65 87 57 88 58 89 64 90 66 91 59 92 60 93 61 94 62 95
REMARK SMILES IDX 63 96
REMARK H PARENT 87 46 53 57
REMARK Flexibility Score: inf
ROOT
ATOM      1  C   UNL A   1      31.697  28.689  26.573  1.00  0.00     0.274 C 
ENDROOT
BRANCH   1   2
ATOM      2  O   UNL A   1      31.969  28.085  25.290  1.00  0.00    -0.462 OA
BRANCH   2   3
ATOM      3  C   UNL A   1      30.981  27.270  24.827  1.00  0.00     0.314 C 
ATOM      4  O   UNL A   1      30.419  26.440  25.534  1.00  0.00    -0.252 OA
BRANCH   3   5
ATOM      5  C   UNL A   1      30.632  27.501  23.342  1.00  0.00     0.090 C 
ATOM      6  N   UNL A   1      32.058  25.575  22.671  1.00  0.00    -0.307 N 
ATOM      7  C   UNL A   1      33.054  26.411  22.025  1.00  0.00     0.123 C 
ATOM      8  C   UNL A   1      30.688  26.099  22.666  1.00  0.00     0.142 C 
ATOM      9  C   UNL A   1      33.077  27.804  22.642  1.00  0.00     0.023 C 
ATOM     10  C   UNL A   1      31.677  28.423  22.667  1.00  0.00     0.023 C 
BRANCH   6  11
ATOM     11  C   UNL A   1      32.455  24.440  23.363  1.00  0.00     0.410 C 
ATOM     12  O   UNL A   1      31.677  23.783  24.047  1.00  0.00    -0.224 OA
BRANCH  11  13
ATOM     13  O   UNL A   1      33.783  24.185  23.242  1.00  0.00    -0.444 OA
BRANCH  13  14
ATOM     14  C   UNL A   1      34.601  23.859  24.404  1.00  0.00     0.106 C 
ATOM     15  C   UNL A   1      34.446  25.053  25.361  1.00  0.00     0.056 C 
ATOM     16  C   UNL A   1      36.068  23.745  23.982  1.00  0.00     0.056 C 
ATOM     17  C   UNL A   1      34.135  22.600  25.153  1.00  0.00     0.056 C 
ENDBRANCH  13  14
ENDBRANCH  11  13
ENDBRANCH   6  11
BRANCH   5  18
ATOM     18  C   UNL A   1      29.229  28.173  23.294  1.00  0.00     0.056 C 
BRANCH  18  19
ATOM     19  C   UNL A   1      29.095  29.616  22.857  1.00  0.00    -0.047 A 
ATOM     20  C   UNL A   1      29.263  30.652  23.787  1.00  0.00     0.004 A 
ATOM     21  C   UNL A   1      28.675  29.950  21.561  1.00  0.00     0.004 A 
ATOM     22  C   UNL A   1      29.057  31.983  23.419  1.00  0.00     0.000 A 
ATOM     23  C   UNL A   1      28.497  31.282  21.184  1.00  0.00     0.000 A 
ATOM     24  C   UNL A   1      28.689  32.301  22.113  1.00  0.00     0.000 A 
ENDBRANCH  18  19
ENDBRANCH   5  18
ENDBRANCH   3   5
ENDBRANCH   2   3
ENDBRANCH   1   2
BRANCH   1  25
ATOM     25  C   UNL A   1      32.775  28.385  27.615  1.00  0.00     0.275 C 
BRANCH  25  26
ATOM     26  O   UNL A   1      34.065  28.870  27.207  1.00  0.00    -0.458 OA
BRANCH  26  27
ATOM     27  C   UNL A   1      34.449  30.023  27.799  1.00  0.00     0.338 C 
ATOM     28  O   UNL A   1      33.749  30.989  28.055  1.00  0.00    -0.246 OA
BRANCH  27  29
ATOM     29  C   UNL A   1      35.860  29.951  28.204  1.00  0.00     0.060 A 
ATOM     30  C   UNL A   1      36.833  30.163  27.233  1.00  0.00     0.016 A 
ATOM     31  C   UNL A   1      36.223  29.478  29.462  1.00  0.00     0.016 A 
ATOM     32  C   UNL A   1      38.142  29.772  27.451  1.00  0.00     0.010 A 
ATOM     33  C   UNL A   1      37.573  29.223  29.732  1.00  0.00     0.010 A 
ATOM     34  C   UNL A   1      38.541  29.337  28.717  1.00  0.00    -0.014 A 
BRANCH  34  35
ATOM     35  C   UNL A   1      39.974  29.033  28.957  1.00  0.00     0.031 A 
ATOM     36  C   UNL A   1      40.895  30.089  29.502  1.00  0.00     0.074 A 
ATOM     37  C   UNL A   1      40.435  27.791  28.703  1.00  0.00     0.049 A 
ATOM     38  N   UNL A   1      42.197  30.066  29.610  1.00  0.00    -0.248 NA
ATOM     39  C   UNL A   1      40.275  31.335  29.980  1.00  0.00     0.031 C 
ATOM     40  C   UNL A   1      39.625  26.665  28.222  1.00  0.00     0.029 A 
ATOM     41  N   UNL A   1      41.695  27.259  28.811  1.00  0.00    -0.354 N 
ATOM     42  C   UNL A   1      42.559  31.311  30.114  1.00  0.00     0.074 A 
ATOM     43  C   UNL A   1      41.338  32.064  30.296  1.00  0.00     0.031 C 
ATOM     44  C   UNL A   1      40.398  25.578  28.105  1.00  0.00     0.029 A 
ATOM     45  C   UNL A   1      41.774  25.950  28.397  1.00  0.00     0.049 A 
ATOM     46  H   UNL A   1      42.467  27.765  29.154  1.00  0.00     0.167 HD
ATOM     47  C   UNL A   1      43.802  31.775  30.388  1.00  0.00     0.037 A 
ATOM     48  C   UNL A   1      42.841  25.152  28.206  1.00  0.00     0.037 A 
ATOM     49  C   UNL A   1      45.001  30.988  30.244  1.00  0.00     0.049 A 
ATOM     50  C   UNL A   1      44.209  25.707  28.476  1.00  0.00     0.074 A 
ATOM     51  C   UNL A   1      46.307  31.353  30.519  1.00  0.00     0.029 A 
ATOM     52  N   UNL A   1      45.039  29.677  29.794  1.00  0.00    -0.354 N 
ATOM     53  N   UNL A   1      44.541  26.898  28.912  1.00  0.00    -0.248 NA
ATOM     54  C   UNL A   1      45.348  24.820  28.208  1.00  0.00     0.031 C 
ATOM     55  C   UNL A   1      47.139  30.276  30.195  1.00  0.00     0.029 A 
ATOM     56  C   UNL A   1      46.348  29.224  29.761  1.00  0.00     0.049 A 
ATOM     57  H   UNL A   1      44.251  29.144  29.536  1.00  0.00     0.167 HD
ATOM     58  C   UNL A   1      45.927  26.904  28.977  1.00  0.00     0.074 A 
ATOM     59  C   UNL A   1      46.370  25.589  28.559  1.00  0.00     0.031 C 
ATOM     60  C   UNL A   1      46.761  27.909  29.339  1.00  0.00     0.037 A 
BRANCH  47  61
ATOM     61  C   UNL A   1      43.943  33.205  30.830  1.00  0.00     0.058 A 
ATOM     62  C   UNL A   1      43.887  34.277  29.927  1.00  0.00     0.135 A 
ATOM     63  C   UNL A   1      44.072  33.508  32.197  1.00  0.00     0.135 A 
ATOM     64  F   UNL A   1      43.783  34.045  28.608  1.00  0.00    -0.206 F 
ATOM     65  C   UNL A   1      43.965  35.598  30.360  1.00  0.00     0.059 A 
ATOM     66  C   UNL A   1      44.128  34.820  32.655  1.00  0.00     0.059 A 
ATOM     67  F   UNL A   1      44.135  32.520  33.103  1.00  0.00    -0.206 F 
ATOM     68  C   UNL A   1      44.082  35.860  31.728  1.00  0.00     0.060 A 
BRANCH  68  69
ATOM     69  S   UNL A   1      44.151  37.579  32.278  1.00  0.00     0.124 S 
ATOM     70  O   UNL A   1      43.864  38.294  31.038  1.00  0.00    -0.237 OA
ATOM     71  O   UNL A   1      43.103  37.624  33.292  1.00  0.00    -0.237 OA
ATOM     72  O   UNL A   1      45.513  37.720  32.783  1.00  0.00    -0.744 OA
ENDBRANCH  68  69
ENDBRANCH  47  61
BRANCH  48  73
ATOM     73  C   UNL A   1      42.655  23.780  27.662  1.00  0.00     0.058 A 
ATOM     74  C   UNL A   1      42.670  23.537  26.282  1.00  0.00     0.135 A 
ATOM     75  C   UNL A   1      42.473  22.681  28.518  1.00  0.00     0.135 A 
ATOM     76  F   UNL A   1      42.833  24.555  25.424  1.00  0.00    -0.206 F 
ATOM     77  C   UNL A   1      42.496  22.255  25.768  1.00  0.00     0.059 A 
ATOM     78  C   UNL A   1      42.329  21.388  28.030  1.00  0.00     0.059 A 
ATOM     79  F   UNL A   1      42.468  22.857  29.849  1.00  0.00    -0.206 F 
ATOM     80  C   UNL A   1      42.328  21.187  26.651  1.00  0.00     0.060 A 
BRANCH  80  81
ATOM     81  S   UNL A   1      42.143  19.522  25.978  1.00  0.00     0.124 S 
ATOM     82  O   UNL A   1      42.671  18.707  27.065  1.00  0.00    -0.237 OA
ATOM     83  O   UNL A   1      40.702  19.438  25.757  1.00  0.00    -0.237 OA
ATOM     84  O   UNL A   1      42.953  19.560  24.763  1.00  0.00    -0.744 OA
ENDBRANCH  80  81
ENDBRANCH  48  73
BRANCH  60  85
ATOM     85  C   UNL A   1      48.233  27.612  29.319  1.00  0.00     0.058 A 
ATOM     86  C   UNL A   1      48.886  27.072  30.437  1.00  0.00     0.135 A 
ATOM     87  C   UNL A   1      48.989  27.841  28.159  1.00  0.00     0.135 A 
ATOM     88  F   UNL A   1      48.208  26.848  31.574  1.00  0.00    -0.206 F 
ATOM     89  C   UNL A   1      50.247  26.787  30.413  1.00  0.00     0.059 A 
ATOM     90  C   UNL A   1      50.345  27.538  28.103  1.00  0.00     0.059 A 
ATOM     91  F   UNL A   1      48.407  28.350  27.062  1.00  0.00    -0.206 F 
ATOM     92  C   UNL A   1      50.967  27.023  29.241  1.00  0.00     0.060 A 
BRANCH  92  93
ATOM     93  S   UNL A   1      52.727  26.623  29.211  1.00  0.00     0.124 S 
ATOM     94  O   UNL A   1      52.837  25.880  27.961  1.00  0.00    -0.237 OA
ATOM     95  O   UNL A   1      53.349  27.943  29.222  1.00  0.00    -0.237 OA
ATOM     96  O   UNL A   1      52.917  25.837  30.427  1.00  0.00    -0.744 OA
ENDBRANCH  92  93
ENDBRANCH  60  85
ENDBRANCH  34  35
ENDBRANCH  27  29
ENDBRANCH  26  27
ENDBRANCH  25  26
ENDBRANCH   1  25
TORSDOF 19
ENDMDL
