MODEL 1
REMARK VINA RESULT:     -11.3      0.000      0.000
REMARK SMILES CCC(=O)Nc1ccc(-c2ccc(C(=O)OCCOC(=O)c3ccc(-c4c5nc(c(-c6c(F)cc(S(=O)(=O)[O-])cc6F)c6ccc([nH]6)c(-c6c(F)cc(S(=O)(=O)[O-])cc6F)c6nc(c(-c7c(F)cc(S(=O)(=O)[O-])cc7F)c7ccc4[nH]7)C=C6)C=C5)cc3)cc2)nc1
REMARK SMILES IDX 17 1 16 2 14 3 15 4 13 5 10 6 11 7 89 8 12 9 88 10 9 11 6 12
REMARK SMILES IDX 7 13 91 14 8 15 90 16 5 17 3 18 4 19 2 21 1 22 18 23 19 24
REMARK SMILES IDX 20 25 21 26 22 27 23 28 87 29 24 30 86 31 25 32 26 33 27 34
REMARK SMILES IDX 80 35 28 36 85 37 79 38 81 39 29 40 84 41 78 42 77 43 30 45
REMARK SMILES IDX 64 46 43 47 63 48 44 49 47 50 62 51 82 52 45 53 46 54 61 56
REMARK SMILES IDX 83 57 48 58 31 59 32 60 41 61 33 62 34 63 40 64 42 65 35 66
REMARK SMILES IDX 36 67 37 68 38 69 39 70 65 71 66 72 75 73 67 74 68 75 74 76
REMARK SMILES IDX 76 77 69 78 70 79 71 80 72 81 73 82 49 83 50 84 59 85 51 86
REMARK SMILES IDX 52 87 58 88 60 89 53 90 54 91 55 92 56 93 57 94
REMARK H PARENT 5 20 81 44 47 55
REMARK Flexibility Score: inf
ROOT
ATOM      1  C   UNL A   1      42.728  22.048  26.168  1.00  0.00     0.275 C 
ENDROOT
BRANCH   1   2
ATOM      2  O   UNL A   1      41.505  21.370  25.821  1.00  0.00    -0.458 OA
BRANCH   2   3
ATOM      3  C   UNL A   1      40.505  21.466  26.733  1.00  0.00     0.338 C 
ATOM      4  O   UNL A   1      40.576  21.181  27.913  1.00  0.00    -0.246 OA
BRANCH   3   5
ATOM      5  C   UNL A   1      39.280  22.027  26.116  1.00  0.00     0.060 A 
ATOM      6  C   UNL A   1      36.857  23.112  25.166  1.00  0.00     0.000 A 
ATOM      7  C   UNL A   1      37.723  23.878  25.956  1.00  0.00     0.011 A 
ATOM      8  C   UNL A   1      37.254  21.808  24.815  1.00  0.00     0.011 A 
ATOM      9  C   UNL A   1      38.901  23.329  26.455  1.00  0.00     0.016 A 
ATOM     10  C   UNL A   1      38.463  21.270  25.274  1.00  0.00     0.016 A 
BRANCH   6  11
ATOM     11  C   UNL A   1      35.520  23.634  24.866  1.00  0.00     0.070 A 
ATOM     12  C   UNL A   1      33.240  24.856  23.929  1.00  0.00     0.059 A 
ATOM     13  C   UNL A   1      33.904  25.393  25.024  1.00  0.00     0.030 A 
ATOM     14  C   UNL A   1      33.707  23.651  23.423  1.00  0.00     0.137 A 
ATOM     15  C   UNL A   1      35.060  24.784  25.498  1.00  0.00     0.031 A 
ATOM     16  N   UNL A   1      34.843  23.047  23.849  1.00  0.00    -0.254 NA
BRANCH  12  17
ATOM     17  N   UNL A   1      32.096  25.468  23.404  1.00  0.00    -0.325 N 
ATOM     18  C   UNL A   1      32.006  26.694  22.795  1.00  0.00     0.224 C 
ATOM     19  O   UNL A   1      30.921  27.277  22.758  1.00  0.00    -0.275 OA
ATOM     20  H   UNL A   1      31.257  24.958  23.482  1.00  0.00     0.169 HD
BRANCH  18  21
ATOM     21  C   UNL A   1      33.210  27.226  22.027  1.00  0.00     0.097 C 
ATOM     22  C   UNL A   1      33.919  28.412  22.646  1.00  0.00     0.014 C 
ENDBRANCH  18  21
ENDBRANCH  12  17
ENDBRANCH   6  11
ENDBRANCH   3   5
ENDBRANCH   2   3
ENDBRANCH   1   2
BRANCH   1  23
ATOM     23  C   UNL A   1      42.744  23.482  25.637  1.00  0.00     0.275 C 
BRANCH  23  24
ATOM     24  O   UNL A   1      42.161  24.394  26.585  1.00  0.00    -0.458 OA
BRANCH  24  25
ATOM     25  C   UNL A   1      42.085  25.678  26.170  1.00  0.00     0.338 C 
ATOM     26  O   UNL A   1      42.353  26.117  25.064  1.00  0.00    -0.246 OA
BRANCH  25  27
ATOM     27  C   UNL A   1      41.578  26.526  27.257  1.00  0.00     0.060 A 
ATOM     28  C   UNL A   1      42.163  27.774  27.458  1.00  0.00     0.016 A 
ATOM     29  C   UNL A   1      40.652  26.031  28.168  1.00  0.00     0.016 A 
ATOM     30  C   UNL A   1      41.916  28.486  28.628  1.00  0.00     0.010 A 
ATOM     31  C   UNL A   1      40.322  26.797  29.292  1.00  0.00     0.010 A 
ATOM     32  C   UNL A   1      40.982  28.013  29.557  1.00  0.00    -0.014 A 
BRANCH  32  33
ATOM     33  C   UNL A   1      40.714  28.747  30.826  1.00  0.00     0.031 A 
ATOM     34  C   UNL A   1      39.612  29.774  30.869  1.00  0.00     0.074 A 
ATOM     35  C   UNL A   1      41.453  28.519  31.930  1.00  0.00     0.049 A 
ATOM     36  N   UNL A   1      39.392  30.717  31.747  1.00  0.00    -0.248 NA
ATOM     37  C   UNL A   1      38.642  29.742  29.764  1.00  0.00     0.031 C 
ATOM     38  C   UNL A   1      42.493  27.497  32.064  1.00  0.00     0.029 A 
ATOM     39  N   UNL A   1      41.448  29.145  33.153  1.00  0.00    -0.354 N 
ATOM     40  C   UNL A   1      38.301  31.436  31.265  1.00  0.00     0.074 A 
ATOM     41  C   UNL A   1      37.906  30.815  30.019  1.00  0.00     0.031 C 
ATOM     42  C   UNL A   1      43.008  27.550  33.302  1.00  0.00     0.029 A 
ATOM     43  C   UNL A   1      42.412  28.674  34.015  1.00  0.00     0.049 A 
ATOM     44  H   UNL A   1      40.816  29.861  33.390  1.00  0.00     0.167 HD
ATOM     45  C   UNL A   1      37.697  32.520  31.810  1.00  0.00     0.037 A 
ATOM     46  C   UNL A   1      42.816  29.128  35.216  1.00  0.00     0.037 A 
ATOM     47  C   UNL A   1      38.074  33.093  33.076  1.00  0.00     0.049 A 
ATOM     48  C   UNL A   1      42.176  30.365  35.780  1.00  0.00     0.074 A 
ATOM     49  C   UNL A   1      37.538  34.195  33.719  1.00  0.00     0.029 A 
ATOM     50  N   UNL A   1      39.071  32.594  33.903  1.00  0.00    -0.354 N 
ATOM     51  N   UNL A   1      41.212  31.097  35.274  1.00  0.00    -0.248 NA
ATOM     52  C   UNL A   1      42.693  30.855  37.066  1.00  0.00     0.031 C 
ATOM     53  C   UNL A   1      38.233  34.381  34.920  1.00  0.00     0.029 A 
ATOM     54  C   UNL A   1      39.171  33.367  35.047  1.00  0.00     0.049 A 
ATOM     55  H   UNL A   1      39.627  31.806  33.705  1.00  0.00     0.167 HD
ATOM     56  C   UNL A   1      40.987  32.117  36.191  1.00  0.00     0.074 A 
ATOM     57  C   UNL A   1      41.918  31.910  37.282  1.00  0.00     0.031 C 
ATOM     58  C   UNL A   1      40.088  33.130  36.134  1.00  0.00     0.037 A 
BRANCH  45  59
ATOM     59  C   UNL A   1      36.602  33.180  31.015  1.00  0.00     0.058 A 
ATOM     60  C   UNL A   1      36.868  33.954  29.874  1.00  0.00     0.135 A 
ATOM     61  C   UNL A   1      35.261  33.038  31.408  1.00  0.00     0.135 A 
ATOM     62  F   UNL A   1      38.132  34.136  29.460  1.00  0.00    -0.206 F 
ATOM     63  C   UNL A   1      35.849  34.600  29.179  1.00  0.00     0.059 A 
ATOM     64  C   UNL A   1      34.223  33.651  30.711  1.00  0.00     0.059 A 
ATOM     65  F   UNL A   1      34.946  32.305  32.488  1.00  0.00    -0.206 F 
ATOM     66  C   UNL A   1      34.529  34.450  29.612  1.00  0.00     0.060 A 
BRANCH  66  67
ATOM     67  S   UNL A   1      33.220  35.321  28.725  1.00  0.00     0.124 S 
ATOM     68  O   UNL A   1      33.993  36.260  27.917  1.00  0.00    -0.237 OA
ATOM     69  O   UNL A   1      32.565  34.243  27.990  1.00  0.00    -0.237 OA
ATOM     70  O   UNL A   1      32.426  35.919  29.793  1.00  0.00    -0.744 OA
ENDBRANCH  66  67
ENDBRANCH  45  59
BRANCH  46  71
ATOM     71  C   UNL A   1      43.907  28.424  35.942  1.00  0.00     0.058 A 
ATOM     72  C   UNL A   1      45.245  28.804  35.769  1.00  0.00     0.135 A 
ATOM     73  C   UNL A   1      43.632  27.395  36.858  1.00  0.00     0.135 A 
ATOM     74  F   UNL A   1      45.559  29.773  34.896  1.00  0.00    -0.206 F 
ATOM     75  C   UNL A   1      46.273  28.196  36.482  1.00  0.00     0.059 A 
ATOM     76  C   UNL A   1      44.640  26.790  37.603  1.00  0.00     0.059 A 
ATOM     77  F   UNL A   1      42.366  27.001  37.068  1.00  0.00    -0.206 F 
ATOM     78  C   UNL A   1      45.959  27.196  37.404  1.00  0.00     0.060 A 
BRANCH  78  79
ATOM     79  S   UNL A   1      47.292  26.470  38.383  1.00  0.00     0.124 S 
ATOM     80  O   UNL A   1      47.603  25.272  37.614  1.00  0.00    -0.237 OA
ATOM     81  O   UNL A   1      48.301  27.525  38.359  1.00  0.00    -0.237 OA
ATOM     82  O   UNL A   1      46.667  26.242  39.684  1.00  0.00    -0.744 OA
ENDBRANCH  78  79
ENDBRANCH  46  71
BRANCH  58  83
ATOM     83  C   UNL A   1      40.016  34.060  37.310  1.00  0.00     0.058 A 
ATOM     84  C   UNL A   1      40.767  35.243  37.365  1.00  0.00     0.135 A 
ATOM     85  C   UNL A   1      39.117  33.800  38.357  1.00  0.00     0.135 A 
ATOM     86  F   UNL A   1      41.649  35.530  36.393  1.00  0.00    -0.206 F 
ATOM     87  C   UNL A   1      40.630  36.139  38.420  1.00  0.00     0.059 A 
ATOM     88  C   UNL A   1      38.948  34.692  39.410  1.00  0.00     0.059 A 
ATOM     89  F   UNL A   1      38.373  32.683  38.346  1.00  0.00    -0.206 F 
ATOM     90  C   UNL A   1      39.711  35.857  39.435  1.00  0.00     0.060 A 
BRANCH  90  91
ATOM     91  S   UNL A   1      39.489  37.062  40.761  1.00  0.00     0.124 S 
ATOM     92  O   UNL A   1      38.964  36.224  41.835  1.00  0.00    -0.237 OA
ATOM     93  O   UNL A   1      40.844  37.567  40.957  1.00  0.00    -0.237 OA
ATOM     94  O   UNL A   1      38.546  38.021  40.194  1.00  0.00    -0.744 OA
ENDBRANCH  90  91
ENDBRANCH  58  83
ENDBRANCH  32  33
ENDBRANCH  25  27
ENDBRANCH  24  25
ENDBRANCH  23  24
ENDBRANCH   1  23
TORSDOF 17
ENDMDL
MODEL 2
REMARK VINA RESULT:     -11.2      5.545     10.678
REMARK SMILES CCC(=O)Nc1ccc(-c2ccc(C(=O)OCCOC(=O)c3ccc(-c4c5nc(c(-c6c(F)cc(S(=O)(=O)[O-])cc6F)c6ccc([nH]6)c(-c6c(F)cc(S(=O)(=O)[O-])cc6F)c6nc(c(-c7c(F)cc(S(=O)(=O)[O-])cc7F)c7ccc4[nH]7)C=C6)C=C5)cc3)cc2)nc1
REMARK SMILES IDX 17 1 16 2 14 3 15 4 13 5 10 6 11 7 89 8 12 9 88 10 9 11 6 12
REMARK SMILES IDX 7 13 91 14 8 15 90 16 5 17 3 18 4 19 2 21 1 22 18 23 19 24
REMARK SMILES IDX 20 25 21 26 22 27 23 28 87 29 24 30 86 31 25 32 26 33 27 34
REMARK SMILES IDX 80 35 28 36 85 37 79 38 81 39 29 40 84 41 78 42 77 43 30 45
REMARK SMILES IDX 64 46 43 47 63 48 44 49 47 50 62 51 82 52 45 53 46 54 61 56
REMARK SMILES IDX 83 57 48 58 31 59 32 60 41 61 33 62 34 63 40 64 42 65 35 66
REMARK SMILES IDX 36 67 37 68 38 69 39 70 65 71 66 72 75 73 67 74 68 75 74 76
REMARK SMILES IDX 76 77 69 78 70 79 71 80 72 81 73 82 49 83 50 84 59 85 51 86
REMARK SMILES IDX 52 87 58 88 60 89 53 90 54 91 55 92 56 93 57 94
REMARK H PARENT 5 20 81 44 47 55
REMARK Flexibility Score: inf
ROOT
ATOM      1  C   UNL A   1      32.179  28.700  26.286  1.00  0.00     0.275 C 
ENDROOT
BRANCH   1   2
ATOM      2  O   UNL A   1      31.694  28.829  24.935  1.00  0.00    -0.458 OA
BRANCH   2   3
ATOM      3  C   UNL A   1      32.581  28.502  23.963  1.00  0.00     0.338 C 
ATOM      4  O   UNL A   1      33.135  29.273  23.202  1.00  0.00    -0.246 OA
BRANCH   3   5
ATOM      5  C   UNL A   1      32.849  27.044  23.963  1.00  0.00     0.060 A 
ATOM      6  C   UNL A   1      33.164  24.246  24.106  1.00  0.00     0.000 A 
ATOM      7  C   UNL A   1      32.053  24.809  23.465  1.00  0.00     0.011 A 
ATOM      8  C   UNL A   1      34.143  25.112  24.626  1.00  0.00     0.011 A 
ATOM      9  C   UNL A   1      31.880  26.190  23.428  1.00  0.00     0.016 A 
ATOM     10  C   UNL A   1      33.996  26.503  24.545  1.00  0.00     0.016 A 
BRANCH   6  11
ATOM     11  C   UNL A   1      33.190  22.799  24.342  1.00  0.00     0.070 A 
ATOM     12  C   UNL A   1      33.237  20.210  25.271  1.00  0.00     0.059 A 
ATOM     13  C   UNL A   1      34.418  20.810  24.855  1.00  0.00     0.030 A 
ATOM     14  C   UNL A   1      32.058  20.921  25.094  1.00  0.00     0.137 A 
ATOM     15  C   UNL A   1      34.401  22.119  24.391  1.00  0.00     0.031 A 
ATOM     16  N   UNL A   1      32.014  22.207  24.665  1.00  0.00    -0.254 NA
BRANCH  12  17
ATOM     17  N   UNL A   1      33.226  18.906  25.780  1.00  0.00    -0.325 N 
ATOM     18  C   UNL A   1      32.840  17.758  25.137  1.00  0.00     0.224 C 
ATOM     19  O   UNL A   1      32.491  16.778  25.798  1.00  0.00    -0.275 OA
ATOM     20  H   UNL A   1      33.532  18.802  26.710  1.00  0.00     0.169 HD
BRANCH  18  21
ATOM     21  C   UNL A   1      33.019  17.663  23.626  1.00  0.00     0.097 C 
ATOM     22  C   UNL A   1      34.101  16.718  23.146  1.00  0.00     0.014 C 
ENDBRANCH  18  21
ENDBRANCH  12  17
ENDBRANCH   6  11
ENDBRANCH   3   5
ENDBRANCH   2   3
ENDBRANCH   1   2
BRANCH   1  23
ATOM     23  C   UNL A   1      32.975  29.932  26.715  1.00  0.00     0.275 C 
BRANCH  23  24
ATOM     24  O   UNL A   1      33.656  29.703  27.963  1.00  0.00    -0.458 OA
BRANCH  24  25
ATOM     25  C   UNL A   1      34.570  30.640  28.296  1.00  0.00     0.338 C 
ATOM     26  O   UNL A   1      34.372  31.822  28.526  1.00  0.00    -0.246 OA
BRANCH  25  27
ATOM     27  C   UNL A   1      35.902  30.029  28.391  1.00  0.00     0.060 A 
ATOM     28  C   UNL A   1      36.326  29.544  29.626  1.00  0.00     0.016 A 
ATOM     29  C   UNL A   1      36.785  30.083  27.318  1.00  0.00     0.016 A 
ATOM     30  C   UNL A   1      37.663  29.217  29.832  1.00  0.00     0.010 A 
ATOM     31  C   UNL A   1      38.104  29.653  27.497  1.00  0.00     0.010 A 
ATOM     32  C   UNL A   1      38.571  29.256  28.766  1.00  0.00    -0.014 A 
BRANCH  32  33
ATOM     33  C   UNL A   1      40.011  28.929  28.964  1.00  0.00     0.031 A 
ATOM     34  C   UNL A   1      40.948  29.992  29.478  1.00  0.00     0.074 A 
ATOM     35  C   UNL A   1      40.492  27.704  28.673  1.00  0.00     0.049 A 
ATOM     36  N   UNL A   1      42.254  30.029  29.453  1.00  0.00    -0.248 NA
ATOM     37  C   UNL A   1      40.324  31.179  30.083  1.00  0.00     0.031 C 
ATOM     38  C   UNL A   1      39.693  26.552  28.251  1.00  0.00     0.029 A 
ATOM     39  N   UNL A   1      41.780  27.225  28.680  1.00  0.00    -0.354 N 
ATOM     40  C   UNL A   1      42.608  31.270  29.974  1.00  0.00     0.074 A 
ATOM     41  C   UNL A   1      41.376  31.953  30.308  1.00  0.00     0.031 C 
ATOM     42  C   UNL A   1      40.502  25.499  28.062  1.00  0.00     0.029 A 
ATOM     43  C   UNL A   1      41.884  25.924  28.246  1.00  0.00     0.049 A 
ATOM     44  H   UNL A   1      42.553  27.762  28.967  1.00  0.00     0.167 HD
ATOM     45  C   UNL A   1      43.848  31.791  30.145  1.00  0.00     0.037 A 
ATOM     46  C   UNL A   1      42.967  25.174  27.968  1.00  0.00     0.037 A 
ATOM     47  C   UNL A   1      45.064  31.076  29.853  1.00  0.00     0.049 A 
ATOM     48  C   UNL A   1      44.333  25.784  28.107  1.00  0.00     0.074 A 
ATOM     49  C   UNL A   1      46.372  31.509  29.978  1.00  0.00     0.029 A 
ATOM     50  N   UNL A   1      45.118  29.767  29.394  1.00  0.00    -0.354 N 
ATOM     51  N   UNL A   1      44.658  26.991  28.506  1.00  0.00    -0.248 NA
ATOM     52  C   UNL A   1      45.479  24.945  27.734  1.00  0.00     0.031 C 
ATOM     53  C   UNL A   1      47.216  30.472  29.566  1.00  0.00     0.029 A 
ATOM     54  C   UNL A   1      46.435  29.377  29.227  1.00  0.00     0.049 A 
ATOM     55  H   UNL A   1      44.334  29.199  29.214  1.00  0.00     0.167 HD
ATOM     56  C   UNL A   1      46.045  27.047  28.461  1.00  0.00     0.074 A 
ATOM     57  C   UNL A   1      46.500  25.753  27.991  1.00  0.00     0.031 C 
ATOM     58  C   UNL A   1      46.867  28.075  28.782  1.00  0.00     0.037 A 
BRANCH  45  59
ATOM     59  C   UNL A   1      43.944  33.215  30.624  1.00  0.00     0.058 A 
ATOM     60  C   UNL A   1      43.771  34.309  29.760  1.00  0.00     0.135 A 
ATOM     61  C   UNL A   1      44.221  33.489  31.974  1.00  0.00     0.135 A 
ATOM     62  F   UNL A   1      43.519  34.109  28.457  1.00  0.00    -0.206 F 
ATOM     63  C   UNL A   1      43.914  35.620  30.209  1.00  0.00     0.059 A 
ATOM     64  C   UNL A   1      44.339  34.791  32.450  1.00  0.00     0.059 A 
ATOM     65  F   UNL A   1      44.391  32.482  32.847  1.00  0.00    -0.206 F 
ATOM     66  C   UNL A   1      44.208  35.850  31.554  1.00  0.00     0.060 A 
BRANCH  66  67
ATOM     67  S   UNL A   1      44.426  37.552  32.117  1.00  0.00     0.124 S 
ATOM     68  O   UNL A   1      43.262  37.722  32.982  1.00  0.00    -0.237 OA
ATOM     69  O   UNL A   1      45.716  37.497  32.798  1.00  0.00    -0.237 OA
ATOM     70  O   UNL A   1      44.407  38.324  30.879  1.00  0.00    -0.744 OA
ENDBRANCH  66  67
ENDBRANCH  45  59
BRANCH  46  71
ATOM     71  C   UNL A   1      42.792  23.774  27.496  1.00  0.00     0.058 A 
ATOM     72  C   UNL A   1      42.687  22.717  28.412  1.00  0.00     0.135 A 
ATOM     73  C   UNL A   1      42.675  23.470  26.130  1.00  0.00     0.135 A 
ATOM     74  F   UNL A   1      42.805  22.954  29.726  1.00  0.00    -0.206 F 
ATOM     75  C   UNL A   1      42.465  21.409  27.991  1.00  0.00     0.059 A 
ATOM     76  C   UNL A   1      42.426  22.175  25.686  1.00  0.00     0.059 A 
ATOM     77  F   UNL A   1      42.758  24.448  25.214  1.00  0.00    -0.206 F 
ATOM     78  C   UNL A   1      42.327  21.150  26.627  1.00  0.00     0.060 A 
BRANCH  78  79
ATOM     79  S   UNL A   1      41.957  19.462  26.098  1.00  0.00     0.124 S 
ATOM     80  O   UNL A   1      42.762  19.351  24.888  1.00  0.00    -0.237 OA
ATOM     81  O   UNL A   1      42.411  18.676  27.241  1.00  0.00    -0.237 OA
ATOM     82  O   UNL A   1      40.511  19.483  25.896  1.00  0.00    -0.744 OA
ENDBRANCH  78  79
ENDBRANCH  46  71
BRANCH  58  83
ATOM     83  C   UNL A   1      48.346  27.832  28.702  1.00  0.00     0.058 A 
ATOM     84  C   UNL A   1      49.043  27.169  29.723  1.00  0.00     0.135 A 
ATOM     85  C   UNL A   1      49.057  28.196  27.547  1.00  0.00     0.135 A 
ATOM     86  F   UNL A   1      48.411  26.812  30.852  1.00  0.00    -0.206 F 
ATOM     87  C   UNL A   1      50.398  26.875  29.601  1.00  0.00     0.059 A 
ATOM     88  C   UNL A   1      50.406  27.892  27.395  1.00  0.00     0.059 A 
ATOM     89  F   UNL A   1      48.432  28.827  26.541  1.00  0.00    -0.206 F 
ATOM     90  C   UNL A   1      51.068  27.234  28.429  1.00  0.00     0.060 A 
BRANCH  90  91
ATOM     91  S   UNL A   1      52.808  26.783  28.253  1.00  0.00     0.124 S 
ATOM     92  O   UNL A   1      53.382  28.021  27.733  1.00  0.00    -0.237 OA
ATOM     93  O   UNL A   1      53.182  26.436  29.620  1.00  0.00    -0.237 OA
ATOM     94  O   UNL A   1      52.775  25.664  27.316  1.00  0.00    -0.744 OA
ENDBRANCH  90  91
ENDBRANCH  58  83
ENDBRANCH  32  33
ENDBRANCH  25  27
ENDBRANCH  24  25
ENDBRANCH  23  24
ENDBRANCH   1  23
TORSDOF 17
ENDMDL
MODEL 3
REMARK VINA RESULT:     -11.1      1.272      8.544
REMARK SMILES CCC(=O)Nc1ccc(-c2ccc(C(=O)OCCOC(=O)c3ccc(-c4c5nc(c(-c6c(F)cc(S(=O)(=O)[O-])cc6F)c6ccc([nH]6)c(-c6c(F)cc(S(=O)(=O)[O-])cc6F)c6nc(c(-c7c(F)cc(S(=O)(=O)[O-])cc7F)c7ccc4[nH]7)C=C6)C=C5)cc3)cc2)nc1
REMARK SMILES IDX 17 1 16 2 14 3 15 4 13 5 10 6 11 7 89 8 12 9 88 10 9 11 6 12
REMARK SMILES IDX 7 13 91 14 8 15 90 16 5 17 3 18 4 19 2 21 1 22 18 23 19 24
REMARK SMILES IDX 20 25 21 26 22 27 23 28 87 29 24 30 86 31 25 32 26 33 27 34
REMARK SMILES IDX 80 35 28 36 85 37 79 38 81 39 29 40 84 41 78 42 77 43 30 45
REMARK SMILES IDX 64 46 43 47 63 48 44 49 47 50 62 51 82 52 45 53 46 54 61 56
REMARK SMILES IDX 83 57 48 58 31 59 32 60 41 61 33 62 34 63 40 64 42 65 35 66
REMARK SMILES IDX 36 67 37 68 38 69 39 70 65 71 66 72 75 73 67 74 68 75 74 76
REMARK SMILES IDX 76 77 69 78 70 79 71 80 72 81 73 82 49 83 50 84 59 85 51 86
REMARK SMILES IDX 52 87 58 88 60 89 53 90 54 91 55 92 56 93 57 94
REMARK H PARENT 5 20 81 44 47 55
REMARK Flexibility Score: inf
ROOT
ATOM      1  C   UNL A   1      39.653  20.996  26.214  1.00  0.00     0.275 C 
ENDROOT
BRANCH   1   2
ATOM      2  O   UNL A   1      38.484  21.608  25.635  1.00  0.00    -0.458 OA
BRANCH   2   3
ATOM      3  C   UNL A   1      37.636  20.761  25.000  1.00  0.00     0.338 C 
ATOM      4  O   UNL A   1      37.728  19.549  24.951  1.00  0.00    -0.246 OA
BRANCH   3   5
ATOM      5  C   UNL A   1      36.508  21.504  24.388  1.00  0.00     0.060 A 
ATOM      6  C   UNL A   1      34.444  23.115  23.343  1.00  0.00     0.000 A 
ATOM      7  C   UNL A   1      35.780  23.351  22.997  1.00  0.00     0.011 A 
ATOM      8  C   UNL A   1      34.155  22.021  24.181  1.00  0.00     0.011 A 
ATOM      9  C   UNL A   1      36.801  22.579  23.543  1.00  0.00     0.016 A 
ATOM     10  C   UNL A   1      35.178  21.211  24.692  1.00  0.00     0.016 A 
BRANCH   6  11
ATOM     11  C   UNL A   1      33.425  24.093  22.950  1.00  0.00     0.070 A 
ATOM     12  C   UNL A   1      31.646  26.167  22.633  1.00  0.00     0.059 A 
ATOM     13  C   UNL A   1      31.203  24.959  23.156  1.00  0.00     0.030 A 
ATOM     14  C   UNL A   1      32.960  26.233  22.191  1.00  0.00     0.137 A 
ATOM     15  C   UNL A   1      32.098  23.910  23.324  1.00  0.00     0.031 A 
ATOM     16  N   UNL A   1      33.861  25.234  22.363  1.00  0.00    -0.254 NA
BRANCH  12  17
ATOM     17  N   UNL A   1      30.777  27.256  22.488  1.00  0.00    -0.325 N 
ATOM     18  C   UNL A   1      30.393  28.156  23.449  1.00  0.00     0.224 C 
ATOM     19  O   UNL A   1      29.344  28.786  23.309  1.00  0.00    -0.275 OA
ATOM     20  H   UNL A   1      30.397  27.390  21.590  1.00  0.00     0.169 HD
BRANCH  18  21
ATOM     21  C   UNL A   1      31.360  28.482  24.582  1.00  0.00     0.097 C 
ATOM     22  C   UNL A   1      31.280  27.584  25.800  1.00  0.00     0.014 C 
ENDBRANCH  18  21
ENDBRANCH  12  17
ENDBRANCH   6  11
ENDBRANCH   3   5
ENDBRANCH   2   3
ENDBRANCH   1   2
BRANCH   1  23
ATOM     23  C   UNL A   1      40.605  22.042  26.792  1.00  0.00     0.275 C 
BRANCH  23  24
ATOM     24  O   UNL A   1      40.101  23.375  26.584  1.00  0.00    -0.458 OA
BRANCH  24  25
ATOM     25  C   UNL A   1      41.049  24.321  26.399  1.00  0.00     0.338 C 
ATOM     26  O   UNL A   1      41.990  24.286  25.624  1.00  0.00    -0.246 OA
BRANCH  25  27
ATOM     27  C   UNL A   1      40.775  25.480  27.259  1.00  0.00     0.060 A 
ATOM     28  C   UNL A   1      41.555  26.623  27.106  1.00  0.00     0.016 A 
ATOM     29  C   UNL A   1      39.874  25.381  28.314  1.00  0.00     0.016 A 
ATOM     30  C   UNL A   1      41.526  27.628  28.068  1.00  0.00     0.010 A 
ATOM     31  C   UNL A   1      39.768  26.439  29.222  1.00  0.00     0.010 A 
ATOM     32  C   UNL A   1      40.622  27.557  29.135  1.00  0.00    -0.014 A 
BRANCH  32  33
ATOM     33  C   UNL A   1      40.584  28.610  30.189  1.00  0.00     0.031 A 
ATOM     34  C   UNL A   1      41.550  28.539  31.343  1.00  0.00     0.074 A 
ATOM     35  C   UNL A   1      39.686  29.614  30.135  1.00  0.00     0.049 A 
ATOM     36  N   UNL A   1      41.514  29.156  32.494  1.00  0.00    -0.248 NA
ATOM     37  C   UNL A   1      42.700  27.636  31.180  1.00  0.00     0.031 C 
ATOM     38  C   UNL A   1      38.747  29.861  29.039  1.00  0.00     0.029 A 
ATOM     39  N   UNL A   1      39.409  30.614  31.036  1.00  0.00    -0.354 N 
ATOM     40  C   UNL A   1      42.595  28.666  33.221  1.00  0.00     0.074 A 
ATOM     41  C   UNL A   1      43.267  27.702  32.377  1.00  0.00     0.031 C 
ATOM     42  C   UNL A   1      38.017  30.951  29.320  1.00  0.00     0.029 A 
ATOM     43  C   UNL A   1      38.360  31.418  30.658  1.00  0.00     0.049 A 
ATOM     44  H   UNL A   1      39.913  30.741  31.872  1.00  0.00     0.167 HD
ATOM     45  C   UNL A   1      42.980  28.986  34.481  1.00  0.00     0.037 A 
ATOM     46  C   UNL A   1      37.704  32.383  31.330  1.00  0.00     0.037 A 
ATOM     47  C   UNL A   1      42.327  29.984  35.288  1.00  0.00     0.049 A 
ATOM     48  C   UNL A   1      38.104  32.686  32.746  1.00  0.00     0.074 A 
ATOM     49  C   UNL A   1      42.625  30.382  36.579  1.00  0.00     0.029 A 
ATOM     50  N   UNL A   1      41.253  30.759  34.869  1.00  0.00    -0.354 N 
ATOM     51  N   UNL A   1      39.064  32.150  33.462  1.00  0.00    -0.248 NA
ATOM     52  C   UNL A   1      37.320  33.704  33.458  1.00  0.00     0.031 C 
ATOM     53  C   UNL A   1      41.711  31.375  36.952  1.00  0.00     0.029 A 
ATOM     54  C   UNL A   1      40.874  31.628  35.876  1.00  0.00     0.049 A 
ATOM     55  H   UNL A   1      40.824  30.698  33.985  1.00  0.00     0.167 HD
ATOM     56  C   UNL A   1      39.018  32.785  34.698  1.00  0.00     0.074 A 
ATOM     57  C   UNL A   1      37.933  33.744  34.634  1.00  0.00     0.031 C 
ATOM     58  C   UNL A   1      39.805  32.593  35.783  1.00  0.00     0.037 A 
BRANCH  45  59
ATOM     59  C   UNL A   1      44.126  28.212  35.076  1.00  0.00     0.058 A 
ATOM     60  C   UNL A   1      43.933  27.022  35.795  1.00  0.00     0.135 A 
ATOM     61  C   UNL A   1      45.444  28.677  34.928  1.00  0.00     0.135 A 
ATOM     62  F   UNL A   1      42.696  26.537  35.981  1.00  0.00    -0.206 F 
ATOM     63  C   UNL A   1      45.000  26.346  36.382  1.00  0.00     0.059 A 
ATOM     64  C   UNL A   1      46.528  28.002  35.481  1.00  0.00     0.059 A 
ATOM     65  F   UNL A   1      45.689  29.808  34.246  1.00  0.00    -0.206 F 
ATOM     66  C   UNL A   1      46.293  26.850  36.228  1.00  0.00     0.060 A 
BRANCH  66  67
ATOM     67  S   UNL A   1      47.664  25.985  37.024  1.00  0.00     0.124 S 
ATOM     68  O   UNL A   1      47.134  24.628  37.118  1.00  0.00    -0.237 OA
ATOM     69  O   UNL A   1      48.753  26.174  36.071  1.00  0.00    -0.237 OA
ATOM     70  O   UNL A   1      47.817  26.688  38.293  1.00  0.00    -0.744 OA
ENDBRANCH  66  67
ENDBRANCH  45  59
BRANCH  46  71
ATOM     71  C   UNL A   1      36.578  33.102  30.676  1.00  0.00     0.058 A 
ATOM     72  C   UNL A   1      35.251  32.849  31.052  1.00  0.00     0.135 A 
ATOM     73  C   UNL A   1      36.805  34.090  29.704  1.00  0.00     0.135 A 
ATOM     74  F   UNL A   1      34.982  31.906  31.967  1.00  0.00    -0.206 F 
ATOM     75  C   UNL A   1      34.189  33.553  30.493  1.00  0.00     0.059 A 
ATOM     76  C   UNL A   1      35.762  34.826  29.149  1.00  0.00     0.059 A 
ATOM     77  F   UNL A   1      38.058  34.378  29.317  1.00  0.00    -0.206 F 
ATOM     78  C   UNL A   1      34.456  34.546  29.549  1.00  0.00     0.060 A 
BRANCH  78  79
ATOM     79  S   UNL A   1      33.077  35.509  28.890  1.00  0.00     0.124 S 
ATOM     80  O   UNL A   1      33.774  36.545  28.139  1.00  0.00    -0.237 OA
ATOM     81  O   UNL A   1      32.361  34.516  28.095  1.00  0.00    -0.237 OA
ATOM     82  O   UNL A   1      32.378  35.959  30.091  1.00  0.00    -0.744 OA
ENDBRANCH  78  79
ENDBRANCH  46  71
BRANCH  58  83
ATOM     83  C   UNL A   1      39.572  33.477  36.974  1.00  0.00     0.058 A 
ATOM     84  C   UNL A   1      38.729  33.092  38.027  1.00  0.00     0.135 A 
ATOM     85  C   UNL A   1      40.270  34.689  37.097  1.00  0.00     0.135 A 
ATOM     86  F   UNL A   1      38.031  31.948  37.951  1.00  0.00    -0.206 F 
ATOM     87  C   UNL A   1      38.586  33.881  39.165  1.00  0.00     0.059 A 
ATOM     88  C   UNL A   1      40.159  35.482  38.234  1.00  0.00     0.059 A 
ATOM     89  F   UNL A   1      41.093  35.096  36.118  1.00  0.00    -0.206 F 
ATOM     90  C   UNL A   1      39.312  35.071  39.261  1.00  0.00     0.060 A 
BRANCH  90  91
ATOM     91  S   UNL A   1      39.173  36.050  40.772  1.00  0.00     0.124 S 
ATOM     92  O   UNL A   1      39.426  37.399  40.273  1.00  0.00    -0.237 OA
ATOM     93  O   UNL A   1      37.804  35.778  41.197  1.00  0.00    -0.237 OA
ATOM     94  O   UNL A   1      40.212  35.494  41.633  1.00  0.00    -0.744 OA
ENDBRANCH  90  91
ENDBRANCH  58  83
ENDBRANCH  32  33
ENDBRANCH  25  27
ENDBRANCH  24  25
ENDBRANCH  23  24
ENDBRANCH   1  23
TORSDOF 17
ENDMDL
