MODEL 1
REMARK VINA RESULT:     -11.2      0.000      0.000
REMARK SMILES Cc1nc(C)c(C(=O)N2CCC([C@H](C)C(=O)OCCOC(=O)c3ccc(-c4c5nc(c(-c6c(F)cc(S(=O)(=O)[O-])cc6F)c6ccc([nH]6)c(-c6c(F)cc(S(=O)(=O)[O-])cc6F)c6nc(c(-c7c(F)cc(S(=O)(=O)[O-])cc7F)c7ccc4[nH]7)C=C6)C=C5)cc3)CC2)s1
REMARK SMILES IDX 19 1 18 2 17 3 15 4 16 5 13 6 14 7 12 8 7 9 8 10 9 11 10 12
REMARK SMILES IDX 90 13 11 14 89 15 6 16 1 17 2 18 3 19 91 20 4 21 5 22 20 23
REMARK SMILES IDX 21 24 22 25 23 26 24 27 88 28 25 29 87 30 26 31 27 32 28 33
REMARK SMILES IDX 81 34 29 35 86 36 80 37 82 38 30 39 85 40 79 41 78 42 31 44
REMARK SMILES IDX 65 45 44 46 64 47 45 48 48 49 63 50 83 51 46 52 47 53 62 55
REMARK SMILES IDX 84 56 49 57 32 58 33 59 42 60 34 61 35 62 41 63 43 64 36 65
REMARK SMILES IDX 37 66 38 67 39 68 40 69 66 70 67 71 76 72 68 73 69 74 75 75
REMARK SMILES IDX 77 76 70 77 71 78 72 79 73 80 74 81 50 82 51 83 60 84 52 85
REMARK SMILES IDX 53 86 59 87 61 88 54 89 55 90 56 91 57 92 58 93
REMARK H PARENT 82 43 48 54
REMARK Flexibility Score: inf
ROOT
ATOM      1  C   UNL A   1      33.252  30.085  26.172  1.00  0.00     0.275 C 
ENDROOT
BRANCH   1   2
ATOM      2  C   UNL A   1      31.750  29.834  26.002  1.00  0.00     0.274 C 
BRANCH   2   3
ATOM      3  O   UNL A   1      31.428  28.429  25.976  1.00  0.00    -0.462 OA
BRANCH   3   4
ATOM      4  C   UNL A   1      31.101  27.931  24.757  1.00  0.00     0.309 C 
ATOM      5  O   UNL A   1      31.409  28.446  23.688  1.00  0.00    -0.252 OA
BRANCH   4   6
ATOM      6  C   UNL A   1      30.255  26.665  24.832  1.00  0.00     0.099 C 
ATOM      7  C   UNL A   1      29.001  26.755  23.958  1.00  0.00     0.020 C 
BRANCH   6   8
ATOM      8  C   UNL A   1      31.064  25.340  24.727  1.00  0.00     0.006 C 
ATOM      9  C   UNL A   1      34.361  23.093  23.328  1.00  0.00     0.265 C 
ATOM     10  O   UNL A   1      34.423  23.150  22.098  1.00  0.00    -0.268 OA
ATOM     11  N   UNL A   1      33.208  23.516  23.994  1.00  0.00    -0.338 N 
ATOM     12  C   UNL A   1      31.937  23.460  23.293  1.00  0.00     0.120 C 
ATOM     13  C   UNL A   1      33.161  24.023  25.363  1.00  0.00     0.120 C 
ATOM     14  C   UNL A   1      31.236  24.810  23.293  1.00  0.00     0.026 C 
ATOM     15  C   UNL A   1      32.438  25.371  25.429  1.00  0.00     0.026 C 
BRANCH   9  16
ATOM     16  C   UNL A   1      35.458  22.540  24.102  1.00  0.00     0.115 A 
ATOM     17  C   UNL A   1      38.726  22.364  26.191  1.00  0.00     0.079 C 
ATOM     18  C   UNL A   1      37.436  22.209  25.468  1.00  0.00     0.091 A 
ATOM     19  N   UNL A   1      36.664  21.148  25.547  1.00  0.00    -0.246 NA
ATOM     20  S   UNL A   1      36.838  23.484  24.497  1.00  0.00    -0.113 S 
ATOM     21  C   UNL A   1      35.510  21.340  24.795  1.00  0.00     0.061 A 
ATOM     22  C   UNL A   1      34.470  20.277  24.839  1.00  0.00     0.068 C 
ENDBRANCH   9  16
ENDBRANCH   6   8
ENDBRANCH   4   6
ENDBRANCH   3   4
ENDBRANCH   2   3
ENDBRANCH   1   2
BRANCH   1  23
ATOM     23  O   UNL A   1      33.721  29.690  27.475  1.00  0.00    -0.458 OA
BRANCH  23  24
ATOM     24  C   UNL A   1      34.505  30.600  28.101  1.00  0.00     0.338 C 
ATOM     25  O   UNL A   1      34.159  31.668  28.576  1.00  0.00    -0.246 OA
BRANCH  24  26
ATOM     26  C   UNL A   1      35.867  30.065  28.253  1.00  0.00     0.060 A 
ATOM     27  C   UNL A   1      36.261  29.619  29.517  1.00  0.00     0.016 A 
ATOM     28  C   UNL A   1      36.779  30.101  27.199  1.00  0.00     0.016 A 
ATOM     29  C   UNL A   1      37.570  29.204  29.740  1.00  0.00     0.010 A 
ATOM     30  C   UNL A   1      38.097  29.691  27.424  1.00  0.00     0.010 A 
ATOM     31  C   UNL A   1      38.502  29.253  28.698  1.00  0.00    -0.014 A 
BRANCH  31  32
ATOM     32  C   UNL A   1      39.921  28.924  28.968  1.00  0.00     0.031 A 
ATOM     33  C   UNL A   1      40.823  29.973  29.552  1.00  0.00     0.074 A 
ATOM     34  C   UNL A   1      40.387  27.688  28.715  1.00  0.00     0.049 A 
ATOM     35  N   UNL A   1      42.112  29.933  29.761  1.00  0.00    -0.248 NA
ATOM     36  C   UNL A   1      40.186  31.236  29.957  1.00  0.00     0.031 C 
ATOM     37  C   UNL A   1      39.588  26.573  28.206  1.00  0.00     0.029 A 
ATOM     38  N   UNL A   1      41.649  27.167  28.842  1.00  0.00    -0.354 N 
ATOM     39  C   UNL A   1      42.448  31.170  30.296  1.00  0.00     0.074 A 
ATOM     40  C   UNL A   1      41.226  31.942  30.377  1.00  0.00     0.031 C 
ATOM     41  C   UNL A   1      40.383  25.501  28.054  1.00  0.00     0.029 A 
ATOM     42  C   UNL A   1      41.752  25.867  28.409  1.00  0.00     0.049 A 
ATOM     43  H   UNL A   1      42.409  27.675  29.209  1.00  0.00     0.167 HD
ATOM     44  C   UNL A   1      43.666  31.619  30.683  1.00  0.00     0.037 A 
ATOM     45  C   UNL A   1      42.834  25.075  28.280  1.00  0.00     0.037 A 
ATOM     46  C   UNL A   1      44.873  30.838  30.607  1.00  0.00     0.049 A 
ATOM     47  C   UNL A   1      44.186  25.612  28.665  1.00  0.00     0.074 A 
ATOM     48  C   UNL A   1      46.160  31.201  30.966  1.00  0.00     0.029 A 
ATOM     49  N   UNL A   1      44.941  29.531  30.144  1.00  0.00    -0.354 N 
ATOM     50  N   UNL A   1      44.496  26.795  29.141  1.00  0.00    -0.248 NA
ATOM     51  C   UNL A   1      45.334  24.714  28.488  1.00  0.00     0.031 C 
ATOM     52  C   UNL A   1      47.010  30.125  30.690  1.00  0.00     0.029 A 
ATOM     53  C   UNL A   1      46.248  29.078  30.195  1.00  0.00     0.049 A 
ATOM     54  H   UNL A   1      44.172  29.005  29.826  1.00  0.00     0.167 HD
ATOM     55  C   UNL A   1      45.873  26.778  29.333  1.00  0.00     0.074 A 
ATOM     56  C   UNL A   1      46.333  25.463  28.935  1.00  0.00     0.031 C 
ATOM     57  C   UNL A   1      46.683  27.762  29.796  1.00  0.00     0.037 A 
BRANCH  44  58
ATOM     58  C   UNL A   1      43.754  33.032  31.186  1.00  0.00     0.058 A 
ATOM     59  C   UNL A   1      43.961  34.114  30.318  1.00  0.00     0.135 A 
ATOM     60  C   UNL A   1      43.616  33.306  32.556  1.00  0.00     0.135 A 
ATOM     61  F   UNL A   1      44.118  33.904  29.001  1.00  0.00    -0.206 F 
ATOM     62  C   UNL A   1      44.052  35.419  30.793  1.00  0.00     0.059 A 
ATOM     63  C   UNL A   1      43.684  34.604  33.052  1.00  0.00     0.059 A 
ATOM     64  F   UNL A   1      43.421  32.305  33.429  1.00  0.00    -0.206 F 
ATOM     65  C   UNL A   1      43.919  35.653  32.164  1.00  0.00     0.060 A 
BRANCH  65  66
ATOM     66  S   UNL A   1      44.050  37.348  32.771  1.00  0.00     0.124 S 
ATOM     67  O   UNL A   1      42.951  37.399  33.729  1.00  0.00    -0.237 OA
ATOM     68  O   UNL A   1      45.391  37.375  33.344  1.00  0.00    -0.237 OA
ATOM     69  O   UNL A   1      43.871  38.154  31.567  1.00  0.00    -0.744 OA
ENDBRANCH  65  66
ENDBRANCH  44  58
BRANCH  45  70
ATOM     70  C   UNL A   1      42.684  23.702  27.732  1.00  0.00     0.058 A 
ATOM     71  C   UNL A   1      42.535  22.595  28.578  1.00  0.00     0.135 A 
ATOM     72  C   UNL A   1      42.664  23.475  26.346  1.00  0.00     0.135 A 
ATOM     73  F   UNL A   1      42.559  22.761  29.910  1.00  0.00    -0.206 F 
ATOM     74  C   UNL A   1      42.376  21.309  28.073  1.00  0.00     0.059 A 
ATOM     75  C   UNL A   1      42.483  22.201  25.817  1.00  0.00     0.059 A 
ATOM     76  F   UNL A   1      42.793  24.504  25.494  1.00  0.00    -0.206 F 
ATOM     77  C   UNL A   1      42.347  21.122  26.690  1.00  0.00     0.060 A 
BRANCH  77  78
ATOM     78  S   UNL A   1      42.074  19.460  26.040  1.00  0.00     0.124 S 
ATOM     79  O   UNL A   1      42.533  18.632  27.149  1.00  0.00    -0.237 OA
ATOM     80  O   UNL A   1      40.636  19.456  25.792  1.00  0.00    -0.237 OA
ATOM     81  O   UNL A   1      42.906  19.429  24.841  1.00  0.00    -0.744 OA
ENDBRANCH  77  78
ENDBRANCH  45  70
BRANCH  57  82
ATOM     82  C   UNL A   1      48.145  27.445  29.920  1.00  0.00     0.058 A 
ATOM     83  C   UNL A   1      49.032  27.639  28.850  1.00  0.00     0.135 A 
ATOM     84  C   UNL A   1      48.674  26.991  31.138  1.00  0.00     0.135 A 
ATOM     85  F   UNL A   1      48.574  28.066  27.662  1.00  0.00    -0.206 F 
ATOM     86  C   UNL A   1      50.391  27.374  28.977  1.00  0.00     0.059 A 
ATOM     87  C   UNL A   1      50.032  26.739  31.295  1.00  0.00     0.059 A 
ATOM     88  F   UNL A   1      47.867  26.798  32.194  1.00  0.00    -0.206 F 
ATOM     89  C   UNL A   1      50.882  26.924  30.205  1.00  0.00     0.060 A 
BRANCH  89  90
ATOM     90  S   UNL A   1      52.653  26.615  30.372  1.00  0.00     0.124 S 
ATOM     91  O   UNL A   1      52.669  25.500  31.312  1.00  0.00    -0.237 OA
ATOM     92  O   UNL A   1      53.049  26.298  29.004  1.00  0.00    -0.237 OA
ATOM     93  O   UNL A   1      53.169  27.879  30.888  1.00  0.00    -0.744 OA
ENDBRANCH  89  90
ENDBRANCH  57  82
ENDBRANCH  31  32
ENDBRANCH  24  26
ENDBRANCH  23  24
ENDBRANCH   1  23
TORSDOF 16
ENDMDL
MODEL 2
REMARK VINA RESULT:     -11.0      2.106      2.893
REMARK SMILES Cc1nc(C)c(C(=O)N2CCC([C@H](C)C(=O)OCCOC(=O)c3ccc(-c4c5nc(c(-c6c(F)cc(S(=O)(=O)[O-])cc6F)c6ccc([nH]6)c(-c6c(F)cc(S(=O)(=O)[O-])cc6F)c6nc(c(-c7c(F)cc(S(=O)(=O)[O-])cc7F)c7ccc4[nH]7)C=C6)C=C5)cc3)CC2)s1
REMARK SMILES IDX 19 1 18 2 17 3 15 4 16 5 13 6 14 7 12 8 7 9 8 10 9 11 10 12
REMARK SMILES IDX 90 13 11 14 89 15 6 16 1 17 2 18 3 19 91 20 4 21 5 22 20 23
REMARK SMILES IDX 21 24 22 25 23 26 24 27 88 28 25 29 87 30 26 31 27 32 28 33
REMARK SMILES IDX 81 34 29 35 86 36 80 37 82 38 30 39 85 40 79 41 78 42 31 44
REMARK SMILES IDX 65 45 44 46 64 47 45 48 48 49 63 50 83 51 46 52 47 53 62 55
REMARK SMILES IDX 84 56 49 57 32 58 33 59 42 60 34 61 35 62 41 63 43 64 36 65
REMARK SMILES IDX 37 66 38 67 39 68 40 69 66 70 67 71 76 72 68 73 69 74 75 75
REMARK SMILES IDX 77 76 70 77 71 78 72 79 73 80 74 81 50 82 51 83 60 84 52 85
REMARK SMILES IDX 53 86 59 87 61 88 54 89 55 90 56 91 57 92 58 93
REMARK H PARENT 82 43 48 54
REMARK Flexibility Score: inf
ROOT
ATOM      1  C   UNL A   1      34.435  31.160  27.623  1.00  0.00     0.275 C 
ENDROOT
BRANCH   1   2
ATOM      2  C   UNL A   1      33.012  30.747  27.235  1.00  0.00     0.274 C 
BRANCH   2   3
ATOM      3  O   UNL A   1      32.911  29.340  26.936  1.00  0.00    -0.462 OA
BRANCH   3   4
ATOM      4  C   UNL A   1      32.777  29.036  25.620  1.00  0.00     0.309 C 
ATOM      5  O   UNL A   1      33.486  29.482  24.725  1.00  0.00    -0.252 OA
BRANCH   4   6
ATOM      6  C   UNL A   1      31.607  28.101  25.335  1.00  0.00     0.099 C 
ATOM      7  C   UNL A   1      30.677  28.650  24.251  1.00  0.00     0.020 C 
BRANCH   6   8
ATOM      8  C   UNL A   1      31.996  26.600  25.201  1.00  0.00     0.006 C 
ATOM      9  C   UNL A   1      34.264  23.485  23.457  1.00  0.00     0.265 C 
ATOM     10  O   UNL A   1      34.119  23.490  22.233  1.00  0.00    -0.268 OA
ATOM     11  N   UNL A   1      33.405  24.232  24.268  1.00  0.00    -0.338 N 
ATOM     12  C   UNL A   1      32.062  24.512  23.790  1.00  0.00     0.120 C 
ATOM     13  C   UNL A   1      33.739  24.770  25.584  1.00  0.00     0.120 C 
ATOM     14  C   UNL A   1      31.762  26.004  23.802  1.00  0.00     0.026 C 
ATOM     15  C   UNL A   1      33.430  26.267  25.665  1.00  0.00     0.026 C 
BRANCH   9  16
ATOM     16  C   UNL A   1      35.290  22.671  24.082  1.00  0.00     0.115 A 
ATOM     17  C   UNL A   1      38.649  21.689  25.764  1.00  0.00     0.079 C 
ATOM     18  C   UNL A   1      37.284  21.852  25.196  1.00  0.00     0.091 A 
ATOM     19  N   UNL A   1      36.311  20.980  25.338  1.00  0.00    -0.246 NA
ATOM     20  S   UNL A   1      36.879  23.274  24.335  1.00  0.00    -0.113 S 
ATOM     21  C   UNL A   1      35.153  21.454  24.733  1.00  0.00     0.061 A 
ATOM     22  C   UNL A   1      33.915  20.641  24.873  1.00  0.00     0.068 C 
ENDBRANCH   9  16
ENDBRANCH   6   8
ENDBRANCH   4   6
ENDBRANCH   3   4
ENDBRANCH   2   3
ENDBRANCH   1   2
BRANCH   1  23
ATOM     23  O   UNL A   1      35.101  30.142  28.394  1.00  0.00    -0.458 OA
BRANCH  23  24
ATOM     24  C   UNL A   1      36.001  30.603  29.295  1.00  0.00     0.338 C 
ATOM     25  O   UNL A   1      35.784  31.340  30.242  1.00  0.00    -0.246 OA
BRANCH  24  26
ATOM     26  C   UNL A   1      37.314  29.983  29.053  1.00  0.00     0.060 A 
ATOM     27  C   UNL A   1      38.093  29.642  30.161  1.00  0.00     0.016 A 
ATOM     28  C   UNL A   1      37.817  29.838  27.761  1.00  0.00     0.016 A 
ATOM     29  C   UNL A   1      39.384  29.151  29.989  1.00  0.00     0.010 A 
ATOM     30  C   UNL A   1      39.117  29.353  27.587  1.00  0.00     0.010 A 
ATOM     31  C   UNL A   1      39.911  29.019  28.700  1.00  0.00    -0.014 A 
BRANCH  31  32
ATOM     32  C   UNL A   1      41.324  28.611  28.525  1.00  0.00     0.031 A 
ATOM     33  C   UNL A   1      42.410  29.639  28.657  1.00  0.00     0.074 A 
ATOM     34  C   UNL A   1      41.629  27.325  28.275  1.00  0.00     0.049 A 
ATOM     35  N   UNL A   1      43.693  29.521  28.434  1.00  0.00    -0.248 NA
ATOM     36  C   UNL A   1      41.996  30.979  29.103  1.00  0.00     0.031 C 
ATOM     37  C   UNL A   1      40.661  26.230  28.186  1.00  0.00     0.029 A 
ATOM     38  N   UNL A   1      42.839  26.724  28.039  1.00  0.00    -0.354 N 
ATOM     39  C   UNL A   1      44.237  30.774  28.685  1.00  0.00     0.074 A 
ATOM     40  C   UNL A   1      43.145  31.641  29.075  1.00  0.00     0.031 C 
ATOM     41  C   UNL A   1      41.316  25.092  27.905  1.00  0.00     0.029 A 
ATOM     42  C   UNL A   1      42.738  25.385  27.746  1.00  0.00     0.049 A 
ATOM     43  H   UNL A   1      43.697  27.205  28.076  1.00  0.00     0.167 HD
ATOM     44  C   UNL A   1      45.532  31.164  28.597  1.00  0.00     0.037 A 
ATOM     45  C   UNL A   1      43.682  24.505  27.360  1.00  0.00     0.037 A 
ATOM     46  C   UNL A   1      46.611  30.290  28.219  1.00  0.00     0.049 A 
ATOM     47  C   UNL A   1      45.106  24.973  27.216  1.00  0.00     0.074 A 
ATOM     48  C   UNL A   1      47.957  30.587  28.091  1.00  0.00     0.029 A 
ATOM     49  N   UNL A   1      46.468  28.945  27.911  1.00  0.00    -0.354 N 
ATOM     50  N   UNL A   1      45.604  26.168  27.426  1.00  0.00    -0.248 NA
ATOM     51  C   UNL A   1      46.091  23.977  26.776  1.00  0.00     0.031 C 
ATOM     52  C   UNL A   1      48.623  29.429  27.676  1.00  0.00     0.029 A 
ATOM     53  C   UNL A   1      47.698  28.401  27.581  1.00  0.00     0.049 A 
ATOM     54  H   UNL A   1      45.617  28.450  27.925  1.00  0.00     0.167 HD
ATOM     55  C   UNL A   1      46.964  26.066  27.157  1.00  0.00     0.074 A 
ATOM     56  C   UNL A   1      47.212  24.688  26.782  1.00  0.00     0.031 C 
ATOM     57  C   UNL A   1      47.921  27.024  27.213  1.00  0.00     0.037 A 
BRANCH  44  58
ATOM     58  C   UNL A   1      45.839  32.607  28.880  1.00  0.00     0.058 A 
ATOM     59  C   UNL A   1      45.835  33.576  27.865  1.00  0.00     0.135 A 
ATOM     60  C   UNL A   1      46.129  33.027  30.188  1.00  0.00     0.135 A 
ATOM     61  F   UNL A   1      45.583  33.224  26.595  1.00  0.00    -0.206 F 
ATOM     62  C   UNL A   1      46.132  34.909  28.133  1.00  0.00     0.059 A 
ATOM     63  C   UNL A   1      46.409  34.357  30.483  1.00  0.00     0.059 A 
ATOM     64  F   UNL A   1      46.150  32.138  31.193  1.00  0.00    -0.206 F 
ATOM     65  C   UNL A   1      46.425  35.289  29.445  1.00  0.00     0.060 A 
BRANCH  65  66
ATOM     66  S   UNL A   1      46.819  37.019  29.780  1.00  0.00     0.124 S 
ATOM     67  O   UNL A   1      47.658  37.352  28.634  1.00  0.00    -0.237 OA
ATOM     68  O   UNL A   1      45.500  37.644  29.802  1.00  0.00    -0.237 OA
ATOM     69  O   UNL A   1      47.505  36.967  31.067  1.00  0.00    -0.744 OA
ENDBRANCH  65  66
ENDBRANCH  44  58
BRANCH  45  70
ATOM     70  C   UNL A   1      43.302  23.103  27.051  1.00  0.00     0.058 A 
ATOM     71  C   UNL A   1      43.244  22.641  25.729  1.00  0.00     0.135 A 
ATOM     72  C   UNL A   1      43.012  22.190  28.078  1.00  0.00     0.135 A 
ATOM     73  F   UNL A   1      43.503  23.479  24.713  1.00  0.00    -0.206 F 
ATOM     74  C   UNL A   1      42.906  21.324  25.432  1.00  0.00     0.059 A 
ATOM     75  C   UNL A   1      42.694  20.862  27.807  1.00  0.00     0.059 A 
ATOM     76  F   UNL A   1      43.063  22.581  29.360  1.00  0.00    -0.206 F 
ATOM     77  C   UNL A   1      42.637  20.441  26.479  1.00  0.00     0.060 A 
BRANCH  77  78
ATOM     78  S   UNL A   1      42.265  18.717  26.091  1.00  0.00     0.124 S 
ATOM     79  O   UNL A   1      42.596  18.055  27.347  1.00  0.00    -0.237 OA
ATOM     80  O   UNL A   1      40.845  18.774  25.754  1.00  0.00    -0.237 OA
ATOM     81  O   UNL A   1      43.153  18.428  24.969  1.00  0.00    -0.744 OA
ENDBRANCH  77  78
ENDBRANCH  45  70
BRANCH  57  82
ATOM     82  C   UNL A   1      49.327  26.611  26.886  1.00  0.00     0.058 A 
ATOM     83  C   UNL A   1      50.164  26.031  27.850  1.00  0.00     0.135 A 
ATOM     84  C   UNL A   1      49.825  26.750  25.580  1.00  0.00     0.135 A 
ATOM     85  F   UNL A   1      49.737  25.882  29.114  1.00  0.00    -0.206 F 
ATOM     86  C   UNL A   1      51.456  25.620  27.538  1.00  0.00     0.059 A 
ATOM     87  C   UNL A   1      51.104  26.328  25.239  1.00  0.00     0.059 A 
ATOM     88  F   UNL A   1      49.058  27.291  24.620  1.00  0.00    -0.206 F 
ATOM     89  C   UNL A   1      51.917  25.773  26.228  1.00  0.00     0.060 A 
BRANCH  89  90
ATOM     90  S   UNL A   1      53.582  25.206  25.821  1.00  0.00     0.124 S 
ATOM     91  O   UNL A   1      53.983  26.175  24.807  1.00  0.00    -0.237 OA
ATOM     92  O   UNL A   1      54.272  25.307  27.104  1.00  0.00    -0.237 OA
ATOM     93  O   UNL A   1      53.367  23.845  25.339  1.00  0.00    -0.744 OA
ENDBRANCH  89  90
ENDBRANCH  57  82
ENDBRANCH  31  32
ENDBRANCH  24  26
ENDBRANCH  23  24
ENDBRANCH   1  23
TORSDOF 16
ENDMDL
MODEL 3
REMARK VINA RESULT:     -10.9      3.393      6.054
REMARK SMILES Cc1nc(C)c(C(=O)N2CCC([C@H](C)C(=O)OCCOC(=O)c3ccc(-c4c5nc(c(-c6c(F)cc(S(=O)(=O)[O-])cc6F)c6ccc([nH]6)c(-c6c(F)cc(S(=O)(=O)[O-])cc6F)c6nc(c(-c7c(F)cc(S(=O)(=O)[O-])cc7F)c7ccc4[nH]7)C=C6)C=C5)cc3)CC2)s1
REMARK SMILES IDX 19 1 18 2 17 3 15 4 16 5 13 6 14 7 12 8 7 9 8 10 9 11 10 12
REMARK SMILES IDX 90 13 11 14 89 15 6 16 1 17 2 18 3 19 91 20 4 21 5 22 20 23
REMARK SMILES IDX 21 24 22 25 23 26 24 27 88 28 25 29 87 30 26 31 27 32 28 33
REMARK SMILES IDX 81 34 29 35 86 36 80 37 82 38 30 39 85 40 79 41 78 42 31 44
REMARK SMILES IDX 65 45 44 46 64 47 45 48 48 49 63 50 83 51 46 52 47 53 62 55
REMARK SMILES IDX 84 56 49 57 32 58 33 59 42 60 34 61 35 62 41 63 43 64 36 65
REMARK SMILES IDX 37 66 38 67 39 68 40 69 66 70 67 71 76 72 68 73 69 74 75 75
REMARK SMILES IDX 77 76 70 77 71 78 72 79 73 80 74 81 50 82 51 83 60 84 52 85
REMARK SMILES IDX 53 86 59 87 61 88 54 89 55 90 56 91 57 92 58 93
REMARK H PARENT 82 43 48 54
REMARK Flexibility Score: inf
ROOT
ATOM      1  C   UNL A   1      35.327  32.632  29.000  1.00  0.00     0.275 C 
ENDROOT
BRANCH   1   2
ATOM      2  C   UNL A   1      34.372  33.236  30.034  1.00  0.00     0.274 C 
BRANCH   2   3
ATOM      3  O   UNL A   1      34.408  32.534  31.293  1.00  0.00    -0.462 OA
BRANCH   3   4
ATOM      4  C   UNL A   1      34.286  33.314  32.397  1.00  0.00     0.309 C 
ATOM      5  O   UNL A   1      33.357  33.251  33.195  1.00  0.00    -0.252 OA
BRANCH   4   6
ATOM      6  C   UNL A   1      35.409  34.335  32.539  1.00  0.00     0.099 C 
ATOM      7  C   UNL A   1      34.912  35.666  33.107  1.00  0.00     0.020 C 
BRANCH   6   8
ATOM      8  C   UNL A   1      36.717  33.773  33.168  1.00  0.00     0.006 C 
ATOM      9  C   UNL A   1      39.052  30.585  34.675  1.00  0.00     0.265 C 
ATOM     10  O   UNL A   1      38.447  30.007  35.580  1.00  0.00    -0.268 OA
ATOM     11  N   UNL A   1      38.610  31.830  34.218  1.00  0.00    -0.338 N 
ATOM     12  C   UNL A   1      37.867  32.683  35.129  1.00  0.00     0.120 C 
ATOM     13  C   UNL A   1      38.832  32.366  32.878  1.00  0.00     0.120 C 
ATOM     14  C   UNL A   1      36.528  33.101  34.540  1.00  0.00     0.026 C 
ATOM     15  C   UNL A   1      37.518  32.832  32.244  1.00  0.00     0.026 C 
BRANCH   9  16
ATOM     16  C   UNL A   1      40.257  30.014  34.102  1.00  0.00     0.115 A 
ATOM     17  C   UNL A   1      43.995  29.054  33.677  1.00  0.00     0.079 C 
ATOM     18  C   UNL A   1      42.522  29.259  33.670  1.00  0.00     0.091 A 
ATOM     19  N   UNL A   1      41.680  28.569  32.933  1.00  0.00    -0.246 NA
ATOM     20  S   UNL A   1      41.813  30.418  34.709  1.00  0.00    -0.113 S 
ATOM     21  C   UNL A   1      40.375  28.970  33.198  1.00  0.00     0.061 A 
ATOM     22  C   UNL A   1      39.274  28.232  32.522  1.00  0.00     0.068 C 
ENDBRANCH   9  16
ENDBRANCH   6   8
ENDBRANCH   4   6
ENDBRANCH   3   4
ENDBRANCH   2   3
ENDBRANCH   1   2
BRANCH   1  23
ATOM     23  O   UNL A   1      34.621  31.974  27.933  1.00  0.00    -0.458 OA
BRANCH  23  24
ATOM     24  C   UNL A   1      34.575  30.623  28.023  1.00  0.00     0.338 C 
ATOM     25  O   UNL A   1      33.594  29.910  27.897  1.00  0.00    -0.246 OA
BRANCH  24  26
ATOM     26  C   UNL A   1      35.935  30.086  28.182  1.00  0.00     0.060 A 
ATOM     27  C   UNL A   1      36.323  29.641  29.448  1.00  0.00     0.016 A 
ATOM     28  C   UNL A   1      36.851  30.116  27.131  1.00  0.00     0.016 A 
ATOM     29  C   UNL A   1      37.630  29.222  29.677  1.00  0.00     0.010 A 
ATOM     30  C   UNL A   1      38.167  29.703  27.362  1.00  0.00     0.010 A 
ATOM     31  C   UNL A   1      38.566  29.267  28.639  1.00  0.00    -0.014 A 
BRANCH  31  32
ATOM     32  C   UNL A   1      39.983  28.934  28.915  1.00  0.00     0.031 A 
ATOM     33  C   UNL A   1      40.887  29.984  29.494  1.00  0.00     0.074 A 
ATOM     34  C   UNL A   1      40.445  27.695  28.672  1.00  0.00     0.049 A 
ATOM     35  N   UNL A   1      42.175  29.940  29.707  1.00  0.00    -0.248 NA
ATOM     36  C   UNL A   1      40.254  31.252  29.888  1.00  0.00     0.031 C 
ATOM     37  C   UNL A   1      39.643  26.579  28.169  1.00  0.00     0.029 A 
ATOM     38  N   UNL A   1      41.704  27.170  28.807  1.00  0.00    -0.354 N 
ATOM     39  C   UNL A   1      42.515  31.180  30.234  1.00  0.00     0.074 A 
ATOM     40  C   UNL A   1      41.296  31.957  30.306  1.00  0.00     0.031 C 
ATOM     41  C   UNL A   1      40.434  25.502  28.027  1.00  0.00     0.029 A 
ATOM     42  C   UNL A   1      41.803  25.866  28.383  1.00  0.00     0.049 A 
ATOM     43  H   UNL A   1      42.465  27.677  29.172  1.00  0.00     0.167 HD
ATOM     44  C   UNL A   1      43.734  31.627  30.621  1.00  0.00     0.037 A 
ATOM     45  C   UNL A   1      42.882  25.069  28.263  1.00  0.00     0.037 A 
ATOM     46  C   UNL A   1      44.938  30.841  30.554  1.00  0.00     0.049 A 
ATOM     47  C   UNL A   1      44.236  25.604  28.648  1.00  0.00     0.074 A 
ATOM     48  C   UNL A   1      46.225  31.201  30.913  1.00  0.00     0.029 A 
ATOM     49  N   UNL A   1      45.002  29.530  30.101  1.00  0.00    -0.354 N 
ATOM     50  N   UNL A   1      44.549  26.789  29.116  1.00  0.00    -0.248 NA
ATOM     51  C   UNL A   1      45.380  24.699  28.481  1.00  0.00     0.031 C 
ATOM     52  C   UNL A   1      47.072  30.120  30.648  1.00  0.00     0.029 A 
ATOM     53  C   UNL A   1      46.307  29.072  30.159  1.00  0.00     0.049 A 
ATOM     54  H   UNL A   1      44.232  29.004  29.785  1.00  0.00     0.167 HD
ATOM     55  C   UNL A   1      45.925  26.768  29.312  1.00  0.00     0.074 A 
ATOM     56  C   UNL A   1      46.381  25.448  28.925  1.00  0.00     0.031 C 
ATOM     57  C   UNL A   1      46.738  27.752  29.770  1.00  0.00     0.037 A 
BRANCH  44  58
ATOM     58  C   UNL A   1      43.826  33.043  31.114  1.00  0.00     0.058 A 
ATOM     59  C   UNL A   1      43.798  34.135  30.234  1.00  0.00     0.135 A 
ATOM     60  C   UNL A   1      43.930  33.309  32.488  1.00  0.00     0.135 A 
ATOM     61  F   UNL A   1      43.719  33.934  28.909  1.00  0.00    -0.206 F 
ATOM     62  C   UNL A   1      43.895  35.444  30.698  1.00  0.00     0.059 A 
ATOM     63  C   UNL A   1      44.007  34.610  32.977  1.00  0.00     0.059 A 
ATOM     64  F   UNL A   1      43.964  32.299  33.371  1.00  0.00    -0.206 F 
ATOM     65  C   UNL A   1      44.006  35.671  32.072  1.00  0.00     0.060 A 
BRANCH  65  66
ATOM     66  S   UNL A   1      44.142  37.371  32.662  1.00  0.00     0.124 S 
ATOM     67  O   UNL A   1      43.047  37.433  33.624  1.00  0.00    -0.237 OA
ATOM     68  O   UNL A   1      45.486  37.401  33.230  1.00  0.00    -0.237 OA
ATOM     69  O   UNL A   1      43.961  38.166  31.451  1.00  0.00    -0.744 OA
ENDBRANCH  65  66
ENDBRANCH  44  58
BRANCH  45  70
ATOM     70  C   UNL A   1      42.728  23.693  27.724  1.00  0.00     0.058 A 
ATOM     71  C   UNL A   1      42.579  22.591  28.579  1.00  0.00     0.135 A 
ATOM     72  C   UNL A   1      42.706  23.457  26.340  1.00  0.00     0.135 A 
ATOM     73  F   UNL A   1      42.604  22.767  29.909  1.00  0.00    -0.206 F 
ATOM     74  C   UNL A   1      42.416  21.302  28.083  1.00  0.00     0.059 A 
ATOM     75  C   UNL A   1      42.522  22.179  25.820  1.00  0.00     0.059 A 
ATOM     76  F   UNL A   1      42.836  24.479  25.481  1.00  0.00    -0.206 F 
ATOM     77  C   UNL A   1      42.385  21.106  26.700  1.00  0.00     0.060 A 
BRANCH  77  78
ATOM     78  S   UNL A   1      42.107  19.441  26.062  1.00  0.00     0.124 S 
ATOM     79  O   UNL A   1      42.573  18.619  27.173  1.00  0.00    -0.237 OA
ATOM     80  O   UNL A   1      40.667  19.436  25.825  1.00  0.00    -0.237 OA
ATOM     81  O   UNL A   1      42.931  19.402  24.858  1.00  0.00    -0.744 OA
ENDBRANCH  77  78
ENDBRANCH  45  70
BRANCH  57  82
ATOM     82  C   UNL A   1      48.199  27.430  29.901  1.00  0.00     0.058 A 
ATOM     83  C   UNL A   1      49.100  27.674  28.854  1.00  0.00     0.135 A 
ATOM     84  C   UNL A   1      48.710  26.920  31.104  1.00  0.00     0.135 A 
ATOM     85  F   UNL A   1      48.659  28.155  27.681  1.00  0.00    -0.206 F 
ATOM     86  C   UNL A   1      50.458  27.404  28.988  1.00  0.00     0.059 A 
ATOM     87  C   UNL A   1      50.066  26.662  31.269  1.00  0.00     0.059 A 
ATOM     88  F   UNL A   1      47.888  26.679  32.139  1.00  0.00    -0.206 F 
ATOM     89  C   UNL A   1      50.932  26.898  30.201  1.00  0.00     0.060 A 
BRANCH  89  90
ATOM     90  S   UNL A   1      52.700  26.582  30.379  1.00  0.00     0.124 S 
ATOM     91  O   UNL A   1      52.707  25.480  31.334  1.00  0.00    -0.237 OA
ATOM     92  O   UNL A   1      53.100  26.244  29.017  1.00  0.00    -0.237 OA
ATOM     93  O   UNL A   1      53.221  27.851  30.880  1.00  0.00    -0.744 OA
ENDBRANCH  89  90
ENDBRANCH  57  82
ENDBRANCH  31  32
ENDBRANCH  24  26
ENDBRANCH  23  24
ENDBRANCH   1  23
TORSDOF 16
ENDMDL
