MODEL 1
REMARK VINA RESULT:     -11.5      0.000      0.000
REMARK SMILES CSCC[C@H](C(=O)OCCOC(=O)c1ccc(-c2c3nc(c(-c4c(F)cc(S(=O)(=O)[O-])cc4F)c4ccc([nH]4)c(-c4c(F)cc(S(=O)(=O)[O-])cc4F)c4nc(c(-c5c(F)cc(S(=O)(=O)[O-])cc5F)c5ccc2[nH]5)C=C4)C=C3)cc1)N1C(=O)/C(=C/c2ccc3ncccc3c2)SC1=S
REMARK SMILES IDX 9 1 8 2 6 3 7 4 5 5 4 6 3 7 2 8 1 9 80 10 81 11 96 12 82 13
REMARK SMILES IDX 83 14 95 15 97 16 84 17 85 18 86 19 94 20 87 21 93 22 88 23
REMARK SMILES IDX 92 24 89 25 91 26 90 27 10 28 11 29 12 30 13 31 14 32 15 33
REMARK SMILES IDX 79 34 16 35 78 36 17 37 18 38 19 39 72 40 20 41 77 42 71 43
REMARK SMILES IDX 73 44 21 45 76 46 70 47 69 48 22 50 56 51 35 52 55 53 36 54
REMARK SMILES IDX 39 55 54 56 74 57 37 58 38 59 53 61 75 62 40 63 23 64 24 65
REMARK SMILES IDX 33 66 25 67 26 68 32 69 34 70 27 71 28 72 29 73 30 74 31 75
REMARK SMILES IDX 57 76 58 77 67 78 59 79 60 80 66 81 68 82 61 83 62 84 63 85
REMARK SMILES IDX 64 86 65 87 41 88 42 89 51 90 43 91 44 92 50 93 52 94 45 95
REMARK SMILES IDX 46 96 47 97 48 98 49 99
REMARK H PARENT 73 49 39 60
REMARK Flexibility Score: inf
ROOT
ATOM      1  C   UNL A   1      36.303  21.074  25.326  1.00  0.00     0.274 C 
ENDROOT
BRANCH   1   2
ATOM      2  O   UNL A   1      35.532  22.101  25.996  1.00  0.00    -0.461 OA
BRANCH   2   3
ATOM      3  C   UNL A   1      34.268  21.836  26.434  1.00  0.00     0.329 C 
ATOM      4  O   UNL A   1      33.980  21.582  27.595  1.00  0.00    -0.250 OA
BRANCH   3   5
ATOM      5  C   UNL A   1      33.248  21.898  25.269  1.00  0.00     0.202 C 
BRANCH   5   6
ATOM      6  C   UNL A   1      32.385  20.632  25.062  1.00  0.00     0.048 C 
BRANCH   6   7
ATOM      7  C   UNL A   1      32.518  19.726  23.820  1.00  0.00     0.072 C 
BRANCH   7   8
ATOM      8  S   UNL A   1      33.164  18.009  23.836  1.00  0.00    -0.165 SA
ATOM      9  C   UNL A   1      32.650  17.310  25.429  1.00  0.00     0.085 C 
ENDBRANCH   7   8
ENDBRANCH   6   7
ENDBRANCH   5   6
BRANCH   5  10
ATOM     10  N   UNL A   1      32.503  23.210  25.214  1.00  0.00    -0.278 N 
ATOM     11  C   UNL A   1      32.907  24.158  24.264  1.00  0.00     0.266 C 
ATOM     12  C   UNL A   1      31.445  23.630  25.994  1.00  0.00     0.149 C 
ATOM     13  O   UNL A   1      33.723  23.976  23.370  1.00  0.00    -0.268 OA
ATOM     14  C   UNL A   1      32.146  25.437  24.425  1.00  0.00     0.081 C 
ATOM     15  S   UNL A   1      31.283  25.367  25.909  1.00  0.00    -0.054 SA
ATOM     16  S   UNL A   1      30.283  22.800  26.844  1.00  0.00    -0.052 S 
ATOM     17  C   UNL A   1      32.073  26.448  23.541  1.00  0.00     0.029 C 
BRANCH  17  18
ATOM     18  C   UNL A   1      31.280  27.668  23.805  1.00  0.00    -0.024 A 
ATOM     19  C   UNL A   1      31.778  28.719  24.575  1.00  0.00     0.010 A 
ATOM     20  C   UNL A   1      30.046  27.836  23.163  1.00  0.00     0.018 A 
ATOM     21  C   UNL A   1      31.076  29.936  24.640  1.00  0.00     0.029 A 
ATOM     22  C   UNL A   1      29.380  29.070  23.187  1.00  0.00     0.001 A 
ATOM     23  C   UNL A   1      29.896  30.147  23.934  1.00  0.00     0.070 A 
ATOM     24  C   UNL A   1      28.213  29.272  22.442  1.00  0.00     0.012 A 
ATOM     25  N   UNL A   1      29.295  31.354  23.956  1.00  0.00    -0.256 NA
ATOM     26  C   UNL A   1      27.594  30.513  22.456  1.00  0.00     0.021 A 
ATOM     27  C   UNL A   1      28.163  31.509  23.228  1.00  0.00     0.112 A 
ENDBRANCH  17  18
ENDBRANCH   5  10
ENDBRANCH   3   5
ENDBRANCH   2   3
ENDBRANCH   1   2
BRANCH   1  28
ATOM     28  C   UNL A   1      37.707  21.559  24.968  1.00  0.00     0.275 C 
BRANCH  28  29
ATOM     29  O   UNL A   1      37.987  22.765  25.681  1.00  0.00    -0.458 OA
BRANCH  29  30
ATOM     30  C   UNL A   1      39.117  22.703  26.418  1.00  0.00     0.338 C 
ATOM     31  O   UNL A   1      39.883  21.753  26.521  1.00  0.00    -0.246 OA
BRANCH  30  32
ATOM     32  C   UNL A   1      39.421  24.044  26.919  1.00  0.00     0.060 A 
ATOM     33  C   UNL A   1      39.980  24.949  26.014  1.00  0.00     0.016 A 
ATOM     34  C   UNL A   1      39.197  24.396  28.253  1.00  0.00     0.016 A 
ATOM     35  C   UNL A   1      40.389  26.195  26.457  1.00  0.00     0.010 A 
ATOM     36  C   UNL A   1      39.606  25.649  28.696  1.00  0.00     0.010 A 
ATOM     37  C   UNL A   1      40.245  26.530  27.808  1.00  0.00    -0.014 A 
BRANCH  37  38
ATOM     38  C   UNL A   1      40.912  27.745  28.309  1.00  0.00     0.031 A 
ATOM     39  C   UNL A   1      42.410  27.824  28.234  1.00  0.00     0.074 A 
ATOM     40  C   UNL A   1      40.171  28.772  28.754  1.00  0.00     0.049 A 
ATOM     41  N   UNL A   1      43.206  28.785  28.620  1.00  0.00    -0.248 NA
ATOM     42  C   UNL A   1      43.106  26.664  27.650  1.00  0.00     0.031 C 
ATOM     43  C   UNL A   1      38.708  28.787  28.826  1.00  0.00     0.029 A 
ATOM     44  N   UNL A   1      40.546  29.999  29.226  1.00  0.00    -0.354 N 
ATOM     45  C   UNL A   1      44.491  28.350  28.322  1.00  0.00     0.074 A 
ATOM     46  C   UNL A   1      44.375  27.019  27.769  1.00  0.00     0.031 C 
ATOM     47  C   UNL A   1      38.310  29.969  29.324  1.00  0.00     0.029 A 
ATOM     48  C   UNL A   1      39.488  30.774  29.634  1.00  0.00     0.049 A 
ATOM     49  H   UNL A   1      41.483  30.298  29.270  1.00  0.00     0.167 HD
ATOM     50  C   UNL A   1      45.659  29.015  28.478  1.00  0.00     0.037 A 
ATOM     51  C   UNL A   1      39.482  31.987  30.216  1.00  0.00     0.037 A 
ATOM     52  C   UNL A   1      45.746  30.340  29.037  1.00  0.00     0.049 A 
ATOM     53  C   UNL A   1      40.799  32.683  30.433  1.00  0.00     0.074 A 
ATOM     54  C   UNL A   1      46.873  31.109  29.261  1.00  0.00     0.029 A 
ATOM     55  N   UNL A   1      44.657  31.091  29.459  1.00  0.00    -0.354 N 
ATOM     56  N   UNL A   1      42.012  32.264  30.149  1.00  0.00    -0.248 NA
ATOM     57  C   UNL A   1      40.750  34.018  31.038  1.00  0.00     0.031 C 
ATOM     58  C   UNL A   1      46.468  32.308  29.863  1.00  0.00     0.029 A 
ATOM     59  C   UNL A   1      45.084  32.309  29.958  1.00  0.00     0.049 A 
ATOM     60  H   UNL A   1      43.718  30.799  29.411  1.00  0.00     0.167 HD
ATOM     61  C   UNL A   1      42.868  33.293  30.521  1.00  0.00     0.074 A 
ATOM     62  C   UNL A   1      42.029  34.364  31.024  1.00  0.00     0.031 C 
ATOM     63  C   UNL A   1      44.223  33.353  30.459  1.00  0.00     0.037 A 
BRANCH  50  64
ATOM     64  C   UNL A   1      46.924  28.317  28.060  1.00  0.00     0.058 A 
ATOM     65  C   UNL A   1      47.670  27.537  28.960  1.00  0.00     0.135 A 
ATOM     66  C   UNL A   1      47.384  28.401  26.735  1.00  0.00     0.135 A 
ATOM     67  F   UNL A   1      47.294  27.440  30.245  1.00  0.00    -0.206 F 
ATOM     68  C   UNL A   1      48.835  26.884  28.567  1.00  0.00     0.059 A 
ATOM     69  C   UNL A   1      48.530  27.732  26.313  1.00  0.00     0.059 A 
ATOM     70  F   UNL A   1      46.717  29.139  25.835  1.00  0.00    -0.206 F 
ATOM     71  C   UNL A   1      49.254  26.984  27.240  1.00  0.00     0.060 A 
BRANCH  71  72
ATOM     72  S   UNL A   1      50.756  26.112  26.742  1.00  0.00     0.124 S 
ATOM     73  O   UNL A   1      51.784  26.882  27.436  1.00  0.00    -0.237 OA
ATOM     74  O   UNL A   1      50.517  24.767  27.256  1.00  0.00    -0.237 OA
ATOM     75  O   UNL A   1      50.756  26.234  25.288  1.00  0.00    -0.744 OA
ENDBRANCH  71  72
ENDBRANCH  50  64
BRANCH  51  76
ATOM     76  C   UNL A   1      38.197  32.597  30.647  1.00  0.00     0.058 A 
ATOM     77  C   UNL A   1      37.385  33.310  29.754  1.00  0.00     0.135 A 
ATOM     78  C   UNL A   1      37.752  32.470  31.974  1.00  0.00     0.135 A 
ATOM     79  F   UNL A   1      37.766  33.461  28.476  1.00  0.00    -0.206 F 
ATOM     80  C   UNL A   1      36.191  33.897  30.163  1.00  0.00     0.059 A 
ATOM     81  C   UNL A   1      36.549  33.020  32.399  1.00  0.00     0.059 A 
ATOM     82  F   UNL A   1      38.482  31.783  32.866  1.00  0.00    -0.206 F 
ATOM     83  C   UNL A   1      35.780  33.744  31.489  1.00  0.00     0.060 A 
BRANCH  83  84
ATOM     84  S   UNL A   1      34.214  34.480  32.004  1.00  0.00     0.124 S 
ATOM     85  O   UNL A   1      33.644  33.414  32.820  1.00  0.00    -0.237 OA
ATOM     86  O   UNL A   1      34.657  35.670  32.722  1.00  0.00    -0.237 OA
ATOM     87  O   UNL A   1      33.533  34.740  30.738  1.00  0.00    -0.744 OA
ENDBRANCH  83  84
ENDBRANCH  51  76
BRANCH  63  88
ATOM     88  C   UNL A   1      44.867  34.630  30.923  1.00  0.00     0.058 A 
ATOM     89  C   UNL A   1      45.276  34.812  32.254  1.00  0.00     0.135 A 
ATOM     90  C   UNL A   1      45.088  35.683  30.020  1.00  0.00     0.135 A 
ATOM     91  F   UNL A   1      45.086  33.838  33.158  1.00  0.00    -0.206 F 
ATOM     92  C   UNL A   1      45.832  36.011  32.685  1.00  0.00     0.059 A 
ATOM     93  C   UNL A   1      45.677  36.878  30.421  1.00  0.00     0.059 A 
ATOM     94  F   UNL A   1      44.733  35.556  28.732  1.00  0.00    -0.206 F 
ATOM     95  C   UNL A   1      46.024  37.040  31.761  1.00  0.00     0.060 A 
BRANCH  95  96
ATOM     96  S   UNL A   1      46.738  38.594  32.335  1.00  0.00     0.124 S 
ATOM     97  O   UNL A   1      45.581  39.241  32.944  1.00  0.00    -0.237 OA
ATOM     98  O   UNL A   1      47.771  38.139  33.262  1.00  0.00    -0.237 OA
ATOM     99  O   UNL A   1      47.232  39.214  31.110  1.00  0.00    -0.744 OA
ENDBRANCH  95  96
ENDBRANCH  63  88
ENDBRANCH  37  38
ENDBRANCH  30  32
ENDBRANCH  29  30
ENDBRANCH  28  29
ENDBRANCH   1  28
TORSDOF 19
ENDMDL
MODEL 2
REMARK VINA RESULT:     -11.5      4.828      6.044
REMARK SMILES CSCC[C@H](C(=O)OCCOC(=O)c1ccc(-c2c3nc(c(-c4c(F)cc(S(=O)(=O)[O-])cc4F)c4ccc([nH]4)c(-c4c(F)cc(S(=O)(=O)[O-])cc4F)c4nc(c(-c5c(F)cc(S(=O)(=O)[O-])cc5F)c5ccc2[nH]5)C=C4)C=C3)cc1)N1C(=O)/C(=C/c2ccc3ncccc3c2)SC1=S
REMARK SMILES IDX 9 1 8 2 6 3 7 4 5 5 4 6 3 7 2 8 1 9 80 10 81 11 96 12 82 13
REMARK SMILES IDX 83 14 95 15 97 16 84 17 85 18 86 19 94 20 87 21 93 22 88 23
REMARK SMILES IDX 92 24 89 25 91 26 90 27 10 28 11 29 12 30 13 31 14 32 15 33
REMARK SMILES IDX 79 34 16 35 78 36 17 37 18 38 19 39 72 40 20 41 77 42 71 43
REMARK SMILES IDX 73 44 21 45 76 46 70 47 69 48 22 50 56 51 35 52 55 53 36 54
REMARK SMILES IDX 39 55 54 56 74 57 37 58 38 59 53 61 75 62 40 63 23 64 24 65
REMARK SMILES IDX 33 66 25 67 26 68 32 69 34 70 27 71 28 72 29 73 30 74 31 75
REMARK SMILES IDX 57 76 58 77 67 78 59 79 60 80 66 81 68 82 61 83 62 84 63 85
REMARK SMILES IDX 64 86 65 87 41 88 42 89 51 90 43 91 44 92 50 93 52 94 45 95
REMARK SMILES IDX 46 96 47 97 48 98 49 99
REMARK H PARENT 73 49 39 60
REMARK Flexibility Score: inf
ROOT
ATOM      1  C   UNL A   1      38.280  23.257  26.020  1.00  0.00     0.274 C 
ENDROOT
BRANCH   1   2
ATOM      2  O   UNL A   1      37.162  22.339  26.085  1.00  0.00    -0.461 OA
BRANCH   2   3
ATOM      3  C   UNL A   1      36.935  21.457  25.069  1.00  0.00     0.329 C 
ATOM      4  O   UNL A   1      37.802  20.769  24.549  1.00  0.00    -0.250 OA
BRANCH   3   5
ATOM      5  C   UNL A   1      35.441  21.445  24.662  1.00  0.00     0.202 C 
BRANCH   5   6
ATOM      6  C   UNL A   1      34.624  20.221  25.139  1.00  0.00     0.048 C 
BRANCH   6   7
ATOM      7  C   UNL A   1      33.218  19.892  24.593  1.00  0.00     0.072 C 
BRANCH   7   8
ATOM      8  S   UNL A   1      32.514  18.204  24.453  1.00  0.00    -0.165 SA
ATOM      9  C   UNL A   1      32.843  17.678  22.749  1.00  0.00     0.085 C 
ENDBRANCH   7   8
ENDBRANCH   6   7
ENDBRANCH   5   6
BRANCH   5  10
ATOM     10  N   UNL A   1      34.774  22.786  24.849  1.00  0.00    -0.278 N 
ATOM     11  C   UNL A   1      34.734  23.660  23.755  1.00  0.00     0.266 C 
ATOM     12  C   UNL A   1      34.177  23.298  25.983  1.00  0.00     0.149 C 
ATOM     13  O   UNL A   1      35.067  23.391  22.608  1.00  0.00    -0.268 OA
ATOM     14  C   UNL A   1      34.148  24.981  24.145  1.00  0.00     0.081 C 
ATOM     15  S   UNL A   1      34.028  25.033  25.857  1.00  0.00    -0.054 SA
ATOM     16  S   UNL A   1      33.494  22.572  27.313  1.00  0.00    -0.052 S 
ATOM     17  C   UNL A   1      33.711  25.946  23.315  1.00  0.00     0.029 C 
BRANCH  17  18
ATOM     18  C   UNL A   1      33.140  27.214  23.814  1.00  0.00    -0.024 A 
ATOM     19  C   UNL A   1      31.856  27.633  23.466  1.00  0.00     0.010 A 
ATOM     20  C   UNL A   1      33.850  27.958  24.767  1.00  0.00     0.018 A 
ATOM     21  C   UNL A   1      31.278  28.740  24.113  1.00  0.00     0.029 A 
ATOM     22  C   UNL A   1      33.247  29.027  25.446  1.00  0.00     0.001 A 
ATOM     23  C   UNL A   1      31.937  29.432  25.124  1.00  0.00     0.070 A 
ATOM     24  C   UNL A   1      33.915  29.687  26.484  1.00  0.00     0.012 A 
ATOM     25  N   UNL A   1      31.320  30.437  25.778  1.00  0.00    -0.256 NA
ATOM     26  C   UNL A   1      33.281  30.716  27.164  1.00  0.00     0.021 A 
ATOM     27  C   UNL A   1      32.001  31.057  26.771  1.00  0.00     0.112 A 
ENDBRANCH  17  18
ENDBRANCH   5  10
ENDBRANCH   3   5
ENDBRANCH   2   3
ENDBRANCH   1   2
BRANCH   1  28
ATOM     28  C   UNL A   1      39.572  22.618  26.527  1.00  0.00     0.275 C 
BRANCH  28  29
ATOM     29  O   UNL A   1      40.046  23.346  27.661  1.00  0.00    -0.458 OA
BRANCH  29  30
ATOM     30  C   UNL A   1      40.927  24.319  27.343  1.00  0.00     0.338 C 
ATOM     31  O   UNL A   1      41.732  24.318  26.421  1.00  0.00    -0.246 OA
BRANCH  30  32
ATOM     32  C   UNL A   1      40.626  25.502  28.152  1.00  0.00     0.060 A 
ATOM     33  C   UNL A   1      41.654  26.432  28.325  1.00  0.00     0.016 A 
ATOM     34  C   UNL A   1      39.378  25.678  28.756  1.00  0.00     0.016 A 
ATOM     35  C   UNL A   1      41.464  27.513  29.168  1.00  0.00     0.010 A 
ATOM     36  C   UNL A   1      39.187  26.767  29.601  1.00  0.00     0.010 A 
ATOM     37  C   UNL A   1      40.246  27.657  29.843  1.00  0.00    -0.014 A 
BRANCH  37  38
ATOM     38  C   UNL A   1      40.151  28.658  30.920  1.00  0.00     0.031 A 
ATOM     39  C   UNL A   1      41.059  28.521  32.109  1.00  0.00     0.074 A 
ATOM     40  C   UNL A   1      39.312  29.697  30.788  1.00  0.00     0.049 A 
ATOM     41  N   UNL A   1      41.145  29.274  33.173  1.00  0.00    -0.248 NA
ATOM     42  C   UNL A   1      41.993  27.381  32.100  1.00  0.00     0.031 C 
ATOM     43  C   UNL A   1      38.422  29.922  29.647  1.00  0.00     0.029 A 
ATOM     44  N   UNL A   1      39.074  30.759  31.615  1.00  0.00    -0.354 N 
ATOM     45  C   UNL A   1      42.142  28.704  33.956  1.00  0.00     0.074 A 
ATOM     46  C   UNL A   1      42.598  27.516  33.270  1.00  0.00     0.031 C 
ATOM     47  C   UNL A   1      37.727  31.052  29.853  1.00  0.00     0.029 A 
ATOM     48  C   UNL A   1      38.100  31.607  31.151  1.00  0.00     0.049 A 
ATOM     49  H   UNL A   1      39.556  30.902  32.463  1.00  0.00     0.167 HD
ATOM     50  C   UNL A   1      42.642  29.151  35.131  1.00  0.00     0.037 A 
ATOM     51  C   UNL A   1      37.556  32.694  31.728  1.00  0.00     0.037 A 
ATOM     52  C   UNL A   1      42.165  30.336  35.795  1.00  0.00     0.049 A 
ATOM     53  C   UNL A   1      38.090  33.137  33.064  1.00  0.00     0.074 A 
ATOM     54  C   UNL A   1      42.581  30.879  36.997  1.00  0.00     0.029 A 
ATOM     55  N   UNL A   1      41.162  31.163  35.307  1.00  0.00    -0.354 N 
ATOM     56  N   UNL A   1      39.033  32.592  33.799  1.00  0.00    -0.248 NA
ATOM     57  C   UNL A   1      37.497  34.346  33.645  1.00  0.00     0.031 C 
ATOM     58  C   UNL A   1      41.795  32.009  37.258  1.00  0.00     0.029 A 
ATOM     59  C   UNL A   1      40.932  32.204  36.191  1.00  0.00     0.049 A 
ATOM     60  H   UNL A   1      40.683  31.029  34.458  1.00  0.00     0.167 HD
ATOM     61  C   UNL A   1      39.161  33.405  34.919  1.00  0.00     0.074 A 
ATOM     62  C   UNL A   1      38.217  34.492  34.748  1.00  0.00     0.031 C 
ATOM     63  C   UNL A   1      39.978  33.269  35.995  1.00  0.00     0.037 A 
BRANCH  50  64
ATOM     64  C   UNL A   1      43.740  28.347  35.774  1.00  0.00     0.058 A 
ATOM     65  C   UNL A   1      45.094  28.576  35.477  1.00  0.00     0.135 A 
ATOM     66  C   UNL A   1      43.440  27.355  36.722  1.00  0.00     0.135 A 
ATOM     67  F   UNL A   1      45.440  29.494  34.560  1.00  0.00    -0.206 F 
ATOM     68  C   UNL A   1      46.108  27.839  36.081  1.00  0.00     0.059 A 
ATOM     69  C   UNL A   1      44.440  26.625  37.360  1.00  0.00     0.059 A 
ATOM     70  F   UNL A   1      42.164  27.086  37.038  1.00  0.00    -0.206 F 
ATOM     71  C   UNL A   1      45.771  26.868  37.024  1.00  0.00     0.060 A 
BRANCH  71  72
ATOM     72  S   UNL A   1      47.101  25.934  37.813  1.00  0.00     0.124 S 
ATOM     73  O   UNL A   1      48.268  26.740  37.469  1.00  0.00    -0.237 OA
ATOM     74  O   UNL A   1      46.705  25.960  39.218  1.00  0.00    -0.237 OA
ATOM     75  O   UNL A   1      47.030  24.627  37.169  1.00  0.00    -0.744 OA
ENDBRANCH  71  72
ENDBRANCH  50  64
BRANCH  51  76
ATOM     76  C   UNL A   1      36.441  33.412  31.056  1.00  0.00     0.058 A 
ATOM     77  C   UNL A   1      36.652  34.185  29.906  1.00  0.00     0.135 A 
ATOM     78  C   UNL A   1      35.131  33.330  31.556  1.00  0.00     0.135 A 
ATOM     79  F   UNL A   1      37.885  34.297  29.390  1.00  0.00    -0.206 F 
ATOM     80  C   UNL A   1      35.611  34.872  29.289  1.00  0.00     0.059 A 
ATOM     81  C   UNL A   1      34.069  33.981  30.939  1.00  0.00     0.059 A 
ATOM     82  F   UNL A   1      34.870  32.589  32.644  1.00  0.00    -0.206 F 
ATOM     83  C   UNL A   1      34.321  34.762  29.812  1.00  0.00     0.060 A 
BRANCH  83  84
ATOM     84  S   UNL A   1      32.970  35.629  28.987  1.00  0.00     0.124 S 
ATOM     85  O   UNL A   1      32.172  36.078  30.122  1.00  0.00    -0.237 OA
ATOM     86  O   UNL A   1      33.679  36.670  28.251  1.00  0.00    -0.237 OA
ATOM     87  O   UNL A   1      32.362  34.592  28.158  1.00  0.00    -0.744 OA
ENDBRANCH  83  84
ENDBRANCH  51  76
BRANCH  63  88
ATOM     88  C   UNL A   1      39.897  34.340  37.047  1.00  0.00     0.058 A 
ATOM     89  C   UNL A   1      39.148  34.168  38.223  1.00  0.00     0.135 A 
ATOM     90  C   UNL A   1      40.588  35.551  36.883  1.00  0.00     0.135 A 
ATOM     91  F   UNL A   1      38.467  33.030  38.428  1.00  0.00    -0.206 F 
ATOM     92  C   UNL A   1      39.044  35.179  39.171  1.00  0.00     0.059 A 
ATOM     93  C   UNL A   1      40.529  36.562  37.836  1.00  0.00     0.059 A 
ATOM     94  F   UNL A   1      41.334  35.762  35.786  1.00  0.00    -0.206 F 
ATOM     95  C   UNL A   1      39.735  36.374  38.966  1.00  0.00     0.060 A 
BRANCH  95  96
ATOM     96  S   UNL A   1      39.584  37.680  40.201  1.00  0.00     0.124 S 
ATOM     97  O   UNL A   1      38.999  36.955  41.324  1.00  0.00    -0.237 OA
ATOM     98  O   UNL A   1      40.969  38.109  40.375  1.00  0.00    -0.237 OA
ATOM     99  O   UNL A   1      38.708  38.655  39.559  1.00  0.00    -0.744 OA
ENDBRANCH  95  96
ENDBRANCH  63  88
ENDBRANCH  37  38
ENDBRANCH  30  32
ENDBRANCH  29  30
ENDBRANCH  28  29
ENDBRANCH   1  28
TORSDOF 19
ENDMDL
MODEL 3
REMARK VINA RESULT:     -11.4      4.405     10.397
REMARK SMILES CSCC[C@H](C(=O)OCCOC(=O)c1ccc(-c2c3nc(c(-c4c(F)cc(S(=O)(=O)[O-])cc4F)c4ccc([nH]4)c(-c4c(F)cc(S(=O)(=O)[O-])cc4F)c4nc(c(-c5c(F)cc(S(=O)(=O)[O-])cc5F)c5ccc2[nH]5)C=C4)C=C3)cc1)N1C(=O)/C(=C/c2ccc3ncccc3c2)SC1=S
REMARK SMILES IDX 9 1 8 2 6 3 7 4 5 5 4 6 3 7 2 8 1 9 80 10 81 11 96 12 82 13
REMARK SMILES IDX 83 14 95 15 97 16 84 17 85 18 86 19 94 20 87 21 93 22 88 23
REMARK SMILES IDX 92 24 89 25 91 26 90 27 10 28 11 29 12 30 13 31 14 32 15 33
REMARK SMILES IDX 79 34 16 35 78 36 17 37 18 38 19 39 72 40 20 41 77 42 71 43
REMARK SMILES IDX 73 44 21 45 76 46 70 47 69 48 22 50 56 51 35 52 55 53 36 54
REMARK SMILES IDX 39 55 54 56 74 57 37 58 38 59 53 61 75 62 40 63 23 64 24 65
REMARK SMILES IDX 33 66 25 67 26 68 32 69 34 70 27 71 28 72 29 73 30 74 31 75
REMARK SMILES IDX 57 76 58 77 67 78 59 79 60 80 66 81 68 82 61 83 62 84 63 85
REMARK SMILES IDX 64 86 65 87 41 88 42 89 51 90 43 91 44 92 50 93 52 94 45 95
REMARK SMILES IDX 46 96 47 97 48 98 49 99
REMARK H PARENT 73 49 39 60
REMARK Flexibility Score: inf
ROOT
ATOM      1  C   UNL A   1      31.851  29.122  26.223  1.00  0.00     0.274 C 
ENDROOT
BRANCH   1   2
ATOM      2  O   UNL A   1      32.620  28.626  25.099  1.00  0.00    -0.461 OA
BRANCH   2   3
ATOM      3  C   UNL A   1      32.066  28.578  23.854  1.00  0.00     0.329 C 
ATOM      4  O   UNL A   1      32.357  29.338  22.941  1.00  0.00    -0.250 OA
BRANCH   3   5
ATOM      5  C   UNL A   1      31.021  27.439  23.750  1.00  0.00     0.202 C 
BRANCH   5   6
ATOM      6  C   UNL A   1      29.830  27.704  22.800  1.00  0.00     0.048 C 
BRANCH   6   7
ATOM      7  C   UNL A   1      28.766  28.786  23.079  1.00  0.00     0.072 C 
BRANCH   7   8
ATOM      8  S   UNL A   1      28.428  30.230  21.998  1.00  0.00    -0.165 SA
ATOM      9  C   UNL A   1      28.208  31.638  23.120  1.00  0.00     0.085 C 
ENDBRANCH   7   8
ENDBRANCH   6   7
ENDBRANCH   5   6
BRANCH   5  10
ATOM     10  N   UNL A   1      31.656  26.073  23.634  1.00  0.00    -0.278 N 
ATOM     11  C   UNL A   1      31.487  25.176  24.697  1.00  0.00     0.266 C 
ATOM     12  C   UNL A   1      32.408  25.562  22.597  1.00  0.00     0.149 C 
ATOM     13  O   UNL A   1      30.753  25.338  25.663  1.00  0.00    -0.268 OA
ATOM     14  C   UNL A   1      32.275  23.924  24.472  1.00  0.00     0.081 C 
ATOM     15  S   UNL A   1      33.331  24.183  23.143  1.00  0.00    -0.054 SA
ATOM     16  S   UNL A   1      32.480  25.929  20.978  1.00  0.00    -0.052 S 
ATOM     17  C   UNL A   1      32.142  22.759  25.132  1.00  0.00     0.029 C 
BRANCH  17  18
ATOM     18  C   UNL A   1      32.974  21.578  24.817  1.00  0.00    -0.024 A 
ATOM     19  C   UNL A   1      34.298  21.474  25.243  1.00  0.00     0.010 A 
ATOM     20  C   UNL A   1      32.386  20.472  24.188  1.00  0.00     0.018 A 
ATOM     21  C   UNL A   1      34.991  20.259  25.095  1.00  0.00     0.029 A 
ATOM     22  C   UNL A   1      33.065  19.249  24.092  1.00  0.00     0.001 A 
ATOM     23  C   UNL A   1      34.390  19.128  24.553  1.00  0.00     0.070 A 
ATOM     24  C   UNL A   1      32.430  18.114  23.576  1.00  0.00     0.012 A 
ATOM     25  N   UNL A   1      35.060  17.958  24.501  1.00  0.00    -0.256 NA
ATOM     26  C   UNL A   1      33.112  16.907  23.527  1.00  0.00     0.021 A 
ATOM     27  C   UNL A   1      34.415  16.883  23.989  1.00  0.00     0.112 A 
ENDBRANCH  17  18
ENDBRANCH   5  10
ENDBRANCH   3   5
ENDBRANCH   2   3
ENDBRANCH   1   2
BRANCH   1  28
ATOM     28  C   UNL A   1      32.450  30.404  26.800  1.00  0.00     0.275 C 
BRANCH  28  29
ATOM     29  O   UNL A   1      33.864  30.251  26.924  1.00  0.00    -0.458 OA
BRANCH  29  30
ATOM     30  C   UNL A   1      34.445  31.217  27.668  1.00  0.00     0.338 C 
ATOM     31  O   UNL A   1      33.913  32.219  28.127  1.00  0.00    -0.246 OA
BRANCH  30  32
ATOM     32  C   UNL A   1      35.789  30.772  28.042  1.00  0.00     0.060 A 
ATOM     33  C   UNL A   1      35.934  29.437  28.423  1.00  0.00     0.016 A 
ATOM     34  C   UNL A   1      36.875  31.652  28.053  1.00  0.00     0.016 A 
ATOM     35  C   UNL A   1      37.156  28.987  28.891  1.00  0.00     0.010 A 
ATOM     36  C   UNL A   1      38.104  31.198  28.522  1.00  0.00     0.010 A 
ATOM     37  C   UNL A   1      38.230  29.878  28.984  1.00  0.00    -0.014 A 
BRANCH  37  38
ATOM     38  C   UNL A   1      39.437  29.454  29.717  1.00  0.00     0.031 A 
ATOM     39  C   UNL A   1      39.783  30.156  30.998  1.00  0.00     0.074 A 
ATOM     40  C   UNL A   1      40.156  28.416  29.264  1.00  0.00     0.049 A 
ATOM     41  N   UNL A   1      40.794  29.959  31.801  1.00  0.00    -0.248 NA
ATOM     42  C   UNL A   1      38.869  31.228  31.433  1.00  0.00     0.031 C 
ATOM     43  C   UNL A   1      39.866  27.657  28.045  1.00  0.00     0.029 A 
ATOM     44  N   UNL A   1      41.275  27.818  29.775  1.00  0.00    -0.354 N 
ATOM     45  C   UNL A   1      40.637  30.874  32.835  1.00  0.00     0.074 A 
ATOM     46  C   UNL A   1      39.462  31.661  32.535  1.00  0.00     0.031 C 
ATOM     47  C   UNL A   1      40.793  26.696  27.899  1.00  0.00     0.029 A 
ATOM     48  C   UNL A   1      41.754  26.796  28.994  1.00  0.00     0.049 A 
ATOM     49  H   UNL A   1      41.695  28.094  30.622  1.00  0.00     0.167 HD
ATOM     50  C   UNL A   1      41.398  31.025  33.944  1.00  0.00     0.037 A 
ATOM     51  C   UNL A   1      42.862  26.046  29.140  1.00  0.00     0.037 A 
ATOM     52  C   UNL A   1      42.568  30.229  34.215  1.00  0.00     0.049 A 
ATOM     53  C   UNL A   1      43.724  26.273  30.353  1.00  0.00     0.074 A 
ATOM     54  C   UNL A   1      43.428  30.300  35.295  1.00  0.00     0.029 A 
ATOM     55  N   UNL A   1      43.039  29.214  33.393  1.00  0.00    -0.354 N 
ATOM     56  N   UNL A   1      43.570  27.142  31.326  1.00  0.00    -0.248 NA
ATOM     57  C   UNL A   1      44.904  25.413  30.495  1.00  0.00     0.031 C 
ATOM     58  C   UNL A   1      44.446  29.358  35.102  1.00  0.00     0.029 A 
ATOM     59  C   UNL A   1      44.187  28.660  33.933  1.00  0.00     0.049 A 
ATOM     60  H   UNL A   1      42.618  28.930  32.550  1.00  0.00     0.167 HD
ATOM     61  C   UNL A   1      44.620  26.918  32.208  1.00  0.00     0.074 A 
ATOM     62  C   UNL A   1      45.386  25.813  31.663  1.00  0.00     0.031 C 
ATOM     63  C   UNL A   1      44.931  27.564  33.360  1.00  0.00     0.037 A 
BRANCH  50  64
ATOM     64  C   UNL A   1      41.000  32.093  34.926  1.00  0.00     0.058 A 
ATOM     65  C   UNL A   1      40.046  31.855  35.930  1.00  0.00     0.135 A 
ATOM     66  C   UNL A   1      41.598  33.363  34.884  1.00  0.00     0.135 A 
ATOM     67  F   UNL A   1      39.422  30.669  36.004  1.00  0.00    -0.206 F 
ATOM     68  C   UNL A   1      39.686  32.842  36.843  1.00  0.00     0.059 A 
ATOM     69  C   UNL A   1      41.275  34.356  35.805  1.00  0.00     0.059 A 
ATOM     70  F   UNL A   1      42.507  33.650  33.941  1.00  0.00    -0.206 F 
ATOM     71  C   UNL A   1      40.310  34.089  36.775  1.00  0.00     0.060 A 
BRANCH  71  72
ATOM     72  S   UNL A   1      39.847  35.351  37.981  1.00  0.00     0.124 S 
ATOM     73  O   UNL A   1      41.036  35.398  38.826  1.00  0.00    -0.237 OA
ATOM     74  O   UNL A   1      39.624  36.519  37.135  1.00  0.00    -0.237 OA
ATOM     75  O   UNL A   1      38.652  34.799  38.611  1.00  0.00    -0.744 OA
ENDBRANCH  71  72
ENDBRANCH  50  64
BRANCH  51  76
ATOM     76  C   UNL A   1      43.219  25.040  28.105  1.00  0.00     0.058 A 
ATOM     77  C   UNL A   1      44.044  25.364  27.019  1.00  0.00     0.135 A 
ATOM     78  C   UNL A   1      42.740  23.722  28.190  1.00  0.00     0.135 A 
ATOM     79  F   UNL A   1      44.527  26.610  26.891  1.00  0.00    -0.206 F 
ATOM     80  C   UNL A   1      44.363  24.427  26.041  1.00  0.00     0.059 A 
ATOM     81  C   UNL A   1      43.070  22.760  27.244  1.00  0.00     0.059 A 
ATOM     82  F   UNL A   1      41.961  23.354  29.219  1.00  0.00    -0.206 F 
ATOM     83  C   UNL A   1      43.872  23.125  26.164  1.00  0.00     0.060 A 
BRANCH  83  84
ATOM     84  S   UNL A   1      44.317  21.906  24.909  1.00  0.00     0.124 S 
ATOM     85  O   UNL A   1      44.029  22.634  23.678  1.00  0.00    -0.237 OA
ATOM     86  O   UNL A   1      45.727  21.670  25.198  1.00  0.00    -0.237 OA
ATOM     87  O   UNL A   1      43.430  20.784  25.201  1.00  0.00    -0.744 OA
ENDBRANCH  83  84
ENDBRANCH  51  76
BRANCH  63  88
ATOM     88  C   UNL A   1      46.135  27.067  34.113  1.00  0.00     0.058 A 
ATOM     89  C   UNL A   1      47.400  27.657  33.959  1.00  0.00     0.135 A 
ATOM     90  C   UNL A   1      46.018  25.992  35.009  1.00  0.00     0.135 A 
ATOM     91  F   UNL A   1      47.566  28.686  33.113  1.00  0.00    -0.206 F 
ATOM     92  C   UNL A   1      48.516  27.164  34.625  1.00  0.00     0.059 A 
ATOM     93  C   UNL A   1      47.114  25.507  35.715  1.00  0.00     0.059 A 
ATOM     94  F   UNL A   1      44.829  25.402  35.208  1.00  0.00    -0.206 F 
ATOM     95  C   UNL A   1      48.363  26.085  35.498  1.00  0.00     0.060 A 
BRANCH  95  96
ATOM     96  S   UNL A   1      49.821  25.452  36.351  1.00  0.00     0.124 S 
ATOM     97  O   UNL A   1      50.835  26.425  35.958  1.00  0.00    -0.237 OA
ATOM     98  O   UNL A   1      49.409  25.495  37.750  1.00  0.00    -0.237 OA
ATOM     99  O   UNL A   1      49.986  24.113  35.792  1.00  0.00    -0.744 OA
ENDBRANCH  95  96
ENDBRANCH  63  88
ENDBRANCH  37  38
ENDBRANCH  30  32
ENDBRANCH  29  30
ENDBRANCH  28  29
ENDBRANCH   1  28
TORSDOF 19
ENDMDL
