MODEL 1
REMARK VINA RESULT:     -13.9      0.000      0.000
REMARK SMILES Cc1cc(C(=O)OCCOC(=O)c2ccc(-c3c4nc(c(-c5c(F)cc(S(=O)(=O)[O-])cc5F)c5ccc([nH]5)c(-c5c(F)cc(S(=O)(=O)[O-])cc5F)c5nc(c(-c6c(F)cc(S(=O)(=O)[O-])cc6F)c6ccc3[nH]6)C=C5)C=C4)cc2)ccc1NS(=O)(=O)c1c(F)cccc1F
REMARK SMILES IDX 8 1 7 2 5 3 6 4 4 5 1 6 2 7 3 8 81 9 80 10 79 11 82 12 83 14
REMARK SMILES IDX 84 15 85 16 86 17 87 18 92 19 88 20 89 21 91 22 93 23 90 24
REMARK SMILES IDX 9 25 10 26 11 27 12 28 13 29 14 30 78 31 15 32 77 33 16 34
REMARK SMILES IDX 17 35 18 36 71 37 19 38 76 39 70 40 72 41 20 42 75 43 69 44
REMARK SMILES IDX 68 45 21 47 55 48 34 49 54 50 35 51 38 52 53 53 73 54 36 55
REMARK SMILES IDX 37 56 52 58 74 59 39 60 22 61 23 62 32 63 24 64 25 65 31 66
REMARK SMILES IDX 33 67 26 68 27 69 28 70 29 71 30 72 56 73 57 74 66 75 58 76
REMARK SMILES IDX 59 77 65 78 67 79 60 80 61 81 62 82 63 83 64 84 40 85 41 86
REMARK SMILES IDX 50 87 42 88 43 89 49 90 51 91 44 92 45 93 46 94 47 95 48 96
REMARK H PARENT 82 13 72 46 38 57
REMARK Flexibility Score: inf
ROOT
ATOM      1  C   UNL A   1      33.898  29.610  26.897  1.00  0.00     0.275 C 
ENDROOT
BRANCH   1   2
ATOM      2  O   UNL A   1      32.472  29.778  26.969  1.00  0.00    -0.458 OA
BRANCH   2   3
ATOM      3  C   UNL A   1      31.803  28.595  26.934  1.00  0.00     0.338 C 
ATOM      4  O   UNL A   1      31.692  27.844  27.897  1.00  0.00    -0.246 OA
BRANCH   3   5
ATOM      5  C   UNL A   1      31.246  28.229  25.600  1.00  0.00     0.060 A 
ATOM      6  C   UNL A   1      30.488  29.515  22.121  1.00  0.00     0.046 C 
ATOM      7  C   UNL A   1      30.912  28.584  23.227  1.00  0.00    -0.026 A 
ATOM      8  C   UNL A   1      31.196  29.093  24.503  1.00  0.00     0.021 A 
ATOM      9  C   UNL A   1      30.895  27.192  23.067  1.00  0.00     0.052 A 
ATOM     10  C   UNL A   1      30.588  26.387  24.154  1.00  0.00     0.028 A 
ATOM     11  C   UNL A   1      30.789  26.910  25.432  1.00  0.00     0.018 A 
BRANCH   9  12
ATOM     12  N   UNL A   1      31.411  26.650  21.846  1.00  0.00    -0.279 N 
ATOM     13  H   UNL A   1      30.794  26.518  21.091  1.00  0.00     0.180 HD
BRANCH  12  14
ATOM     14  S   UNL A   1      33.048  26.229  21.649  1.00  0.00     0.267 S 
ATOM     15  O   UNL A   1      33.108  25.566  20.360  1.00  0.00    -0.201 OA
ATOM     16  O   UNL A   1      33.798  27.447  21.875  1.00  0.00    -0.201 OA
BRANCH  14  17
ATOM     17  C   UNL A   1      33.585  25.079  22.869  1.00  0.00     0.158 A 
ATOM     18  C   UNL A   1      34.111  25.573  24.060  1.00  0.00     0.146 A 
ATOM     19  C   UNL A   1      33.629  23.712  22.642  1.00  0.00     0.146 A 
ATOM     20  F   UNL A   1      33.956  26.857  24.411  1.00  0.00    -0.205 F 
ATOM     21  C   UNL A   1      34.800  24.742  24.943  1.00  0.00     0.041 A 
ATOM     22  C   UNL A   1      34.351  22.873  23.502  1.00  0.00     0.041 A 
ATOM     23  F   UNL A   1      33.043  23.165  21.570  1.00  0.00    -0.205 F 
ATOM     24  C   UNL A   1      34.966  23.394  24.639  1.00  0.00     0.006 A 
ENDBRANCH  14  17
ENDBRANCH  12  14
ENDBRANCH   9  12
ENDBRANCH   3   5
ENDBRANCH   2   3
ENDBRANCH   1   2
BRANCH   1  25
ATOM     25  C   UNL A   1      34.722  30.708  27.613  1.00  0.00     0.275 C 
BRANCH  25  26
ATOM     26  O   UNL A   1      35.596  30.373  28.712  1.00  0.00    -0.458 OA
BRANCH  26  27
ATOM     27  C   UNL A   1      36.826  30.960  28.724  1.00  0.00     0.338 C 
ATOM     28  O   UNL A   1      37.014  32.119  29.033  1.00  0.00    -0.246 OA
BRANCH  27  29
ATOM     29  C   UNL A   1      37.843  29.870  28.656  1.00  0.00     0.060 A 
ATOM     30  C   UNL A   1      38.639  29.755  27.509  1.00  0.00     0.016 A 
ATOM     31  C   UNL A   1      38.235  29.274  29.857  1.00  0.00     0.016 A 
ATOM     32  C   UNL A   1      39.900  29.170  27.596  1.00  0.00     0.010 A 
ATOM     33  C   UNL A   1      39.527  28.845  29.986  1.00  0.00     0.010 A 
ATOM     34  C   UNL A   1      40.347  28.765  28.851  1.00  0.00    -0.014 A 
BRANCH  34  35
ATOM     35  C   UNL A   1      41.501  27.910  29.061  1.00  0.00     0.031 A 
ATOM     36  C   UNL A   1      41.567  26.523  28.585  1.00  0.00     0.074 A 
ATOM     37  C   UNL A   1      42.518  28.622  29.592  1.00  0.00     0.049 A 
ATOM     38  N   UNL A   1      42.375  25.635  29.045  1.00  0.00    -0.248 NA
ATOM     39  C   UNL A   1      40.685  25.986  27.558  1.00  0.00     0.031 C 
ATOM     40  C   UNL A   1      43.926  28.336  29.741  1.00  0.00     0.029 A 
ATOM     41  N   UNL A   1      42.341  29.827  30.288  1.00  0.00    -0.354 N 
ATOM     42  C   UNL A   1      42.338  24.540  28.197  1.00  0.00     0.074 A 
ATOM     43  C   UNL A   1      41.167  24.748  27.387  1.00  0.00     0.031 C 
ATOM     44  C   UNL A   1      44.412  29.133  30.716  1.00  0.00     0.029 A 
ATOM     45  C   UNL A   1      43.282  29.853  31.306  1.00  0.00     0.049 A 
ATOM     46  H   UNL A   1      41.675  30.525  30.091  1.00  0.00     0.167 HD
ATOM     47  C   UNL A   1      43.416  23.698  28.178  1.00  0.00     0.037 A 
ATOM     48  C   UNL A   1      42.804  29.697  32.577  1.00  0.00     0.037 A 
ATOM     49  C   UNL A   1      44.373  24.152  29.189  1.00  0.00     0.049 A 
ATOM     50  C   UNL A   1      43.273  28.371  33.123  1.00  0.00     0.074 A 
ATOM     51  C   UNL A   1      45.453  25.015  29.093  1.00  0.00     0.029 A 
ATOM     52  N   UNL A   1      44.037  24.076  30.536  1.00  0.00    -0.354 N 
ATOM     53  N   UNL A   1      43.411  27.279  32.415  1.00  0.00    -0.248 NA
ATOM     54  C   UNL A   1      43.788  28.248  34.481  1.00  0.00     0.031 C 
ATOM     55  C   UNL A   1      45.673  25.564  30.384  1.00  0.00     0.029 A 
ATOM     56  C   UNL A   1      44.743  25.022  31.257  1.00  0.00     0.049 A 
ATOM     57  H   UNL A   1      43.391  23.440  30.921  1.00  0.00     0.167 HD
ATOM     58  C   UNL A   1      44.104  26.359  33.160  1.00  0.00     0.074 A 
ATOM     59  C   UNL A   1      44.294  27.005  34.450  1.00  0.00     0.031 C 
ATOM     60  C   UNL A   1      44.551  25.155  32.690  1.00  0.00     0.037 A 
BRANCH  47  61
ATOM     61  C   UNL A   1      43.793  22.693  27.094  1.00  0.00     0.058 A 
ATOM     62  C   UNL A   1      42.935  21.597  26.822  1.00  0.00     0.135 A 
ATOM     63  C   UNL A   1      44.976  22.697  26.326  1.00  0.00     0.135 A 
ATOM     64  F   UNL A   1      41.737  21.481  27.412  1.00  0.00    -0.206 F 
ATOM     65  C   UNL A   1      43.259  20.560  25.942  1.00  0.00     0.059 A 
ATOM     66  C   UNL A   1      45.331  21.659  25.450  1.00  0.00     0.059 A 
ATOM     67  F   UNL A   1      45.830  23.725  26.355  1.00  0.00    -0.206 F 
ATOM     68  C   UNL A   1      44.473  20.583  25.274  1.00  0.00     0.060 A 
BRANCH  68  69
ATOM     69  S   UNL A   1      44.887  19.218  24.171  1.00  0.00     0.124 S 
ATOM     70  O   UNL A   1      44.410  19.712  22.883  1.00  0.00    -0.237 OA
ATOM     71  O   UNL A   1      46.336  19.129  24.318  1.00  0.00    -0.237 OA
ATOM     72  O   UNL A   1      44.135  18.094  24.722  1.00  0.00    -0.744 OA
ENDBRANCH  68  69
ENDBRANCH  47  61
BRANCH  48  73
ATOM     73  C   UNL A   1      41.479  30.369  32.838  1.00  0.00     0.058 A 
ATOM     74  C   UNL A   1      40.389  29.554  33.231  1.00  0.00     0.135 A 
ATOM     75  C   UNL A   1      41.295  31.753  32.985  1.00  0.00     0.135 A 
ATOM     76  F   UNL A   1      40.474  28.218  33.109  1.00  0.00    -0.206 F 
ATOM     77  C   UNL A   1      39.242  30.062  33.841  1.00  0.00     0.059 A 
ATOM     78  C   UNL A   1      40.136  32.291  33.576  1.00  0.00     0.059 A 
ATOM     79  F   UNL A   1      42.268  32.606  32.634  1.00  0.00    -0.206 F 
ATOM     80  C   UNL A   1      39.134  31.434  34.037  1.00  0.00     0.060 A 
BRANCH  80  81
ATOM     81  S   UNL A   1      37.765  32.043  35.062  1.00  0.00     0.124 S 
ATOM     82  O   UNL A   1      36.626  31.899  34.163  1.00  0.00    -0.237 OA
ATOM     83  O   UNL A   1      37.802  31.112  36.189  1.00  0.00    -0.237 OA
ATOM     84  O   UNL A   1      38.163  33.413  35.366  1.00  0.00    -0.744 OA
ENDBRANCH  80  81
ENDBRANCH  48  73
BRANCH  60  85
ATOM     85  C   UNL A   1      44.977  24.016  33.579  1.00  0.00     0.058 A 
ATOM     86  C   UNL A   1      44.118  22.961  33.927  1.00  0.00     0.135 A 
ATOM     87  C   UNL A   1      46.328  23.868  33.976  1.00  0.00     0.135 A 
ATOM     88  F   UNL A   1      42.852  22.913  33.487  1.00  0.00    -0.206 F 
ATOM     89  C   UNL A   1      44.535  21.892  34.710  1.00  0.00     0.059 A 
ATOM     90  C   UNL A   1      46.783  22.768  34.693  1.00  0.00     0.059 A 
ATOM     91  F   UNL A   1      47.262  24.778  33.665  1.00  0.00    -0.206 F 
ATOM     92  C   UNL A   1      45.868  21.808  35.094  1.00  0.00     0.060 A 
BRANCH  92  93
ATOM     93  S   UNL A   1      46.409  20.418  36.095  1.00  0.00     0.124 S 
ATOM     94  O   UNL A   1      46.045  20.875  37.433  1.00  0.00    -0.237 OA
ATOM     95  O   UNL A   1      45.615  19.312  35.568  1.00  0.00    -0.237 OA
ATOM     96  O   UNL A   1      47.840  20.343  35.818  1.00  0.00    -0.744 OA
ENDBRANCH  92  93
ENDBRANCH  60  85
ENDBRANCH  34  35
ENDBRANCH  27  29
ENDBRANCH  26  27
ENDBRANCH  25  26
ENDBRANCH   1  25
TORSDOF 17
ENDMDL
MODEL 2
REMARK VINA RESULT:     -13.7      2.285      3.257
REMARK SMILES Cc1cc(C(=O)OCCOC(=O)c2ccc(-c3c4nc(c(-c5c(F)cc(S(=O)(=O)[O-])cc5F)c5ccc([nH]5)c(-c5c(F)cc(S(=O)(=O)[O-])cc5F)c5nc(c(-c6c(F)cc(S(=O)(=O)[O-])cc6F)c6ccc3[nH]6)C=C5)C=C4)cc2)ccc1NS(=O)(=O)c1c(F)cccc1F
REMARK SMILES IDX 8 1 7 2 5 3 6 4 4 5 1 6 2 7 3 8 81 9 80 10 79 11 82 12 83 14
REMARK SMILES IDX 84 15 85 16 86 17 87 18 92 19 88 20 89 21 91 22 93 23 90 24
REMARK SMILES IDX 9 25 10 26 11 27 12 28 13 29 14 30 78 31 15 32 77 33 16 34
REMARK SMILES IDX 17 35 18 36 71 37 19 38 76 39 70 40 72 41 20 42 75 43 69 44
REMARK SMILES IDX 68 45 21 47 55 48 34 49 54 50 35 51 38 52 53 53 73 54 36 55
REMARK SMILES IDX 37 56 52 58 74 59 39 60 22 61 23 62 32 63 24 64 25 65 31 66
REMARK SMILES IDX 33 67 26 68 27 69 28 70 29 71 30 72 56 73 57 74 66 75 58 76
REMARK SMILES IDX 59 77 65 78 67 79 60 80 61 81 62 82 63 83 64 84 40 85 41 86
REMARK SMILES IDX 50 87 42 88 43 89 49 90 51 91 44 92 45 93 46 94 47 95 48 96
REMARK H PARENT 82 13 72 46 38 57
REMARK Flexibility Score: inf
ROOT
ATOM      1  C   UNL A   1      33.409  29.701  25.872  1.00  0.00     0.275 C 
ENDROOT
BRANCH   1   2
ATOM      2  O   UNL A   1      33.387  28.539  25.025  1.00  0.00    -0.458 OA
BRANCH   2   3
ATOM      3  C   UNL A   1      32.344  27.711  25.298  1.00  0.00     0.338 C 
ATOM      4  O   UNL A   1      31.174  28.075  25.333  1.00  0.00    -0.246 OA
BRANCH   3   5
ATOM      5  C   UNL A   1      32.727  26.305  25.618  1.00  0.00     0.060 A 
ATOM      6  C   UNL A   1      31.420  22.939  26.750  1.00  0.00     0.046 C 
ATOM      7  C   UNL A   1      32.232  23.967  26.007  1.00  0.00    -0.026 A 
ATOM      8  C   UNL A   1      31.823  25.309  25.993  1.00  0.00     0.021 A 
ATOM      9  C   UNL A   1      33.475  23.656  25.439  1.00  0.00     0.052 A 
ATOM     10  C   UNL A   1      34.470  24.621  25.412  1.00  0.00     0.028 A 
ATOM     11  C   UNL A   1      34.083  25.960  25.481  1.00  0.00     0.018 A 
BRANCH   9  12
ATOM     12  N   UNL A   1      33.592  22.427  24.713  1.00  0.00    -0.279 N 
ATOM     13  H   UNL A   1      33.012  22.283  23.931  1.00  0.00     0.180 HD
BRANCH  12  14
ATOM     14  S   UNL A   1      34.696  21.207  25.148  1.00  0.00     0.267 S 
ATOM     15  O   UNL A   1      35.870  21.461  24.335  1.00  0.00    -0.201 OA
ATOM     16  O   UNL A   1      34.789  21.256  26.592  1.00  0.00    -0.201 OA
BRANCH  14  17
ATOM     17  C   UNL A   1      34.100  19.601  24.740  1.00  0.00     0.158 A 
ATOM     18  C   UNL A   1      35.025  18.574  24.574  1.00  0.00     0.146 A 
ATOM     19  C   UNL A   1      32.769  19.348  24.450  1.00  0.00     0.146 A 
ATOM     20  F   UNL A   1      36.293  18.703  24.987  1.00  0.00    -0.205 F 
ATOM     21  C   UNL A   1      34.658  17.361  23.989  1.00  0.00     0.041 A 
ATOM     22  C   UNL A   1      32.394  18.150  23.827  1.00  0.00     0.041 A 
ATOM     23  F   UNL A   1      31.818  20.257  24.693  1.00  0.00    -0.205 F 
ATOM     24  C   UNL A   1      33.347  17.166  23.566  1.00  0.00     0.006 A 
ENDBRANCH  14  17
ENDBRANCH  12  14
ENDBRANCH   9  12
ENDBRANCH   3   5
ENDBRANCH   2   3
ENDBRANCH   1   2
BRANCH   1  25
ATOM     25  C   UNL A   1      34.063  29.487  27.257  1.00  0.00     0.275 C 
BRANCH  25  26
ATOM     26  O   UNL A   1      35.497  29.544  27.412  1.00  0.00    -0.458 OA
BRANCH  26  27
ATOM     27  C   UNL A   1      35.986  30.437  28.317  1.00  0.00     0.338 C 
ATOM     28  O   UNL A   1      35.313  31.303  28.837  1.00  0.00    -0.246 OA
BRANCH  27  29
ATOM     29  C   UNL A   1      37.310  29.928  28.779  1.00  0.00     0.060 A 
ATOM     30  C   UNL A   1      37.353  28.996  29.824  1.00  0.00     0.016 A 
ATOM     31  C   UNL A   1      38.400  30.080  27.918  1.00  0.00     0.016 A 
ATOM     32  C   UNL A   1      38.423  28.111  29.922  1.00  0.00     0.010 A 
ATOM     33  C   UNL A   1      39.371  29.117  27.911  1.00  0.00     0.010 A 
ATOM     34  C   UNL A   1      39.398  28.154  28.929  1.00  0.00    -0.014 A 
BRANCH  34  35
ATOM     35  C   UNL A   1      40.688  27.495  29.034  1.00  0.00     0.031 A 
ATOM     36  C   UNL A   1      40.924  26.121  28.573  1.00  0.00     0.074 A 
ATOM     37  C   UNL A   1      41.626  28.371  29.450  1.00  0.00     0.049 A 
ATOM     38  N   UNL A   1      41.902  25.383  28.961  1.00  0.00    -0.248 NA
ATOM     39  C   UNL A   1      40.041  25.424  27.647  1.00  0.00     0.031 C 
ATOM     40  C   UNL A   1      43.070  28.310  29.460  1.00  0.00     0.029 A 
ATOM     41  N   UNL A   1      41.332  29.554  30.144  1.00  0.00    -0.354 N 
ATOM     42  C   UNL A   1      41.955  24.271  28.137  1.00  0.00     0.074 A 
ATOM     43  C   UNL A   1      40.693  24.272  27.445  1.00  0.00     0.031 C 
ATOM     44  C   UNL A   1      43.517  29.201  30.371  1.00  0.00     0.029 A 
ATOM     45  C   UNL A   1      42.351  29.754  31.061  1.00  0.00     0.049 A 
ATOM     46  H   UNL A   1      40.548  30.134  30.005  1.00  0.00     0.167 HD
ATOM     47  C   UNL A   1      43.145  23.605  28.021  1.00  0.00     0.037 A 
ATOM     48  C   UNL A   1      42.029  29.564  32.376  1.00  0.00     0.037 A 
ATOM     49  C   UNL A   1      44.112  24.232  28.925  1.00  0.00     0.049 A 
ATOM     50  C   UNL A   1      42.751  28.343  32.891  1.00  0.00     0.074 A 
ATOM     51  C   UNL A   1      45.029  25.248  28.709  1.00  0.00     0.029 A 
ATOM     52  N   UNL A   1      43.925  24.144  30.299  1.00  0.00    -0.354 N 
ATOM     53  N   UNL A   1      42.989  27.265  32.187  1.00  0.00    -0.248 NA
ATOM     54  C   UNL A   1      43.408  28.341  34.191  1.00  0.00     0.031 C 
ATOM     55  C   UNL A   1      45.285  25.863  29.963  1.00  0.00     0.029 A 
ATOM     56  C   UNL A   1      44.541  25.208  30.933  1.00  0.00     0.049 A 
ATOM     57  H   UNL A   1      43.427  23.427  30.756  1.00  0.00     0.167 HD
ATOM     58  C   UNL A   1      43.887  26.486  32.872  1.00  0.00     0.074 A 
ATOM     59  C   UNL A   1      44.098  27.191  34.126  1.00  0.00     0.031 C 
ATOM     60  C   UNL A   1      44.470  25.353  32.376  1.00  0.00     0.037 A 
BRANCH  47  61
ATOM     61  C   UNL A   1      43.567  22.640  26.919  1.00  0.00     0.058 A 
ATOM     62  C   UNL A   1      42.939  21.373  26.813  1.00  0.00     0.135 A 
ATOM     63  C   UNL A   1      44.595  22.848  25.975  1.00  0.00     0.135 A 
ATOM     64  F   UNL A   1      41.895  21.042  27.587  1.00  0.00    -0.206 F 
ATOM     65  C   UNL A   1      43.347  20.377  25.921  1.00  0.00     0.059 A 
ATOM     66  C   UNL A   1      45.035  21.857  25.082  1.00  0.00     0.059 A 
ATOM     67  F   UNL A   1      45.200  24.032  25.842  1.00  0.00    -0.206 F 
ATOM     68  C   UNL A   1      44.415  20.616  25.071  1.00  0.00     0.060 A 
BRANCH  68  69
ATOM     69  S   UNL A   1      44.950  19.305  23.953  1.00  0.00     0.124 S 
ATOM     70  O   UNL A   1      46.403  19.386  24.062  1.00  0.00    -0.237 OA
ATOM     71  O   UNL A   1      44.334  18.123  24.547  1.00  0.00    -0.237 OA
ATOM     72  O   UNL A   1      44.399  19.713  22.663  1.00  0.00    -0.744 OA
ENDBRANCH  68  69
ENDBRANCH  47  61
BRANCH  48  73
ATOM     73  C   UNL A   1      40.647  30.030  32.760  1.00  0.00     0.058 A 
ATOM     74  C   UNL A   1      40.379  31.420  32.710  1.00  0.00     0.135 A 
ATOM     75  C   UNL A   1      39.529  29.194  32.904  1.00  0.00     0.135 A 
ATOM     76  F   UNL A   1      41.393  32.293  32.588  1.00  0.00    -0.206 F 
ATOM     77  C   UNL A   1      39.087  31.943  32.681  1.00  0.00     0.059 A 
ATOM     78  C   UNL A   1      38.215  29.701  32.903  1.00  0.00     0.059 A 
ATOM     79  F   UNL A   1      39.681  27.863  32.968  1.00  0.00    -0.206 F 
ATOM     80  C   UNL A   1      38.004  31.073  32.750  1.00  0.00     0.060 A 
BRANCH  80  81
ATOM     81  S   UNL A   1      36.347  31.750  32.447  1.00  0.00     0.124 S 
ATOM     82  O   UNL A   1      36.014  32.328  33.744  1.00  0.00    -0.237 OA
ATOM     83  O   UNL A   1      36.609  32.709  31.376  1.00  0.00    -0.237 OA
ATOM     84  O   UNL A   1      35.575  30.574  32.061  1.00  0.00    -0.744 OA
ENDBRANCH  80  81
ENDBRANCH  48  73
BRANCH  60  85
ATOM     85  C   UNL A   1      45.153  24.319  33.233  1.00  0.00     0.058 A 
ATOM     86  C   UNL A   1      46.464  24.475  33.711  1.00  0.00     0.135 A 
ATOM     87  C   UNL A   1      44.440  23.206  33.739  1.00  0.00     0.135 A 
ATOM     88  F   UNL A   1      47.193  25.563  33.422  1.00  0.00    -0.206 F 
ATOM     89  C   UNL A   1      47.068  23.536  34.538  1.00  0.00     0.059 A 
ATOM     90  C   UNL A   1      45.000  22.298  34.628  1.00  0.00     0.059 A 
ATOM     91  F   UNL A   1      43.164  22.969  33.401  1.00  0.00    -0.206 F 
ATOM     92  C   UNL A   1      46.330  22.447  34.986  1.00  0.00     0.060 A 
BRANCH  92  93
ATOM     93  S   UNL A   1      47.108  21.241  36.067  1.00  0.00     0.124 S 
ATOM     94  O   UNL A   1      48.410  21.860  36.291  1.00  0.00    -0.237 OA
ATOM     95  O   UNL A   1      46.213  21.218  37.221  1.00  0.00    -0.237 OA
ATOM     96  O   UNL A   1      47.113  20.025  35.261  1.00  0.00    -0.744 OA
ENDBRANCH  92  93
ENDBRANCH  60  85
ENDBRANCH  34  35
ENDBRANCH  27  29
ENDBRANCH  26  27
ENDBRANCH  25  26
ENDBRANCH   1  25
TORSDOF 17
ENDMDL
MODEL 3
REMARK VINA RESULT:     -13.6      1.583      2.563
REMARK SMILES Cc1cc(C(=O)OCCOC(=O)c2ccc(-c3c4nc(c(-c5c(F)cc(S(=O)(=O)[O-])cc5F)c5ccc([nH]5)c(-c5c(F)cc(S(=O)(=O)[O-])cc5F)c5nc(c(-c6c(F)cc(S(=O)(=O)[O-])cc6F)c6ccc3[nH]6)C=C5)C=C4)cc2)ccc1NS(=O)(=O)c1c(F)cccc1F
REMARK SMILES IDX 8 1 7 2 5 3 6 4 4 5 1 6 2 7 3 8 81 9 80 10 79 11 82 12 83 14
REMARK SMILES IDX 84 15 85 16 86 17 87 18 92 19 88 20 89 21 91 22 93 23 90 24
REMARK SMILES IDX 9 25 10 26 11 27 12 28 13 29 14 30 78 31 15 32 77 33 16 34
REMARK SMILES IDX 17 35 18 36 71 37 19 38 76 39 70 40 72 41 20 42 75 43 69 44
REMARK SMILES IDX 68 45 21 47 55 48 34 49 54 50 35 51 38 52 53 53 73 54 36 55
REMARK SMILES IDX 37 56 52 58 74 59 39 60 22 61 23 62 32 63 24 64 25 65 31 66
REMARK SMILES IDX 33 67 26 68 27 69 28 70 29 71 30 72 56 73 57 74 66 75 58 76
REMARK SMILES IDX 59 77 65 78 67 79 60 80 61 81 62 82 63 83 64 84 40 85 41 86
REMARK SMILES IDX 50 87 42 88 43 89 49 90 51 91 44 92 45 93 46 94 47 95 48 96
REMARK H PARENT 82 13 72 46 38 57
REMARK Flexibility Score: inf
ROOT
ATOM      1  C   UNL A   1      34.222  29.154  26.380  1.00  0.00     0.275 C 
ENDROOT
BRANCH   1   2
ATOM      2  O   UNL A   1      33.498  27.940  26.643  1.00  0.00    -0.458 OA
BRANCH   2   3
ATOM      3  C   UNL A   1      32.908  27.430  25.530  1.00  0.00     0.338 C 
ATOM      4  O   UNL A   1      31.791  27.753  25.141  1.00  0.00    -0.246 OA
BRANCH   3   5
ATOM      5  C   UNL A   1      33.700  26.382  24.824  1.00  0.00     0.060 A 
ATOM      6  C   UNL A   1      36.291  23.659  25.268  1.00  0.00     0.046 C 
ATOM      7  C   UNL A   1      35.074  24.389  24.763  1.00  0.00    -0.026 A 
ATOM      8  C   UNL A   1      34.588  25.508  25.455  1.00  0.00     0.021 A 
ATOM      9  C   UNL A   1      34.486  24.076  23.529  1.00  0.00     0.052 A 
ATOM     10  C   UNL A   1      33.910  25.088  22.776  1.00  0.00     0.028 A 
ATOM     11  C   UNL A   1      33.495  26.242  23.440  1.00  0.00     0.018 A 
BRANCH   9  12
ATOM     12  N   UNL A   1      34.309  22.694  23.202  1.00  0.00    -0.279 N 
ATOM     13  H   UNL A   1      35.012  22.237  22.685  1.00  0.00     0.180 HD
BRANCH  12  14
ATOM     14  S   UNL A   1      32.934  21.808  23.672  1.00  0.00     0.267 S 
ATOM     15  O   UNL A   1      32.149  21.671  22.460  1.00  0.00    -0.201 OA
ATOM     16  O   UNL A   1      33.436  20.632  24.350  1.00  0.00    -0.201 OA
BRANCH  14  17
ATOM     17  C   UNL A   1      31.956  22.683  24.847  1.00  0.00     0.158 A 
ATOM     18  C   UNL A   1      30.994  23.572  24.376  1.00  0.00     0.146 A 
ATOM     19  C   UNL A   1      32.192  22.623  26.211  1.00  0.00     0.146 A 
ATOM     20  F   UNL A   1      30.605  23.566  23.094  1.00  0.00    -0.205 F 
ATOM     21  C   UNL A   1      30.381  24.490  25.230  1.00  0.00     0.041 A 
ATOM     22  C   UNL A   1      31.613  23.563  27.073  1.00  0.00     0.041 A 
ATOM     23  F   UNL A   1      33.023  21.713  26.734  1.00  0.00    -0.205 F 
ATOM     24  C   UNL A   1      30.729  24.522  26.576  1.00  0.00     0.006 A 
ENDBRANCH  14  17
ENDBRANCH  12  14
ENDBRANCH   9  12
ENDBRANCH   3   5
ENDBRANCH   2   3
ENDBRANCH   1   2
BRANCH   1  25
ATOM     25  C   UNL A   1      34.615  29.966  27.637  1.00  0.00     0.275 C 
BRANCH  25  26
ATOM     26  O   UNL A   1      35.863  30.691  27.686  1.00  0.00    -0.458 OA
BRANCH  26  27
ATOM     27  C   UNL A   1      36.559  30.645  28.855  1.00  0.00     0.338 C 
ATOM     28  O   UNL A   1      36.164  31.139  29.892  1.00  0.00    -0.246 OA
BRANCH  27  29
ATOM     29  C   UNL A   1      37.632  29.620  28.699  1.00  0.00     0.060 A 
ATOM     30  C   UNL A   1      38.532  29.736  27.631  1.00  0.00     0.016 A 
ATOM     31  C   UNL A   1      37.944  28.834  29.811  1.00  0.00     0.016 A 
ATOM     32  C   UNL A   1      39.807  29.188  27.738  1.00  0.00     0.010 A 
ATOM     33  C   UNL A   1      39.240  28.433  29.988  1.00  0.00     0.010 A 
ATOM     34  C   UNL A   1      40.160  28.582  28.941  1.00  0.00    -0.014 A 
BRANCH  34  35
ATOM     35  C   UNL A   1      41.333  27.744  29.111  1.00  0.00     0.031 A 
ATOM     36  C   UNL A   1      41.398  26.355  28.638  1.00  0.00     0.074 A 
ATOM     37  C   UNL A   1      42.359  28.471  29.600  1.00  0.00     0.049 A 
ATOM     38  N   UNL A   1      42.235  25.480  29.071  1.00  0.00    -0.248 NA
ATOM     39  C   UNL A   1      40.485  25.802  27.648  1.00  0.00     0.031 C 
ATOM     40  C   UNL A   1      43.776  28.203  29.696  1.00  0.00     0.029 A 
ATOM     41  N   UNL A   1      42.194  29.677  30.297  1.00  0.00    -0.354 N 
ATOM     42  C   UNL A   1      42.180  24.380  28.230  1.00  0.00     0.074 A 
ATOM     43  C   UNL A   1      40.977  24.570  27.464  1.00  0.00     0.031 C 
ATOM     44  C   UNL A   1      44.288  29.010  30.649  1.00  0.00     0.029 A 
ATOM     45  C   UNL A   1      43.172  29.719  31.278  1.00  0.00     0.049 A 
ATOM     46  H   UNL A   1      41.512  30.365  30.122  1.00  0.00     0.167 HD
ATOM     47  C   UNL A   1      43.267  23.551  28.174  1.00  0.00     0.037 A 
ATOM     48  C   UNL A   1      42.744  29.563  32.567  1.00  0.00     0.037 A 
ATOM     49  C   UNL A   1      44.255  24.022  29.146  1.00  0.00     0.049 A 
ATOM     50  C   UNL A   1      43.251  28.246  33.101  1.00  0.00     0.074 A 
ATOM     51  C   UNL A   1      45.320  24.898  29.006  1.00  0.00     0.029 A 
ATOM     52  N   UNL A   1      43.971  23.949  30.505  1.00  0.00    -0.354 N 
ATOM     53  N   UNL A   1      43.376  27.152  32.393  1.00  0.00    -0.248 NA
ATOM     54  C   UNL A   1      43.818  28.136  34.438  1.00  0.00     0.031 C 
ATOM     55  C   UNL A   1      45.582  25.457  30.284  1.00  0.00     0.029 A 
ATOM     56  C   UNL A   1      44.692  24.907  31.195  1.00  0.00     0.049 A 
ATOM     57  H   UNL A   1      43.349  23.306  30.917  1.00  0.00     0.167 HD
ATOM     58  C   UNL A   1      44.108  26.245  33.115  1.00  0.00     0.074 A 
ATOM     59  C   UNL A   1      44.339  26.900  34.394  1.00  0.00     0.031 C 
ATOM     60  C   UNL A   1      44.553  25.045  32.634  1.00  0.00     0.037 A 
BRANCH  47  61
ATOM     61  C   UNL A   1      43.615  22.546  27.081  1.00  0.00     0.058 A 
ATOM     62  C   UNL A   1      42.773  21.428  26.859  1.00  0.00     0.135 A 
ATOM     63  C   UNL A   1      44.759  22.572  26.256  1.00  0.00     0.135 A 
ATOM     64  F   UNL A   1      41.607  21.288  27.507  1.00  0.00    -0.206 F 
ATOM     65  C   UNL A   1      43.078  20.391  25.972  1.00  0.00     0.059 A 
ATOM     66  C   UNL A   1      45.097  21.534  25.372  1.00  0.00     0.059 A 
ATOM     67  F   UNL A   1      45.589  23.620  26.236  1.00  0.00    -0.206 F 
ATOM     68  C   UNL A   1      44.258  20.438  25.246  1.00  0.00     0.060 A 
BRANCH  68  69
ATOM     69  S   UNL A   1      44.651  19.073  24.135  1.00  0.00     0.124 S 
ATOM     70  O   UNL A   1      46.058  18.829  24.438  1.00  0.00    -0.237 OA
ATOM     71  O   UNL A   1      43.719  18.039  24.572  1.00  0.00    -0.237 OA
ATOM     72  O   UNL A   1      44.389  19.627  22.809  1.00  0.00    -0.744 OA
ENDBRANCH  68  69
ENDBRANCH  47  61
BRANCH  48  73
ATOM     73  C   UNL A   1      41.422  30.219  32.875  1.00  0.00     0.058 A 
ATOM     74  C   UNL A   1      40.416  29.430  33.485  1.00  0.00     0.135 A 
ATOM     75  C   UNL A   1      41.188  31.603  32.856  1.00  0.00     0.135 A 
ATOM     76  F   UNL A   1      40.552  28.094  33.533  1.00  0.00    -0.206 F 
ATOM     77  C   UNL A   1      39.314  29.978  34.140  1.00  0.00     0.059 A 
ATOM     78  C   UNL A   1      40.070  32.178  33.490  1.00  0.00     0.059 A 
ATOM     79  F   UNL A   1      42.079  32.433  32.295  1.00  0.00    -0.206 F 
ATOM     80  C   UNL A   1      39.160  31.359  34.163  1.00  0.00     0.060 A 
BRANCH  80  81
ATOM     81  S   UNL A   1      37.874  32.056  35.237  1.00  0.00     0.124 S 
ATOM     82  O   UNL A   1      37.694  30.995  36.222  1.00  0.00    -0.237 OA
ATOM     83  O   UNL A   1      38.522  33.270  35.729  1.00  0.00    -0.237 OA
ATOM     84  O   UNL A   1      36.756  32.266  34.323  1.00  0.00    -0.744 OA
ENDBRANCH  80  81
ENDBRANCH  48  73
BRANCH  60  85
ATOM     85  C   UNL A   1      45.026  23.915  33.510  1.00  0.00     0.058 A 
ATOM     86  C   UNL A   1      46.340  23.829  33.997  1.00  0.00     0.135 A 
ATOM     87  C   UNL A   1      44.115  22.963  34.026  1.00  0.00     0.135 A 
ATOM     88  F   UNL A   1      47.261  24.757  33.698  1.00  0.00    -0.206 F 
ATOM     89  C   UNL A   1      46.754  22.807  34.842  1.00  0.00     0.059 A 
ATOM     90  C   UNL A   1      44.490  21.979  34.933  1.00  0.00     0.059 A 
ATOM     91  F   UNL A   1      42.818  22.964  33.682  1.00  0.00    -0.206 F 
ATOM     92  C   UNL A   1      45.823  21.883  35.299  1.00  0.00     0.060 A 
BRANCH  92  93
ATOM     93  S   UNL A   1      46.355  20.569  36.403  1.00  0.00     0.124 S 
ATOM     94  O   UNL A   1      45.908  21.085  37.693  1.00  0.00    -0.237 OA
ATOM     95  O   UNL A   1      45.625  19.409  35.900  1.00  0.00    -0.237 OA
ATOM     96  O   UNL A   1      47.800  20.528  36.201  1.00  0.00    -0.744 OA
ENDBRANCH  92  93
ENDBRANCH  60  85
ENDBRANCH  34  35
ENDBRANCH  27  29
ENDBRANCH  26  27
ENDBRANCH  25  26
ENDBRANCH   1  25
TORSDOF 17
ENDMDL
