MODEL 1
REMARK VINA RESULT:     -13.1      0.000      0.000
REMARK SMILES CC[C@@H](Sc1nnc2ccc3ccccc3n12)C(=O)Nc1cccc(C(=O)OCCOC(=O)c2ccc(-c3c4nc(c(-c5c(F)cc(S(=O)(=O)[O-])cc5F)c5ccc([nH]5)c(-c5c(F)cc(S(=O)(=O)[O-])cc5F)c5nc(c(-c6c(F)cc(S(=O)(=O)[O-])cc6F)c6ccc3[nH]6)C=C5)C=C4)cc2)c1
REMARK SMILES IDX 29 1 28 2 26 3 27 4 25 5 21 6 22 7 100 8 23 9 24 10 20 11
REMARK SMILES IDX 18 12 19 13 3 15 2 16 1 17 4 18 5 19 6 20 17 21 7 22 8 23
REMARK SMILES IDX 16 24 9 25 11 26 15 27 10 28 12 29 14 30 13 31 30 32 31 33
REMARK SMILES IDX 32 34 33 35 34 36 35 37 99 38 36 39 98 40 37 41 38 42 39 43
REMARK SMILES IDX 92 44 40 45 97 46 91 47 93 48 41 49 96 50 90 51 89 52 42 54
REMARK SMILES IDX 76 55 55 56 75 57 56 58 59 59 74 60 94 61 57 62 58 63 73 65
REMARK SMILES IDX 95 66 60 67 43 68 44 69 53 70 45 71 46 72 52 73 54 74 47 75
REMARK SMILES IDX 48 76 49 77 50 78 51 79 77 80 78 81 87 82 79 83 80 84 86 85
REMARK SMILES IDX 88 86 81 87 82 88 83 89 84 90 85 91 61 92 62 93 71 94 63 95
REMARK SMILES IDX 64 96 70 97 72 98 65 99 66 100 67 101 68 102 69 103
REMARK H PARENT 20 14 93 53 59 64
REMARK Flexibility Score: inf
ROOT
ATOM      1  C   UNL A   1      38.622  21.731  26.097  1.00  0.00     0.275 C 
ENDROOT
BRANCH   1   2
ATOM      2  O   UNL A   1      38.002  22.162  24.859  1.00  0.00    -0.458 OA
BRANCH   2   3
ATOM      3  C   UNL A   1      36.699  21.817  24.718  1.00  0.00     0.338 C 
ATOM      4  O   UNL A   1      36.256  20.680  24.773  1.00  0.00    -0.246 OA
BRANCH   3   5
ATOM      5  C   UNL A   1      35.808  23.002  24.558  1.00  0.00     0.062 A 
ATOM      6  C   UNL A   1      34.402  24.577  23.395  1.00  0.00     0.042 A 
ATOM      7  C   UNL A   1      34.262  25.354  24.549  1.00  0.00     0.026 A 
ATOM      8  C   UNL A   1      35.121  23.367  23.407  1.00  0.00     0.041 A 
ATOM      9  C   UNL A   1      34.917  24.977  25.702  1.00  0.00     0.003 A 
ATOM     10  C   UNL A   1      35.691  23.821  25.677  1.00  0.00     0.016 A 
BRANCH   6  11
ATOM     11  N   UNL A   1      33.838  25.016  22.196  1.00  0.00    -0.325 N 
ATOM     12  C   UNL A   1      32.568  25.475  21.950  1.00  0.00     0.237 C 
ATOM     13  O   UNL A   1      32.244  25.597  20.760  1.00  0.00    -0.273 OA
ATOM     14  H   UNL A   1      34.437  24.995  21.415  1.00  0.00     0.169 HD
BRANCH  12  15
ATOM     15  C   UNL A   1      31.549  25.874  23.055  1.00  0.00     0.144 C 
BRANCH  15  16
ATOM     16  C   UNL A   1      30.784  27.149  22.665  1.00  0.00     0.021 C 
ATOM     17  C   UNL A   1      29.597  27.466  23.569  1.00  0.00     0.005 C 
ENDBRANCH  15  16
BRANCH  15  18
ATOM     18  S   UNL A   1      30.524  24.429  23.551  1.00  0.00    -0.072 SA
BRANCH  18  19
ATOM     19  C   UNL A   1      30.993  24.048  25.161  1.00  0.00     0.196 A 
ATOM     20  N   UNL A   1      30.722  24.844  26.174  1.00  0.00    -0.122 NA
ATOM     21  N   UNL A   1      31.804  23.004  25.578  1.00  0.00    -0.270 N 
ATOM     22  N   UNL A   1      31.373  24.367  27.278  1.00  0.00    -0.129 NA
ATOM     23  C   UNL A   1      32.023  23.278  26.925  1.00  0.00     0.161 A 
ATOM     24  C   UNL A   1      32.275  21.810  24.957  1.00  0.00     0.057 A 
ATOM     25  C   UNL A   1      32.828  22.406  27.695  1.00  0.00     0.050 A 
ATOM     26  C   UNL A   1      32.925  20.883  25.796  1.00  0.00    -0.001 A 
ATOM     27  C   UNL A   1      32.049  21.479  23.623  1.00  0.00     0.027 A 
ATOM     28  C   UNL A   1      33.261  21.249  27.176  1.00  0.00     0.014 A 
ATOM     29  C   UNL A   1      33.241  19.609  25.308  1.00  0.00     0.010 A 
ATOM     30  C   UNL A   1      32.346  20.198  23.149  1.00  0.00     0.002 A 
ATOM     31  C   UNL A   1      32.920  19.257  23.997  1.00  0.00     0.001 A 
ENDBRANCH  18  19
ENDBRANCH  15  18
ENDBRANCH  12  15
ENDBRANCH   6  11
ENDBRANCH   3   5
ENDBRANCH   2   3
ENDBRANCH   1   2
BRANCH   1  32
ATOM     32  C   UNL A   1      39.949  21.011  25.834  1.00  0.00     0.275 C 
BRANCH  32  33
ATOM     33  O   UNL A   1      40.947  21.564  26.701  1.00  0.00    -0.458 OA
BRANCH  33  34
ATOM     34  C   UNL A   1      41.750  22.511  26.152  1.00  0.00     0.338 C 
ATOM     35  O   UNL A   1      42.364  22.445  25.112  1.00  0.00    -0.246 OA
BRANCH  34  36
ATOM     36  C   UNL A   1      41.449  23.756  26.886  1.00  0.00     0.060 A 
ATOM     37  C   UNL A   1      40.570  24.726  26.385  1.00  0.00     0.016 A 
ATOM     38  C   UNL A   1      42.240  24.020  28.000  1.00  0.00     0.016 A 
ATOM     39  C   UNL A   1      40.559  26.005  26.943  1.00  0.00     0.010 A 
ATOM     40  C   UNL A   1      42.230  25.298  28.537  1.00  0.00     0.010 A 
ATOM     41  C   UNL A   1      41.435  26.311  27.985  1.00  0.00    -0.014 A 
BRANCH  41  42
ATOM     42  C   UNL A   1      41.376  27.609  28.669  1.00  0.00     0.031 A 
ATOM     43  C   UNL A   1      42.494  28.512  28.301  1.00  0.00     0.074 A 
ATOM     44  C   UNL A   1      40.377  28.107  29.436  1.00  0.00     0.049 A 
ATOM     45  N   UNL A   1      43.373  28.999  29.111  1.00  0.00    -0.248 NA
ATOM     46  C   UNL A   1      42.729  28.854  26.892  1.00  0.00     0.031 C 
ATOM     47  C   UNL A   1      39.128  27.484  29.868  1.00  0.00     0.029 A 
ATOM     48  N   UNL A   1      40.241  29.378  29.937  1.00  0.00    -0.354 N 
ATOM     49  C   UNL A   1      44.152  29.860  28.356  1.00  0.00     0.074 A 
ATOM     50  C   UNL A   1      43.777  29.672  26.981  1.00  0.00     0.031 C 
ATOM     51  C   UNL A   1      38.247  28.424  30.285  1.00  0.00     0.029 A 
ATOM     52  C   UNL A   1      38.964  29.678  30.406  1.00  0.00     0.049 A 
ATOM     53  H   UNL A   1      40.984  30.024  29.961  1.00  0.00     0.167 HD
ATOM     54  C   UNL A   1      44.920  30.811  28.940  1.00  0.00     0.037 A 
ATOM     55  C   UNL A   1      38.538  30.818  31.000  1.00  0.00     0.037 A 
ATOM     56  C   UNL A   1      45.125  30.557  30.339  1.00  0.00     0.049 A 
ATOM     57  C   UNL A   1      39.718  31.404  31.668  1.00  0.00     0.074 A 
ATOM     58  C   UNL A   1      45.737  29.554  31.061  1.00  0.00     0.029 A 
ATOM     59  N   UNL A   1      44.295  31.219  31.207  1.00  0.00    -0.354 N 
ATOM     60  N   UNL A   1      40.330  30.848  32.675  1.00  0.00    -0.248 NA
ATOM     61  C   UNL A   1      40.420  32.515  31.042  1.00  0.00     0.031 C 
ATOM     62  C   UNL A   1      44.976  29.421  32.260  1.00  0.00     0.029 A 
ATOM     63  C   UNL A   1      43.952  30.367  32.230  1.00  0.00     0.049 A 
ATOM     64  H   UNL A   1      43.994  32.151  31.113  1.00  0.00     0.167 HD
ATOM     65  C   UNL A   1      41.646  31.234  32.531  1.00  0.00     0.074 A 
ATOM     66  C   UNL A   1      41.604  32.388  31.644  1.00  0.00     0.031 C 
ATOM     67  C   UNL A   1      42.664  30.405  32.898  1.00  0.00     0.037 A 
BRANCH  54  68
ATOM     68  C   UNL A   1      45.180  32.137  28.296  1.00  0.00     0.058 A 
ATOM     69  C   UNL A   1      46.477  32.493  27.898  1.00  0.00     0.135 A 
ATOM     70  C   UNL A   1      44.213  33.171  28.285  1.00  0.00     0.135 A 
ATOM     71  F   UNL A   1      47.468  31.587  27.923  1.00  0.00    -0.206 F 
ATOM     72  C   UNL A   1      46.800  33.794  27.515  1.00  0.00     0.059 A 
ATOM     73  C   UNL A   1      44.501  34.461  27.863  1.00  0.00     0.059 A 
ATOM     74  F   UNL A   1      42.974  32.978  28.760  1.00  0.00    -0.206 F 
ATOM     75  C   UNL A   1      45.804  34.770  27.504  1.00  0.00     0.060 A 
BRANCH  75  76
ATOM     76  S   UNL A   1      46.234  36.463  27.060  1.00  0.00     0.124 S 
ATOM     77  O   UNL A   1      47.034  36.870  28.208  1.00  0.00    -0.237 OA
ATOM     78  O   UNL A   1      46.958  36.273  25.807  1.00  0.00    -0.237 OA
ATOM     79  O   UNL A   1      44.933  37.113  26.931  1.00  0.00    -0.744 OA
ENDBRANCH  75  76
ENDBRANCH  54  68
BRANCH  55  80
ATOM     80  C   UNL A   1      37.226  31.511  30.976  1.00  0.00     0.058 A 
ATOM     81  C   UNL A   1      36.289  31.318  32.009  1.00  0.00     0.135 A 
ATOM     82  C   UNL A   1      37.014  32.622  30.137  1.00  0.00     0.135 A 
ATOM     83  F   UNL A   1      36.417  30.285  32.853  1.00  0.00    -0.206 F 
ATOM     84  C   UNL A   1      35.260  32.227  32.262  1.00  0.00     0.059 A 
ATOM     85  C   UNL A   1      35.986  33.540  30.366  1.00  0.00     0.059 A 
ATOM     86  F   UNL A   1      37.869  32.899  29.139  1.00  0.00    -0.206 F 
ATOM     87  C   UNL A   1      35.139  33.357  31.456  1.00  0.00     0.060 A 
BRANCH  87  88
ATOM     88  S   UNL A   1      33.967  34.649  31.942  1.00  0.00     0.124 S 
ATOM     89  O   UNL A   1      33.250  34.893  30.694  1.00  0.00    -0.237 OA
ATOM     90  O   UNL A   1      33.206  33.988  32.997  1.00  0.00    -0.237 OA
ATOM     91  O   UNL A   1      34.832  35.737  32.390  1.00  0.00    -0.744 OA
ENDBRANCH  87  88
ENDBRANCH  55  80
BRANCH  67  92
ATOM     92  C   UNL A   1      42.366  29.324  33.909  1.00  0.00     0.058 A 
ATOM     93  C   UNL A   1      41.867  28.045  33.609  1.00  0.00     0.135 A 
ATOM     94  C   UNL A   1      42.709  29.575  35.248  1.00  0.00     0.135 A 
ATOM     95  F   UNL A   1      41.590  27.688  32.348  1.00  0.00    -0.206 F 
ATOM     96  C   UNL A   1      41.689  27.072  34.598  1.00  0.00     0.059 A 
ATOM     97  C   UNL A   1      42.571  28.610  36.244  1.00  0.00     0.059 A 
ATOM     98  F   UNL A   1      43.232  30.762  35.596  1.00  0.00    -0.206 F 
ATOM     99  C   UNL A   1      42.050  27.363  35.913  1.00  0.00     0.060 A 
BRANCH  99 100
ATOM    100  S   UNL A   1      41.908  26.075  37.173  1.00  0.00     0.124 S 
ATOM    101  O   UNL A   1      40.513  26.199  37.583  1.00  0.00    -0.237 OA
ATOM    102  O   UNL A   1      42.245  24.865  36.429  1.00  0.00    -0.237 OA
ATOM    103  O   UNL A   1      42.891  26.471  38.178  1.00  0.00    -0.744 OA
ENDBRANCH  99 100
ENDBRANCH  67  92
ENDBRANCH  41  42
ENDBRANCH  34  36
ENDBRANCH  33  34
ENDBRANCH  32  33
ENDBRANCH   1  32
TORSDOF 19
ENDMDL
MODEL 2
REMARK VINA RESULT:     -12.9      2.910      9.527
REMARK SMILES CC[C@@H](Sc1nnc2ccc3ccccc3n12)C(=O)Nc1cccc(C(=O)OCCOC(=O)c2ccc(-c3c4nc(c(-c5c(F)cc(S(=O)(=O)[O-])cc5F)c5ccc([nH]5)c(-c5c(F)cc(S(=O)(=O)[O-])cc5F)c5nc(c(-c6c(F)cc(S(=O)(=O)[O-])cc6F)c6ccc3[nH]6)C=C5)C=C4)cc2)c1
REMARK SMILES IDX 29 1 28 2 26 3 27 4 25 5 21 6 22 7 100 8 23 9 24 10 20 11
REMARK SMILES IDX 18 12 19 13 3 15 2 16 1 17 4 18 5 19 6 20 17 21 7 22 8 23
REMARK SMILES IDX 16 24 9 25 11 26 15 27 10 28 12 29 14 30 13 31 30 32 31 33
REMARK SMILES IDX 32 34 33 35 34 36 35 37 99 38 36 39 98 40 37 41 38 42 39 43
REMARK SMILES IDX 92 44 40 45 97 46 91 47 93 48 41 49 96 50 90 51 89 52 42 54
REMARK SMILES IDX 76 55 55 56 75 57 56 58 59 59 74 60 94 61 57 62 58 63 73 65
REMARK SMILES IDX 95 66 60 67 43 68 44 69 53 70 45 71 46 72 52 73 54 74 47 75
REMARK SMILES IDX 48 76 49 77 50 78 51 79 77 80 78 81 87 82 79 83 80 84 86 85
REMARK SMILES IDX 88 86 81 87 82 88 83 89 84 90 85 91 61 92 62 93 71 94 63 95
REMARK SMILES IDX 64 96 70 97 72 98 65 99 66 100 67 101 68 102 69 103
REMARK H PARENT 20 14 93 53 59 64
REMARK Flexibility Score: inf
ROOT
ATOM      1  C   UNL A   1      33.970  31.189  27.209  1.00  0.00     0.275 C 
ENDROOT
BRANCH   1   2
ATOM      2  O   UNL A   1      32.850  30.328  27.536  1.00  0.00    -0.458 OA
BRANCH   2   3
ATOM      3  C   UNL A   1      32.199  29.801  26.471  1.00  0.00     0.338 C 
ATOM      4  O   UNL A   1      31.530  30.432  25.667  1.00  0.00    -0.246 OA
BRANCH   3   5
ATOM      5  C   UNL A   1      32.442  28.339  26.318  1.00  0.00     0.062 A 
ATOM      6  C   UNL A   1      31.957  25.982  26.476  1.00  0.00     0.042 A 
ATOM      7  C   UNL A   1      33.233  25.655  26.010  1.00  0.00     0.026 A 
ATOM      8  C   UNL A   1      31.531  27.321  26.573  1.00  0.00     0.041 A 
ATOM      9  C   UNL A   1      34.129  26.664  25.725  1.00  0.00     0.003 A 
ATOM     10  C   UNL A   1      33.722  27.982  25.904  1.00  0.00     0.016 A 
BRANCH   6  11
ATOM     11  N   UNL A   1      31.088  24.966  26.876  1.00  0.00    -0.325 N 
ATOM     12  C   UNL A   1      30.808  23.771  26.263  1.00  0.00     0.237 C 
ATOM     13  O   UNL A   1      29.837  23.137  26.703  1.00  0.00    -0.273 OA
ATOM     14  H   UNL A   1      30.608  25.130  27.721  1.00  0.00     0.169 HD
BRANCH  12  15
ATOM     15  C   UNL A   1      31.642  23.165  25.099  1.00  0.00     0.144 C 
BRANCH  15  16
ATOM     16  C   UNL A   1      31.864  21.657  25.307  1.00  0.00     0.021 C 
ATOM     17  C   UNL A   1      32.950  21.058  24.420  1.00  0.00     0.005 C 
ENDBRANCH  15  16
BRANCH  15  18
ATOM     18  S   UNL A   1      30.952  23.669  23.470  1.00  0.00    -0.072 SA
BRANCH  18  19
ATOM     19  C   UNL A   1      32.101  24.752  22.787  1.00  0.00     0.196 A 
ATOM     20  N   UNL A   1      33.258  24.337  22.318  1.00  0.00    -0.122 NA
ATOM     21  N   UNL A   1      32.050  26.137  22.776  1.00  0.00    -0.270 N 
ATOM     22  N   UNL A   1      34.015  25.436  22.016  1.00  0.00    -0.129 NA
ATOM     23  C   UNL A   1      33.303  26.507  22.293  1.00  0.00     0.161 A 
ATOM     24  C   UNL A   1      31.020  27.091  23.030  1.00  0.00     0.057 A 
ATOM     25  C   UNL A   1      33.619  27.878  22.145  1.00  0.00     0.050 A 
ATOM     26  C   UNL A   1      31.313  28.430  22.707  1.00  0.00    -0.001 A 
ATOM     27  C   UNL A   1      29.743  26.763  23.478  1.00  0.00     0.027 A 
ATOM     28  C   UNL A   1      32.678  28.814  22.329  1.00  0.00     0.014 A 
ATOM     29  C   UNL A   1      30.296  29.391  22.742  1.00  0.00     0.010 A 
ATOM     30  C   UNL A   1      28.726  27.721  23.488  1.00  0.00     0.002 A 
ATOM     31  C   UNL A   1      28.996  29.028  23.099  1.00  0.00     0.001 A 
ENDBRANCH  18  19
ENDBRANCH  15  18
ENDBRANCH  12  15
ENDBRANCH   6  11
ENDBRANCH   3   5
ENDBRANCH   2   3
ENDBRANCH   1   2
BRANCH   1  32
ATOM     32  C   UNL A   1      34.078  32.360  28.192  1.00  0.00     0.275 C 
BRANCH  32  33
ATOM     33  O   UNL A   1      34.312  31.835  29.503  1.00  0.00    -0.458 OA
BRANCH  33  34
ATOM     34  C   UNL A   1      35.311  32.423  30.208  1.00  0.00     0.338 C 
ATOM     35  O   UNL A   1      35.208  33.252  31.083  1.00  0.00    -0.246 OA
BRANCH  34  36
ATOM     36  C   UNL A   1      36.512  31.604  29.947  1.00  0.00     0.060 A 
ATOM     37  C   UNL A   1      36.470  30.204  29.915  1.00  0.00     0.016 A 
ATOM     38  C   UNL A   1      37.728  32.281  29.944  1.00  0.00     0.016 A 
ATOM     39  C   UNL A   1      37.657  29.474  29.983  1.00  0.00     0.010 A 
ATOM     40  C   UNL A   1      38.900  31.545  30.025  1.00  0.00     0.010 A 
ATOM     41  C   UNL A   1      38.875  30.146  30.098  1.00  0.00    -0.014 A 
BRANCH  41  42
ATOM     42  C   UNL A   1      40.150  29.417  30.061  1.00  0.00     0.031 A 
ATOM     43  C   UNL A   1      40.691  29.124  31.411  1.00  0.00     0.074 A 
ATOM     44  C   UNL A   1      40.772  28.871  28.989  1.00  0.00     0.049 A 
ATOM     45  N   UNL A   1      41.825  29.527  31.877  1.00  0.00    -0.248 NA
ATOM     46  C   UNL A   1      39.877  28.383  32.384  1.00  0.00     0.031 C 
ATOM     47  C   UNL A   1      40.411  28.916  27.574  1.00  0.00     0.029 A 
ATOM     48  N   UNL A   1      41.870  28.049  28.970  1.00  0.00    -0.354 N 
ATOM     49  C   UNL A   1      41.958  28.935  33.121  1.00  0.00     0.074 A 
ATOM     50  C   UNL A   1      40.698  28.312  33.430  1.00  0.00     0.031 C 
ATOM     51  C   UNL A   1      41.057  27.942  26.888  1.00  0.00     0.029 A 
ATOM     52  C   UNL A   1      42.076  27.391  27.760  1.00  0.00     0.049 A 
ATOM     53  H   UNL A   1      42.462  27.932  29.748  1.00  0.00     0.167 HD
ATOM     54  C   UNL A   1      43.164  28.835  33.729  1.00  0.00     0.037 A 
ATOM     55  C   UNL A   1      43.094  26.565  27.419  1.00  0.00     0.037 A 
ATOM     56  C   UNL A   1      44.136  29.720  33.151  1.00  0.00     0.049 A 
ATOM     57  C   UNL A   1      44.255  26.980  28.232  1.00  0.00     0.074 A 
ATOM     58  C   UNL A   1      44.254  31.090  33.041  1.00  0.00     0.029 A 
ATOM     59  N   UNL A   1      44.976  29.175  32.213  1.00  0.00    -0.354 N 
ATOM     60  N   UNL A   1      44.855  28.131  28.101  1.00  0.00    -0.248 NA
ATOM     61  C   UNL A   1      44.614  26.215  29.416  1.00  0.00     0.031 C 
ATOM     62  C   UNL A   1      44.894  31.324  31.789  1.00  0.00     0.029 A 
ATOM     63  C   UNL A   1      45.167  30.088  31.203  1.00  0.00     0.049 A 
ATOM     64  H   UNL A   1      45.377  28.278  32.257  1.00  0.00     0.167 HD
ATOM     65  C   UNL A   1      45.313  28.423  29.369  1.00  0.00     0.074 A 
ATOM     66  C   UNL A   1      45.306  27.148  30.074  1.00  0.00     0.031 C 
ATOM     67  C   UNL A   1      45.367  29.708  29.816  1.00  0.00     0.037 A 
BRANCH  54  68
ATOM     68  C   UNL A   1      43.524  27.680  34.612  1.00  0.00     0.058 A 
ATOM     69  C   UNL A   1      43.822  27.887  35.967  1.00  0.00     0.135 A 
ATOM     70  C   UNL A   1      43.819  26.398  34.091  1.00  0.00     0.135 A 
ATOM     71  F   UNL A   1      43.617  29.086  36.533  1.00  0.00    -0.206 F 
ATOM     72  C   UNL A   1      44.382  26.886  36.759  1.00  0.00     0.059 A 
ATOM     73  C   UNL A   1      44.334  25.373  34.872  1.00  0.00     0.059 A 
ATOM     74  F   UNL A   1      43.692  26.125  32.784  1.00  0.00    -0.206 F 
ATOM     75  C   UNL A   1      44.637  25.633  36.200  1.00  0.00     0.060 A 
BRANCH  75  76
ATOM     76  S   UNL A   1      45.411  24.357  37.210  1.00  0.00     0.124 S 
ATOM     77  O   UNL A   1      46.820  24.713  37.099  1.00  0.00    -0.237 OA
ATOM     78  O   UNL A   1      44.792  24.585  38.512  1.00  0.00    -0.237 OA
ATOM     79  O   UNL A   1      45.014  23.120  36.543  1.00  0.00    -0.744 OA
ENDBRANCH  75  76
ENDBRANCH  54  68
BRANCH  55  80
ATOM     80  C   UNL A   1      43.146  25.382  26.524  1.00  0.00     0.058 A 
ATOM     81  C   UNL A   1      44.015  25.353  25.417  1.00  0.00     0.135 A 
ATOM     82  C   UNL A   1      42.610  24.146  26.933  1.00  0.00     0.135 A 
ATOM     83  F   UNL A   1      44.569  26.486  24.963  1.00  0.00    -0.206 F 
ATOM     84  C   UNL A   1      44.413  24.160  24.812  1.00  0.00     0.059 A 
ATOM     85  C   UNL A   1      42.987  22.940  26.337  1.00  0.00     0.059 A 
ATOM     86  F   UNL A   1      41.790  24.073  27.994  1.00  0.00    -0.206 F 
ATOM     87  C   UNL A   1      43.921  22.953  25.304  1.00  0.00     0.060 A 
BRANCH  87  88
ATOM     88  S   UNL A   1      44.631  21.407  24.682  1.00  0.00     0.124 S 
ATOM     89  O   UNL A   1      44.660  21.644  23.243  1.00  0.00    -0.237 OA
ATOM     90  O   UNL A   1      45.928  21.378  25.350  1.00  0.00    -0.237 OA
ATOM     91  O   UNL A   1      43.679  20.395  25.131  1.00  0.00    -0.744 OA
ENDBRANCH  87  88
ENDBRANCH  55  80
BRANCH  67  92
ATOM     92  C   UNL A   1      45.423  30.813  28.789  1.00  0.00     0.058 A 
ATOM     93  C   UNL A   1      46.575  31.221  28.094  1.00  0.00     0.135 A 
ATOM     94  C   UNL A   1      44.210  31.417  28.418  1.00  0.00     0.135 A 
ATOM     95  F   UNL A   1      47.761  30.641  28.322  1.00  0.00    -0.206 F 
ATOM     96  C   UNL A   1      46.528  32.203  27.101  1.00  0.00     0.059 A 
ATOM     97  C   UNL A   1      44.135  32.375  27.410  1.00  0.00     0.059 A 
ATOM     98  F   UNL A   1      43.065  31.043  29.012  1.00  0.00    -0.206 F 
ATOM     99  C   UNL A   1      45.300  32.771  26.761  1.00  0.00     0.060 A 
BRANCH  99 100
ATOM    100  S   UNL A   1      45.226  33.973  25.413  1.00  0.00     0.124 S 
ATOM    101  O   UNL A   1      46.633  34.313  25.226  1.00  0.00    -0.237 OA
ATOM    102  O   UNL A   1      44.611  33.204  24.336  1.00  0.00    -0.237 OA
ATOM    103  O   UNL A   1      44.393  35.042  25.956  1.00  0.00    -0.744 OA
ENDBRANCH  99 100
ENDBRANCH  67  92
ENDBRANCH  41  42
ENDBRANCH  34  36
ENDBRANCH  33  34
ENDBRANCH  32  33
ENDBRANCH   1  32
TORSDOF 19
ENDMDL
MODEL 3
REMARK VINA RESULT:     -12.3      1.169      2.139
REMARK SMILES CC[C@@H](Sc1nnc2ccc3ccccc3n12)C(=O)Nc1cccc(C(=O)OCCOC(=O)c2ccc(-c3c4nc(c(-c5c(F)cc(S(=O)(=O)[O-])cc5F)c5ccc([nH]5)c(-c5c(F)cc(S(=O)(=O)[O-])cc5F)c5nc(c(-c6c(F)cc(S(=O)(=O)[O-])cc6F)c6ccc3[nH]6)C=C5)C=C4)cc2)c1
REMARK SMILES IDX 29 1 28 2 26 3 27 4 25 5 21 6 22 7 100 8 23 9 24 10 20 11
REMARK SMILES IDX 18 12 19 13 3 15 2 16 1 17 4 18 5 19 6 20 17 21 7 22 8 23
REMARK SMILES IDX 16 24 9 25 11 26 15 27 10 28 12 29 14 30 13 31 30 32 31 33
REMARK SMILES IDX 32 34 33 35 34 36 35 37 99 38 36 39 98 40 37 41 38 42 39 43
REMARK SMILES IDX 92 44 40 45 97 46 91 47 93 48 41 49 96 50 90 51 89 52 42 54
REMARK SMILES IDX 76 55 55 56 75 57 56 58 59 59 74 60 94 61 57 62 58 63 73 65
REMARK SMILES IDX 95 66 60 67 43 68 44 69 53 70 45 71 46 72 52 73 54 74 47 75
REMARK SMILES IDX 48 76 49 77 50 78 51 79 77 80 78 81 87 82 79 83 80 84 86 85
REMARK SMILES IDX 88 86 81 87 82 88 83 89 84 90 85 91 61 92 62 93 71 94 63 95
REMARK SMILES IDX 64 96 70 97 72 98 65 99 66 100 67 101 68 102 69 103
REMARK H PARENT 20 14 93 53 59 64
REMARK Flexibility Score: inf
ROOT
ATOM      1  C   UNL A   1      38.016  22.266  25.912  1.00  0.00     0.275 C 
ENDROOT
BRANCH   1   2
ATOM      2  O   UNL A   1      37.272  22.447  24.680  1.00  0.00    -0.458 OA
BRANCH   2   3
ATOM      3  C   UNL A   1      35.946  22.179  24.765  1.00  0.00     0.338 C 
ATOM      4  O   UNL A   1      35.433  21.082  24.608  1.00  0.00    -0.246 OA
BRANCH   3   5
ATOM      5  C   UNL A   1      35.145  23.375  25.155  1.00  0.00     0.062 A 
ATOM      6  C   UNL A   1      34.387  25.661  25.062  1.00  0.00     0.042 A 
ATOM      7  C   UNL A   1      33.583  25.474  26.191  1.00  0.00     0.026 A 
ATOM      8  C   UNL A   1      35.122  24.600  24.500  1.00  0.00     0.041 A 
ATOM      9  C   UNL A   1      33.580  24.250  26.824  1.00  0.00     0.003 A 
ATOM     10  C   UNL A   1      34.375  23.232  26.305  1.00  0.00     0.016 A 
BRANCH   6  11
ATOM     11  N   UNL A   1      34.484  26.929  24.488  1.00  0.00    -0.325 N 
ATOM     12  C   UNL A   1      33.517  27.678  23.866  1.00  0.00     0.237 C 
ATOM     13  O   UNL A   1      33.905  28.679  23.246  1.00  0.00    -0.273 OA
ATOM     14  H   UNL A   1      35.375  27.347  24.538  1.00  0.00     0.169 HD
BRANCH  12  15
ATOM     15  C   UNL A   1      31.994  27.369  23.925  1.00  0.00     0.144 C 
BRANCH  15  16
ATOM     16  C   UNL A   1      31.203  28.586  24.433  1.00  0.00     0.021 C 
ATOM     17  C   UNL A   1      31.715  29.156  25.752  1.00  0.00     0.005 C 
ENDBRANCH  15  16
BRANCH  15  18
ATOM     18  S   UNL A   1      31.417  26.626  22.344  1.00  0.00    -0.072 SA
BRANCH  18  19
ATOM     19  C   UNL A   1      32.196  25.096  22.230  1.00  0.00     0.196 A 
ATOM     20  N   UNL A   1      33.067  24.825  21.282  1.00  0.00    -0.122 NA
ATOM     21  N   UNL A   1      31.925  23.957  22.970  1.00  0.00    -0.270 N 
ATOM     22  N   UNL A   1      33.368  23.492  21.348  1.00  0.00    -0.129 NA
ATOM     23  C   UNL A   1      32.686  22.972  22.345  1.00  0.00     0.161 A 
ATOM     24  C   UNL A   1      31.190  23.706  24.167  1.00  0.00     0.057 A 
ATOM     25  C   UNL A   1      32.657  21.647  22.838  1.00  0.00     0.050 A 
ATOM     26  C   UNL A   1      31.323  22.419  24.725  1.00  0.00    -0.001 A 
ATOM     27  C   UNL A   1      30.446  24.668  24.845  1.00  0.00     0.027 A 
ATOM     28  C   UNL A   1      32.018  21.363  23.981  1.00  0.00     0.014 A 
ATOM     29  C   UNL A   1      30.795  22.156  25.995  1.00  0.00     0.010 A 
ATOM     30  C   UNL A   1      29.942  24.406  26.122  1.00  0.00     0.002 A 
ATOM     31  C   UNL A   1      30.135  23.160  26.705  1.00  0.00     0.001 A 
ENDBRANCH  18  19
ENDBRANCH  15  18
ENDBRANCH  12  15
ENDBRANCH   6  11
ENDBRANCH   3   5
ENDBRANCH   2   3
ENDBRANCH   1   2
BRANCH   1  32
ATOM     32  C   UNL A   1      39.253  21.389  25.691  1.00  0.00     0.275 C 
BRANCH  32  33
ATOM     33  O   UNL A   1      40.222  21.705  26.698  1.00  0.00    -0.458 OA
BRANCH  33  34
ATOM     34  C   UNL A   1      41.225  22.535  26.315  1.00  0.00     0.338 C 
ATOM     35  O   UNL A   1      41.976  22.401  25.376  1.00  0.00    -0.246 OA
BRANCH  34  36
ATOM     36  C   UNL A   1      40.994  23.797  27.048  1.00  0.00     0.060 A 
ATOM     37  C   UNL A   1      40.197  24.827  26.530  1.00  0.00     0.016 A 
ATOM     38  C   UNL A   1      41.774  24.001  28.181  1.00  0.00     0.016 A 
ATOM     39  C   UNL A   1      40.263  26.102  27.093  1.00  0.00     0.010 A 
ATOM     40  C   UNL A   1      41.841  25.274  28.724  1.00  0.00     0.010 A 
ATOM     41  C   UNL A   1      41.132  26.343  28.158  1.00  0.00    -0.014 A 
BRANCH  41  42
ATOM     42  C   UNL A   1      41.147  27.640  28.846  1.00  0.00     0.031 A 
ATOM     43  C   UNL A   1      42.247  28.526  28.393  1.00  0.00     0.074 A 
ATOM     44  C   UNL A   1      40.220  28.151  29.691  1.00  0.00     0.049 A 
ATOM     45  N   UNL A   1      43.195  28.997  29.132  1.00  0.00    -0.248 NA
ATOM     46  C   UNL A   1      42.376  28.869  26.970  1.00  0.00     0.031 C 
ATOM     47  C   UNL A   1      39.000  27.545  30.219  1.00  0.00     0.029 A 
ATOM     48  N   UNL A   1      40.144  29.422  30.203  1.00  0.00    -0.354 N 
ATOM     49  C   UNL A   1      43.925  29.848  28.319  1.00  0.00     0.074 A 
ATOM     50  C   UNL A   1      43.440  29.669  26.977  1.00  0.00     0.031 C 
ATOM     51  C   UNL A   1      38.168  28.499  30.705  1.00  0.00     0.029 A 
ATOM     52  C   UNL A   1      38.913  29.741  30.771  1.00  0.00     0.049 A 
ATOM     53  H   UNL A   1      40.896  30.056  30.169  1.00  0.00     0.167 HD
ATOM     54  C   UNL A   1      44.752  30.785  28.842  1.00  0.00     0.037 A 
ATOM     55  C   UNL A   1      38.553  30.886  31.399  1.00  0.00     0.037 A 
ATOM     56  C   UNL A   1      45.061  30.525  30.220  1.00  0.00     0.049 A 
ATOM     57  C   UNL A   1      39.790  31.452  31.972  1.00  0.00     0.074 A 
ATOM     58  C   UNL A   1      45.713  29.510  30.891  1.00  0.00     0.029 A 
ATOM     59  N   UNL A   1      44.313  31.197  31.152  1.00  0.00    -0.354 N 
ATOM     60  N   UNL A   1      40.471  30.883  32.928  1.00  0.00    -0.248 NA
ATOM     61  C   UNL A   1      40.458  32.553  31.295  1.00  0.00     0.031 C 
ATOM     62  C   UNL A   1      45.047  29.386  32.145  1.00  0.00     0.029 A 
ATOM     63  C   UNL A   1      44.038  30.348  32.198  1.00  0.00     0.049 A 
ATOM     64  H   UNL A   1      44.020  32.133  31.083  1.00  0.00     0.167 HD
ATOM     65  C   UNL A   1      41.778  31.249  32.681  1.00  0.00     0.074 A 
ATOM     66  C   UNL A   1      41.684  32.406  31.802  1.00  0.00     0.031 C 
ATOM     67  C   UNL A   1      42.808  30.404  32.966  1.00  0.00     0.037 A 
BRANCH  54  68
ATOM     68  C   UNL A   1      44.980  32.110  28.182  1.00  0.00     0.058 A 
ATOM     69  C   UNL A   1      46.239  32.433  27.654  1.00  0.00     0.135 A 
ATOM     70  C   UNL A   1      44.047  33.169  28.275  1.00  0.00     0.135 A 
ATOM     71  F   UNL A   1      47.202  31.501  27.572  1.00  0.00    -0.206 F 
ATOM     72  C   UNL A   1      46.557  33.728  27.247  1.00  0.00     0.059 A 
ATOM     73  C   UNL A   1      44.326  34.454  27.833  1.00  0.00     0.059 A 
ATOM     74  F   UNL A   1      42.858  33.006  28.875  1.00  0.00    -0.206 F 
ATOM     75  C   UNL A   1      45.593  34.731  27.344  1.00  0.00     0.060 A 
BRANCH  75  76
ATOM     76  S   UNL A   1      46.021  36.415  26.866  1.00  0.00     0.124 S 
ATOM     77  O   UNL A   1      44.705  37.034  26.774  1.00  0.00    -0.237 OA
ATOM     78  O   UNL A   1      46.855  36.844  27.985  1.00  0.00    -0.237 OA
ATOM     79  O   UNL A   1      46.727  36.232  25.602  1.00  0.00    -0.744 OA
ENDBRANCH  75  76
ENDBRANCH  54  68
BRANCH  55  80
ATOM     80  C   UNL A   1      37.254  31.599  31.479  1.00  0.00     0.058 A 
ATOM     81  C   UNL A   1      36.601  31.772  32.715  1.00  0.00     0.135 A 
ATOM     82  C   UNL A   1      36.812  32.412  30.418  1.00  0.00     0.135 A 
ATOM     83  F   UNL A   1      36.960  31.038  33.778  1.00  0.00    -0.206 F 
ATOM     84  C   UNL A   1      35.637  32.761  32.917  1.00  0.00     0.059 A 
ATOM     85  C   UNL A   1      35.843  33.403  30.595  1.00  0.00     0.059 A 
ATOM     86  F   UNL A   1      37.392  32.333  29.209  1.00  0.00    -0.206 F 
ATOM     87  C   UNL A   1      35.291  33.598  31.859  1.00  0.00     0.060 A 
BRANCH  87  88
ATOM     88  S   UNL A   1      34.234  35.030  32.192  1.00  0.00     0.124 S 
ATOM     89  O   UNL A   1      33.135  34.429  32.941  1.00  0.00    -0.237 OA
ATOM     90  O   UNL A   1      35.127  35.896  32.956  1.00  0.00    -0.237 OA
ATOM     91  O   UNL A   1      33.892  35.515  30.858  1.00  0.00    -0.744 OA
ENDBRANCH  87  88
ENDBRANCH  55  80
BRANCH  67  92
ATOM     92  C   UNL A   1      42.574  29.325  33.995  1.00  0.00     0.058 A 
ATOM     93  C   UNL A   1      42.645  29.498  35.387  1.00  0.00     0.135 A 
ATOM     94  C   UNL A   1      42.151  28.067  33.532  1.00  0.00     0.135 A 
ATOM     95  F   UNL A   1      42.959  30.687  35.921  1.00  0.00    -0.206 F 
ATOM     96  C   UNL A   1      42.340  28.464  36.277  1.00  0.00     0.059 A 
ATOM     97  C   UNL A   1      41.811  27.032  34.400  1.00  0.00     0.059 A 
ATOM     98  F   UNL A   1      42.019  27.846  32.214  1.00  0.00    -0.206 F 
ATOM     99  C   UNL A   1      41.917  27.234  35.772  1.00  0.00     0.060 A 
BRANCH  99 100
ATOM    100  S   UNL A   1      41.434  25.927  36.923  1.00  0.00     0.124 S 
ATOM    101  O   UNL A   1      40.960  24.882  36.021  1.00  0.00    -0.237 OA
ATOM    102  O   UNL A   1      42.683  25.643  37.623  1.00  0.00    -0.237 OA
ATOM    103  O   UNL A   1      40.402  26.559  37.742  1.00  0.00    -0.744 OA
ENDBRANCH  99 100
ENDBRANCH  67  92
ENDBRANCH  41  42
ENDBRANCH  34  36
ENDBRANCH  33  34
ENDBRANCH  32  33
ENDBRANCH   1  32
TORSDOF 19
ENDMDL
