MODEL 1
REMARK VINA RESULT:     -11.2      0.000      0.000
REMARK SMILES C[C@H](NC(=O)c1ccncc1/C=C/C(=O)OCCOC(=O)c1ccc(-c2c3nc(c(-c4c(F)cc(S(=O)(=O)[O-])cc4F)c4ccc([nH]4)c(-c4c(F)cc(S(=O)(=O)[O-])cc4F)c4nc(c(-c5c(F)cc(S(=O)(=O)[O-])cc5F)c5ccc2[nH]5)C=C4)C=C3)cc1)c1ccco1
REMARK SMILES IDX 17 1 16 2 14 3 15 4 13 5 12 6 11 7 6 8 7 9 8 10 10 11 9 12
REMARK SMILES IDX 4 13 3 14 5 16 2 17 1 18 88 19 89 20 92 21 90 22 91 23 18 24
REMARK SMILES IDX 19 25 20 26 21 27 22 28 23 29 87 30 24 31 86 32 25 33 26 34
REMARK SMILES IDX 27 35 80 36 28 37 85 38 79 39 81 40 29 41 84 42 78 43 77 44
REMARK SMILES IDX 30 46 64 47 43 48 63 49 44 50 47 51 62 52 82 53 45 54 46 55
REMARK SMILES IDX 61 57 83 58 48 59 31 60 32 61 41 62 33 63 34 64 40 65 42 66
REMARK SMILES IDX 35 67 36 68 37 69 38 70 39 71 65 72 66 73 75 74 67 75 68 76
REMARK SMILES IDX 74 77 76 78 69 79 70 80 71 81 72 82 73 83 49 84 50 85 59 86
REMARK SMILES IDX 51 87 52 88 58 89 60 90 53 91 54 92 55 93 56 94 57 95
REMARK H PARENT 3 15 81 45 47 56
REMARK Flexibility Score: inf
ROOT
ATOM      1  C   UNL A   1      34.225  32.430  28.039  1.00  0.00     0.275 C 
ENDROOT
BRANCH   1   2
ATOM      2  O   UNL A   1      33.368  31.420  27.474  1.00  0.00    -0.459 OA
BRANCH   2   3
ATOM      3  C   UNL A   1      32.227  31.883  26.914  1.00  0.00     0.330 C 
ATOM      4  O   UNL A   1      31.771  33.010  27.035  1.00  0.00    -0.247 OA
BRANCH   3   5
ATOM      5  C   UNL A   1      31.547  30.886  26.063  1.00  0.00     0.094 C 
ATOM      6  C   UNL A   1      32.059  29.740  25.580  1.00  0.00     0.018 C 
BRANCH   6   7
ATOM      7  C   UNL A   1      31.247  28.848  24.727  1.00  0.00     0.006 A 
ATOM      8  C   UNL A   1      30.915  27.527  25.062  1.00  0.00     0.050 A 
ATOM      9  C   UNL A   1      30.006  26.795  24.291  1.00  0.00     0.034 A 
ATOM     10  C   UNL A   1      29.553  27.362  23.118  1.00  0.00     0.112 A 
ATOM     11  C   UNL A   1      30.757  29.291  23.500  1.00  0.00     0.119 A 
ATOM     12  N   UNL A   1      29.936  28.579  22.689  1.00  0.00    -0.264 NA
BRANCH   8  13
ATOM     13  C   UNL A   1      31.493  26.880  26.246  1.00  0.00     0.252 C 
ATOM     14  N   UNL A   1      32.562  26.032  26.129  1.00  0.00    -0.342 N 
ATOM     15  H   UNL A   1      32.960  25.798  26.998  1.00  0.00     0.164 HD
ATOM     16  O   UNL A   1      31.028  27.130  27.355  1.00  0.00    -0.269 OA
BRANCH  14  17
ATOM     17  C   UNL A   1      33.247  25.392  25.000  1.00  0.00     0.145 C 
ATOM     18  C   UNL A   1      34.015  26.280  24.023  1.00  0.00     0.039 C 
BRANCH  17  19
ATOM     19  C   UNL A   1      34.206  24.401  25.587  1.00  0.00     0.125 A 
ATOM     20  C   UNL A   1      35.522  24.086  25.305  1.00  0.00     0.048 A 
ATOM     21  O   UNL A   1      33.726  23.571  26.557  1.00  0.00    -0.467 OA
ATOM     22  C   UNL A   1      35.852  22.982  26.124  1.00  0.00     0.042 A 
ATOM     23  C   UNL A   1      34.730  22.710  26.870  1.00  0.00     0.195 A 
ENDBRANCH  17  19
ENDBRANCH  14  17
ENDBRANCH   8  13
ENDBRANCH   6   7
ENDBRANCH   3   5
ENDBRANCH   2   3
ENDBRANCH   1   2
BRANCH   1  24
ATOM     24  C   UNL A   1      34.872  31.957  29.345  1.00  0.00     0.275 C 
BRANCH  24  25
ATOM     25  O   UNL A   1      35.642  30.753  29.170  1.00  0.00    -0.458 OA
BRANCH  25  26
ATOM     26  C   UNL A   1      36.344  30.358  30.260  1.00  0.00     0.338 C 
ATOM     27  O   UNL A   1      35.903  30.135  31.375  1.00  0.00    -0.246 OA
BRANCH  26  28
ATOM     28  C   UNL A   1      37.750  30.111  29.894  1.00  0.00     0.060 A 
ATOM     29  C   UNL A   1      38.062  30.012  28.534  1.00  0.00     0.016 A 
ATOM     30  C   UNL A   1      38.734  29.901  30.863  1.00  0.00     0.016 A 
ATOM     31  C   UNL A   1      39.360  29.692  28.139  1.00  0.00     0.010 A 
ATOM     32  C   UNL A   1      40.036  29.579  30.463  1.00  0.00     0.010 A 
ATOM     33  C   UNL A   1      40.354  29.459  29.099  1.00  0.00    -0.014 A 
BRANCH  33  34
ATOM     34  C   UNL A   1      41.714  29.052  28.667  1.00  0.00     0.031 A 
ATOM     35  C   UNL A   1      42.824  30.062  28.621  1.00  0.00     0.074 A 
ATOM     36  C   UNL A   1      41.954  27.769  28.337  1.00  0.00     0.049 A 
ATOM     37  N   UNL A   1      44.070  29.907  28.252  1.00  0.00    -0.248 NA
ATOM     38  C   UNL A   1      42.488  31.431  29.046  1.00  0.00     0.031 C 
ATOM     39  C   UNL A   1      40.962  26.693  28.362  1.00  0.00     0.029 A 
ATOM     40  N   UNL A   1      43.105  27.155  27.913  1.00  0.00    -0.354 N 
ATOM     41  C   UNL A   1      44.667  31.154  28.391  1.00  0.00     0.074 A 
ATOM     42  C   UNL A   1      43.638  32.063  28.855  1.00  0.00     0.031 C 
ATOM     43  C   UNL A   1      41.549  25.549  27.973  1.00  0.00     0.029 A 
ATOM     44  C   UNL A   1      42.945  25.817  27.637  1.00  0.00     0.049 A 
ATOM     45  H   UNL A   1      43.964  27.627  27.815  1.00  0.00     0.167 HD
ATOM     46  C   UNL A   1      45.955  31.508  28.161  1.00  0.00     0.037 A 
ATOM     47  C   UNL A   1      43.820  24.915  27.152  1.00  0.00     0.037 A 
ATOM     48  C   UNL A   1      46.974  30.599  27.703  1.00  0.00     0.049 A 
ATOM     49  C   UNL A   1      45.234  25.340  26.859  1.00  0.00     0.074 A 
ATOM     50  C   UNL A   1      48.313  30.857  27.459  1.00  0.00     0.029 A 
ATOM     51  N   UNL A   1      46.769  29.258  27.412  1.00  0.00    -0.354 N 
ATOM     52  N   UNL A   1      45.789  26.519  27.015  1.00  0.00    -0.248 NA
ATOM     53  C   UNL A   1      46.141  24.314  26.327  1.00  0.00     0.031 C 
ATOM     54  C   UNL A   1      48.906  29.683  26.982  1.00  0.00     0.029 A 
ATOM     55  C   UNL A   1      47.949  28.681  26.970  1.00  0.00     0.049 A 
ATOM     56  H   UNL A   1      45.910  28.785  27.505  1.00  0.00     0.167 HD
ATOM     57  C   UNL A   1      47.113  26.372  26.617  1.00  0.00     0.074 A 
ATOM     58  C   UNL A   1      47.279  24.987  26.225  1.00  0.00     0.031 C 
ATOM     59  C   UNL A   1      48.101  27.300  26.581  1.00  0.00     0.037 A 
BRANCH  46  60
ATOM     60  C   UNL A   1      46.326  32.949  28.377  1.00  0.00     0.058 A 
ATOM     61  C   UNL A   1      46.241  33.898  27.346  1.00  0.00     0.135 A 
ATOM     62  C   UNL A   1      46.758  33.391  29.638  1.00  0.00     0.135 A 
ATOM     63  F   UNL A   1      45.846  33.526  26.118  1.00  0.00    -0.206 F 
ATOM     64  C   UNL A   1      46.601  35.226  27.548  1.00  0.00     0.059 A 
ATOM     65  C   UNL A   1      47.101  34.720  29.870  1.00  0.00     0.059 A 
ATOM     66  F   UNL A   1      46.858  32.526  30.661  1.00  0.00    -0.206 F 
ATOM     67  C   UNL A   1      47.037  35.626  28.812  1.00  0.00     0.060 A 
BRANCH  67  68
ATOM     68  S   UNL A   1      47.523  37.349  29.056  1.00  0.00     0.124 S 
ATOM     69  O   UNL A   1      47.661  37.808  27.678  1.00  0.00    -0.237 OA
ATOM     70  O   UNL A   1      46.389  37.894  29.794  1.00  0.00    -0.237 OA
ATOM     71  O   UNL A   1      48.768  37.247  29.811  1.00  0.00    -0.744 OA
ENDBRANCH  67  68
ENDBRANCH  46  60
BRANCH  47  72
ATOM     72  C   UNL A   1      43.375  23.518  26.907  1.00  0.00     0.058 A 
ATOM     73  C   UNL A   1      43.152  23.046  25.606  1.00  0.00     0.135 A 
ATOM     74  C   UNL A   1      43.188  22.621  27.971  1.00  0.00     0.135 A 
ATOM     75  F   UNL A   1      43.306  23.870  24.557  1.00  0.00    -0.206 F 
ATOM     76  C   UNL A   1      42.755  21.734  25.366  1.00  0.00     0.059 A 
ATOM     77  C   UNL A   1      42.815  21.299  27.755  1.00  0.00     0.059 A 
ATOM     78  F   UNL A   1      43.398  23.023  29.234  1.00  0.00    -0.206 F 
ATOM     79  C   UNL A   1      42.594  20.866  26.447  1.00  0.00     0.060 A 
BRANCH  79  80
ATOM     80  S   UNL A   1      42.142  19.148  26.123  1.00  0.00     0.124 S 
ATOM     81  O   UNL A   1      42.443  18.519  27.404  1.00  0.00    -0.237 OA
ATOM     82  O   UNL A   1      40.727  19.261  25.783  1.00  0.00    -0.237 OA
ATOM     83  O   UNL A   1      43.017  18.775  25.015  1.00  0.00    -0.744 OA
ENDBRANCH  79  80
ENDBRANCH  47  72
BRANCH  59  84
ATOM     84  C   UNL A   1      49.460  26.845  26.125  1.00  0.00     0.058 A 
ATOM     85  C   UNL A   1      50.320  26.132  26.974  1.00  0.00     0.135 A 
ATOM     86  C   UNL A   1      49.886  27.084  24.809  1.00  0.00     0.135 A 
ATOM     87  F   UNL A   1      49.964  25.883  28.243  1.00  0.00    -0.206 F 
ATOM     88  C   UNL A   1      51.566  25.688  26.539  1.00  0.00     0.059 A 
ATOM     89  C   UNL A   1      51.117  26.628  24.346  1.00  0.00     0.059 A 
ATOM     90  F   UNL A   1      49.096  27.753  23.954  1.00  0.00    -0.206 F 
ATOM     91  C   UNL A   1      51.954  25.940  25.222  1.00  0.00     0.060 A 
BRANCH  91  92
ATOM     92  S   UNL A   1      53.557  25.329  24.657  1.00  0.00     0.124 S 
ATOM     93  O   UNL A   1      54.476  26.166  25.421  1.00  0.00    -0.237 OA
ATOM     94  O   UNL A   1      53.512  23.922  25.044  1.00  0.00    -0.237 OA
ATOM     95  O   UNL A   1      53.528  25.578  23.219  1.00  0.00    -0.744 OA
ENDBRANCH  91  92
ENDBRANCH  59  84
ENDBRANCH  33  34
ENDBRANCH  26  28
ENDBRANCH  25  26
ENDBRANCH  24  25
ENDBRANCH   1  24
TORSDOF 18
ENDMDL
MODEL 2
REMARK VINA RESULT:     -11.2      6.694     12.279
REMARK SMILES C[C@H](NC(=O)c1ccncc1/C=C/C(=O)OCCOC(=O)c1ccc(-c2c3nc(c(-c4c(F)cc(S(=O)(=O)[O-])cc4F)c4ccc([nH]4)c(-c4c(F)cc(S(=O)(=O)[O-])cc4F)c4nc(c(-c5c(F)cc(S(=O)(=O)[O-])cc5F)c5ccc2[nH]5)C=C4)C=C3)cc1)c1ccco1
REMARK SMILES IDX 17 1 16 2 14 3 15 4 13 5 12 6 11 7 6 8 7 9 8 10 10 11 9 12
REMARK SMILES IDX 4 13 3 14 5 16 2 17 1 18 88 19 89 20 92 21 90 22 91 23 18 24
REMARK SMILES IDX 19 25 20 26 21 27 22 28 23 29 87 30 24 31 86 32 25 33 26 34
REMARK SMILES IDX 27 35 80 36 28 37 85 38 79 39 81 40 29 41 84 42 78 43 77 44
REMARK SMILES IDX 30 46 64 47 43 48 63 49 44 50 47 51 62 52 82 53 45 54 46 55
REMARK SMILES IDX 61 57 83 58 48 59 31 60 32 61 41 62 33 63 34 64 40 65 42 66
REMARK SMILES IDX 35 67 36 68 37 69 38 70 39 71 65 72 66 73 75 74 67 75 68 76
REMARK SMILES IDX 74 77 76 78 69 79 70 80 71 81 72 82 73 83 49 84 50 85 59 86
REMARK SMILES IDX 51 87 52 88 58 89 60 90 53 91 54 92 55 93 56 94 57 95
REMARK H PARENT 3 15 81 45 47 56
REMARK Flexibility Score: inf
ROOT
ATOM      1  C   UNL A   1      40.000  22.052  26.825  1.00  0.00     0.275 C 
ENDROOT
BRANCH   1   2
ATOM      2  O   UNL A   1      38.963  21.989  25.828  1.00  0.00    -0.459 OA
BRANCH   2   3
ATOM      3  C   UNL A   1      38.054  22.990  25.880  1.00  0.00     0.330 C 
ATOM      4  O   UNL A   1      38.145  24.010  26.548  1.00  0.00    -0.247 OA
BRANCH   3   5
ATOM      5  C   UNL A   1      36.893  22.773  24.994  1.00  0.00     0.094 C 
ATOM      6  C   UNL A   1      35.650  23.262  25.146  1.00  0.00     0.018 C 
BRANCH   6   7
ATOM      7  C   UNL A   1      34.587  22.943  24.170  1.00  0.00     0.006 A 
ATOM      8  C   UNL A   1      33.515  22.077  24.430  1.00  0.00     0.050 A 
ATOM      9  C   UNL A   1      32.455  21.949  23.526  1.00  0.00     0.034 A 
ATOM     10  C   UNL A   1      32.565  22.594  22.311  1.00  0.00     0.112 A 
ATOM     11  C   UNL A   1      34.601  23.504  22.894  1.00  0.00     0.119 A 
ATOM     12  N   UNL A   1      33.629  23.340  21.963  1.00  0.00    -0.264 NA
BRANCH   8  13
ATOM     13  C   UNL A   1      33.459  21.295  25.672  1.00  0.00     0.252 C 
ATOM     14  N   UNL A   1      33.998  20.038  25.732  1.00  0.00    -0.342 N 
ATOM     15  H   UNL A   1      34.049  19.689  26.650  1.00  0.00     0.164 HD
ATOM     16  O   UNL A   1      32.950  21.793  26.673  1.00  0.00    -0.269 OA
BRANCH  14  17
ATOM     17  C   UNL A   1      34.515  19.093  24.736  1.00  0.00     0.145 C 
ATOM     18  C   UNL A   1      36.021  18.840  24.693  1.00  0.00     0.039 C 
BRANCH  17  19
ATOM     19  C   UNL A   1      33.827  17.785  24.988  1.00  0.00     0.125 A 
ATOM     20  C   UNL A   1      32.546  17.458  25.390  1.00  0.00     0.048 A 
ATOM     21  O   UNL A   1      34.582  16.654  24.875  1.00  0.00    -0.467 OA
ATOM     22  C   UNL A   1      32.527  16.056  25.562  1.00  0.00     0.042 A 
ATOM     23  C   UNL A   1      33.786  15.612  25.232  1.00  0.00     0.195 A 
ENDBRANCH  17  19
ENDBRANCH  14  17
ENDBRANCH   8  13
ENDBRANCH   6   7
ENDBRANCH   3   5
ENDBRANCH   2   3
ENDBRANCH   1   2
BRANCH   1  24
ATOM     24  C   UNL A   1      41.333  22.514  26.226  1.00  0.00     0.275 C 
BRANCH  24  25
ATOM     25  O   UNL A   1      41.968  23.531  27.023  1.00  0.00    -0.458 OA
BRANCH  25  26
ATOM     26  C   UNL A   1      41.964  24.772  26.478  1.00  0.00     0.338 C 
ATOM     27  O   UNL A   1      42.130  25.057  25.304  1.00  0.00    -0.246 OA
BRANCH  26  28
ATOM     28  C   UNL A   1      41.609  25.773  27.500  1.00  0.00     0.060 A 
ATOM     29  C   UNL A   1      42.452  26.877  27.652  1.00  0.00     0.016 A 
ATOM     30  C   UNL A   1      40.513  25.596  28.349  1.00  0.00     0.016 A 
ATOM     31  C   UNL A   1      42.209  27.806  28.663  1.00  0.00     0.010 A 
ATOM     32  C   UNL A   1      40.272  26.529  29.364  1.00  0.00     0.010 A 
ATOM     33  C   UNL A   1      41.126  27.632  29.535  1.00  0.00    -0.014 A 
BRANCH  33  34
ATOM     34  C   UNL A   1      40.919  28.590  30.651  1.00  0.00     0.031 A 
ATOM     35  C   UNL A   1      41.774  28.507  31.883  1.00  0.00     0.074 A 
ATOM     36  C   UNL A   1      39.976  29.544  30.545  1.00  0.00     0.049 A 
ATOM     37  N   UNL A   1      41.732  29.236  32.969  1.00  0.00    -0.248 NA
ATOM     38  C   UNL A   1      42.813  27.465  31.896  1.00  0.00     0.031 C 
ATOM     39  C   UNL A   1      39.099  29.738  29.389  1.00  0.00     0.029 A 
ATOM     40  N   UNL A   1      39.597  30.529  31.422  1.00  0.00    -0.354 N 
ATOM     41  C   UNL A   1      42.731  28.740  33.799  1.00  0.00     0.074 A 
ATOM     42  C   UNL A   1      43.345  27.630  33.100  1.00  0.00     0.031 C 
ATOM     43  C   UNL A   1      38.285  30.779  29.629  1.00  0.00     0.029 A 
ATOM     44  C   UNL A   1      38.558  31.304  30.964  1.00  0.00     0.049 A 
ATOM     45  H   UNL A   1      40.029  30.668  32.296  1.00  0.00     0.167 HD
ATOM     46  C   UNL A   1      43.106  29.175  35.027  1.00  0.00     0.037 A 
ATOM     47  C   UNL A   1      37.890  32.310  31.561  1.00  0.00     0.037 A 
ATOM     48  C   UNL A   1      42.493  30.281  35.715  1.00  0.00     0.049 A 
ATOM     49  C   UNL A   1      38.293  32.746  32.944  1.00  0.00     0.074 A 
ATOM     50  C   UNL A   1      42.815  30.810  36.954  1.00  0.00     0.029 A 
ATOM     51  N   UNL A   1      41.427  31.026  35.230  1.00  0.00    -0.354 N 
ATOM     52  N   UNL A   1      39.253  32.281  33.708  1.00  0.00    -0.248 NA
ATOM     53  C   UNL A   1      37.525  33.845  33.545  1.00  0.00     0.031 C 
ATOM     54  C   UNL A   1      41.919  31.848  37.235  1.00  0.00     0.029 A 
ATOM     55  C   UNL A   1      41.065  31.995  36.153  1.00  0.00     0.049 A 
ATOM     56  H   UNL A   1      40.992  30.887  34.358  1.00  0.00     0.167 HD
ATOM     57  C   UNL A   1      39.215  33.041  34.872  1.00  0.00     0.074 A 
ATOM     58  C   UNL A   1      38.146  34.004  34.707  1.00  0.00     0.031 C 
ATOM     59  C   UNL A   1      39.997  32.948  35.976  1.00  0.00     0.037 A 
BRANCH  46  60
ATOM     60  C   UNL A   1      44.217  28.431  35.714  1.00  0.00     0.058 A 
ATOM     61  C   UNL A   1      45.563  28.790  35.543  1.00  0.00     0.135 A 
ATOM     62  C   UNL A   1      43.931  27.355  36.569  1.00  0.00     0.135 A 
ATOM     63  F   UNL A   1      45.894  29.803  34.726  1.00  0.00    -0.206 F 
ATOM     64  C   UNL A   1      46.588  28.087  36.170  1.00  0.00     0.059 A 
ATOM     65  C   UNL A   1      44.938  26.653  37.225  1.00  0.00     0.059 A 
ATOM     66  F   UNL A   1      42.660  26.970  36.770  1.00  0.00    -0.206 F 
ATOM     67  C   UNL A   1      46.265  27.015  37.003  1.00  0.00     0.060 A 
BRANCH  67  68
ATOM     68  S   UNL A   1      47.607  26.098  37.792  1.00  0.00     0.124 S 
ATOM     69  O   UNL A   1      48.698  27.063  37.722  1.00  0.00    -0.237 OA
ATOM     70  O   UNL A   1      47.072  25.843  39.125  1.00  0.00    -0.237 OA
ATOM     71  O   UNL A   1      47.757  24.918  36.945  1.00  0.00    -0.744 OA
ENDBRANCH  67  68
ENDBRANCH  46  60
BRANCH  47  72
ATOM     72  C   UNL A   1      36.763  32.967  30.849  1.00  0.00     0.058 A 
ATOM     73  C   UNL A   1      35.433  32.723  31.216  1.00  0.00     0.135 A 
ATOM     74  C   UNL A   1      36.999  33.874  29.803  1.00  0.00     0.135 A 
ATOM     75  F   UNL A   1      35.157  31.855  32.203  1.00  0.00    -0.206 F 
ATOM     76  C   UNL A   1      34.372  33.350  30.569  1.00  0.00     0.059 A 
ATOM     77  C   UNL A   1      35.957  34.531  29.157  1.00  0.00     0.059 A 
ATOM     78  F   UNL A   1      38.255  34.149  29.422  1.00  0.00    -0.206 F 
ATOM     79  C   UNL A   1      34.644  34.257  29.543  1.00  0.00     0.060 A 
BRANCH  79  80
ATOM     80  S   UNL A   1      33.266  35.115  28.753  1.00  0.00     0.124 S 
ATOM     81  O   UNL A   1      32.668  34.044  27.965  1.00  0.00    -0.237 OA
ATOM     82  O   UNL A   1      32.490  35.574  29.901  1.00  0.00    -0.237 OA
ATOM     83  O   UNL A   1      33.923  36.171  27.988  1.00  0.00    -0.744 OA
ENDBRANCH  79  80
ENDBRANCH  47  72
BRANCH  59  84
ATOM     84  C   UNL A   1      39.743  33.931  37.087  1.00  0.00     0.058 A 
ATOM     85  C   UNL A   1      38.988  33.583  38.217  1.00  0.00     0.135 A 
ATOM     86  C   UNL A   1      40.303  35.217  37.042  1.00  0.00     0.135 A 
ATOM     87  F   UNL A   1      38.424  32.369  38.307  1.00  0.00    -0.206 F 
ATOM     88  C   UNL A   1      38.779  34.486  39.256  1.00  0.00     0.059 A 
ATOM     89  C   UNL A   1      40.127  36.127  38.080  1.00  0.00     0.059 A 
ATOM     90  F   UNL A   1      41.043  35.595  35.987  1.00  0.00    -0.206 F 
ATOM     91  C   UNL A   1      39.354  35.755  39.178  1.00  0.00     0.060 A 
BRANCH  91  92
ATOM     92  S   UNL A   1      39.106  36.906  40.548  1.00  0.00     0.124 S 
ATOM     93  O   UNL A   1      40.467  37.065  41.047  1.00  0.00    -0.237 OA
ATOM     94  O   UNL A   1      38.536  38.072  39.880  1.00  0.00    -0.237 OA
ATOM     95  O   UNL A   1      38.192  36.189  41.433  1.00  0.00    -0.744 OA
ENDBRANCH  91  92
ENDBRANCH  59  84
ENDBRANCH  33  34
ENDBRANCH  26  28
ENDBRANCH  25  26
ENDBRANCH  24  25
ENDBRANCH   1  24
TORSDOF 18
ENDMDL
MODEL 3
REMARK VINA RESULT:     -11.1      1.560      2.951
REMARK SMILES C[C@H](NC(=O)c1ccncc1/C=C/C(=O)OCCOC(=O)c1ccc(-c2c3nc(c(-c4c(F)cc(S(=O)(=O)[O-])cc4F)c4ccc([nH]4)c(-c4c(F)cc(S(=O)(=O)[O-])cc4F)c4nc(c(-c5c(F)cc(S(=O)(=O)[O-])cc5F)c5ccc2[nH]5)C=C4)C=C3)cc1)c1ccco1
REMARK SMILES IDX 17 1 16 2 14 3 15 4 13 5 12 6 11 7 6 8 7 9 8 10 10 11 9 12
REMARK SMILES IDX 4 13 3 14 5 16 2 17 1 18 88 19 89 20 92 21 90 22 91 23 18 24
REMARK SMILES IDX 19 25 20 26 21 27 22 28 23 29 87 30 24 31 86 32 25 33 26 34
REMARK SMILES IDX 27 35 80 36 28 37 85 38 79 39 81 40 29 41 84 42 78 43 77 44
REMARK SMILES IDX 30 46 64 47 43 48 63 49 44 50 47 51 62 52 82 53 45 54 46 55
REMARK SMILES IDX 61 57 83 58 48 59 31 60 32 61 41 62 33 63 34 64 40 65 42 66
REMARK SMILES IDX 35 67 36 68 37 69 38 70 39 71 65 72 66 73 75 74 67 75 68 76
REMARK SMILES IDX 74 77 76 78 69 79 70 80 71 81 72 82 73 83 49 84 50 85 59 86
REMARK SMILES IDX 51 87 52 88 58 89 60 90 53 91 54 92 55 93 56 94 57 95
REMARK H PARENT 3 15 81 45 47 56
REMARK Flexibility Score: inf
ROOT
ATOM      1  C   UNL A   1      33.652  29.944  26.867  1.00  0.00     0.275 C 
ENDROOT
BRANCH   1   2
ATOM      2  O   UNL A   1      33.787  28.526  27.081  1.00  0.00    -0.459 OA
BRANCH   2   3
ATOM      3  C   UNL A   1      33.234  27.746  26.125  1.00  0.00     0.330 C 
ATOM      4  O   UNL A   1      32.131  27.897  25.621  1.00  0.00    -0.247 OA
BRANCH   3   5
ATOM      5  C   UNL A   1      34.121  26.655  25.674  1.00  0.00     0.094 C 
ATOM      6  C   UNL A   1      33.758  25.432  25.249  1.00  0.00     0.018 C 
BRANCH   6   7
ATOM      7  C   UNL A   1      34.775  24.440  24.839  1.00  0.00     0.006 A 
ATOM      8  C   UNL A   1      34.758  23.757  23.615  1.00  0.00     0.050 A 
ATOM      9  C   UNL A   1      35.837  22.959  23.219  1.00  0.00     0.034 A 
ATOM     10  C   UNL A   1      36.854  22.756  24.129  1.00  0.00     0.112 A 
ATOM     11  C   UNL A   1      35.837  24.121  25.683  1.00  0.00     0.119 A 
ATOM     12  N   UNL A   1      36.860  23.292  25.363  1.00  0.00    -0.264 NA
BRANCH   8  13
ATOM     13  C   UNL A   1      33.617  23.876  22.698  1.00  0.00     0.252 C 
ATOM     14  N   UNL A   1      32.503  23.098  22.863  1.00  0.00    -0.342 N 
ATOM     15  H   UNL A   1      31.750  23.385  22.298  1.00  0.00     0.164 HD
ATOM     16  O   UNL A   1      33.656  24.708  21.796  1.00  0.00    -0.269 OA
BRANCH  14  17
ATOM     17  C   UNL A   1      32.178  21.929  23.689  1.00  0.00     0.145 C 
ATOM     18  C   UNL A   1      33.253  20.862  23.885  1.00  0.00     0.039 C 
BRANCH  17  19
ATOM     19  C   UNL A   1      31.786  22.453  25.038  1.00  0.00     0.125 A 
ATOM     20  C   UNL A   1      30.775  23.294  25.462  1.00  0.00     0.048 A 
ATOM     21  O   UNL A   1      32.586  22.119  26.091  1.00  0.00    -0.467 OA
ATOM     22  C   UNL A   1      30.989  23.510  26.843  1.00  0.00     0.042 A 
ATOM     23  C   UNL A   1      32.098  22.770  27.179  1.00  0.00     0.195 A 
ENDBRANCH  17  19
ENDBRANCH  14  17
ENDBRANCH   8  13
ENDBRANCH   6   7
ENDBRANCH   3   5
ENDBRANCH   2   3
ENDBRANCH   1   2
BRANCH   1  24
ATOM     24  C   UNL A   1      34.463  30.749  27.888  1.00  0.00     0.275 C 
BRANCH  24  25
ATOM     25  O   UNL A   1      35.245  29.906  28.754  1.00  0.00    -0.458 OA
BRANCH  25  26
ATOM     26  C   UNL A   1      36.212  30.545  29.455  1.00  0.00     0.338 C 
ATOM     27  O   UNL A   1      36.055  31.386  30.324  1.00  0.00    -0.246 OA
BRANCH  26  28
ATOM     28  C   UNL A   1      37.536  29.996  29.106  1.00  0.00     0.060 A 
ATOM     29  C   UNL A   1      38.447  29.784  30.144  1.00  0.00     0.016 A 
ATOM     30  C   UNL A   1      37.907  29.767  27.779  1.00  0.00     0.016 A 
ATOM     31  C   UNL A   1      39.741  29.351  29.858  1.00  0.00     0.010 A 
ATOM     32  C   UNL A   1      39.207  29.333  27.494  1.00  0.00     0.010 A 
ATOM     33  C   UNL A   1      40.135  29.135  28.530  1.00  0.00    -0.014 A 
BRANCH  33  34
ATOM     34  C   UNL A   1      41.536  28.741  28.233  1.00  0.00     0.031 A 
ATOM     35  C   UNL A   1      42.628  29.772  28.252  1.00  0.00     0.074 A 
ATOM     36  C   UNL A   1      41.825  27.454  27.967  1.00  0.00     0.049 A 
ATOM     37  N   UNL A   1      43.904  29.630  28.000  1.00  0.00    -0.248 NA
ATOM     38  C   UNL A   1      42.233  31.146  28.600  1.00  0.00     0.031 C 
ATOM     39  C   UNL A   1      40.853  26.360  27.940  1.00  0.00     0.029 A 
ATOM     40  N   UNL A   1      43.019  26.849  27.666  1.00  0.00    -0.354 N 
ATOM     41  C   UNL A   1      44.465  30.892  28.150  1.00  0.00     0.074 A 
ATOM     42  C   UNL A   1      43.384  31.794  28.491  1.00  0.00     0.031 C 
ATOM     43  C   UNL A   1      41.492  25.217  27.641  1.00  0.00     0.029 A 
ATOM     44  C   UNL A   1      42.908  25.501  27.422  1.00  0.00     0.049 A 
ATOM     45  H   UNL A   1      43.876  27.335  27.630  1.00  0.00     0.167 HD
ATOM     46  C   UNL A   1      45.763  31.263  28.022  1.00  0.00     0.037 A 
ATOM     47  C   UNL A   1      43.837  24.602  27.045  1.00  0.00     0.037 A 
ATOM     48  C   UNL A   1      46.834  30.361  27.686  1.00  0.00     0.049 A 
ATOM     49  C   UNL A   1      45.264  25.045  26.864  1.00  0.00     0.074 A 
ATOM     50  C   UNL A   1      48.184  30.638  27.553  1.00  0.00     0.029 A 
ATOM     51  N   UNL A   1      46.678  29.007  27.421  1.00  0.00    -0.354 N 
ATOM     52  N   UNL A   1      45.783  26.239  27.029  1.00  0.00    -0.248 NA
ATOM     53  C   UNL A   1      46.231  24.021  26.448  1.00  0.00     0.031 C 
ATOM     54  C   UNL A   1      48.837  29.461  27.168  1.00  0.00     0.029 A 
ATOM     55  C   UNL A   1      47.902  28.441  27.105  1.00  0.00     0.049 A 
ATOM     56  H   UNL A   1      45.822  28.521  27.454  1.00  0.00     0.167 HD
ATOM     57  C   UNL A   1      47.140  26.105  26.755  1.00  0.00     0.074 A 
ATOM     58  C   UNL A   1      47.363  24.713  26.424  1.00  0.00     0.031 C 
ATOM     59  C   UNL A   1      48.111  27.051  26.776  1.00  0.00     0.037 A 
BRANCH  46  60
ATOM     60  C   UNL A   1      46.089  32.718  28.223  1.00  0.00     0.058 A 
ATOM     61  C   UNL A   1      46.496  33.218  29.470  1.00  0.00     0.135 A 
ATOM     62  C   UNL A   1      46.009  33.620  27.150  1.00  0.00     0.135 A 
ATOM     63  F   UNL A   1      46.577  32.402  30.532  1.00  0.00    -0.206 F 
ATOM     64  C   UNL A   1      46.781  34.568  29.653  1.00  0.00     0.059 A 
ATOM     65  C   UNL A   1      46.312  34.969  27.305  1.00  0.00     0.059 A 
ATOM     66  F   UNL A   1      45.625  33.194  25.936  1.00  0.00    -0.206 F 
ATOM     67  C   UNL A   1      46.679  35.437  28.566  1.00  0.00     0.060 A 
BRANCH  67  68
ATOM     68  S   UNL A   1      47.030  37.190  28.823  1.00  0.00     0.124 S 
ATOM     69  O   UNL A   1      47.005  37.280  30.279  1.00  0.00    -0.237 OA
ATOM     70  O   UNL A   1      48.341  37.343  28.202  1.00  0.00    -0.237 OA
ATOM     71  O   UNL A   1      45.932  37.861  28.133  1.00  0.00    -0.744 OA
ENDBRANCH  67  68
ENDBRANCH  46  60
BRANCH  47  72
ATOM     72  C   UNL A   1      43.439  23.190  26.808  1.00  0.00     0.058 A 
ATOM     73  C   UNL A   1      43.383  22.661  25.511  1.00  0.00     0.135 A 
ATOM     74  C   UNL A   1      43.131  22.335  27.878  1.00  0.00     0.135 A 
ATOM     75  F   UNL A   1      43.657  23.442  24.454  1.00  0.00    -0.206 F 
ATOM     76  C   UNL A   1      43.031  21.334  25.280  1.00  0.00     0.059 A 
ATOM     77  C   UNL A   1      42.800  20.999  27.675  1.00  0.00     0.059 A 
ATOM     78  F   UNL A   1      43.180  22.792  29.139  1.00  0.00    -0.206 F 
ATOM     79  C   UNL A   1      42.746  20.509  26.370  1.00  0.00     0.060 A 
BRANCH  79  80
ATOM     80  S   UNL A   1      42.354  18.773  26.067  1.00  0.00     0.124 S 
ATOM     81  O   UNL A   1      40.946  18.851  25.697  1.00  0.00    -0.237 OA
ATOM     82  O   UNL A   1      43.280  18.432  24.990  1.00  0.00    -0.237 OA
ATOM     83  O   UNL A   1      42.637  18.136  27.350  1.00  0.00    -0.744 OA
ENDBRANCH  79  80
ENDBRANCH  47  72
BRANCH  59  84
ATOM     84  C   UNL A   1      49.513  26.610  26.456  1.00  0.00     0.058 A 
ATOM     85  C   UNL A   1      50.320  25.976  27.413  1.00  0.00     0.135 A 
ATOM     86  C   UNL A   1      50.035  26.778  25.164  1.00  0.00     0.135 A 
ATOM     87  F   UNL A   1      49.871  25.797  28.665  1.00  0.00    -0.206 F 
ATOM     88  C   UNL A   1      51.607  25.543  27.105  1.00  0.00     0.059 A 
ATOM     89  C   UNL A   1      51.309  26.331  24.828  1.00  0.00     0.059 A 
ATOM     90  F   UNL A   1      49.299  27.369  24.210  1.00  0.00    -0.206 F 
ATOM     91  C   UNL A   1      52.092  25.724  25.809  1.00  0.00     0.060 A 
BRANCH  91  92
ATOM     92  S   UNL A   1      53.749  25.127  25.411  1.00  0.00     0.124 S 
ATOM     93  O   UNL A   1      54.548  25.762  26.453  1.00  0.00    -0.237 OA
ATOM     94  O   UNL A   1      53.597  23.679  25.522  1.00  0.00    -0.237 OA
ATOM     95  O   UNL A   1      53.973  25.624  24.056  1.00  0.00    -0.744 OA
ENDBRANCH  91  92
ENDBRANCH  59  84
ENDBRANCH  33  34
ENDBRANCH  26  28
ENDBRANCH  25  26
ENDBRANCH  24  25
ENDBRANCH   1  24
TORSDOF 18
ENDMDL
