MODEL 1
REMARK VINA RESULT:     -12.7      0.000      0.000
REMARK SMILES O=C(OCCOC(=O)[C@H]1CC2=c3ccccc3=N[C@H]2[C@@H](c2ccccc2)[NH2+]1)c1ccc(-c2c3nc(c(-c4c(F)cc(S(=O)(=O)[O-])cc4F)c4ccc([nH]4)c(-c4c(F)cc(S(=O)(=O)[O-])cc4F)c4nc(c(-c5c(F)cc(S(=O)(=O)[O-])cc5F)c5ccc2[nH]5)C=C4)C=C3)cc1
REMARK SMILES IDX 4 1 3 2 2 3 1 4 28 5 29 6 93 7 30 8 92 9 31 10 32 11 33 12
REMARK SMILES IDX 86 13 34 14 91 15 85 16 87 17 35 18 90 19 84 20 83 21 36 23
REMARK SMILES IDX 70 24 49 25 69 26 50 27 53 28 68 29 88 30 51 31 52 32 67 34
REMARK SMILES IDX 89 35 54 36 37 37 38 38 47 39 39 40 40 41 46 42 48 43 41 44
REMARK SMILES IDX 42 45 43 46 44 47 45 48 71 49 72 50 81 51 73 52 74 53 80 54
REMARK SMILES IDX 82 55 75 56 76 57 77 58 78 59 79 60 55 61 56 62 65 63 57 64
REMARK SMILES IDX 58 65 64 66 66 67 59 68 60 69 61 70 62 71 63 72 5 73 6 74
REMARK SMILES IDX 7 75 8 76 9 77 10 78 27 79 11 80 20 81 12 84 19 85 13 86
REMARK SMILES IDX 17 87 18 88 14 89 16 90 15 91 21 92 22 93 26 94 23 95 25 96
REMARK SMILES IDX 24 97
REMARK H PARENT 87 22 53 33 27 82 27 83
REMARK Flexibility Score: inf
ROOT
ATOM      1  C   UNL A   1      34.232  31.246  27.719  1.00  0.00     0.275 C 
ENDROOT
BRANCH   1   2
ATOM      2  O   UNL A   1      35.374  30.511  28.190  1.00  0.00    -0.458 OA
BRANCH   2   3
ATOM      3  C   UNL A   1      36.177  30.884  29.215  1.00  0.00     0.338 C 
ATOM      4  O   UNL A   1      35.813  31.726  30.028  1.00  0.00    -0.246 OA
BRANCH   3   5
ATOM      5  C   UNL A   1      37.570  30.380  29.279  1.00  0.00     0.060 A 
ATOM      6  C   UNL A   1      38.126  30.013  28.067  1.00  0.00     0.016 A 
ATOM      7  C   UNL A   1      38.363  30.329  30.437  1.00  0.00     0.016 A 
ATOM      8  C   UNL A   1      39.429  29.533  28.044  1.00  0.00     0.010 A 
ATOM      9  C   UNL A   1      39.691  29.831  30.390  1.00  0.00     0.010 A 
ATOM     10  C   UNL A   1      40.248  29.406  29.180  1.00  0.00    -0.014 A 
BRANCH  10  11
ATOM     11  C   UNL A   1      41.668  28.949  28.950  1.00  0.00     0.031 A 
ATOM     12  C   UNL A   1      42.039  27.531  28.554  1.00  0.00     0.074 A 
ATOM     13  C   UNL A   1      42.624  29.902  28.855  1.00  0.00     0.049 A 
ATOM     14  N   UNL A   1      43.183  27.063  28.098  1.00  0.00    -0.248 NA
ATOM     15  C   UNL A   1      40.999  26.508  28.692  1.00  0.00     0.031 C 
ATOM     16  C   UNL A   1      42.414  31.323  29.141  1.00  0.00     0.029 A 
ATOM     17  N   UNL A   1      43.917  29.849  28.389  1.00  0.00    -0.354 N 
ATOM     18  C   UNL A   1      42.979  25.707  27.825  1.00  0.00     0.074 A 
ATOM     19  C   UNL A   1      41.620  25.424  28.237  1.00  0.00     0.031 C 
ATOM     20  C   UNL A   1      43.477  32.017  28.714  1.00  0.00     0.029 A 
ATOM     21  C   UNL A   1      44.492  31.090  28.220  1.00  0.00     0.049 A 
ATOM     22  H   UNL A   1      44.388  29.006  28.194  1.00  0.00     0.167 HD
ATOM     23  C   UNL A   1      43.831  24.801  27.266  1.00  0.00     0.037 A 
ATOM     24  C   UNL A   1      45.696  31.458  27.733  1.00  0.00     0.037 A 
ATOM     25  C   UNL A   1      45.204  25.084  26.911  1.00  0.00     0.049 A 
ATOM     26  C   UNL A   1      46.687  30.404  27.338  1.00  0.00     0.074 A 
ATOM     27  C   UNL A   1      46.175  24.197  26.466  1.00  0.00     0.029 A 
ATOM     28  N   UNL A   1      45.799  26.332  26.943  1.00  0.00    -0.354 N 
ATOM     29  N   UNL A   1      46.487  29.132  27.103  1.00  0.00    -0.248 NA
ATOM     30  C   UNL A   1      48.090  30.828  27.211  1.00  0.00     0.031 C 
ATOM     31  C   UNL A   1      47.350  24.907  26.221  1.00  0.00     0.029 A 
ATOM     32  C   UNL A   1      47.128  26.228  26.563  1.00  0.00     0.049 A 
ATOM     33  H   UNL A   1      45.346  27.168  27.197  1.00  0.00     0.167 HD
ATOM     34  C   UNL A   1      47.741  28.600  26.825  1.00  0.00     0.074 A 
ATOM     35  C   UNL A   1      48.689  29.692  26.876  1.00  0.00     0.031 C 
ATOM     36  C   UNL A   1      48.074  27.310  26.590  1.00  0.00     0.037 A 
BRANCH  23  37
ATOM     37  C   UNL A   1      43.348  23.398  26.954  1.00  0.00     0.058 A 
ATOM     38  C   UNL A   1      43.133  22.482  28.004  1.00  0.00     0.135 A 
ATOM     39  C   UNL A   1      42.984  22.976  25.667  1.00  0.00     0.135 A 
ATOM     40  F   UNL A   1      43.422  22.820  29.272  1.00  0.00    -0.206 F 
ATOM     41  C   UNL A   1      42.649  21.192  27.785  1.00  0.00     0.059 A 
ATOM     42  C   UNL A   1      42.533  21.679  25.418  1.00  0.00     0.059 A 
ATOM     43  F   UNL A   1      43.087  23.819  24.626  1.00  0.00    -0.206 F 
ATOM     44  C   UNL A   1      42.401  20.784  26.481  1.00  0.00     0.060 A 
BRANCH  44  45
ATOM     45  S   UNL A   1      41.999  19.058  26.136  1.00  0.00     0.124 S 
ATOM     46  O   UNL A   1      42.269  18.438  27.430  1.00  0.00    -0.237 OA
ATOM     47  O   UNL A   1      40.595  19.102  25.748  1.00  0.00    -0.237 OA
ATOM     48  O   UNL A   1      42.934  18.721  25.065  1.00  0.00    -0.744 OA
ENDBRANCH  44  45
ENDBRANCH  23  37
BRANCH  24  49
ATOM     49  C   UNL A   1      46.078  32.896  27.668  1.00  0.00     0.058 A 
ATOM     50  C   UNL A   1      46.719  33.530  28.743  1.00  0.00     0.135 A 
ATOM     51  C   UNL A   1      45.791  33.669  26.531  1.00  0.00     0.135 A 
ATOM     52  F   UNL A   1      46.989  32.846  29.865  1.00  0.00    -0.206 F 
ATOM     53  C   UNL A   1      47.074  34.876  28.686  1.00  0.00     0.059 A 
ATOM     54  C   UNL A   1      46.170  35.001  26.437  1.00  0.00     0.059 A 
ATOM     55  F   UNL A   1      45.163  33.117  25.482  1.00  0.00    -0.206 F 
ATOM     56  C   UNL A   1      46.804  35.599  27.523  1.00  0.00     0.060 A 
BRANCH  56  57
ATOM     57  S   UNL A   1      47.336  37.320  27.414  1.00  0.00     0.124 S 
ATOM     58  O   UNL A   1      46.666  37.906  28.568  1.00  0.00    -0.237 OA
ATOM     59  O   UNL A   1      48.788  37.202  27.508  1.00  0.00    -0.237 OA
ATOM     60  O   UNL A   1      46.833  37.739  26.108  1.00  0.00    -0.744 OA
ENDBRANCH  56  57
ENDBRANCH  24  49
BRANCH  36  61
ATOM     61  C   UNL A   1      49.528  26.973  26.420  1.00  0.00     0.058 A 
ATOM     62  C   UNL A   1      50.303  26.605  27.530  1.00  0.00     0.135 A 
ATOM     63  C   UNL A   1      50.124  26.909  25.151  1.00  0.00     0.135 A 
ATOM     64  F   UNL A   1      49.778  26.649  28.765  1.00  0.00    -0.206 F 
ATOM     65  C   UNL A   1      51.621  26.189  27.391  1.00  0.00     0.059 A 
ATOM     66  C   UNL A   1      51.438  26.477  24.986  1.00  0.00     0.059 A 
ATOM     67  F   UNL A   1      49.422  27.235  24.055  1.00  0.00    -0.206 F 
ATOM     68  C   UNL A   1      52.180  26.122  26.113  1.00  0.00     0.060 A 
BRANCH  68  69
ATOM     69  S   UNL A   1      53.874  25.520  25.946  1.00  0.00     0.124 S 
ATOM     70  O   UNL A   1      54.444  26.498  25.024  1.00  0.00    -0.237 OA
ATOM     71  O   UNL A   1      54.367  25.582  27.318  1.00  0.00    -0.237 OA
ATOM     72  O   UNL A   1      53.705  24.174  25.407  1.00  0.00    -0.744 OA
ENDBRANCH  68  69
ENDBRANCH  36  61
ENDBRANCH  10  11
ENDBRANCH   3   5
ENDBRANCH   2   3
ENDBRANCH   1   2
BRANCH   1  73
ATOM     73  C   UNL A   1      33.209  30.388  26.982  1.00  0.00     0.274 C 
BRANCH  73  74
ATOM     74  O   UNL A   1      32.970  29.116  27.599  1.00  0.00    -0.458 OA
BRANCH  74  75
ATOM     75  C   UNL A   1      31.938  28.359  27.106  1.00  0.00     0.365 C 
ATOM     76  O   UNL A   1      31.091  27.810  27.803  1.00  0.00    -0.245 OA
BRANCH  75  77
ATOM     77  C   UNL A   1      32.077  28.116  25.586  1.00  0.00     0.298 C 
ATOM     78  C   UNL A   1      33.180  27.102  25.151  1.00  0.00     0.111 C 
ATOM     79  N   UNL A   1      30.765  27.842  24.981  1.00  0.00    -0.326 N 
ATOM     80  C   UNL A   1      33.009  26.333  23.793  1.00  0.00    -0.024 C 
ATOM     81  C   UNL A   1      30.977  27.818  23.529  1.00  0.00     0.243 C 
ATOM     82  H   UNL A   1      30.102  28.576  25.228  1.00  0.00     0.347 HD
ATOM     83  H   UNL A   1      30.381  26.957  25.313  1.00  0.00     0.347 HD
ATOM     84  C   UNL A   1      33.279  25.020  23.827  1.00  0.00     0.002 A 
ATOM     85  C   UNL A   1      31.614  26.461  23.151  1.00  0.00     0.196 C 
ATOM     86  C   UNL A   1      34.251  24.203  23.151  1.00  0.00     0.010 A 
ATOM     87  C   UNL A   1      31.918  24.440  23.892  1.00  0.00     0.066 A 
ATOM     88  N   UNL A   1      30.917  25.238  23.657  1.00  0.00    -0.270 NA
ATOM     89  C   UNL A   1      34.116  22.868  23.259  1.00  0.00     0.001 A 
ATOM     90  C   UNL A   1      31.934  23.020  24.332  1.00  0.00     0.028 A 
ATOM     91  C   UNL A   1      33.037  22.302  24.058  1.00  0.00     0.002 A 
BRANCH  81  92
ATOM     92  C   UNL A   1      29.866  28.511  22.771  1.00  0.00     0.012 A 
ATOM     93  C   UNL A   1      30.153  29.643  22.003  1.00  0.00     0.010 A 
ATOM     94  C   UNL A   1      28.517  28.272  23.124  1.00  0.00     0.010 A 
ATOM     95  C   UNL A   1      29.144  30.560  21.709  1.00  0.00     0.001 A 
ATOM     96  C   UNL A   1      27.503  29.158  22.772  1.00  0.00     0.001 A 
ATOM     97  C   UNL A   1      27.824  30.322  22.093  1.00  0.00     0.000 A 
ENDBRANCH  81  92
ENDBRANCH  75  77
ENDBRANCH  74  75
ENDBRANCH  73  74
ENDBRANCH   1  73
TORSDOF 15
ENDMDL
MODEL 2
REMARK VINA RESULT:     -12.7      6.659     12.228
REMARK SMILES O=C(OCCOC(=O)[C@H]1CC2=c3ccccc3=N[C@H]2[C@@H](c2ccccc2)[NH2+]1)c1ccc(-c2c3nc(c(-c4c(F)cc(S(=O)(=O)[O-])cc4F)c4ccc([nH]4)c(-c4c(F)cc(S(=O)(=O)[O-])cc4F)c4nc(c(-c5c(F)cc(S(=O)(=O)[O-])cc5F)c5ccc2[nH]5)C=C4)C=C3)cc1
REMARK SMILES IDX 4 1 3 2 2 3 1 4 28 5 29 6 93 7 30 8 92 9 31 10 32 11 33 12
REMARK SMILES IDX 86 13 34 14 91 15 85 16 87 17 35 18 90 19 84 20 83 21 36 23
REMARK SMILES IDX 70 24 49 25 69 26 50 27 53 28 68 29 88 30 51 31 52 32 67 34
REMARK SMILES IDX 89 35 54 36 37 37 38 38 47 39 39 40 40 41 46 42 48 43 41 44
REMARK SMILES IDX 42 45 43 46 44 47 45 48 71 49 72 50 81 51 73 52 74 53 80 54
REMARK SMILES IDX 82 55 75 56 76 57 77 58 78 59 79 60 55 61 56 62 65 63 57 64
REMARK SMILES IDX 58 65 64 66 66 67 59 68 60 69 61 70 62 71 63 72 5 73 6 74
REMARK SMILES IDX 7 75 8 76 9 77 10 78 27 79 11 80 20 81 12 84 19 85 13 86
REMARK SMILES IDX 17 87 18 88 14 89 16 90 15 91 21 92 22 93 26 94 23 95 25 96
REMARK SMILES IDX 24 97
REMARK H PARENT 87 22 53 33 27 82 27 83
REMARK Flexibility Score: inf
ROOT
ATOM      1  C   UNL A   1      39.267  22.057  26.492  1.00  0.00     0.275 C 
ENDROOT
BRANCH   1   2
ATOM      2  O   UNL A   1      39.467  23.407  26.940  1.00  0.00    -0.458 OA
BRANCH   2   3
ATOM      3  C   UNL A   1      40.630  24.096  26.859  1.00  0.00     0.338 C 
ATOM      4  O   UNL A   1      41.568  23.673  26.191  1.00  0.00    -0.246 OA
BRANCH   3   5
ATOM      5  C   UNL A   1      40.833  25.301  27.698  1.00  0.00     0.060 A 
ATOM      6  C   UNL A   1      39.798  25.603  28.564  1.00  0.00     0.016 A 
ATOM      7  C   UNL A   1      41.999  26.082  27.730  1.00  0.00     0.016 A 
ATOM      8  C   UNL A   1      39.913  26.717  29.385  1.00  0.00     0.010 A 
ATOM      9  C   UNL A   1      42.093  27.218  28.575  1.00  0.00     0.010 A 
ATOM     10  C   UNL A   1      41.033  27.566  29.417  1.00  0.00    -0.014 A 
BRANCH  10  11
ATOM     11  C   UNL A   1      41.018  28.677  30.439  1.00  0.00     0.031 A 
ATOM     12  C   UNL A   1      39.993  29.797  30.446  1.00  0.00     0.074 A 
ATOM     13  C   UNL A   1      41.801  28.531  31.533  1.00  0.00     0.049 A 
ATOM     14  N   UNL A   1      39.720  30.674  31.390  1.00  0.00    -0.248 NA
ATOM     15  C   UNL A   1      39.176  29.958  29.240  1.00  0.00     0.031 C 
ATOM     16  C   UNL A   1      42.794  27.469  31.710  1.00  0.00     0.029 A 
ATOM     17  N   UNL A   1      41.811  29.193  32.739  1.00  0.00    -0.354 N 
ATOM     18  C   UNL A   1      38.651  31.444  30.923  1.00  0.00     0.074 A 
ATOM     19  C   UNL A   1      38.380  30.968  29.582  1.00  0.00     0.031 C 
ATOM     20  C   UNL A   1      43.208  27.464  32.984  1.00  0.00     0.029 A 
ATOM     21  C   UNL A   1      42.594  28.584  33.695  1.00  0.00     0.049 A 
ATOM     22  H   UNL A   1      41.307  30.024  32.904  1.00  0.00     0.167 HD
ATOM     23  C   UNL A   1      37.952  32.428  31.558  1.00  0.00     0.037 A 
ATOM     24  C   UNL A   1      42.812  28.881  34.993  1.00  0.00     0.037 A 
ATOM     25  C   UNL A   1      38.269  32.932  32.875  1.00  0.00     0.049 A 
ATOM     26  C   UNL A   1      42.190  30.111  35.585  1.00  0.00     0.074 A 
ATOM     27  C   UNL A   1      37.703  34.013  33.539  1.00  0.00     0.029 A 
ATOM     28  N   UNL A   1      39.212  32.397  33.733  1.00  0.00    -0.354 N 
ATOM     29  N   UNL A   1      41.200  30.835  35.128  1.00  0.00    -0.248 NA
ATOM     30  C   UNL A   1      42.770  30.607  36.843  1.00  0.00     0.031 C 
ATOM     31  C   UNL A   1      38.295  34.125  34.797  1.00  0.00     0.029 A 
ATOM     32  C   UNL A   1      39.267  33.147  34.898  1.00  0.00     0.049 A 
ATOM     33  H   UNL A   1      39.762  31.602  33.544  1.00  0.00     0.167 HD
ATOM     34  C   UNL A   1      41.055  31.883  36.028  1.00  0.00     0.074 A 
ATOM     35  C   UNL A   1      42.026  31.680  37.081  1.00  0.00     0.031 C 
ATOM     36  C   UNL A   1      40.215  32.941  35.959  1.00  0.00     0.037 A 
BRANCH  23  37
ATOM     37  C   UNL A   1      36.741  33.050  30.890  1.00  0.00     0.058 A 
ATOM     38  C   UNL A   1      36.917  33.961  29.827  1.00  0.00     0.135 A 
ATOM     39  C   UNL A   1      35.421  32.686  31.193  1.00  0.00     0.135 A 
ATOM     40  F   UNL A   1      38.153  34.335  29.450  1.00  0.00    -0.206 F 
ATOM     41  C   UNL A   1      35.844  34.533  29.145  1.00  0.00     0.059 A 
ATOM     42  C   UNL A   1      34.330  33.272  30.550  1.00  0.00     0.059 A 
ATOM     43  F   UNL A   1      35.175  31.767  32.141  1.00  0.00    -0.206 F 
ATOM     44  C   UNL A   1      34.552  34.220  29.550  1.00  0.00     0.060 A 
BRANCH  44  45
ATOM     45  S   UNL A   1      33.147  35.114  28.852  1.00  0.00     0.124 S 
ATOM     46  O   UNL A   1      32.396  35.451  30.057  1.00  0.00    -0.237 OA
ATOM     47  O   UNL A   1      33.764  36.243  28.166  1.00  0.00    -0.237 OA
ATOM     48  O   UNL A   1      32.533  34.112  27.983  1.00  0.00    -0.744 OA
ENDBRANCH  44  45
ENDBRANCH  23  37
BRANCH  24  49
ATOM     49  C   UNL A   1      43.732  28.047  35.816  1.00  0.00     0.058 A 
ATOM     50  C   UNL A   1      43.242  27.055  36.679  1.00  0.00     0.135 A 
ATOM     51  C   UNL A   1      45.122  28.240  35.765  1.00  0.00     0.135 A 
ATOM     52  F   UNL A   1      41.921  26.851  36.789  1.00  0.00    -0.206 F 
ATOM     53  C   UNL A   1      44.100  26.276  37.452  1.00  0.00     0.059 A 
ATOM     54  C   UNL A   1      45.998  27.449  36.497  1.00  0.00     0.059 A 
ATOM     55  F   UNL A   1      45.643  29.187  34.970  1.00  0.00    -0.206 F 
ATOM     56  C   UNL A   1      45.477  26.474  37.344  1.00  0.00     0.060 A 
BRANCH  56  57
ATOM     57  S   UNL A   1      46.594  25.412  38.281  1.00  0.00     0.124 S 
ATOM     58  O   UNL A   1      45.695  24.854  39.284  1.00  0.00    -0.237 OA
ATOM     59  O   UNL A   1      47.070  24.484  37.260  1.00  0.00    -0.237 OA
ATOM     60  O   UNL A   1      47.599  26.347  38.781  1.00  0.00    -0.744 OA
ENDBRANCH  56  57
ENDBRANCH  24  49
BRANCH  36  61
ATOM     61  C   UNL A   1      40.326  34.005  37.013  1.00  0.00     0.058 A 
ATOM     62  C   UNL A   1      41.200  35.089  36.834  1.00  0.00     0.135 A 
ATOM     63  C   UNL A   1      39.494  34.011  38.143  1.00  0.00     0.135 A 
ATOM     64  F   UNL A   1      42.016  35.130  35.769  1.00  0.00    -0.206 F 
ATOM     65  C   UNL A   1      41.250  36.140  37.742  1.00  0.00     0.059 A 
ATOM     66  C   UNL A   1      39.514  35.062  39.056  1.00  0.00     0.059 A 
ATOM     67  F   UNL A   1      38.629  33.006  38.352  1.00  0.00    -0.206 F 
ATOM     68  C   UNL A   1      40.398  36.121  38.848  1.00  0.00     0.060 A 
BRANCH  68  69
ATOM     69  S   UNL A   1      40.432  37.525  39.984  1.00  0.00     0.124 S 
ATOM     70  O   UNL A   1      41.600  38.260  39.508  1.00  0.00    -0.237 OA
ATOM     71  O   UNL A   1      39.141  38.161  39.737  1.00  0.00    -0.237 OA
ATOM     72  O   UNL A   1      40.575  36.899  41.294  1.00  0.00    -0.744 OA
ENDBRANCH  68  69
ENDBRANCH  36  61
ENDBRANCH  10  11
ENDBRANCH   3   5
ENDBRANCH   2   3
ENDBRANCH   1   2
BRANCH   1  73
ATOM     73  C   UNL A   1      38.226  21.922  25.386  1.00  0.00     0.274 C 
BRANCH  73  74
ATOM     74  O   UNL A   1      36.887  21.750  25.871  1.00  0.00    -0.458 OA
BRANCH  74  75
ATOM     75  C   UNL A   1      36.013  22.794  25.696  1.00  0.00     0.365 C 
ATOM     76  O   UNL A   1      36.356  23.963  25.556  1.00  0.00    -0.245 OA
BRANCH  75  77
ATOM     77  C   UNL A   1      34.545  22.355  25.892  1.00  0.00     0.298 C 
ATOM     78  C   UNL A   1      33.540  23.478  26.296  1.00  0.00     0.111 C 
ATOM     79  N   UNL A   1      34.087  21.549  24.751  1.00  0.00    -0.326 N 
ATOM     80  C   UNL A   1      32.024  23.310  25.922  1.00  0.00    -0.024 C 
ATOM     81  C   UNL A   1      32.766  21.027  25.118  1.00  0.00     0.243 C 
ATOM     82  H   UNL A   1      34.734  20.780  24.579  1.00  0.00     0.347 HD
ATOM     83  H   UNL A   1      34.040  22.106  23.898  1.00  0.00     0.347 HD
ATOM     84  C   UNL A   1      31.425  24.394  25.410  1.00  0.00     0.002 A 
ATOM     85  C   UNL A   1      31.727  22.159  24.941  1.00  0.00     0.196 C 
ATOM     86  C   UNL A   1      30.316  25.198  25.850  1.00  0.00     0.010 A 
ATOM     87  C   UNL A   1      31.427  24.077  23.964  1.00  0.00     0.066 A 
ATOM     88  N   UNL A   1      31.729  22.858  23.619  1.00  0.00    -0.270 NA
ATOM     89  C   UNL A   1      29.832  26.107  24.982  1.00  0.00     0.001 A 
ATOM     90  C   UNL A   1      31.174  25.279  23.125  1.00  0.00     0.028 A 
ATOM     91  C   UNL A   1      30.445  26.268  23.670  1.00  0.00     0.002 A 
BRANCH  81  92
ATOM     92  C   UNL A   1      32.576  19.585  24.700  1.00  0.00     0.012 A 
ATOM     93  C   UNL A   1      32.852  18.558  25.608  1.00  0.00     0.010 A 
ATOM     94  C   UNL A   1      32.498  19.255  23.327  1.00  0.00     0.010 A 
ATOM     95  C   UNL A   1      33.161  17.281  25.143  1.00  0.00     0.001 A 
ATOM     96  C   UNL A   1      32.742  17.962  22.873  1.00  0.00     0.001 A 
ATOM     97  C   UNL A   1      33.109  16.981  23.781  1.00  0.00     0.000 A 
ENDBRANCH  81  92
ENDBRANCH  75  77
ENDBRANCH  74  75
ENDBRANCH  73  74
ENDBRANCH   1  73
TORSDOF 15
ENDMDL
MODEL 3
REMARK VINA RESULT:     -12.4      1.295      8.190
REMARK SMILES O=C(OCCOC(=O)[C@H]1CC2=c3ccccc3=N[C@H]2[C@@H](c2ccccc2)[NH2+]1)c1ccc(-c2c3nc(c(-c4c(F)cc(S(=O)(=O)[O-])cc4F)c4ccc([nH]4)c(-c4c(F)cc(S(=O)(=O)[O-])cc4F)c4nc(c(-c5c(F)cc(S(=O)(=O)[O-])cc5F)c5ccc2[nH]5)C=C4)C=C3)cc1
REMARK SMILES IDX 4 1 3 2 2 3 1 4 28 5 29 6 93 7 30 8 92 9 31 10 32 11 33 12
REMARK SMILES IDX 86 13 34 14 91 15 85 16 87 17 35 18 90 19 84 20 83 21 36 23
REMARK SMILES IDX 70 24 49 25 69 26 50 27 53 28 68 29 88 30 51 31 52 32 67 34
REMARK SMILES IDX 89 35 54 36 37 37 38 38 47 39 39 40 40 41 46 42 48 43 41 44
REMARK SMILES IDX 42 45 43 46 44 47 45 48 71 49 72 50 81 51 73 52 74 53 80 54
REMARK SMILES IDX 82 55 75 56 76 57 77 58 78 59 79 60 55 61 56 62 65 63 57 64
REMARK SMILES IDX 58 65 64 66 66 67 59 68 60 69 61 70 62 71 63 72 5 73 6 74
REMARK SMILES IDX 7 75 8 76 9 77 10 78 27 79 11 80 20 81 12 84 19 85 13 86
REMARK SMILES IDX 17 87 18 88 14 89 16 90 15 91 21 92 22 93 26 94 23 95 25 96
REMARK SMILES IDX 24 97
REMARK H PARENT 87 22 53 33 27 82 27 83
REMARK Flexibility Score: inf
ROOT
ATOM      1  C   UNL A   1      34.447  31.080  27.748  1.00  0.00     0.275 C 
ENDROOT
BRANCH   1   2
ATOM      2  O   UNL A   1      35.204  30.131  28.518  1.00  0.00    -0.458 OA
BRANCH   2   3
ATOM      3  C   UNL A   1      36.108  30.443  29.476  1.00  0.00     0.338 C 
ATOM      4  O   UNL A   1      35.797  31.144  30.433  1.00  0.00    -0.246 OA
BRANCH   3   5
ATOM      5  C   UNL A   1      37.528  30.057  29.301  1.00  0.00     0.060 A 
ATOM      6  C   UNL A   1      37.965  29.973  27.991  1.00  0.00     0.016 A 
ATOM      7  C   UNL A   1      38.451  29.858  30.341  1.00  0.00     0.016 A 
ATOM      8  C   UNL A   1      39.285  29.618  27.745  1.00  0.00     0.010 A 
ATOM      9  C   UNL A   1      39.794  29.493  30.065  1.00  0.00     0.010 A 
ATOM     10  C   UNL A   1      40.235  29.352  28.746  1.00  0.00    -0.014 A 
BRANCH  10  11
ATOM     11  C   UNL A   1      41.646  29.069  28.291  1.00  0.00     0.031 A 
ATOM     12  C   UNL A   1      42.820  29.990  28.573  1.00  0.00     0.074 A 
ATOM     13  C   UNL A   1      41.915  27.827  27.826  1.00  0.00     0.049 A 
ATOM     14  N   UNL A   1      44.111  29.760  28.449  1.00  0.00    -0.248 NA
ATOM     15  C   UNL A   1      42.506  31.340  29.048  1.00  0.00     0.031 C 
ATOM     16  C   UNL A   1      40.905  26.800  27.561  1.00  0.00     0.029 A 
ATOM     17  N   UNL A   1      43.109  27.178  27.604  1.00  0.00    -0.354 N 
ATOM     18  C   UNL A   1      44.766  30.910  28.900  1.00  0.00     0.074 A 
ATOM     19  C   UNL A   1      43.719  31.854  29.230  1.00  0.00     0.031 C 
ATOM     20  C   UNL A   1      41.518  25.626  27.353  1.00  0.00     0.029 A 
ATOM     21  C   UNL A   1      42.965  25.829  27.365  1.00  0.00     0.049 A 
ATOM     22  H   UNL A   1      43.982  27.634  27.614  1.00  0.00     0.167 HD
ATOM     23  C   UNL A   1      46.102  31.142  29.046  1.00  0.00     0.037 A 
ATOM     24  C   UNL A   1      43.878  24.854  27.168  1.00  0.00     0.037 A 
ATOM     25  C   UNL A   1      47.138  30.210  28.660  1.00  0.00     0.049 A 
ATOM     26  C   UNL A   1      45.335  25.206  27.117  1.00  0.00     0.074 A 
ATOM     27  C   UNL A   1      48.512  30.413  28.646  1.00  0.00     0.029 A 
ATOM     28  N   UNL A   1      46.930  28.911  28.236  1.00  0.00    -0.354 N 
ATOM     29  N   UNL A   1      45.935  26.295  27.525  1.00  0.00    -0.248 NA
ATOM     30  C   UNL A   1      46.234  24.214  26.505  1.00  0.00     0.031 C 
ATOM     31  C   UNL A   1      49.132  29.237  28.226  1.00  0.00     0.029 A 
ATOM     32  C   UNL A   1      48.144  28.318  27.926  1.00  0.00     0.049 A 
ATOM     33  H   UNL A   1      46.051  28.472  28.166  1.00  0.00     0.167 HD
ATOM     34  C   UNL A   1      47.275  26.130  27.199  1.00  0.00     0.074 A 
ATOM     35  C   UNL A   1      47.411  24.820  26.600  1.00  0.00     0.031 C 
ATOM     36  C   UNL A   1      48.292  27.009  27.349  1.00  0.00     0.037 A 
BRANCH  23  37
ATOM     37  C   UNL A   1      46.583  32.437  29.672  1.00  0.00     0.058 A 
ATOM     38  C   UNL A   1      46.780  33.575  28.862  1.00  0.00     0.135 A 
ATOM     39  C   UNL A   1      46.741  32.613  31.054  1.00  0.00     0.135 A 
ATOM     40  F   UNL A   1      46.613  33.499  27.530  1.00  0.00    -0.206 F 
ATOM     41  C   UNL A   1      47.179  34.805  29.383  1.00  0.00     0.059 A 
ATOM     42  C   UNL A   1      47.176  33.824  31.595  1.00  0.00     0.059 A 
ATOM     43  F   UNL A   1      46.497  31.597  31.896  1.00  0.00    -0.206 F 
ATOM     44  C   UNL A   1      47.425  34.905  30.747  1.00  0.00     0.060 A 
BRANCH  44  45
ATOM     45  S   UNL A   1      48.164  36.406  31.424  1.00  0.00     0.124 S 
ATOM     46  O   UNL A   1      47.025  37.319  31.406  1.00  0.00    -0.237 OA
ATOM     47  O   UNL A   1      48.616  36.001  32.749  1.00  0.00    -0.237 OA
ATOM     48  O   UNL A   1      49.225  36.700  30.463  1.00  0.00    -0.744 OA
ENDBRANCH  44  45
ENDBRANCH  23  37
BRANCH  24  49
ATOM     49  C   UNL A   1      43.444  23.452  26.917  1.00  0.00     0.058 A 
ATOM     50  C   UNL A   1      43.324  22.947  25.614  1.00  0.00     0.135 A 
ATOM     51  C   UNL A   1      43.124  22.593  27.981  1.00  0.00     0.135 A 
ATOM     52  F   UNL A   1      43.587  23.735  24.560  1.00  0.00    -0.206 F 
ATOM     53  C   UNL A   1      42.915  21.637  25.375  1.00  0.00     0.059 A 
ATOM     54  C   UNL A   1      42.752  21.272  27.770  1.00  0.00     0.059 A 
ATOM     55  F   UNL A   1      43.205  23.030  29.247  1.00  0.00    -0.206 F 
ATOM     56  C   UNL A   1      42.642  20.805  26.462  1.00  0.00     0.060 A 
BRANCH  56  57
ATOM     57  S   UNL A   1      42.192  19.084  26.161  1.00  0.00     0.124 S 
ATOM     58  O   UNL A   1      40.784  19.209  25.804  1.00  0.00    -0.237 OA
ATOM     59  O   UNL A   1      43.097  18.713  25.077  1.00  0.00    -0.237 OA
ATOM     60  O   UNL A   1      42.467  18.440  27.443  1.00  0.00    -0.744 OA
ENDBRANCH  56  57
ENDBRANCH  24  49
BRANCH  36  61
ATOM     61  C   UNL A   1      49.643  26.629  26.815  1.00  0.00     0.058 A 
ATOM     62  C   UNL A   1      50.575  25.984  27.643  1.00  0.00     0.135 A 
ATOM     63  C   UNL A   1      49.974  26.802  25.462  1.00  0.00     0.135 A 
ATOM     64  F   UNL A   1      50.304  25.795  28.943  1.00  0.00    -0.206 F 
ATOM     65  C   UNL A   1      51.792  25.529  27.150  1.00  0.00     0.059 A 
ATOM     66  C   UNL A   1      51.180  26.337  24.943  1.00  0.00     0.059 A 
ATOM     67  F   UNL A   1      49.112  27.398  24.624  1.00  0.00    -0.206 F 
ATOM     68  C   UNL A   1      52.084  25.704  25.796  1.00  0.00     0.060 A 
BRANCH  68  69
ATOM     69  S   UNL A   1      53.643  25.050  25.162  1.00  0.00     0.124 S 
ATOM     70  O   UNL A   1      54.605  25.619  26.101  1.00  0.00    -0.237 OA
ATOM     71  O   UNL A   1      53.442  23.608  25.258  1.00  0.00    -0.237 OA
ATOM     72  O   UNL A   1      53.705  25.579  23.802  1.00  0.00    -0.744 OA
ENDBRANCH  68  69
ENDBRANCH  36  61
ENDBRANCH  10  11
ENDBRANCH   3   5
ENDBRANCH   2   3
ENDBRANCH   1   2
BRANCH   1  73
ATOM     73  C   UNL A   1      33.126  30.530  27.219  1.00  0.00     0.274 C 
BRANCH  73  74
ATOM     74  O   UNL A   1      33.208  30.017  25.882  1.00  0.00    -0.458 OA
BRANCH  74  75
ATOM     75  C   UNL A   1      33.354  28.661  25.735  1.00  0.00     0.365 C 
ATOM     76  O   UNL A   1      33.964  27.944  26.521  1.00  0.00    -0.245 OA
BRANCH  75  77
ATOM     77  C   UNL A   1      32.833  28.170  24.366  1.00  0.00     0.298 C 
ATOM     78  C   UNL A   1      33.487  26.869  23.807  1.00  0.00     0.111 C 
ATOM     79  N   UNL A   1      31.363  28.133  24.352  1.00  0.00    -0.326 N 
ATOM     80  C   UNL A   1      32.664  25.971  22.816  1.00  0.00    -0.024 C 
ATOM     81  C   UNL A   1      30.970  27.846  22.968  1.00  0.00     0.243 C 
ATOM     82  H   UNL A   1      30.984  29.033  24.646  1.00  0.00     0.347 HD
ATOM     83  H   UNL A   1      31.004  27.426  24.993  1.00  0.00     0.347 HD
ATOM     84  C   UNL A   1      32.705  24.652  23.050  1.00  0.00     0.002 A 
ATOM     85  C   UNL A   1      31.171  26.335  22.707  1.00  0.00     0.196 C 
ATOM     86  C   UNL A   1      33.178  23.535  22.275  1.00  0.00     0.010 A 
ATOM     87  C   UNL A   1      31.409  24.432  23.730  1.00  0.00     0.066 A 
ATOM     88  N   UNL A   1      30.543  25.404  23.695  1.00  0.00    -0.270 NA
ATOM     89  C   UNL A   1      32.880  22.303  22.727  1.00  0.00     0.001 A 
ATOM     90  C   UNL A   1      31.365  23.130  24.447  1.00  0.00     0.028 A 
ATOM     91  C   UNL A   1      32.133  22.136  23.967  1.00  0.00     0.002 A 
BRANCH  81  92
ATOM     92  C   UNL A   1      29.779  28.666  22.522  1.00  0.00     0.012 A 
ATOM     93  C   UNL A   1      29.982  29.889  21.876  1.00  0.00     0.010 A 
ATOM     94  C   UNL A   1      28.503  28.411  23.076  1.00  0.00     0.010 A 
ATOM     95  C   UNL A   1      28.984  30.862  21.895  1.00  0.00     0.001 A 
ATOM     96  C   UNL A   1      27.487  29.362  23.035  1.00  0.00     0.001 A 
ATOM     97  C   UNL A   1      27.741  30.603  22.474  1.00  0.00     0.000 A 
ENDBRANCH  81  92
ENDBRANCH  75  77
ENDBRANCH  74  75
ENDBRANCH  73  74
ENDBRANCH   1  73
TORSDOF 15
ENDMDL
