MODEL 1
REMARK VINA RESULT:     -11.7      0.000      0.000
REMARK SMILES O=C(OCCOC(=O)c1cc2sc(Cl)cc2s1)c1ccc(-c2c3nc(c(-c4c(F)cc(S(=O)(=O)[O-])cc4F)c4ccc([nH]4)c(-c4c(F)cc(S(=O)(=O)[O-])cc4F)c4nc(c(-c5c(F)cc(S(=O)(=O)[O-])cc5F)c5ccc2[nH]5)C=C4)C=C3)cc1
REMARK SMILES IDX 3 1 2 2 1 3 18 4 19 5 83 6 20 7 82 8 21 9 22 10 23 11 76 12
REMARK SMILES IDX 24 13 81 14 75 15 77 16 25 17 80 18 74 19 73 20 26 22 60 23
REMARK SMILES IDX 39 24 59 25 40 26 43 27 58 28 78 29 41 30 42 31 57 33 79 34
REMARK SMILES IDX 44 35 27 36 28 37 37 38 29 39 30 40 36 41 38 42 31 43 32 44
REMARK SMILES IDX 33 45 34 46 35 47 61 48 62 49 71 50 63 51 64 52 70 53 72 54
REMARK SMILES IDX 65 55 66 56 67 57 68 58 69 59 45 60 46 61 55 62 47 63 48 64
REMARK SMILES IDX 54 65 56 66 49 67 50 68 51 69 52 70 53 71 4 72 5 73 6 74
REMARK SMILES IDX 7 75 8 76 9 77 10 78 17 79 11 80 16 81 12 82 15 83 13 84
REMARK SMILES IDX 14 85
REMARK H PARENT 77 21 43 32
REMARK Flexibility Score: inf
ROOT
ATOM      1  O   UNL A   1      34.242  32.854  28.483  1.00  0.00    -0.458 OA
ENDROOT
BRANCH   1   2
ATOM      2  C   UNL A   1      34.376  31.582  28.054  1.00  0.00     0.338 C 
ATOM      3  O   UNL A   1      33.511  30.979  27.438  1.00  0.00    -0.246 OA
BRANCH   2   4
ATOM      4  C   UNL A   1      35.759  31.076  28.211  1.00  0.00     0.060 A 
ATOM      5  C   UNL A   1      36.129  29.773  27.857  1.00  0.00     0.016 A 
ATOM      6  C   UNL A   1      36.708  31.951  28.754  1.00  0.00     0.016 A 
ATOM      7  C   UNL A   1      37.407  29.319  28.136  1.00  0.00     0.010 A 
ATOM      8  C   UNL A   1      37.994  31.505  29.013  1.00  0.00     0.010 A 
ATOM      9  C   UNL A   1      38.318  30.172  28.762  1.00  0.00    -0.014 A 
BRANCH   9  10
ATOM     10  C   UNL A   1      39.633  29.642  29.101  1.00  0.00     0.031 A 
ATOM     11  C   UNL A   1      39.883  29.478  30.561  1.00  0.00     0.074 A 
ATOM     12  C   UNL A   1      40.501  29.221  28.158  1.00  0.00     0.049 A 
ATOM     13  N   UNL A   1      40.728  30.110  31.309  1.00  0.00    -0.248 NA
ATOM     14  C   UNL A   1      38.968  28.605  31.314  1.00  0.00     0.031 C 
ATOM     15  C   UNL A   1      40.269  29.078  26.718  1.00  0.00     0.029 A 
ATOM     16  N   UNL A   1      41.760  28.729  28.307  1.00  0.00    -0.354 N 
ATOM     17  C   UNL A   1      40.622  29.539  32.577  1.00  0.00     0.074 A 
ATOM     18  C   UNL A   1      39.405  28.771  32.563  1.00  0.00     0.031 C 
ATOM     19  C   UNL A   1      41.246  28.314  26.179  1.00  0.00     0.029 A 
ATOM     20  C   UNL A   1      42.245  28.045  27.197  1.00  0.00     0.049 A 
ATOM     21  H   UNL A   1      42.285  28.847  29.131  1.00  0.00     0.167 HD
ATOM     22  C   UNL A   1      41.673  29.541  33.447  1.00  0.00     0.037 A 
ATOM     23  C   UNL A   1      43.358  27.267  27.145  1.00  0.00     0.037 A 
ATOM     24  C   UNL A   1      42.648  30.536  33.070  1.00  0.00     0.049 A 
ATOM     25  C   UNL A   1      44.219  27.665  28.290  1.00  0.00     0.074 A 
ATOM     26  C   UNL A   1      42.627  31.908  32.899  1.00  0.00     0.029 A 
ATOM     27  N   UNL A   1      43.797  30.106  32.450  1.00  0.00    -0.354 N 
ATOM     28  N   UNL A   1      44.786  28.836  28.395  1.00  0.00    -0.248 NA
ATOM     29  C   UNL A   1      44.056  26.939  29.541  1.00  0.00     0.031 C 
ATOM     30  C   UNL A   1      43.469  32.150  31.774  1.00  0.00     0.029 A 
ATOM     31  C   UNL A   1      44.011  30.928  31.375  1.00  0.00     0.049 A 
ATOM     32  H   UNL A   1      44.361  29.348  32.728  1.00  0.00     0.167 HD
ATOM     33  C   UNL A   1      44.658  29.176  29.734  1.00  0.00     0.074 A 
ATOM     34  C   UNL A   1      44.269  27.936  30.404  1.00  0.00     0.031 C 
ATOM     35  C   UNL A   1      44.599  30.482  30.131  1.00  0.00     0.037 A 
BRANCH  22  36
ATOM     36  C   UNL A   1      42.028  28.392  34.376  1.00  0.00     0.058 A 
ATOM     37  C   UNL A   1      41.949  28.599  35.773  1.00  0.00     0.135 A 
ATOM     38  C   UNL A   1      42.733  27.234  33.982  1.00  0.00     0.135 A 
ATOM     39  F   UNL A   1      41.273  29.646  36.274  1.00  0.00    -0.206 F 
ATOM     40  C   UNL A   1      42.636  27.803  36.690  1.00  0.00     0.059 A 
ATOM     41  C   UNL A   1      43.385  26.399  34.884  1.00  0.00     0.059 A 
ATOM     42  F   UNL A   1      42.913  26.897  32.701  1.00  0.00    -0.206 F 
ATOM     43  C   UNL A   1      43.379  26.723  36.229  1.00  0.00     0.060 A 
BRANCH  43  44
ATOM     44  S   UNL A   1      44.390  25.786  37.387  1.00  0.00     0.124 S 
ATOM     45  O   UNL A   1      43.858  26.240  38.666  1.00  0.00    -0.237 OA
ATOM     46  O   UNL A   1      44.078  24.410  37.015  1.00  0.00    -0.237 OA
ATOM     47  O   UNL A   1      45.748  26.223  37.075  1.00  0.00    -0.744 OA
ENDBRANCH  43  44
ENDBRANCH  22  36
BRANCH  23  48
ATOM     48  C   UNL A   1      43.527  25.977  26.418  1.00  0.00     0.058 A 
ATOM     49  C   UNL A   1      44.564  25.788  25.486  1.00  0.00     0.135 A 
ATOM     50  C   UNL A   1      42.847  24.812  26.826  1.00  0.00     0.135 A 
ATOM     51  F   UNL A   1      45.283  26.838  25.056  1.00  0.00    -0.206 F 
ATOM     52  C   UNL A   1      44.933  24.518  25.022  1.00  0.00     0.059 A 
ATOM     53  C   UNL A   1      43.189  23.538  26.371  1.00  0.00     0.059 A 
ATOM     54  F   UNL A   1      41.881  24.863  27.756  1.00  0.00    -0.206 F 
ATOM     55  C   UNL A   1      44.250  23.395  25.487  1.00  0.00     0.060 A 
BRANCH  55  56
ATOM     56  S   UNL A   1      44.825  21.741  25.028  1.00  0.00     0.124 S 
ATOM     57  O   UNL A   1      44.747  21.786  23.573  1.00  0.00    -0.237 OA
ATOM     58  O   UNL A   1      46.170  21.712  25.594  1.00  0.00    -0.237 OA
ATOM     59  O   UNL A   1      43.861  20.854  25.676  1.00  0.00    -0.744 OA
ENDBRANCH  55  56
ENDBRANCH  23  48
BRANCH  35  60
ATOM     60  C   UNL A   1      44.956  31.555  29.136  1.00  0.00     0.058 A 
ATOM     61  C   UNL A   1      46.263  32.011  28.889  1.00  0.00     0.135 A 
ATOM     62  C   UNL A   1      43.945  32.019  28.280  1.00  0.00     0.135 A 
ATOM     63  F   UNL A   1      47.304  31.538  29.589  1.00  0.00    -0.206 F 
ATOM     64  C   UNL A   1      46.545  32.915  27.862  1.00  0.00     0.059 A 
ATOM     65  C   UNL A   1      44.208  32.895  27.231  1.00  0.00     0.059 A 
ATOM     66  F   UNL A   1      42.687  31.570  28.422  1.00  0.00    -0.206 F 
ATOM     67  C   UNL A   1      45.509  33.350  27.035  1.00  0.00     0.060 A 
BRANCH  67  68
ATOM     68  S   UNL A   1      45.884  34.457  25.659  1.00  0.00     0.124 S 
ATOM     69  O   UNL A   1      45.581  35.766  26.225  1.00  0.00    -0.237 OA
ATOM     70  O   UNL A   1      47.297  34.185  25.408  1.00  0.00    -0.237 OA
ATOM     71  O   UNL A   1      44.978  34.009  24.603  1.00  0.00    -0.744 OA
ENDBRANCH  67  68
ENDBRANCH  35  60
ENDBRANCH   9  10
ENDBRANCH   2   4
ENDBRANCH   1   2
BRANCH   1  72
ATOM     72  C   UNL A   1      33.161  33.657  27.971  1.00  0.00     0.275 C 
BRANCH  72  73
ATOM     73  C   UNL A   1      32.964  35.043  28.587  1.00  0.00     0.275 C 
BRANCH  73  74
ATOM     74  O   UNL A   1      32.599  34.931  29.973  1.00  0.00    -0.458 OA
BRANCH  74  75
ATOM     75  C   UNL A   1      33.114  35.863  30.824  1.00  0.00     0.348 C 
ATOM     76  O   UNL A   1      32.801  37.054  30.850  1.00  0.00    -0.245 OA
BRANCH  75  77
ATOM     77  C   UNL A   1      34.104  35.230  31.657  1.00  0.00     0.114 A 
ATOM     78  C   UNL A   1      34.906  34.158  31.327  1.00  0.00     0.047 A 
ATOM     79  S   UNL A   1      34.372  35.821  33.242  1.00  0.00    -0.127 S 
ATOM     80  C   UNL A   1      35.672  33.732  32.452  1.00  0.00     0.048 A 
ATOM     81  C   UNL A   1      35.425  34.474  33.577  1.00  0.00     0.047 A 
ATOM     82  S   UNL A   1      36.828  32.459  32.747  1.00  0.00    -0.122 S 
ATOM     83  C   UNL A   1      36.078  33.954  34.736  1.00  0.00     0.052 A 
ATOM     84  C   UNL A   1      36.845  32.873  34.388  1.00  0.00     0.095 A 
ATOM     85  Cl  UNL A   1      37.811  31.939  35.464  1.00  0.00    -0.072 Cl
ENDBRANCH  75  77
ENDBRANCH  74  75
ENDBRANCH  73  74
ENDBRANCH  72  73
ENDBRANCH   1  72
TORSDOF 14
ENDMDL
MODEL 2
REMARK VINA RESULT:     -11.7      2.863     11.558
REMARK SMILES O=C(OCCOC(=O)c1cc2sc(Cl)cc2s1)c1ccc(-c2c3nc(c(-c4c(F)cc(S(=O)(=O)[O-])cc4F)c4ccc([nH]4)c(-c4c(F)cc(S(=O)(=O)[O-])cc4F)c4nc(c(-c5c(F)cc(S(=O)(=O)[O-])cc5F)c5ccc2[nH]5)C=C4)C=C3)cc1
REMARK SMILES IDX 3 1 2 2 1 3 18 4 19 5 83 6 20 7 82 8 21 9 22 10 23 11 76 12
REMARK SMILES IDX 24 13 81 14 75 15 77 16 25 17 80 18 74 19 73 20 26 22 60 23
REMARK SMILES IDX 39 24 59 25 40 26 43 27 58 28 78 29 41 30 42 31 57 33 79 34
REMARK SMILES IDX 44 35 27 36 28 37 37 38 29 39 30 40 36 41 38 42 31 43 32 44
REMARK SMILES IDX 33 45 34 46 35 47 61 48 62 49 71 50 63 51 64 52 70 53 72 54
REMARK SMILES IDX 65 55 66 56 67 57 68 58 69 59 45 60 46 61 55 62 47 63 48 64
REMARK SMILES IDX 54 65 56 66 49 67 50 68 51 69 52 70 53 71 4 72 5 73 6 74
REMARK SMILES IDX 7 75 8 76 9 77 10 78 17 79 11 80 16 81 12 82 15 83 13 84
REMARK SMILES IDX 14 85
REMARK H PARENT 77 21 43 32
REMARK Flexibility Score: inf
ROOT
ATOM      1  O   UNL A   1      40.221  20.810  27.031  1.00  0.00    -0.458 OA
ENDROOT
BRANCH   1   2
ATOM      2  C   UNL A   1      39.555  21.869  26.526  1.00  0.00     0.338 C 
ATOM      3  O   UNL A   1      38.497  21.781  25.924  1.00  0.00    -0.246 OA
BRANCH   2   4
ATOM      4  C   UNL A   1      40.127  23.161  26.973  1.00  0.00     0.060 A 
ATOM      5  C   UNL A   1      41.233  23.239  27.825  1.00  0.00     0.016 A 
ATOM      6  C   UNL A   1      39.503  24.332  26.523  1.00  0.00     0.016 A 
ATOM      7  C   UNL A   1      41.651  24.470  28.303  1.00  0.00     0.010 A 
ATOM      8  C   UNL A   1      39.934  25.565  26.983  1.00  0.00     0.010 A 
ATOM      9  C   UNL A   1      40.964  25.624  27.921  1.00  0.00    -0.014 A 
BRANCH   9  10
ATOM     10  C   UNL A   1      41.388  26.896  28.493  1.00  0.00     0.031 A 
ATOM     11  C   UNL A   1      42.659  27.439  27.937  1.00  0.00     0.074 A 
ATOM     12  C   UNL A   1      40.620  27.579  29.368  1.00  0.00     0.049 A 
ATOM     13  N   UNL A   1      43.794  27.602  28.535  1.00  0.00    -0.248 NA
ATOM     14  C   UNL A   1      42.714  27.692  26.489  1.00  0.00     0.031 C 
ATOM     15  C   UNL A   1      39.244  27.287  29.780  1.00  0.00     0.029 A 
ATOM     16  N   UNL A   1      40.878  28.754  30.003  1.00  0.00    -0.354 N 
ATOM     17  C   UNL A   1      44.636  28.209  27.602  1.00  0.00     0.074 A 
ATOM     18  C   UNL A   1      43.987  28.056  26.327  1.00  0.00     0.031 C 
ATOM     19  C   UNL A   1      38.716  28.374  30.386  1.00  0.00     0.029 A 
ATOM     20  C   UNL A   1      39.756  29.376  30.539  1.00  0.00     0.049 A 
ATOM     21  H   UNL A   1      41.784  29.131  30.078  1.00  0.00     0.167 HD
ATOM     22  C   UNL A   1      45.673  29.005  27.994  1.00  0.00     0.037 A 
ATOM     23  C   UNL A   1      39.682  30.645  31.019  1.00  0.00     0.037 A 
ATOM     24  C   UNL A   1      46.011  28.764  29.376  1.00  0.00     0.049 A 
ATOM     25  C   UNL A   1      41.071  31.071  31.335  1.00  0.00     0.074 A 
ATOM     26  C   UNL A   1      46.423  27.661  30.102  1.00  0.00     0.029 A 
ATOM     27  N   UNL A   1      45.595  29.683  30.309  1.00  0.00    -0.354 N 
ATOM     28  N   UNL A   1      41.795  30.531  32.278  1.00  0.00    -0.248 NA
ATOM     29  C   UNL A   1      41.819  31.758  30.292  1.00  0.00     0.031 C 
ATOM     30  C   UNL A   1      45.762  27.783  31.360  1.00  0.00     0.029 A 
ATOM     31  C   UNL A   1      45.053  28.985  31.355  1.00  0.00     0.049 A 
ATOM     32  H   UNL A   1      45.673  30.662  30.238  1.00  0.00     0.167 HD
ATOM     33  C   UNL A   1      43.069  30.433  31.738  1.00  0.00     0.074 A 
ATOM     34  C   UNL A   1      43.039  31.275  30.542  1.00  0.00     0.031 C 
ATOM     35  C   UNL A   1      43.939  29.462  32.145  1.00  0.00     0.037 A 
BRANCH  22  36
ATOM     36  C   UNL A   1      46.102  30.277  27.281  1.00  0.00     0.058 A 
ATOM     37  C   UNL A   1      47.484  30.529  27.115  1.00  0.00     0.135 A 
ATOM     38  C   UNL A   1      45.259  31.386  27.047  1.00  0.00     0.135 A 
ATOM     39  F   UNL A   1      48.384  29.545  27.273  1.00  0.00    -0.206 F 
ATOM     40  C   UNL A   1      47.991  31.807  26.881  1.00  0.00     0.059 A 
ATOM     41  C   UNL A   1      45.743  32.659  26.764  1.00  0.00     0.059 A 
ATOM     42  F   UNL A   1      43.930  31.323  27.173  1.00  0.00    -0.206 F 
ATOM     43  C   UNL A   1      47.109  32.872  26.739  1.00  0.00     0.060 A 
BRANCH  43  44
ATOM     44  S   UNL A   1      47.758  34.545  26.591  1.00  0.00     0.124 S 
ATOM     45  O   UNL A   1      46.735  35.314  27.288  1.00  0.00    -0.237 OA
ATOM     46  O   UNL A   1      49.046  34.429  27.268  1.00  0.00    -0.237 OA
ATOM     47  O   UNL A   1      47.830  34.749  25.147  1.00  0.00    -0.744 OA
ENDBRANCH  43  44
ENDBRANCH  22  36
BRANCH  23  48
ATOM     48  C   UNL A   1      38.560  31.612  30.852  1.00  0.00     0.058 A 
ATOM     49  C   UNL A   1      37.929  31.800  29.608  1.00  0.00     0.135 A 
ATOM     50  C   UNL A   1      37.900  32.166  31.967  1.00  0.00     0.135 A 
ATOM     51  F   UNL A   1      38.473  31.288  28.493  1.00  0.00    -0.206 F 
ATOM     52  C   UNL A   1      36.697  32.457  29.485  1.00  0.00     0.059 A 
ATOM     53  C   UNL A   1      36.678  32.832  31.868  1.00  0.00     0.059 A 
ATOM     54  F   UNL A   1      38.376  31.996  33.210  1.00  0.00    -0.206 F 
ATOM     55  C   UNL A   1      36.069  32.953  30.626  1.00  0.00     0.060 A 
BRANCH  55  56
ATOM     56  S   UNL A   1      34.403  33.652  30.503  1.00  0.00     0.124 S 
ATOM     57  O   UNL A   1      33.926  33.541  31.876  1.00  0.00    -0.237 OA
ATOM     58  O   UNL A   1      34.670  35.005  30.028  1.00  0.00    -0.237 OA
ATOM     59  O   UNL A   1      33.739  32.777  29.540  1.00  0.00    -0.744 OA
ENDBRANCH  55  56
ENDBRANCH  23  48
BRANCH  35  60
ATOM     60  C   UNL A   1      43.609  28.671  33.384  1.00  0.00     0.058 A 
ATOM     61  C   UNL A   1      43.791  29.134  34.698  1.00  0.00     0.135 A 
ATOM     62  C   UNL A   1      42.921  27.458  33.224  1.00  0.00     0.135 A 
ATOM     63  F   UNL A   1      44.342  30.332  34.939  1.00  0.00    -0.206 F 
ATOM     64  C   UNL A   1      43.345  28.406  35.804  1.00  0.00     0.059 A 
ATOM     65  C   UNL A   1      42.439  26.732  34.308  1.00  0.00     0.059 A 
ATOM     66  F   UNL A   1      42.657  26.994  31.991  1.00  0.00    -0.206 F 
ATOM     67  C   UNL A   1      42.666  27.206  35.598  1.00  0.00     0.060 A 
BRANCH  67  68
ATOM     68  S   UNL A   1      42.019  26.303  37.021  1.00  0.00     0.124 S 
ATOM     69  O   UNL A   1      40.811  27.056  37.341  1.00  0.00    -0.237 OA
ATOM     70  O   UNL A   1      41.806  24.964  36.479  1.00  0.00    -0.237 OA
ATOM     71  O   UNL A   1      43.094  26.401  38.006  1.00  0.00    -0.744 OA
ENDBRANCH  67  68
ENDBRANCH  35  60
ENDBRANCH   9  10
ENDBRANCH   2   4
ENDBRANCH   1   2
BRANCH   1  72
ATOM     72  C   UNL A   1      40.525  19.696  26.170  1.00  0.00     0.275 C 
BRANCH  72  73
ATOM     73  C   UNL A   1      41.924  19.089  26.275  1.00  0.00     0.275 C 
BRANCH  73  74
ATOM     74  O   UNL A   1      42.664  19.315  25.063  1.00  0.00    -0.458 OA
BRANCH  74  75
ATOM     75  C   UNL A   1      44.021  19.208  25.138  1.00  0.00     0.348 C 
ATOM     76  O   UNL A   1      44.652  18.151  25.162  1.00  0.00    -0.245 OA
BRANCH  75  77
ATOM     77  C   UNL A   1      44.583  20.532  25.221  1.00  0.00     0.114 A 
ATOM     78  C   UNL A   1      43.966  21.669  25.699  1.00  0.00     0.047 A 
ATOM     79  S   UNL A   1      46.190  20.797  24.693  1.00  0.00    -0.127 S 
ATOM     80  C   UNL A   1      44.795  22.814  25.506  1.00  0.00     0.048 A 
ATOM     81  C   UNL A   1      45.984  22.515  24.895  1.00  0.00     0.047 A 
ATOM     82  S   UNL A   1      44.635  24.521  25.833  1.00  0.00    -0.122 S 
ATOM     83  C   UNL A   1      46.745  23.679  24.569  1.00  0.00     0.052 A 
ATOM     84  C   UNL A   1      46.098  24.797  25.026  1.00  0.00     0.095 A 
ATOM     85  Cl  UNL A   1      46.655  26.418  24.861  1.00  0.00    -0.072 Cl
ENDBRANCH  75  77
ENDBRANCH  74  75
ENDBRANCH  73  74
ENDBRANCH  72  73
ENDBRANCH   1  72
TORSDOF 14
ENDMDL
MODEL 3
REMARK VINA RESULT:     -11.6      2.658     11.495
REMARK SMILES O=C(OCCOC(=O)c1cc2sc(Cl)cc2s1)c1ccc(-c2c3nc(c(-c4c(F)cc(S(=O)(=O)[O-])cc4F)c4ccc([nH]4)c(-c4c(F)cc(S(=O)(=O)[O-])cc4F)c4nc(c(-c5c(F)cc(S(=O)(=O)[O-])cc5F)c5ccc2[nH]5)C=C4)C=C3)cc1
REMARK SMILES IDX 3 1 2 2 1 3 18 4 19 5 83 6 20 7 82 8 21 9 22 10 23 11 76 12
REMARK SMILES IDX 24 13 81 14 75 15 77 16 25 17 80 18 74 19 73 20 26 22 60 23
REMARK SMILES IDX 39 24 59 25 40 26 43 27 58 28 78 29 41 30 42 31 57 33 79 34
REMARK SMILES IDX 44 35 27 36 28 37 37 38 29 39 30 40 36 41 38 42 31 43 32 44
REMARK SMILES IDX 33 45 34 46 35 47 61 48 62 49 71 50 63 51 64 52 70 53 72 54
REMARK SMILES IDX 65 55 66 56 67 57 68 58 69 59 45 60 46 61 55 62 47 63 48 64
REMARK SMILES IDX 54 65 56 66 49 67 50 68 51 69 52 70 53 71 4 72 5 73 6 74
REMARK SMILES IDX 7 75 8 76 9 77 10 78 17 79 11 80 16 81 12 82 15 83 13 84
REMARK SMILES IDX 14 85
REMARK H PARENT 77 21 43 32
REMARK Flexibility Score: inf
ROOT
ATOM      1  O   UNL A   1      40.557  21.221  27.215  1.00  0.00    -0.458 OA
ENDROOT
BRANCH   1   2
ATOM      2  C   UNL A   1      39.806  22.203  26.674  1.00  0.00     0.338 C 
ATOM      3  O   UNL A   1      38.813  22.001  25.994  1.00  0.00    -0.246 OA
BRANCH   2   4
ATOM      4  C   UNL A   1      40.184  23.544  27.177  1.00  0.00     0.060 A 
ATOM      5  C   UNL A   1      41.403  23.791  27.818  1.00  0.00     0.016 A 
ATOM      6  C   UNL A   1      39.258  24.581  27.006  1.00  0.00     0.016 A 
ATOM      7  C   UNL A   1      41.651  25.037  28.372  1.00  0.00     0.010 A 
ATOM      8  C   UNL A   1      39.514  25.833  27.540  1.00  0.00     0.010 A 
ATOM      9  C   UNL A   1      40.682  26.036  28.276  1.00  0.00    -0.014 A 
BRANCH   9  10
ATOM     10  C   UNL A   1      40.947  27.314  28.926  1.00  0.00     0.031 A 
ATOM     11  C   UNL A   1      42.054  28.106  28.319  1.00  0.00     0.074 A 
ATOM     12  C   UNL A   1      40.167  27.789  29.919  1.00  0.00     0.049 A 
ATOM     13  N   UNL A   1      43.200  28.412  28.835  1.00  0.00    -0.248 NA
ATOM     14  C   UNL A   1      41.929  28.474  26.900  1.00  0.00     0.031 C 
ATOM     15  C   UNL A   1      38.902  27.237  30.415  1.00  0.00     0.029 A 
ATOM     16  N   UNL A   1      40.291  28.938  30.636  1.00  0.00    -0.354 N 
ATOM     17  C   UNL A   1      43.840  29.222  27.895  1.00  0.00     0.074 A 
ATOM     18  C   UNL A   1      43.104  29.061  26.669  1.00  0.00     0.031 C 
ATOM     19  C   UNL A   1      38.266  28.169  31.158  1.00  0.00     0.029 A 
ATOM     20  C   UNL A   1      39.139  29.318  31.317  1.00  0.00     0.049 A 
ATOM     21  H   UNL A   1      41.127  29.456  30.671  1.00  0.00     0.167 HD
ATOM     22  C   UNL A   1      44.766  30.150  28.272  1.00  0.00     0.037 A 
ATOM     23  C   UNL A   1      38.908  30.516  31.915  1.00  0.00     0.037 A 
ATOM     24  C   UNL A   1      45.271  29.864  29.594  1.00  0.00     0.049 A 
ATOM     25  C   UNL A   1      40.234  31.145  32.154  1.00  0.00     0.074 A 
ATOM     26  C   UNL A   1      45.923  28.795  30.179  1.00  0.00     0.029 A 
ATOM     27  N   UNL A   1      44.803  30.626  30.638  1.00  0.00    -0.354 N 
ATOM     28  N   UNL A   1      41.123  30.664  32.981  1.00  0.00    -0.248 NA
ATOM     29  C   UNL A   1      40.758  32.027  31.121  1.00  0.00     0.031 C 
ATOM     30  C   UNL A   1      45.375  28.707  31.493  1.00  0.00     0.029 A 
ATOM     31  C   UNL A   1      44.484  29.767  31.656  1.00  0.00     0.049 A 
ATOM     32  H   UNL A   1      44.714  31.606  30.651  1.00  0.00     0.167 HD
ATOM     33  C   UNL A   1      42.338  30.826  32.332  1.00  0.00     0.074 A 
ATOM     34  C   UNL A   1      42.058  31.739  31.225  1.00  0.00     0.031 C 
ATOM     35  C   UNL A   1      43.389  29.987  32.576  1.00  0.00     0.037 A 
BRANCH  22  36
ATOM     36  C   UNL A   1      44.914  31.527  27.645  1.00  0.00     0.058 A 
ATOM     37  C   UNL A   1      46.147  31.871  27.045  1.00  0.00     0.135 A 
ATOM     38  C   UNL A   1      44.041  32.611  27.885  1.00  0.00     0.135 A 
ATOM     39  F   UNL A   1      47.046  30.923  26.734  1.00  0.00    -0.206 F 
ATOM     40  C   UNL A   1      46.537  33.194  26.836  1.00  0.00     0.059 A 
ATOM     41  C   UNL A   1      44.392  33.935  27.637  1.00  0.00     0.059 A 
ATOM     42  F   UNL A   1      42.843  32.463  28.457  1.00  0.00    -0.206 F 
ATOM     43  C   UNL A   1      45.661  34.221  27.167  1.00  0.00     0.060 A 
BRANCH  43  44
ATOM     44  S   UNL A   1      46.214  35.930  27.044  1.00  0.00     0.124 S 
ATOM     45  O   UNL A   1      47.071  36.040  28.218  1.00  0.00    -0.237 OA
ATOM     46  O   UNL A   1      46.892  35.935  25.752  1.00  0.00    -0.237 OA
ATOM     47  O   UNL A   1      44.969  36.689  27.096  1.00  0.00    -0.744 OA
ENDBRANCH  43  44
ENDBRANCH  22  36
BRANCH  23  48
ATOM     48  C   UNL A   1      37.633  31.289  31.930  1.00  0.00     0.058 A 
ATOM     49  C   UNL A   1      37.013  31.661  33.137  1.00  0.00     0.135 A 
ATOM     50  C   UNL A   1      37.145  31.917  30.767  1.00  0.00     0.135 A 
ATOM     51  F   UNL A   1      37.427  31.131  34.299  1.00  0.00    -0.206 F 
ATOM     52  C   UNL A   1      36.002  32.630  33.191  1.00  0.00     0.059 A 
ATOM     53  C   UNL A   1      36.134  32.878  30.795  1.00  0.00     0.059 A 
ATOM     54  F   UNL A   1      37.702  31.686  29.568  1.00  0.00    -0.206 F 
ATOM     55  C   UNL A   1      35.582  33.249  32.014  1.00  0.00     0.060 A 
BRANCH  55  56
ATOM     56  S   UNL A   1      34.402  34.618  32.091  1.00  0.00     0.124 S 
ATOM     57  O   UNL A   1      33.286  34.016  32.811  1.00  0.00    -0.237 OA
ATOM     58  O   UNL A   1      35.154  35.636  32.817  1.00  0.00    -0.237 OA
ATOM     59  O   UNL A   1      34.144  34.924  30.686  1.00  0.00    -0.744 OA
ENDBRANCH  55  56
ENDBRANCH  23  48
BRANCH  35  60
ATOM     60  C   UNL A   1      43.311  29.059  33.760  1.00  0.00     0.058 A 
ATOM     61  C   UNL A   1      43.631  29.421  35.080  1.00  0.00     0.135 A 
ATOM     62  C   UNL A   1      42.725  27.799  33.568  1.00  0.00     0.135 A 
ATOM     63  F   UNL A   1      44.095  30.646  35.367  1.00  0.00    -0.206 F 
ATOM     64  C   UNL A   1      43.415  28.555  36.154  1.00  0.00     0.059 A 
ATOM     65  C   UNL A   1      42.471  26.932  34.626  1.00  0.00     0.059 A 
ATOM     66  F   UNL A   1      42.335  27.420  32.339  1.00  0.00    -0.206 F 
ATOM     67  C   UNL A   1      42.830  27.311  35.916  1.00  0.00     0.060 A 
BRANCH  67  68
ATOM     68  S   UNL A   1      42.476  26.222  37.313  1.00  0.00     0.124 S 
ATOM     69  O   UNL A   1      42.770  24.906  36.758  1.00  0.00    -0.237 OA
ATOM     70  O   UNL A   1      43.403  26.703  38.334  1.00  0.00    -0.237 OA
ATOM     71  O   UNL A   1      41.066  26.478  37.597  1.00  0.00    -0.744 OA
ENDBRANCH  67  68
ENDBRANCH  35  60
ENDBRANCH   9  10
ENDBRANCH   2   4
ENDBRANCH   1   2
BRANCH   1  72
ATOM     72  C   UNL A   1      40.662  19.959  26.529  1.00  0.00     0.275 C 
BRANCH  72  73
ATOM     73  C   UNL A   1      42.031  19.579  25.965  1.00  0.00     0.275 C 
BRANCH  73  74
ATOM     74  O   UNL A   1      42.675  20.728  25.389  1.00  0.00    -0.458 OA
BRANCH  74  75
ATOM     75  C   UNL A   1      44.038  20.710  25.336  1.00  0.00     0.348 C 
ATOM     76  O   UNL A   1      44.739  19.699  25.378  1.00  0.00    -0.245 OA
BRANCH  75  77
ATOM     77  C   UNL A   1      44.513  22.068  25.257  1.00  0.00     0.114 A 
ATOM     78  C   UNL A   1      45.814  22.503  25.396  1.00  0.00     0.047 A 
ATOM     79  S   UNL A   1      43.398  23.332  24.956  1.00  0.00    -0.127 S 
ATOM     80  C   UNL A   1      45.877  23.927  25.380  1.00  0.00     0.048 A 
ATOM     81  C   UNL A   1      44.647  24.514  25.241  1.00  0.00     0.047 A 
ATOM     82  S   UNL A   1      47.153  25.107  25.535  1.00  0.00    -0.122 S 
ATOM     83  C   UNL A   1      44.694  25.935  25.376  1.00  0.00     0.052 A 
ATOM     84  C   UNL A   1      45.993  26.340  25.542  1.00  0.00     0.095 A 
ATOM     85  Cl  UNL A   1      46.520  27.967  25.736  1.00  0.00    -0.072 Cl
ENDBRANCH  75  77
ENDBRANCH  74  75
ENDBRANCH  73  74
ENDBRANCH  72  73
ENDBRANCH   1  72
TORSDOF 14
ENDMDL
