MODEL 1
REMARK VINA RESULT:     -11.8      0.000      0.000
REMARK SMILES O=C(OCCOC(=O)c1ccccc1Sc1ccc(S(=O)(=O)N2CCCC2)cc1[N+](=O)[O-])c1ccc(-c2c3nc(c(-c4c(F)cc(S(=O)(=O)[O-])cc4F)c4ccc([nH]4)c(-c4c(F)cc(S(=O)(=O)[O-])cc4F)c4nc(c(-c5c(F)cc(S(=O)(=O)[O-])cc5F)c5ccc2[nH]5)C=C4)C=C3)cc1
REMARK SMILES IDX 5 1 4 2 3 3 2 4 1 5 33 6 34 7 98 8 35 9 97 10 36 11 37 12
REMARK SMILES IDX 38 13 91 14 39 15 96 16 90 17 92 18 40 19 95 20 89 21 88 22
REMARK SMILES IDX 41 24 75 25 54 26 74 27 55 28 58 29 73 30 93 31 56 32 57 33
REMARK SMILES IDX 72 35 94 36 59 37 42 38 43 39 52 40 44 41 45 42 51 43 53 44
REMARK SMILES IDX 46 45 47 46 48 47 49 48 50 49 76 50 77 51 86 52 78 53 79 54
REMARK SMILES IDX 85 55 87 56 80 57 81 58 82 59 83 60 84 61 60 62 61 63 70 64
REMARK SMILES IDX 62 65 63 66 69 67 71 68 64 69 65 70 66 71 67 72 68 73 6 74
REMARK SMILES IDX 7 75 8 76 9 77 10 78 14 79 11 80 13 81 12 82 15 83 16 84
REMARK SMILES IDX 17 85 29 86 18 87 28 88 19 89 30 90 31 91 32 92 20 93 21 94
REMARK SMILES IDX 22 95 23 96 24 97 27 98 25 99 26 100
REMARK H PARENT 92 23 58 34
REMARK Flexibility Score: inf
ROOT
ATOM      1  C   UNL A   1      33.509  30.304  26.876  1.00  0.00     0.275 C 
ENDROOT
BRANCH   1   2
ATOM      2  C   UNL A   1      34.647  29.613  27.621  1.00  0.00     0.275 C 
BRANCH   2   3
ATOM      3  O   UNL A   1      35.314  30.486  28.536  1.00  0.00    -0.458 OA
BRANCH   3   4
ATOM      4  C   UNL A   1      36.320  30.202  29.393  1.00  0.00     0.338 C 
ATOM      5  O   UNL A   1      36.060  30.229  30.597  1.00  0.00    -0.246 OA
BRANCH   4   6
ATOM      6  C   UNL A   1      37.730  29.867  28.984  1.00  0.00     0.060 A 
ATOM      7  C   UNL A   1      38.205  29.680  27.680  1.00  0.00     0.016 A 
ATOM      8  C   UNL A   1      38.664  29.773  30.033  1.00  0.00     0.016 A 
ATOM      9  C   UNL A   1      39.554  29.475  27.418  1.00  0.00     0.010 A 
ATOM     10  C   UNL A   1      40.016  29.531  29.786  1.00  0.00     0.010 A 
ATOM     11  C   UNL A   1      40.457  29.377  28.471  1.00  0.00    -0.014 A 
BRANCH  11  12
ATOM     12  C   UNL A   1      41.816  28.907  28.164  1.00  0.00     0.031 A 
ATOM     13  C   UNL A   1      42.911  29.917  28.217  1.00  0.00     0.074 A 
ATOM     14  C   UNL A   1      42.062  27.600  27.984  1.00  0.00     0.049 A 
ATOM     15  N   UNL A   1      44.184  29.748  28.019  1.00  0.00    -0.248 NA
ATOM     16  C   UNL A   1      42.525  31.290  28.589  1.00  0.00     0.031 C 
ATOM     17  C   UNL A   1      41.047  26.562  28.082  1.00  0.00     0.029 A 
ATOM     18  N   UNL A   1      43.206  26.907  27.708  1.00  0.00    -0.354 N 
ATOM     19  C   UNL A   1      44.758  30.985  28.259  1.00  0.00     0.074 A 
ATOM     20  C   UNL A   1      43.697  31.904  28.600  1.00  0.00     0.031 C 
ATOM     21  C   UNL A   1      41.592  25.362  27.834  1.00  0.00     0.029 A 
ATOM     22  C   UNL A   1      43.004  25.555  27.536  1.00  0.00     0.049 A 
ATOM     23  H   UNL A   1      44.091  27.333  27.638  1.00  0.00     0.167 HD
ATOM     24  C   UNL A   1      46.066  31.310  28.195  1.00  0.00     0.037 A 
ATOM     25  C   UNL A   1      43.867  24.596  27.157  1.00  0.00     0.037 A 
ATOM     26  C   UNL A   1      47.079  30.376  27.790  1.00  0.00     0.049 A 
ATOM     27  C   UNL A   1      45.294  25.021  26.941  1.00  0.00     0.074 A 
ATOM     28  C   UNL A   1      48.422  30.600  27.565  1.00  0.00     0.029 A 
ATOM     29  N   UNL A   1      46.843  29.029  27.535  1.00  0.00    -0.354 N 
ATOM     30  N   UNL A   1      45.825  26.212  27.111  1.00  0.00    -0.248 NA
ATOM     31  C   UNL A   1      46.239  23.996  26.490  1.00  0.00     0.031 C 
ATOM     32  C   UNL A   1      48.989  29.397  27.132  1.00  0.00     0.029 A 
ATOM     33  C   UNL A   1      48.011  28.411  27.135  1.00  0.00     0.049 A 
ATOM     34  H   UNL A   1      45.970  28.582  27.624  1.00  0.00     0.167 HD
ATOM     35  C   UNL A   1      47.171  26.077  26.806  1.00  0.00     0.074 A 
ATOM     36  C   UNL A   1      47.375  24.681  26.463  1.00  0.00     0.031 C 
ATOM     37  C   UNL A   1      48.151  27.014  26.802  1.00  0.00     0.037 A 
BRANCH  24  38
ATOM     38  C   UNL A   1      46.420  32.733  28.495  1.00  0.00     0.058 A 
ATOM     39  C   UNL A   1      46.730  33.156  29.798  1.00  0.00     0.135 A 
ATOM     40  C   UNL A   1      46.390  33.699  27.479  1.00  0.00     0.135 A 
ATOM     41  F   UNL A   1      46.719  32.279  30.815  1.00  0.00    -0.206 F 
ATOM     42  C   UNL A   1      46.988  34.492  30.084  1.00  0.00     0.059 A 
ATOM     43  C   UNL A   1      46.666  35.038  27.739  1.00  0.00     0.059 A 
ATOM     44  F   UNL A   1      46.065  33.350  26.224  1.00  0.00    -0.206 F 
ATOM     45  C   UNL A   1      46.954  35.425  29.047  1.00  0.00     0.060 A 
BRANCH  45  46
ATOM     46  S   UNL A   1      47.293  37.156  29.432  1.00  0.00     0.124 S 
ATOM     47  O   UNL A   1      45.985  37.614  29.890  1.00  0.00    -0.237 OA
ATOM     48  O   UNL A   1      48.323  37.048  30.460  1.00  0.00    -0.237 OA
ATOM     49  O   UNL A   1      47.739  37.706  28.156  1.00  0.00    -0.744 OA
ENDBRANCH  45  46
ENDBRANCH  24  38
BRANCH  25  50
ATOM     50  C   UNL A   1      43.416  23.196  26.916  1.00  0.00     0.058 A 
ATOM     51  C   UNL A   1      43.038  22.349  27.968  1.00  0.00     0.135 A 
ATOM     52  C   UNL A   1      43.386  22.659  25.616  1.00  0.00     0.135 A 
ATOM     53  F   UNL A   1      43.042  22.807  29.230  1.00  0.00    -0.206 F 
ATOM     54  C   UNL A   1      42.691  21.017  27.751  1.00  0.00     0.059 A 
ATOM     55  C   UNL A   1      43.015  21.340  25.370  1.00  0.00     0.059 A 
ATOM     56  F   UNL A   1      43.717  23.424  24.564  1.00  0.00    -0.206 F 
ATOM     57  C   UNL A   1      42.691  20.519  26.447  1.00  0.00     0.060 A 
BRANCH  57  58
ATOM     58  S   UNL A   1      42.259  18.785  26.176  1.00  0.00     0.124 S 
ATOM     59  O   UNL A   1      42.532  18.207  27.487  1.00  0.00    -0.237 OA
ATOM     60  O   UNL A   1      40.852  18.873  25.797  1.00  0.00    -0.237 OA
ATOM     61  O   UNL A   1      43.166  18.378  25.106  1.00  0.00    -0.744 OA
ENDBRANCH  57  58
ENDBRANCH  25  50
BRANCH  37  62
ATOM     62  C   UNL A   1      49.522  26.536  26.431  1.00  0.00     0.058 A 
ATOM     63  C   UNL A   1      50.022  26.686  25.129  1.00  0.00     0.135 A 
ATOM     64  C   UNL A   1      50.352  25.956  27.401  1.00  0.00     0.135 A 
ATOM     65  F   UNL A   1      49.256  27.230  24.169  1.00  0.00    -0.206 F 
ATOM     66  C   UNL A   1      51.293  26.247  24.792  1.00  0.00     0.059 A 
ATOM     67  C   UNL A   1      51.640  25.537  27.094  1.00  0.00     0.059 A 
ATOM     68  F   UNL A   1      49.917  25.803  28.662  1.00  0.00    -0.206 F 
ATOM     69  C   UNL A   1      52.095  25.674  25.782  1.00  0.00     0.060 A 
BRANCH  69  70
ATOM     70  S   UNL A   1      53.756  25.129  25.339  1.00  0.00     0.124 S 
ATOM     71  O   UNL A   1      53.602  23.678  25.363  1.00  0.00    -0.237 OA
ATOM     72  O   UNL A   1      53.940  25.728  24.021  1.00  0.00    -0.237 OA
ATOM     73  O   UNL A   1      54.588  25.691  26.399  1.00  0.00    -0.744 OA
ENDBRANCH  69  70
ENDBRANCH  37  62
ENDBRANCH  11  12
ENDBRANCH   4   6
ENDBRANCH   3   4
ENDBRANCH   2   3
ENDBRANCH   1   2
BRANCH   1  74
ATOM     74  O   UNL A   1      32.539  29.408  26.328  1.00  0.00    -0.458 OA
BRANCH  74  75
ATOM     75  C   UNL A   1      32.724  29.060  25.031  1.00  0.00     0.339 C 
ATOM     76  O   UNL A   1      33.730  29.202  24.374  1.00  0.00    -0.246 OA
BRANCH  75  77
ATOM     77  C   UNL A   1      31.530  28.353  24.553  1.00  0.00     0.074 A 
ATOM     78  C   UNL A   1      30.911  28.959  23.439  1.00  0.00     0.017 A 
ATOM     79  C   UNL A   1      30.987  27.205  25.147  1.00  0.00     0.027 A 
ATOM     80  C   UNL A   1      29.764  28.410  22.873  1.00  0.00     0.001 A 
ATOM     81  C   UNL A   1      29.790  26.711  24.581  1.00  0.00     0.016 A 
ATOM     82  C   UNL A   1      29.200  27.282  23.448  1.00  0.00     0.001 A 
BRANCH  79  83
ATOM     83  S   UNL A   1      31.577  26.186  26.500  1.00  0.00    -0.082 SA
BRANCH  83  84
ATOM     84  C   UNL A   1      32.719  24.978  25.892  1.00  0.00     0.090 A 
ATOM     85  C   UNL A   1      33.552  25.356  24.819  1.00  0.00     0.024 A 
ATOM     86  C   UNL A   1      32.823  23.661  26.357  1.00  0.00     0.284 A 
ATOM     87  C   UNL A   1      34.552  24.496  24.333  1.00  0.00     0.023 A 
ATOM     88  C   UNL A   1      33.816  22.794  25.866  1.00  0.00     0.108 A 
ATOM     89  C   UNL A   1      34.727  23.234  24.912  1.00  0.00     0.089 A 
BRANCH  86  90
ATOM     90  N   UNL A   1      31.941  23.120  27.396  1.00  0.00     0.063 N 
ATOM     91  O   UNL A   1      32.486  22.548  28.353  1.00  0.00    -0.258 OA
ATOM     92  O   UNL A   1      30.719  23.184  27.226  1.00  0.00    -0.258 OA
ENDBRANCH  86  90
BRANCH  89  93
ATOM     93  S   UNL A   1      36.158  22.244  24.479  1.00  0.00     0.243 S 
ATOM     94  O   UNL A   1      35.723  20.867  24.531  1.00  0.00    -0.207 OA
ATOM     95  O   UNL A   1      36.697  22.831  23.267  1.00  0.00    -0.207 OA
BRANCH  93  96
ATOM     96  N   UNL A   1      37.315  22.472  25.668  1.00  0.00    -0.198 NA
ATOM     97  C   UNL A   1      37.468  23.693  26.456  1.00  0.00     0.102 C 
ATOM     98  C   UNL A   1      38.540  21.674  25.790  1.00  0.00     0.102 C 
ATOM     99  C   UNL A   1      38.945  24.018  26.289  1.00  0.00     0.018 C 
ATOM    100  C   UNL A   1      39.621  22.654  26.257  1.00  0.00     0.018 C 
ENDBRANCH  93  96
ENDBRANCH  89  93
ENDBRANCH  83  84
ENDBRANCH  79  83
ENDBRANCH  75  77
ENDBRANCH  74  75
ENDBRANCH   1  74
TORSDOF 19
ENDMDL
MODEL 2
REMARK VINA RESULT:     -11.5      0.523      8.049
REMARK SMILES O=C(OCCOC(=O)c1ccccc1Sc1ccc(S(=O)(=O)N2CCCC2)cc1[N+](=O)[O-])c1ccc(-c2c3nc(c(-c4c(F)cc(S(=O)(=O)[O-])cc4F)c4ccc([nH]4)c(-c4c(F)cc(S(=O)(=O)[O-])cc4F)c4nc(c(-c5c(F)cc(S(=O)(=O)[O-])cc5F)c5ccc2[nH]5)C=C4)C=C3)cc1
REMARK SMILES IDX 5 1 4 2 3 3 2 4 1 5 33 6 34 7 98 8 35 9 97 10 36 11 37 12
REMARK SMILES IDX 38 13 91 14 39 15 96 16 90 17 92 18 40 19 95 20 89 21 88 22
REMARK SMILES IDX 41 24 75 25 54 26 74 27 55 28 58 29 73 30 93 31 56 32 57 33
REMARK SMILES IDX 72 35 94 36 59 37 42 38 43 39 52 40 44 41 45 42 51 43 53 44
REMARK SMILES IDX 46 45 47 46 48 47 49 48 50 49 76 50 77 51 86 52 78 53 79 54
REMARK SMILES IDX 85 55 87 56 80 57 81 58 82 59 83 60 84 61 60 62 61 63 70 64
REMARK SMILES IDX 62 65 63 66 69 67 71 68 64 69 65 70 66 71 67 72 68 73 6 74
REMARK SMILES IDX 7 75 8 76 9 77 10 78 14 79 11 80 13 81 12 82 15 83 16 84
REMARK SMILES IDX 17 85 29 86 18 87 28 88 19 89 30 90 31 91 32 92 20 93 21 94
REMARK SMILES IDX 22 95 23 96 24 97 27 98 25 99 26 100
REMARK H PARENT 92 23 58 34
REMARK Flexibility Score: inf
ROOT
ATOM      1  C   UNL A   1      33.673  30.166  26.890  1.00  0.00     0.275 C 
ENDROOT
BRANCH   1   2
ATOM      2  C   UNL A   1      34.700  29.315  27.631  1.00  0.00     0.275 C 
BRANCH   2   3
ATOM      3  O   UNL A   1      35.505  30.083  28.529  1.00  0.00    -0.458 OA
BRANCH   3   4
ATOM      4  C   UNL A   1      36.458  29.653  29.386  1.00  0.00     0.338 C 
ATOM      5  O   UNL A   1      36.107  29.401  30.540  1.00  0.00    -0.246 OA
BRANCH   4   6
ATOM      6  C   UNL A   1      37.911  29.473  29.037  1.00  0.00     0.060 A 
ATOM      7  C   UNL A   1      38.462  29.386  27.753  1.00  0.00     0.016 A 
ATOM      8  C   UNL A   1      38.801  29.429  30.128  1.00  0.00     0.016 A 
ATOM      9  C   UNL A   1      39.836  29.323  27.552  1.00  0.00     0.010 A 
ATOM     10  C   UNL A   1      40.180  29.330  29.940  1.00  0.00     0.010 A 
ATOM     11  C   UNL A   1      40.694  29.271  28.645  1.00  0.00    -0.014 A 
BRANCH  11  12
ATOM     12  C   UNL A   1      42.106  28.948  28.390  1.00  0.00     0.031 A 
ATOM     13  C   UNL A   1      42.430  27.528  28.076  1.00  0.00     0.074 A 
ATOM     14  C   UNL A   1      43.026  29.923  28.308  1.00  0.00     0.049 A 
ATOM     15  N   UNL A   1      43.584  27.001  27.787  1.00  0.00    -0.248 NA
ATOM     16  C   UNL A   1      41.298  26.585  28.038  1.00  0.00     0.031 C 
ATOM     17  C   UNL A   1      42.722  31.339  28.450  1.00  0.00     0.029 A 
ATOM     18  N   UNL A   1      44.371  29.903  28.073  1.00  0.00    -0.354 N 
ATOM     19  C   UNL A   1      43.317  25.670  27.513  1.00  0.00     0.074 A 
ATOM     20  C   UNL A   1      41.899  25.460  27.686  1.00  0.00     0.031 C 
ATOM     21  C   UNL A   1      43.846  32.062  28.339  1.00  0.00     0.029 A 
ATOM     22  C   UNL A   1      44.959  31.147  28.137  1.00  0.00     0.049 A 
ATOM     23  H   UNL A   1      44.872  29.079  27.876  1.00  0.00     0.167 HD
ATOM     24  C   UNL A   1      44.198  24.715  27.148  1.00  0.00     0.037 A 
ATOM     25  C   UNL A   1      46.258  31.490  28.065  1.00  0.00     0.037 A 
ATOM     26  C   UNL A   1      45.609  24.958  27.049  1.00  0.00     0.049 A 
ATOM     27  C   UNL A   1      47.236  30.376  27.811  1.00  0.00     0.074 A 
ATOM     28  C   UNL A   1      46.628  24.058  26.809  1.00  0.00     0.029 A 
ATOM     29  N   UNL A   1      46.200  26.208  27.204  1.00  0.00    -0.354 N 
ATOM     30  N   UNL A   1      46.986  29.101  27.611  1.00  0.00    -0.248 NA
ATOM     31  C   UNL A   1      48.658  30.728  27.767  1.00  0.00     0.031 C 
ATOM     32  C   UNL A   1      47.838  24.757  26.861  1.00  0.00     0.029 A 
ATOM     33  C   UNL A   1      47.572  26.101  27.083  1.00  0.00     0.049 A 
ATOM     34  H   UNL A   1      45.712  27.046  27.375  1.00  0.00     0.167 HD
ATOM     35  C   UNL A   1      48.217  28.499  27.399  1.00  0.00     0.074 A 
ATOM     36  C   UNL A   1      49.208  29.557  27.474  1.00  0.00     0.031 C 
ATOM     37  C   UNL A   1      48.510  27.195  27.170  1.00  0.00     0.037 A 
BRANCH  24  38
ATOM     38  C   UNL A   1      43.644  23.343  26.919  1.00  0.00     0.058 A 
ATOM     39  C   UNL A   1      43.265  22.515  27.988  1.00  0.00     0.135 A 
ATOM     40  C   UNL A   1      43.548  22.826  25.619  1.00  0.00     0.135 A 
ATOM     41  F   UNL A   1      43.389  22.945  29.255  1.00  0.00    -0.206 F 
ATOM     42  C   UNL A   1      42.818  21.216  27.775  1.00  0.00     0.059 A 
ATOM     43  C   UNL A   1      43.084  21.536  25.381  1.00  0.00     0.059 A 
ATOM     44  F   UNL A   1      43.932  23.566  24.568  1.00  0.00    -0.206 F 
ATOM     45  C   UNL A   1      42.731  20.736  26.468  1.00  0.00     0.060 A 
BRANCH  45  46
ATOM     46  S   UNL A   1      42.148  19.048  26.206  1.00  0.00     0.124 S 
ATOM     47  O   UNL A   1      42.262  18.488  27.549  1.00  0.00    -0.237 OA
ATOM     48  O   UNL A   1      40.789  19.262  25.721  1.00  0.00    -0.237 OA
ATOM     49  O   UNL A   1      43.085  18.514  25.222  1.00  0.00    -0.744 OA
ENDBRANCH  45  46
ENDBRANCH  24  38
BRANCH  25  50
ATOM     50  C   UNL A   1      46.702  32.898  28.276  1.00  0.00     0.058 A 
ATOM     51  C   UNL A   1      47.031  33.386  29.549  1.00  0.00     0.135 A 
ATOM     52  C   UNL A   1      46.773  33.803  27.202  1.00  0.00     0.135 A 
ATOM     53  F   UNL A   1      46.987  32.568  30.612  1.00  0.00    -0.206 F 
ATOM     54  C   UNL A   1      47.371  34.721  29.759  1.00  0.00     0.059 A 
ATOM     55  C   UNL A   1      47.137  35.134  27.381  1.00  0.00     0.059 A 
ATOM     56  F   UNL A   1      46.489  33.393  25.956  1.00  0.00    -0.206 F 
ATOM     57  C   UNL A   1      47.413  35.591  28.668  1.00  0.00     0.060 A 
BRANCH  57  58
ATOM     58  S   UNL A   1      47.834  37.325  28.951  1.00  0.00     0.124 S 
ATOM     59  O   UNL A   1      48.779  37.577  27.870  1.00  0.00    -0.237 OA
ATOM     60  O   UNL A   1      46.535  37.981  28.830  1.00  0.00    -0.237 OA
ATOM     61  O   UNL A   1      48.401  37.317  30.296  1.00  0.00    -0.744 OA
ENDBRANCH  57  58
ENDBRANCH  25  50
BRANCH  37  62
ATOM     62  C   UNL A   1      49.958  26.867  26.969  1.00  0.00     0.058 A 
ATOM     63  C   UNL A   1      50.802  26.583  28.053  1.00  0.00     0.135 A 
ATOM     64  C   UNL A   1      50.492  26.803  25.673  1.00  0.00     0.135 A 
ATOM     65  F   UNL A   1      50.332  26.642  29.310  1.00  0.00    -0.206 F 
ATOM     66  C   UNL A   1      52.140  26.275  27.860  1.00  0.00     0.059 A 
ATOM     67  C   UNL A   1      51.822  26.466  25.456  1.00  0.00     0.059 A 
ATOM     68  F   UNL A   1      49.717  27.056  24.607  1.00  0.00    -0.206 F 
ATOM     69  C   UNL A   1      52.641  26.219  26.557  1.00  0.00     0.060 A 
BRANCH  69  70
ATOM     70  S   UNL A   1      54.376  25.793  26.317  1.00  0.00     0.124 S 
ATOM     71  O   UNL A   1      54.952  26.185  27.599  1.00  0.00    -0.237 OA
ATOM     72  O   UNL A   1      54.313  24.358  26.060  1.00  0.00    -0.237 OA
ATOM     73  O   UNL A   1      54.769  26.612  25.174  1.00  0.00    -0.744 OA
ENDBRANCH  69  70
ENDBRANCH  37  62
ENDBRANCH  11  12
ENDBRANCH   4   6
ENDBRANCH   3   4
ENDBRANCH   2   3
ENDBRANCH   1   2
BRANCH   1  74
ATOM     74  O   UNL A   1      32.610  29.416  26.296  1.00  0.00    -0.458 OA
BRANCH  74  75
ATOM     75  C   UNL A   1      32.794  29.057  25.002  1.00  0.00     0.339 C 
ATOM     76  O   UNL A   1      33.804  29.182  24.347  1.00  0.00    -0.246 OA
BRANCH  75  77
ATOM     77  C   UNL A   1      31.593  28.360  24.527  1.00  0.00     0.074 A 
ATOM     78  C   UNL A   1      30.979  28.969  23.412  1.00  0.00     0.017 A 
ATOM     79  C   UNL A   1      31.041  27.218  25.124  1.00  0.00     0.027 A 
ATOM     80  C   UNL A   1      29.826  28.430  22.849  1.00  0.00     0.001 A 
ATOM     81  C   UNL A   1      29.838  26.734  24.560  1.00  0.00     0.016 A 
ATOM     82  C   UNL A   1      29.252  27.309  23.427  1.00  0.00     0.001 A 
BRANCH  79  83
ATOM     83  S   UNL A   1      31.622  26.197  26.478  1.00  0.00    -0.082 SA
BRANCH  83  84
ATOM     84  C   UNL A   1      32.777  24.998  25.878  1.00  0.00     0.090 A 
ATOM     85  C   UNL A   1      33.620  25.385  24.815  1.00  0.00     0.024 A 
ATOM     86  C   UNL A   1      32.883  23.679  26.338  1.00  0.00     0.284 A 
ATOM     87  C   UNL A   1      34.629  24.533  24.336  1.00  0.00     0.023 A 
ATOM     88  C   UNL A   1      33.886  22.820  25.853  1.00  0.00     0.108 A 
ATOM     89  C   UNL A   1      34.805  23.269  24.910  1.00  0.00     0.089 A 
BRANCH  86  90
ATOM     90  N   UNL A   1      31.993  23.128  27.364  1.00  0.00     0.063 N 
ATOM     91  O   UNL A   1      30.776  23.324  27.215  1.00  0.00    -0.258 OA
ATOM     92  O   UNL A   1      32.496  22.583  28.351  1.00  0.00    -0.258 OA
ENDBRANCH  86  90
BRANCH  89  93
ATOM     93  S   UNL A   1      36.246  22.289  24.488  1.00  0.00     0.243 S 
ATOM     94  O   UNL A   1      35.818  20.910  24.529  1.00  0.00    -0.207 OA
ATOM     95  O   UNL A   1      36.795  22.886  23.285  1.00  0.00    -0.207 OA
BRANCH  93  96
ATOM     96  N   UNL A   1      37.389  22.518  25.691  1.00  0.00    -0.198 NA
ATOM     97  C   UNL A   1      37.490  23.713  26.526  1.00  0.00     0.102 C 
ATOM     98  C   UNL A   1      38.645  21.766  25.789  1.00  0.00     0.102 C 
ATOM     99  C   UNL A   1      38.953  24.103  26.379  1.00  0.00     0.018 C 
ATOM    100  C   UNL A   1      39.683  22.770  26.298  1.00  0.00     0.018 C 
ENDBRANCH  93  96
ENDBRANCH  89  93
ENDBRANCH  83  84
ENDBRANCH  79  83
ENDBRANCH  75  77
ENDBRANCH  74  75
ENDBRANCH   1  74
TORSDOF 19
ENDMDL
MODEL 3
REMARK VINA RESULT:     -11.4      4.520     10.279
REMARK SMILES O=C(OCCOC(=O)c1ccccc1Sc1ccc(S(=O)(=O)N2CCCC2)cc1[N+](=O)[O-])c1ccc(-c2c3nc(c(-c4c(F)cc(S(=O)(=O)[O-])cc4F)c4ccc([nH]4)c(-c4c(F)cc(S(=O)(=O)[O-])cc4F)c4nc(c(-c5c(F)cc(S(=O)(=O)[O-])cc5F)c5ccc2[nH]5)C=C4)C=C3)cc1
REMARK SMILES IDX 5 1 4 2 3 3 2 4 1 5 33 6 34 7 98 8 35 9 97 10 36 11 37 12
REMARK SMILES IDX 38 13 91 14 39 15 96 16 90 17 92 18 40 19 95 20 89 21 88 22
REMARK SMILES IDX 41 24 75 25 54 26 74 27 55 28 58 29 73 30 93 31 56 32 57 33
REMARK SMILES IDX 72 35 94 36 59 37 42 38 43 39 52 40 44 41 45 42 51 43 53 44
REMARK SMILES IDX 46 45 47 46 48 47 49 48 50 49 76 50 77 51 86 52 78 53 79 54
REMARK SMILES IDX 85 55 87 56 80 57 81 58 82 59 83 60 84 61 60 62 61 63 70 64
REMARK SMILES IDX 62 65 63 66 69 67 71 68 64 69 65 70 66 71 67 72 68 73 6 74
REMARK SMILES IDX 7 75 8 76 9 77 10 78 14 79 11 80 13 81 12 82 15 83 16 84
REMARK SMILES IDX 17 85 29 86 18 87 28 88 19 89 30 90 31 91 32 92 20 93 21 94
REMARK SMILES IDX 22 95 23 96 24 97 27 98 25 99 26 100
REMARK H PARENT 92 23 58 34
REMARK Flexibility Score: inf
ROOT
ATOM      1  C   UNL A   1      35.688  23.229  24.803  1.00  0.00     0.275 C 
ENDROOT
BRANCH   1   2
ATOM      2  C   UNL A   1      37.149  23.668  24.810  1.00  0.00     0.275 C 
BRANCH   2   3
ATOM      3  O   UNL A   1      37.986  22.775  25.550  1.00  0.00    -0.458 OA
BRANCH   3   4
ATOM      4  C   UNL A   1      39.188  23.021  26.118  1.00  0.00     0.338 C 
ATOM      5  O   UNL A   1      40.039  22.134  26.044  1.00  0.00    -0.246 OA
BRANCH   4   6
ATOM      6  C   UNL A   1      39.554  24.290  26.841  1.00  0.00     0.060 A 
ATOM      7  C   UNL A   1      40.389  25.312  26.373  1.00  0.00     0.016 A 
ATOM      8  C   UNL A   1      38.955  24.469  28.102  1.00  0.00     0.016 A 
ATOM      9  C   UNL A   1      40.572  26.488  27.090  1.00  0.00     0.010 A 
ATOM     10  C   UNL A   1      39.160  25.631  28.848  1.00  0.00     0.010 A 
ATOM     11  C   UNL A   1      39.977  26.639  28.338  1.00  0.00    -0.014 A 
BRANCH  11  12
ATOM     12  C   UNL A   1      40.403  27.779  29.164  1.00  0.00     0.031 A 
ATOM     13  C   UNL A   1      41.759  27.701  29.778  1.00  0.00     0.074 A 
ATOM     14  C   UNL A   1      39.652  28.889  29.236  1.00  0.00     0.049 A 
ATOM     15  N   UNL A   1      42.369  28.581  30.516  1.00  0.00    -0.248 NA
ATOM     16  C   UNL A   1      42.549  26.492  29.485  1.00  0.00     0.031 C 
ATOM     17  C   UNL A   1      38.397  29.066  28.521  1.00  0.00     0.029 A 
ATOM     18  N   UNL A   1      39.815  30.070  29.901  1.00  0.00    -0.354 N 
ATOM     19  C   UNL A   1      43.622  28.044  30.761  1.00  0.00     0.074 A 
ATOM     20  C   UNL A   1      43.684  26.755  30.111  1.00  0.00     0.031 C 
ATOM     21  C   UNL A   1      37.872  30.267  28.808  1.00  0.00     0.029 A 
ATOM     22  C   UNL A   1      38.755  30.937  29.751  1.00  0.00     0.049 A 
ATOM     23  H   UNL A   1      40.613  30.282  30.437  1.00  0.00     0.167 HD
ATOM     24  C   UNL A   1      44.628  28.596  31.472  1.00  0.00     0.037 A 
ATOM     25  C   UNL A   1      38.525  32.127  30.336  1.00  0.00     0.037 A 
ATOM     26  C   UNL A   1      44.497  29.853  32.153  1.00  0.00     0.049 A 
ATOM     27  C   UNL A   1      39.601  32.646  31.250  1.00  0.00     0.074 A 
ATOM     28  C   UNL A   1      45.388  30.472  33.005  1.00  0.00     0.029 A 
ATOM     29  N   UNL A   1      43.381  30.680  32.061  1.00  0.00    -0.354 N 
ATOM     30  N   UNL A   1      40.767  32.105  31.529  1.00  0.00    -0.248 NA
ATOM     31  C   UNL A   1      39.350  33.922  31.926  1.00  0.00     0.031 C 
ATOM     32  C   UNL A   1      44.793  31.653  33.463  1.00  0.00     0.029 A 
ATOM     33  C   UNL A   1      43.552  31.796  32.857  1.00  0.00     0.049 A 
ATOM     34  H   UNL A   1      42.587  30.496  31.510  1.00  0.00     0.167 HD
ATOM     35  C   UNL A   1      41.396  32.982  32.398  1.00  0.00     0.074 A 
ATOM     36  C   UNL A   1      40.490  34.101  32.580  1.00  0.00     0.031 C 
ATOM     37  C   UNL A   1      42.608  32.878  32.999  1.00  0.00     0.037 A 
BRANCH  24  38
ATOM     38  C   UNL A   1      45.886  27.794  31.591  1.00  0.00     0.058 A 
ATOM     39  C   UNL A   1      46.072  26.867  32.630  1.00  0.00     0.135 A 
ATOM     40  C   UNL A   1      46.943  27.996  30.692  1.00  0.00     0.135 A 
ATOM     41  F   UNL A   1      45.110  26.676  33.548  1.00  0.00    -0.206 F 
ATOM     42  C   UNL A   1      47.269  26.176  32.778  1.00  0.00     0.059 A 
ATOM     43  C   UNL A   1      48.142  27.301  30.809  1.00  0.00     0.059 A 
ATOM     44  F   UNL A   1      46.825  28.897  29.704  1.00  0.00    -0.206 F 
ATOM     45  C   UNL A   1      48.298  26.400  31.862  1.00  0.00     0.060 A 
BRANCH  45  46
ATOM     46  S   UNL A   1      49.847  25.495  32.066  1.00  0.00     0.124 S 
ATOM     47  O   UNL A   1      49.451  24.447  33.001  1.00  0.00    -0.237 OA
ATOM     48  O   UNL A   1      50.129  25.056  30.703  1.00  0.00    -0.237 OA
ATOM     49  O   UNL A   1      50.759  26.501  32.600  1.00  0.00    -0.744 OA
ENDBRANCH  45  46
ENDBRANCH  24  38
BRANCH  25  50
ATOM     50  C   UNL A   1      37.246  32.862  30.124  1.00  0.00     0.058 A 
ATOM     51  C   UNL A   1      36.102  32.591  30.888  1.00  0.00     0.135 A 
ATOM     52  C   UNL A   1      37.132  33.838  29.118  1.00  0.00     0.135 A 
ATOM     53  F   UNL A   1      36.151  31.673  31.866  1.00  0.00    -0.206 F 
ATOM     54  C   UNL A   1      34.885  33.223  30.638  1.00  0.00     0.059 A 
ATOM     55  C   UNL A   1      35.935  34.504  28.867  1.00  0.00     0.059 A 
ATOM     56  F   UNL A   1      38.196  34.158  28.365  1.00  0.00    -0.206 F 
ATOM     57  C   UNL A   1      34.810  34.173  29.618  1.00  0.00     0.060 A 
BRANCH  57  58
ATOM     58  S   UNL A   1      33.223  34.973  29.286  1.00  0.00     0.124 S 
ATOM     59  O   UNL A   1      32.646  34.076  28.292  1.00  0.00    -0.237 OA
ATOM     60  O   UNL A   1      32.591  34.960  30.602  1.00  0.00    -0.237 OA
ATOM     61  O   UNL A   1      33.610  36.293  28.797  1.00  0.00    -0.744 OA
ENDBRANCH  57  58
ENDBRANCH  25  50
BRANCH  37  62
ATOM     62  C   UNL A   1      43.008  34.018  33.885  1.00  0.00     0.058 A 
ATOM     63  C   UNL A   1      43.682  35.139  33.377  1.00  0.00     0.135 A 
ATOM     64  C   UNL A   1      42.679  34.000  35.249  1.00  0.00     0.135 A 
ATOM     65  F   UNL A   1      44.022  35.192  32.079  1.00  0.00    -0.206 F 
ATOM     66  C   UNL A   1      44.045  36.194  34.200  1.00  0.00     0.059 A 
ATOM     67  C   UNL A   1      43.006  35.059  36.085  1.00  0.00     0.059 A 
ATOM     68  F   UNL A   1      42.025  32.952  35.774  1.00  0.00    -0.206 F 
ATOM     69  C   UNL A   1      43.702  36.144  35.554  1.00  0.00     0.060 A 
BRANCH  69  70
ATOM     70  S   UNL A   1      44.157  37.533  36.610  1.00  0.00     0.124 S 
ATOM     71  O   UNL A   1      45.479  37.125  37.073  1.00  0.00    -0.237 OA
ATOM     72  O   UNL A   1      44.127  38.657  35.679  1.00  0.00    -0.237 OA
ATOM     73  O   UNL A   1      43.108  37.540  37.626  1.00  0.00    -0.744 OA
ENDBRANCH  69  70
ENDBRANCH  37  62
ENDBRANCH  11  12
ENDBRANCH   4   6
ENDBRANCH   3   4
ENDBRANCH   2   3
ENDBRANCH   1   2
BRANCH   1  74
ATOM     74  O   UNL A   1      35.498  21.828  24.587  1.00  0.00    -0.458 OA
BRANCH  74  75
ATOM     75  C   UNL A   1      34.877  21.157  25.587  1.00  0.00     0.339 C 
ATOM     76  O   UNL A   1      34.841  21.461  26.758  1.00  0.00    -0.246 OA
BRANCH  75  77
ATOM     77  C   UNL A   1      34.126  20.035  25.012  1.00  0.00     0.074 A 
ATOM     78  C   UNL A   1      34.930  18.938  24.635  1.00  0.00     0.017 A 
ATOM     79  C   UNL A   1      32.742  20.027  24.791  1.00  0.00     0.027 A 
ATOM     80  C   UNL A   1      34.365  17.799  24.068  1.00  0.00     0.001 A 
ATOM     81  C   UNL A   1      32.213  18.878  24.160  1.00  0.00     0.016 A 
ATOM     82  C   UNL A   1      33.001  17.771  23.828  1.00  0.00     0.001 A 
BRANCH  79  83
ATOM     83  S   UNL A   1      31.472  21.218  25.221  1.00  0.00    -0.082 SA
BRANCH  83  84
ATOM     84  C   UNL A   1      31.851  22.790  24.501  1.00  0.00     0.090 A 
ATOM     85  C   UNL A   1      32.489  22.790  23.243  1.00  0.00     0.024 A 
ATOM     86  C   UNL A   1      31.616  24.032  25.106  1.00  0.00     0.284 A 
ATOM     87  C   UNL A   1      32.743  23.988  22.554  1.00  0.00     0.023 A 
ATOM     88  C   UNL A   1      31.879  25.232  24.422  1.00  0.00     0.108 A 
ATOM     89  C   UNL A   1      32.370  25.212  23.121  1.00  0.00     0.089 A 
BRANCH  86  90
ATOM     90  N   UNL A   1      31.055  24.158  26.454  1.00  0.00     0.063 N 
ATOM     91  O   UNL A   1      29.924  24.661  26.546  1.00  0.00    -0.258 OA
ATOM     92  O   UNL A   1      31.759  23.843  27.418  1.00  0.00    -0.258 OA
ENDBRANCH  86  90
BRANCH  89  93
ATOM     93  S   UNL A   1      32.450  26.711  22.141  1.00  0.00     0.243 S 
ATOM     94  O   UNL A   1      33.595  26.561  21.274  1.00  0.00    -0.207 OA
ATOM     95  O   UNL A   1      31.113  26.916  21.617  1.00  0.00    -0.207 OA
BRANCH  93  96
ATOM     96  N   UNL A   1      32.748  27.987  23.184  1.00  0.00    -0.198 NA
ATOM     97  C   UNL A   1      34.023  28.233  23.854  1.00  0.00     0.102 C 
ATOM     98  C   UNL A   1      31.701  28.758  23.863  1.00  0.00     0.102 C 
ATOM     99  C   UNL A   1      33.614  28.378  25.313  1.00  0.00     0.018 C 
ATOM    100  C   UNL A   1      32.267  29.083  25.249  1.00  0.00     0.018 C 
ENDBRANCH  93  96
ENDBRANCH  89  93
ENDBRANCH  83  84
ENDBRANCH  79  83
ENDBRANCH  75  77
ENDBRANCH  74  75
ENDBRANCH   1  74
TORSDOF 19
ENDMDL
