MODEL 1
REMARK VINA RESULT:     -11.5      0.000      0.000
REMARK SMILES COc1cc(-c2cccc(C(N)=O)c2)ccc1C(=O)OCCOC(=O)c1ccc(-c2c3nc(c(-c4c(F)cc(S(=O)(=O)[O-])cc4F)c4ccc([nH]4)c(-c4c(F)cc(S(=O)(=O)[O-])cc4F)c4nc(c(-c5c(F)cc(S(=O)(=O)[O-])cc5F)c5ccc2[nH]5)C=C4)C=C3)cc1
REMARK SMILES IDX 22 1 21 2 20 3 18 4 19 5 17 6 3 7 4 8 5 9 16 10 15 11 2 12
REMARK SMILES IDX 1 13 6 14 7 15 14 16 8 17 10 18 9 19 11 20 12 21 13 22 23 25
REMARK SMILES IDX 24 26 25 27 26 28 27 29 91 30 28 31 90 32 29 33 30 34 31 35
REMARK SMILES IDX 84 36 32 37 89 38 83 39 85 40 33 41 88 42 82 43 81 44 34 46
REMARK SMILES IDX 68 47 47 48 67 49 48 50 51 51 66 52 86 53 49 54 50 55 65 57
REMARK SMILES IDX 87 58 52 59 35 60 36 61 45 62 37 63 38 64 44 65 46 66 39 67
REMARK SMILES IDX 40 68 41 69 42 70 43 71 69 72 70 73 79 74 71 75 72 76 78 77
REMARK SMILES IDX 80 78 73 79 74 80 75 81 76 82 77 83 53 84 54 85 63 86 55 87
REMARK SMILES IDX 56 88 62 89 64 90 57 91 58 92 59 93 60 94 61 95
REMARK H PARENT 12 23 12 24 85 45 51 56
REMARK Flexibility Score: inf
ROOT
ATOM      1  C   UNL A   1      32.743  30.561  27.010  1.00  0.00     0.275 C 
ENDROOT
BRANCH   1   2
ATOM      2  C   UNL A   1      33.123  30.037  25.625  1.00  0.00     0.275 C 
BRANCH   2   3
ATOM      3  O   UNL A   1      32.670  28.675  25.457  1.00  0.00    -0.458 OA
BRANCH   3   4
ATOM      4  C   UNL A   1      32.712  28.167  24.202  1.00  0.00     0.342 C 
ATOM      5  O   UNL A   1      32.620  28.803  23.163  1.00  0.00    -0.246 OA
BRANCH   4   6
ATOM      6  C   UNL A   1      33.040  26.724  24.231  1.00  0.00     0.102 A 
ATOM      7  C   UNL A   1      32.614  25.750  23.322  1.00  0.00     0.134 A 
ATOM      8  C   UNL A   1      33.075  24.426  23.490  1.00  0.00     0.056 A 
ATOM      9  C   UNL A   1      33.938  24.048  24.533  1.00  0.00    -0.015 A 
ATOM     10  C   UNL A   1      33.965  26.360  25.229  1.00  0.00     0.020 A 
ATOM     11  C   UNL A   1      34.380  25.040  25.403  1.00  0.00     0.010 A 
BRANCH   7  12
ATOM     12  O   UNL A   1      31.890  25.875  22.168  1.00  0.00    -0.496 OA
ATOM     13  C   UNL A   1      32.538  25.759  20.916  1.00  0.00     0.278 C 
ENDBRANCH   7  12
BRANCH   9  14
ATOM     14  C   UNL A   1      34.411  22.668  24.676  1.00  0.00    -0.017 A 
ATOM     15  C   UNL A   1      35.780  22.371  24.612  1.00  0.00     0.009 A 
ATOM     16  C   UNL A   1      33.510  21.617  24.914  1.00  0.00     0.022 A 
ATOM     17  C   UNL A   1      36.236  21.063  24.786  1.00  0.00     0.001 A 
ATOM     18  C   UNL A   1      33.956  20.295  25.076  1.00  0.00     0.040 A 
ATOM     19  C   UNL A   1      35.328  20.026  25.017  1.00  0.00     0.014 A 
BRANCH  18  20
ATOM     20  C   UNL A   1      32.925  19.243  25.305  1.00  0.00     0.248 C 
ATOM     21  N   UNL A   1      32.880  18.612  26.516  1.00  0.00    -0.366 N 
ATOM     22  O   UNL A   1      32.133  18.925  24.425  1.00  0.00    -0.270 OA
ATOM     23  H   UNL A   1      33.514  18.863  27.225  1.00  0.00     0.159 HD
ATOM     24  H   UNL A   1      32.215  17.905  26.678  1.00  0.00     0.159 HD
ENDBRANCH  18  20
ENDBRANCH   9  14
ENDBRANCH   4   6
ENDBRANCH   3   4
ENDBRANCH   2   3
ENDBRANCH   1   2
BRANCH   1  25
ATOM     25  O   UNL A   1      33.573  29.940  28.007  1.00  0.00    -0.458 OA
BRANCH  25  26
ATOM     26  C   UNL A   1      34.560  30.733  28.479  1.00  0.00     0.338 C 
ATOM     27  O   UNL A   1      34.452  31.845  28.965  1.00  0.00    -0.246 OA
BRANCH  26  28
ATOM     28  C   UNL A   1      35.831  30.003  28.454  1.00  0.00     0.060 A 
ATOM     29  C   UNL A   1      36.319  29.538  29.670  1.00  0.00     0.016 A 
ATOM     30  C   UNL A   1      36.619  29.953  27.311  1.00  0.00     0.016 A 
ATOM     31  C   UNL A   1      37.651  29.156  29.789  1.00  0.00     0.010 A 
ATOM     32  C   UNL A   1      37.928  29.468  27.410  1.00  0.00     0.010 A 
ATOM     33  C   UNL A   1      38.483  29.124  28.660  1.00  0.00    -0.014 A 
BRANCH  33  34
ATOM     34  C   UNL A   1      39.942  28.826  28.791  1.00  0.00     0.031 A 
ATOM     35  C   UNL A   1      40.883  29.905  29.278  1.00  0.00     0.074 A 
ATOM     36  C   UNL A   1      40.433  27.604  28.498  1.00  0.00     0.049 A 
ATOM     37  N   UNL A   1      42.191  29.940  29.252  1.00  0.00    -0.248 NA
ATOM     38  C   UNL A   1      40.267  31.116  29.847  1.00  0.00     0.031 C 
ATOM     39  C   UNL A   1      39.643  26.447  28.072  1.00  0.00     0.029 A 
ATOM     40  N   UNL A   1      41.724  27.130  28.514  1.00  0.00    -0.354 N 
ATOM     41  C   UNL A   1      42.549  31.199  29.727  1.00  0.00     0.074 A 
ATOM     42  C   UNL A   1      41.322  31.899  30.033  1.00  0.00     0.031 C 
ATOM     43  C   UNL A   1      40.456  25.393  27.904  1.00  0.00     0.029 A 
ATOM     44  C   UNL A   1      41.835  25.818  28.114  1.00  0.00     0.049 A 
ATOM     45  H   UNL A   1      42.495  27.678  28.786  1.00  0.00     0.167 HD
ATOM     46  C   UNL A   1      43.790  31.721  29.890  1.00  0.00     0.037 A 
ATOM     47  C   UNL A   1      42.922  25.054  27.892  1.00  0.00     0.037 A 
ATOM     48  C   UNL A   1      45.008  30.985  29.668  1.00  0.00     0.049 A 
ATOM     49  C   UNL A   1      44.289  25.657  28.076  1.00  0.00     0.074 A 
ATOM     50  C   UNL A   1      46.315  31.412  29.829  1.00  0.00     0.029 A 
ATOM     51  N   UNL A   1      45.069  29.659  29.265  1.00  0.00    -0.354 N 
ATOM     52  N   UNL A   1      44.611  26.870  28.457  1.00  0.00    -0.248 NA
ATOM     53  C   UNL A   1      45.441  24.792  27.786  1.00  0.00     0.031 C 
ATOM     54  C   UNL A   1      47.166  30.355  29.492  1.00  0.00     0.029 A 
ATOM     55  C   UNL A   1      46.390  29.254  29.168  1.00  0.00     0.049 A 
ATOM     56  H   UNL A   1      44.289  29.090  29.076  1.00  0.00     0.167 HD
ATOM     57  C   UNL A   1      46.001  26.902  28.482  1.00  0.00     0.074 A 
ATOM     58  C   UNL A   1      46.457  25.586  28.087  1.00  0.00     0.031 C 
ATOM     59  C   UNL A   1      46.825  27.931  28.800  1.00  0.00     0.037 A 
BRANCH  46  60
ATOM     60  C   UNL A   1      43.904  33.167  30.299  1.00  0.00     0.058 A 
ATOM     61  C   UNL A   1      44.096  33.558  31.633  1.00  0.00     0.135 A 
ATOM     62  C   UNL A   1      43.874  34.177  29.321  1.00  0.00     0.135 A 
ATOM     63  F   UNL A   1      44.119  32.640  32.610  1.00  0.00    -0.206 F 
ATOM     64  C   UNL A   1      44.234  34.900  31.985  1.00  0.00     0.059 A 
ATOM     65  C   UNL A   1      44.038  35.520  29.647  1.00  0.00     0.059 A 
ATOM     66  F   UNL A   1      43.694  33.861  28.029  1.00  0.00    -0.206 F 
ATOM     67  C   UNL A   1      44.205  35.873  30.985  1.00  0.00     0.060 A 
BRANCH  67  68
ATOM     68  S   UNL A   1      44.410  37.605  31.452  1.00  0.00     0.124 S 
ATOM     69  O   UNL A   1      43.619  37.674  32.676  1.00  0.00    -0.237 OA
ATOM     70  O   UNL A   1      45.855  37.716  31.624  1.00  0.00    -0.237 OA
ATOM     71  O   UNL A   1      43.862  38.333  30.311  1.00  0.00    -0.744 OA
ENDBRANCH  67  68
ENDBRANCH  46  60
BRANCH  47  72
ATOM     72  C   UNL A   1      42.769  23.647  27.430  1.00  0.00     0.058 A 
ATOM     73  C   UNL A   1      42.837  23.321  26.067  1.00  0.00     0.135 A 
ATOM     74  C   UNL A   1      42.541  22.601  28.339  1.00  0.00     0.135 A 
ATOM     75  F   UNL A   1      43.041  24.285  25.156  1.00  0.00    -0.206 F 
ATOM     76  C   UNL A   1      42.663  22.014  25.619  1.00  0.00     0.059 A 
ATOM     77  C   UNL A   1      42.397  21.282  27.918  1.00  0.00     0.059 A 
ATOM     78  F   UNL A   1      42.480  22.854  29.655  1.00  0.00    -0.206 F 
ATOM     79  C   UNL A   1      42.443  21.002  26.554  1.00  0.00     0.060 A 
BRANCH  79  80
ATOM     80  S   UNL A   1      42.247  19.305  25.968  1.00  0.00     0.124 S 
ATOM     81  O   UNL A   1      42.741  18.542  27.108  1.00  0.00    -0.237 OA
ATOM     82  O   UNL A   1      40.811  19.227  25.722  1.00  0.00    -0.237 OA
ATOM     83  O   UNL A   1      43.083  19.265  24.771  1.00  0.00    -0.744 OA
ENDBRANCH  79  80
ENDBRANCH  47  72
BRANCH  59  84
ATOM     84  C   UNL A   1      48.302  27.653  28.804  1.00  0.00     0.058 A 
ATOM     85  C   UNL A   1      48.937  27.017  29.881  1.00  0.00     0.135 A 
ATOM     86  C   UNL A   1      49.088  28.002  27.693  1.00  0.00     0.135 A 
ATOM     87  F   UNL A   1      48.233  26.670  30.970  1.00  0.00    -0.206 F 
ATOM     88  C   UNL A   1      50.305  26.764  29.870  1.00  0.00     0.059 A 
ATOM     89  C   UNL A   1      50.451  27.733  27.648  1.00  0.00     0.059 A 
ATOM     90  F   UNL A   1      48.527  28.602  26.631  1.00  0.00    -0.206 F 
ATOM     91  C   UNL A   1      51.054  27.128  28.750  1.00  0.00     0.060 A 
BRANCH  91  92
ATOM     92  S   UNL A   1      52.825  26.778  28.738  1.00  0.00     0.124 S 
ATOM     93  O   UNL A   1      53.051  26.361  30.117  1.00  0.00    -0.237 OA
ATOM     94  O   UNL A   1      52.930  25.724  27.732  1.00  0.00    -0.237 OA
ATOM     95  O   UNL A   1      53.421  28.056  28.362  1.00  0.00    -0.744 OA
ENDBRANCH  91  92
ENDBRANCH  59  84
ENDBRANCH  33  34
ENDBRANCH  26  28
ENDBRANCH  25  26
ENDBRANCH   1  25
TORSDOF 17
ENDMDL
MODEL 2
REMARK VINA RESULT:     -11.4      1.072      1.934
REMARK SMILES COc1cc(-c2cccc(C(N)=O)c2)ccc1C(=O)OCCOC(=O)c1ccc(-c2c3nc(c(-c4c(F)cc(S(=O)(=O)[O-])cc4F)c4ccc([nH]4)c(-c4c(F)cc(S(=O)(=O)[O-])cc4F)c4nc(c(-c5c(F)cc(S(=O)(=O)[O-])cc5F)c5ccc2[nH]5)C=C4)C=C3)cc1
REMARK SMILES IDX 22 1 21 2 20 3 18 4 19 5 17 6 3 7 4 8 5 9 16 10 15 11 2 12
REMARK SMILES IDX 1 13 6 14 7 15 14 16 8 17 10 18 9 19 11 20 12 21 13 22 23 25
REMARK SMILES IDX 24 26 25 27 26 28 27 29 91 30 28 31 90 32 29 33 30 34 31 35
REMARK SMILES IDX 84 36 32 37 89 38 83 39 85 40 33 41 88 42 82 43 81 44 34 46
REMARK SMILES IDX 68 47 47 48 67 49 48 50 51 51 66 52 86 53 49 54 50 55 65 57
REMARK SMILES IDX 87 58 52 59 35 60 36 61 45 62 37 63 38 64 44 65 46 66 39 67
REMARK SMILES IDX 40 68 41 69 42 70 43 71 69 72 70 73 79 74 71 75 72 76 78 77
REMARK SMILES IDX 80 78 73 79 74 80 75 81 76 82 77 83 53 84 54 85 63 86 55 87
REMARK SMILES IDX 56 88 62 89 64 90 57 91 58 92 59 93 60 94 61 95
REMARK H PARENT 12 23 12 24 85 45 51 56
REMARK Flexibility Score: inf
ROOT
ATOM      1  C   UNL A   1      33.003  30.329  26.674  1.00  0.00     0.275 C 
ENDROOT
BRANCH   1   2
ATOM      2  C   UNL A   1      31.665  29.610  26.506  1.00  0.00     0.275 C 
BRANCH   2   3
ATOM      3  O   UNL A   1      31.841  28.181  26.627  1.00  0.00    -0.458 OA
BRANCH   3   4
ATOM      4  C   UNL A   1      31.593  27.439  25.520  1.00  0.00     0.342 C 
ATOM      5  O   UNL A   1      30.926  27.782  24.557  1.00  0.00    -0.246 OA
BRANCH   4   6
ATOM      6  C   UNL A   1      32.369  26.179  25.549  1.00  0.00     0.102 A 
ATOM      7  C   UNL A   1      31.990  24.975  26.153  1.00  0.00     0.134 A 
ATOM      8  C   UNL A   1      32.850  23.862  26.031  1.00  0.00     0.056 A 
ATOM      9  C   UNL A   1      34.068  23.915  25.334  1.00  0.00    -0.015 A 
ATOM     10  C   UNL A   1      33.553  26.210  24.786  1.00  0.00     0.020 A 
ATOM     11  C   UNL A   1      34.409  25.111  24.708  1.00  0.00     0.010 A 
BRANCH   7  12
ATOM     12  O   UNL A   1      30.820  24.627  26.771  1.00  0.00    -0.496 OA
ATOM     13  C   UNL A   1      30.413  23.273  26.791  1.00  0.00     0.278 C 
ENDBRANCH   7  12
BRANCH   9  14
ATOM     14  C   UNL A   1      34.936  22.740  25.212  1.00  0.00    -0.017 A 
ATOM     15  C   UNL A   1      36.324  22.855  25.375  1.00  0.00     0.009 A 
ATOM     16  C   UNL A   1      34.397  21.467  24.964  1.00  0.00     0.022 A 
ATOM     17  C   UNL A   1      37.148  21.732  25.296  1.00  0.00     0.001 A 
ATOM     18  C   UNL A   1      35.217  20.332  24.869  1.00  0.00     0.040 A 
ATOM     19  C   UNL A   1      36.599  20.472  25.044  1.00  0.00     0.014 A 
BRANCH  18  20
ATOM     20  C   UNL A   1      34.558  19.025  24.583  1.00  0.00     0.248 C 
ATOM     21  N   UNL A   1      33.217  19.004  24.322  1.00  0.00    -0.366 N 
ATOM     22  O   UNL A   1      35.191  17.976  24.593  1.00  0.00    -0.270 OA
ATOM     23  H   UNL A   1      32.704  19.844  24.313  1.00  0.00     0.159 HD
ATOM     24  H   UNL A   1      32.764  18.149  24.145  1.00  0.00     0.159 HD
ENDBRANCH  18  20
ENDBRANCH   9  14
ENDBRANCH   4   6
ENDBRANCH   3   4
ENDBRANCH   2   3
ENDBRANCH   1   2
BRANCH   1  25
ATOM     25  O   UNL A   1      33.478  30.164  28.021  1.00  0.00    -0.458 OA
BRANCH  25  26
ATOM     26  C   UNL A   1      34.496  30.987  28.355  1.00  0.00     0.338 C 
ATOM     27  O   UNL A   1      34.426  32.152  28.706  1.00  0.00    -0.246 OA
BRANCH  26  28
ATOM     28  C   UNL A   1      35.753  30.231  28.374  1.00  0.00     0.060 A 
ATOM     29  C   UNL A   1      36.153  29.695  29.592  1.00  0.00     0.016 A 
ATOM     30  C   UNL A   1      36.612  30.224  27.282  1.00  0.00     0.016 A 
ATOM     31  C   UNL A   1      37.467  29.278  29.775  1.00  0.00     0.010 A 
ATOM     32  C   UNL A   1      37.903  29.706  27.439  1.00  0.00     0.010 A 
ATOM     33  C   UNL A   1      38.369  29.287  28.701  1.00  0.00    -0.014 A 
BRANCH  33  34
ATOM     34  C   UNL A   1      39.811  28.951  28.909  1.00  0.00     0.031 A 
ATOM     35  C   UNL A   1      40.745  29.994  29.480  1.00  0.00     0.074 A 
ATOM     36  C   UNL A   1      40.292  27.727  28.611  1.00  0.00     0.049 A 
ATOM     37  N   UNL A   1      42.053  29.999  29.532  1.00  0.00    -0.248 NA
ATOM     38  C   UNL A   1      40.124  31.204  30.045  1.00  0.00     0.031 C 
ATOM     39  C   UNL A   1      39.504  26.600  28.107  1.00  0.00     0.029 A 
ATOM     40  N   UNL A   1      41.568  27.221  28.689  1.00  0.00    -0.354 N 
ATOM     41  C   UNL A   1      42.410  31.236  30.061  1.00  0.00     0.074 A 
ATOM     42  C   UNL A   1      41.182  31.956  30.315  1.00  0.00     0.031 C 
ATOM     43  C   UNL A   1      40.302  25.532  27.958  1.00  0.00     0.029 A 
ATOM     44  C   UNL A   1      41.675  25.919  28.260  1.00  0.00     0.049 A 
ATOM     45  H   UNL A   1      42.335  27.744  29.021  1.00  0.00     0.167 HD
ATOM     46  C   UNL A   1      43.650  31.725  30.311  1.00  0.00     0.037 A 
ATOM     47  C   UNL A   1      42.756  25.136  28.080  1.00  0.00     0.037 A 
ATOM     48  C   UNL A   1      44.862  30.966  30.141  1.00  0.00     0.049 A 
ATOM     49  C   UNL A   1      44.122  25.701  28.361  1.00  0.00     0.074 A 
ATOM     50  C   UNL A   1      46.167  31.358  30.390  1.00  0.00     0.029 A 
ATOM     51  N   UNL A   1      44.919  29.650  29.705  1.00  0.00    -0.354 N 
ATOM     52  N   UNL A   1      44.448  26.895  28.794  1.00  0.00    -0.248 NA
ATOM     53  C   UNL A   1      45.270  24.817  28.115  1.00  0.00     0.031 C 
ATOM     54  C   UNL A   1      47.013  30.291  30.073  1.00  0.00     0.029 A 
ATOM     55  C   UNL A   1      46.234  29.218  29.674  1.00  0.00     0.049 A 
ATOM     56  H   UNL A   1      44.139  29.105  29.455  1.00  0.00     0.167 HD
ATOM     57  C   UNL A   1      45.834  26.895  28.901  1.00  0.00     0.074 A 
ATOM     58  C   UNL A   1      46.284  25.579  28.497  1.00  0.00     0.031 C 
ATOM     59  C   UNL A   1      46.661  27.895  29.296  1.00  0.00     0.037 A 
BRANCH  46  60
ATOM     60  C   UNL A   1      43.771  33.156  30.767  1.00  0.00     0.058 A 
ATOM     61  C   UNL A   1      43.866  33.509  32.122  1.00  0.00     0.135 A 
ATOM     62  C   UNL A   1      43.849  34.190  29.817  1.00  0.00     0.135 A 
ATOM     63  F   UNL A   1      43.784  32.566  33.073  1.00  0.00    -0.206 F 
ATOM     64  C   UNL A   1      44.013  34.836  32.520  1.00  0.00     0.059 A 
ATOM     65  C   UNL A   1      44.024  35.519  30.191  1.00  0.00     0.059 A 
ATOM     66  F   UNL A   1      43.765  33.911  28.507  1.00  0.00    -0.206 F 
ATOM     67  C   UNL A   1      44.092  35.834  31.547  1.00  0.00     0.060 A 
BRANCH  67  68
ATOM     68  S   UNL A   1      44.307  37.548  32.074  1.00  0.00     0.124 S 
ATOM     69  O   UNL A   1      45.723  37.569  32.431  1.00  0.00    -0.237 OA
ATOM     70  O   UNL A   1      43.945  38.294  30.874  1.00  0.00    -0.237 OA
ATOM     71  O   UNL A   1      43.379  37.680  33.193  1.00  0.00    -0.744 OA
ENDBRANCH  67  68
ENDBRANCH  46  60
BRANCH  47  72
ATOM     72  C   UNL A   1      42.600  23.745  27.571  1.00  0.00     0.058 A 
ATOM     73  C   UNL A   1      42.491  22.659  28.454  1.00  0.00     0.135 A 
ATOM     74  C   UNL A   1      42.568  23.470  26.195  1.00  0.00     0.135 A 
ATOM     75  F   UNL A   1      42.527  22.866  29.779  1.00  0.00    -0.206 F 
ATOM     76  C   UNL A   1      42.377  21.351  27.991  1.00  0.00     0.059 A 
ATOM     77  C   UNL A   1      42.423  22.175  25.708  1.00  0.00     0.059 A 
ATOM     78  F   UNL A   1      42.656  24.472  25.306  1.00  0.00    -0.206 F 
ATOM     79  C   UNL A   1      42.344  21.120  26.615  1.00  0.00     0.060 A 
BRANCH  79  80
ATOM     80  S   UNL A   1      42.168  19.424  26.023  1.00  0.00     0.124 S 
ATOM     81  O   UNL A   1      40.730  19.340  25.797  1.00  0.00    -0.237 OA
ATOM     82  O   UNL A   1      43.003  19.426  24.825  1.00  0.00    -0.237 OA
ATOM     83  O   UNL A   1      42.681  18.626  27.132  1.00  0.00    -0.744 OA
ENDBRANCH  79  80
ENDBRANCH  47  72
BRANCH  59  84
ATOM     84  C   UNL A   1      48.129  27.582  29.378  1.00  0.00     0.058 A 
ATOM     85  C   UNL A   1      48.981  27.718  28.273  1.00  0.00     0.135 A 
ATOM     86  C   UNL A   1      48.694  27.171  30.597  1.00  0.00     0.135 A 
ATOM     87  F   UNL A   1      48.490  28.101  27.084  1.00  0.00    -0.206 F 
ATOM     88  C   UNL A   1      50.339  27.428  28.364  1.00  0.00     0.059 A 
ATOM     89  C   UNL A   1      50.053  26.903  30.718  1.00  0.00     0.059 A 
ATOM     90  F   UNL A   1      47.923  27.037  31.688  1.00  0.00    -0.206 F 
ATOM     91  C   UNL A   1      50.865  27.019  29.591  1.00  0.00     0.060 A 
BRANCH  91  92
ATOM     92  S   UNL A   1      52.631  26.663  29.704  1.00  0.00     0.124 S 
ATOM     93  O   UNL A   1      52.904  26.113  28.380  1.00  0.00    -0.237 OA
ATOM     94  O   UNL A   1      53.200  27.981  29.973  1.00  0.00    -0.237 OA
ATOM     95  O   UNL A   1      52.716  25.713  30.809  1.00  0.00    -0.744 OA
ENDBRANCH  91  92
ENDBRANCH  59  84
ENDBRANCH  33  34
ENDBRANCH  26  28
ENDBRANCH  25  26
ENDBRANCH   1  25
TORSDOF 17
ENDMDL
MODEL 3
REMARK VINA RESULT:     -11.4      4.334     10.291
REMARK SMILES COc1cc(-c2cccc(C(N)=O)c2)ccc1C(=O)OCCOC(=O)c1ccc(-c2c3nc(c(-c4c(F)cc(S(=O)(=O)[O-])cc4F)c4ccc([nH]4)c(-c4c(F)cc(S(=O)(=O)[O-])cc4F)c4nc(c(-c5c(F)cc(S(=O)(=O)[O-])cc5F)c5ccc2[nH]5)C=C4)C=C3)cc1
REMARK SMILES IDX 22 1 21 2 20 3 18 4 19 5 17 6 3 7 4 8 5 9 16 10 15 11 2 12
REMARK SMILES IDX 1 13 6 14 7 15 14 16 8 17 10 18 9 19 11 20 12 21 13 22 23 25
REMARK SMILES IDX 24 26 25 27 26 28 27 29 91 30 28 31 90 32 29 33 30 34 31 35
REMARK SMILES IDX 84 36 32 37 89 38 83 39 85 40 33 41 88 42 82 43 81 44 34 46
REMARK SMILES IDX 68 47 47 48 67 49 48 50 51 51 66 52 86 53 49 54 50 55 65 57
REMARK SMILES IDX 87 58 52 59 35 60 36 61 45 62 37 63 38 64 44 65 46 66 39 67
REMARK SMILES IDX 40 68 41 69 42 70 43 71 69 72 70 73 79 74 71 75 72 76 78 77
REMARK SMILES IDX 80 78 73 79 74 80 75 81 76 82 77 83 53 84 54 85 63 86 55 87
REMARK SMILES IDX 56 88 62 89 64 90 57 91 58 92 59 93 60 94 61 95
REMARK H PARENT 12 23 12 24 85 45 51 56
REMARK Flexibility Score: inf
ROOT
ATOM      1  C   UNL A   1      39.063  21.232  25.787  1.00  0.00     0.275 C 
ENDROOT
BRANCH   1   2
ATOM      2  C   UNL A   1      37.841  20.810  24.972  1.00  0.00     0.275 C 
BRANCH   2   3
ATOM      3  O   UNL A   1      37.094  21.970  24.540  1.00  0.00    -0.458 OA
BRANCH   3   4
ATOM      4  C   UNL A   1      35.744  21.886  24.605  1.00  0.00     0.342 C 
ATOM      5  O   UNL A   1      35.093  20.872  24.804  1.00  0.00    -0.246 OA
BRANCH   4   6
ATOM      6  C   UNL A   1      35.132  23.233  24.550  1.00  0.00     0.102 A 
ATOM      7  C   UNL A   1      34.574  23.854  23.428  1.00  0.00     0.134 A 
ATOM      8  C   UNL A   1      33.991  25.131  23.587  1.00  0.00     0.056 A 
ATOM      9  C   UNL A   1      33.954  25.801  24.821  1.00  0.00    -0.015 A 
ATOM     10  C   UNL A   1      35.025  23.872  25.801  1.00  0.00     0.020 A 
ATOM     11  C   UNL A   1      34.480  25.149  25.932  1.00  0.00     0.010 A 
BRANCH   7  12
ATOM     12  O   UNL A   1      34.371  23.376  22.163  1.00  0.00    -0.496 OA
ATOM     13  C   UNL A   1      33.061  23.318  21.635  1.00  0.00     0.278 C 
ENDBRANCH   7  12
BRANCH   9  14
ATOM     14  C   UNL A   1      33.331  27.120  24.960  1.00  0.00    -0.017 A 
ATOM     15  C   UNL A   1      33.680  27.969  26.020  1.00  0.00     0.009 A 
ATOM     16  C   UNL A   1      32.397  27.581  24.017  1.00  0.00     0.022 A 
ATOM     17  C   UNL A   1      33.116  29.240  26.134  1.00  0.00     0.001 A 
ATOM     18  C   UNL A   1      31.812  28.853  24.128  1.00  0.00     0.040 A 
ATOM     19  C   UNL A   1      32.184  29.684  25.192  1.00  0.00     0.014 A 
BRANCH  18  20
ATOM     20  C   UNL A   1      30.815  29.247  23.092  1.00  0.00     0.248 C 
ATOM     21  N   UNL A   1      31.261  29.667  21.871  1.00  0.00    -0.366 N 
ATOM     22  O   UNL A   1      29.612  29.216  23.321  1.00  0.00    -0.270 OA
ATOM     23  H   UNL A   1      32.227  29.694  21.682  1.00  0.00     0.159 HD
ATOM     24  H   UNL A   1      30.617  29.944  21.181  1.00  0.00     0.159 HD
ENDBRANCH  18  20
ENDBRANCH   9  14
ENDBRANCH   4   6
ENDBRANCH   3   4
ENDBRANCH   2   3
ENDBRANCH   1   2
BRANCH   1  25
ATOM     25  O   UNL A   1      39.106  22.666  25.888  1.00  0.00    -0.458 OA
BRANCH  25  26
ATOM     26  C   UNL A   1      40.315  23.162  26.233  1.00  0.00     0.338 C 
ATOM     27  O   UNL A   1      41.411  22.717  25.941  1.00  0.00    -0.246 OA
BRANCH  26  28
ATOM     28  C   UNL A   1      40.141  24.440  26.929  1.00  0.00     0.060 A 
ATOM     29  C   UNL A   1      40.990  25.480  26.567  1.00  0.00     0.016 A 
ATOM     30  C   UNL A   1      39.316  24.557  28.041  1.00  0.00     0.016 A 
ATOM     31  C   UNL A   1      41.131  26.589  27.395  1.00  0.00     0.010 A 
ATOM     32  C   UNL A   1      39.382  25.721  28.816  1.00  0.00     0.010 A 
ATOM     33  C   UNL A   1      40.335  26.723  28.542  1.00  0.00    -0.014 A 
BRANCH  33  34
ATOM     34  C   UNL A   1      40.555  27.849  29.499  1.00  0.00     0.031 A 
ATOM     35  C   UNL A   1      41.764  27.831  30.407  1.00  0.00     0.074 A 
ATOM     36  C   UNL A   1      39.701  28.892  29.558  1.00  0.00     0.049 A 
ATOM     37  N   UNL A   1      42.029  28.572  31.453  1.00  0.00    -0.248 NA
ATOM     38  C   UNL A   1      42.802  26.829  30.112  1.00  0.00     0.031 C 
ATOM     39  C   UNL A   1      38.523  29.078  28.708  1.00  0.00     0.029 A 
ATOM     40  N   UNL A   1      39.692  29.999  30.374  1.00  0.00    -0.354 N 
ATOM     41  C   UNL A   1      43.218  28.077  31.981  1.00  0.00     0.074 A 
ATOM     42  C   UNL A   1      43.624  26.972  31.142  1.00  0.00     0.031 C 
ATOM     43  C   UNL A   1      37.930  30.241  29.020  1.00  0.00     0.029 A 
ATOM     44  C   UNL A   1      38.625  30.839  30.154  1.00  0.00     0.049 A 
ATOM     45  H   UNL A   1      40.385  30.173  31.051  1.00  0.00     0.167 HD
ATOM     46  C   UNL A   1      43.906  28.506  33.069  1.00  0.00     0.037 A 
ATOM     47  C   UNL A   1      38.218  31.938  30.818  1.00  0.00     0.037 A 
ATOM     48  C   UNL A   1      43.541  29.664  33.845  1.00  0.00     0.049 A 
ATOM     49  C   UNL A   1      38.995  32.393  32.024  1.00  0.00     0.074 A 
ATOM     50  C   UNL A   1      44.185  30.198  34.948  1.00  0.00     0.029 A 
ATOM     51  N   UNL A   1      42.454  30.483  33.582  1.00  0.00    -0.354 N 
ATOM     52  N   UNL A   1      40.077  31.873  32.553  1.00  0.00    -0.248 NA
ATOM     53  C   UNL A   1      38.488  33.577  32.733  1.00  0.00     0.031 C 
ATOM     54  C   UNL A   1      43.466  31.321  35.373  1.00  0.00     0.029 A 
ATOM     55  C   UNL A   1      42.404  31.515  34.505  1.00  0.00     0.049 A 
ATOM     56  H   UNL A   1      41.811  30.350  32.849  1.00  0.00     0.167 HD
ATOM     57  C   UNL A   1      40.396  32.683  33.637  1.00  0.00     0.074 A 
ATOM     58  C   UNL A   1      39.399  33.733  33.682  1.00  0.00     0.031 C 
ATOM     59  C   UNL A   1      41.420  32.567  34.517  1.00  0.00     0.037 A 
BRANCH  46  60
ATOM     60  C   UNL A   1      45.105  27.709  33.510  1.00  0.00     0.058 A 
ATOM     61  C   UNL A   1      45.006  26.631  34.403  1.00  0.00     0.135 A 
ATOM     62  C   UNL A   1      46.375  28.000  32.980  1.00  0.00     0.135 A 
ATOM     63  F   UNL A   1      43.823  26.316  34.953  1.00  0.00    -0.206 F 
ATOM     64  C   UNL A   1      46.123  25.884  34.771  1.00  0.00     0.059 A 
ATOM     65  C   UNL A   1      47.499  27.250  33.311  1.00  0.00     0.059 A 
ATOM     66  F   UNL A   1      46.529  29.019  32.120  1.00  0.00    -0.206 F 
ATOM     67  C   UNL A   1      47.366  26.201  34.219  1.00  0.00     0.060 A 
BRANCH  67  68
ATOM     68  S   UNL A   1      48.802  25.210  34.685  1.00  0.00     0.124 S 
ATOM     69  O   UNL A   1      48.179  24.129  35.441  1.00  0.00    -0.237 OA
ATOM     70  O   UNL A   1      49.361  24.838  33.389  1.00  0.00    -0.237 OA
ATOM     71  O   UNL A   1      49.614  26.135  35.469  1.00  0.00    -0.744 OA
ENDBRANCH  67  68
ENDBRANCH  46  60
BRANCH  47  72
ATOM     72  C   UNL A   1      36.992  32.665  30.386  1.00  0.00     0.058 A 
ATOM     73  C   UNL A   1      37.044  33.630  29.369  1.00  0.00     0.135 A 
ATOM     74  C   UNL A   1      35.747  32.420  30.988  1.00  0.00     0.135 A 
ATOM     75  F   UNL A   1      38.211  33.911  28.769  1.00  0.00    -0.206 F 
ATOM     76  C   UNL A   1      35.912  34.340  28.978  1.00  0.00     0.059 A 
ATOM     77  C   UNL A   1      34.596  33.094  30.592  1.00  0.00     0.059 A 
ATOM     78  F   UNL A   1      35.638  31.499  31.958  1.00  0.00    -0.206 F 
ATOM     79  C   UNL A   1      34.692  34.064  29.597  1.00  0.00     0.060 A 
BRANCH  79  80
ATOM     80  S   UNL A   1      33.223  34.968  29.065  1.00  0.00     0.124 S 
ATOM     81  O   UNL A   1      32.494  35.108  30.320  1.00  0.00    -0.237 OA
ATOM     82  O   UNL A   1      33.795  36.195  28.520  1.00  0.00    -0.237 OA
ATOM     83  O   UNL A   1      32.619  34.077  28.079  1.00  0.00    -0.744 OA
ENDBRANCH  79  80
ENDBRANCH  47  72
BRANCH  59  84
ATOM     84  C   UNL A   1      41.557  33.641  35.560  1.00  0.00     0.058 A 
ATOM     85  C   UNL A   1      42.236  34.841  35.307  1.00  0.00     0.135 A 
ATOM     86  C   UNL A   1      40.966  33.474  36.824  1.00  0.00     0.135 A 
ATOM     87  F   UNL A   1      42.825  35.047  34.118  1.00  0.00    -0.206 F 
ATOM     88  C   UNL A   1      42.353  35.828  36.281  1.00  0.00     0.059 A 
ATOM     89  C   UNL A   1      41.046  34.459  37.803  1.00  0.00     0.059 A 
ATOM     90  F   UNL A   1      40.294  32.349  37.113  1.00  0.00    -0.206 F 
ATOM     91  C   UNL A   1      41.755  35.626  37.527  1.00  0.00     0.060 A 
BRANCH  91  92
ATOM     92  S   UNL A   1      41.896  36.920  38.777  1.00  0.00     0.124 S 
ATOM     93  O   UNL A   1      42.319  36.155  39.945  1.00  0.00    -0.237 OA
ATOM     94  O   UNL A   1      42.904  37.806  38.201  1.00  0.00    -0.237 OA
ATOM     95  O   UNL A   1      40.548  37.476  38.845  1.00  0.00    -0.744 OA
ENDBRANCH  91  92
ENDBRANCH  59  84
ENDBRANCH  33  34
ENDBRANCH  26  28
ENDBRANCH  25  26
ENDBRANCH   1  25
TORSDOF 17
ENDMDL
