MODEL 1
REMARK VINA RESULT:     -11.0      0.000      0.000
REMARK SMILES C[C@@H]1[C@@H](C(=O)OCCOC(=O)c2ccc(-c3c4nc(c(-c5c(F)cc(S(=O)(=O)[O-])cc5F)c5ccc([nH]5)c(-c5c(F)cc(S(=O)(=O)[O-])cc5F)c5nc(c(-c6c(F)cc(S(=O)(=O)[O-])cc6F)c6ccc3[nH]6)C=C5)C=C4)cc2)CCN1C(=O)N1CCC[C@H]2CCC[C@@H]21
REMARK SMILES IDX 8 1 7 2 6 3 4 4 5 5 3 6 1 7 2 8 80 9 78 10 79 11 81 12 82 13
REMARK SMILES IDX 83 14 84 15 91 16 85 17 87 18 90 19 86 20 88 21 89 22 9 23
REMARK SMILES IDX 10 24 11 25 12 26 13 27 77 28 14 29 76 30 15 31 16 32 17 33
REMARK SMILES IDX 70 34 18 35 75 36 69 37 71 38 19 39 74 40 68 41 67 42 20 44
REMARK SMILES IDX 54 45 33 46 53 47 34 48 37 49 52 50 72 51 35 52 36 53 51 55
REMARK SMILES IDX 73 56 38 57 21 58 22 59 31 60 23 61 24 62 30 63 32 64 25 65
REMARK SMILES IDX 26 66 27 67 28 68 29 69 55 70 56 71 65 72 57 73 58 74 64 75
REMARK SMILES IDX 66 76 59 77 60 78 61 79 62 80 63 81 39 82 40 83 49 84 41 85
REMARK SMILES IDX 42 86 48 87 50 88 43 89 44 90 45 91 46 92 47 93
REMARK H PARENT 71 43 37 54
REMARK Flexibility Score: inf
ROOT
ATOM      1  C   UNL A   1      33.308  29.165  26.310  1.00  0.00     0.275 C 
ENDROOT
BRANCH   1   2
ATOM      2  C   UNL A   1      32.009  28.404  26.606  1.00  0.00     0.274 C 
BRANCH   2   3
ATOM      3  O   UNL A   1      31.419  27.851  25.414  1.00  0.00    -0.462 OA
BRANCH   3   4
ATOM      4  C   UNL A   1      30.922  26.584  25.530  1.00  0.00     0.311 C 
ATOM      5  O   UNL A   1      30.307  26.173  26.502  1.00  0.00    -0.252 OA
BRANCH   4   6
ATOM      6  C   UNL A   1      31.153  25.810  24.244  1.00  0.00     0.123 C 
ATOM      7  C   UNL A   1      30.961  23.479  23.330  1.00  0.00     0.032 C 
ATOM      8  C   UNL A   1      31.430  24.322  24.522  1.00  0.00     0.098 C 
ATOM      9  N   UNL A   1      32.888  24.268  24.709  1.00  0.00    -0.321 N 
ATOM     10  C   UNL A   1      32.411  26.254  23.499  1.00  0.00     0.039 C 
ATOM     11  C   UNL A   1      33.525  25.448  24.154  1.00  0.00     0.122 C 
BRANCH   9  12
ATOM     12  C   UNL A   1      33.569  23.563  25.694  1.00  0.00     0.320 C 
ATOM     13  O   UNL A   1      33.302  23.695  26.887  1.00  0.00    -0.248 OA
BRANCH  12  14
ATOM     14  N   UNL A   1      34.448  22.612  25.242  1.00  0.00    -0.321 N 
ATOM     15  C   UNL A   1      34.003  21.444  24.495  1.00  0.00     0.121 C 
ATOM     16  C   UNL A   1      35.866  22.882  25.095  1.00  0.00     0.090 C 
ATOM     17  C   UNL A   1      34.757  20.189  24.939  1.00  0.00     0.022 C 
ATOM     18  C   UNL A   1      36.606  21.707  25.739  1.00  0.00     0.012 C 
ATOM     19  C   UNL A   1      36.492  24.076  25.805  1.00  0.00     0.025 C 
ATOM     20  C   UNL A   1      36.276  20.411  24.999  1.00  0.00     0.007 C 
ATOM     21  C   UNL A   1      38.052  22.178  25.747  1.00  0.00     0.006 C 
ATOM     22  C   UNL A   1      37.971  23.696  25.937  1.00  0.00     0.002 C 
ENDBRANCH  12  14
ENDBRANCH   9  12
ENDBRANCH   4   6
ENDBRANCH   3   4
ENDBRANCH   2   3
ENDBRANCH   1   2
BRANCH   1  23
ATOM     23  O   UNL A   1      34.352  28.863  27.256  1.00  0.00    -0.458 OA
BRANCH  23  24
ATOM     24  C   UNL A   1      34.826  29.928  27.949  1.00  0.00     0.338 C 
ATOM     25  O   UNL A   1      34.175  30.871  28.368  1.00  0.00    -0.246 OA
BRANCH  24  26
ATOM     26  C   UNL A   1      36.252  29.733  28.282  1.00  0.00     0.060 A 
ATOM     27  C   UNL A   1      37.175  29.920  27.250  1.00  0.00     0.016 A 
ATOM     28  C   UNL A   1      36.688  29.327  29.547  1.00  0.00     0.016 A 
ATOM     29  C   UNL A   1      38.533  29.725  27.482  1.00  0.00     0.010 A 
ATOM     30  C   UNL A   1      38.057  29.106  29.773  1.00  0.00     0.010 A 
ATOM     31  C   UNL A   1      38.986  29.305  28.741  1.00  0.00    -0.014 A 
BRANCH  31  32
ATOM     32  C   UNL A   1      40.437  29.036  28.905  1.00  0.00     0.031 A 
ATOM     33  C   UNL A   1      41.009  27.749  28.398  1.00  0.00     0.074 A 
ATOM     34  C   UNL A   1      41.251  29.999  29.377  1.00  0.00     0.049 A 
ATOM     35  N   UNL A   1      42.259  27.368  28.353  1.00  0.00    -0.248 NA
ATOM     36  C   UNL A   1      40.051  26.753  27.896  1.00  0.00     0.031 C 
ATOM     37  C   UNL A   1      40.798  31.287  29.886  1.00  0.00     0.029 A 
ATOM     38  N   UNL A   1      42.621  30.082  29.435  1.00  0.00    -0.354 N 
ATOM     39  C   UNL A   1      42.236  26.066  27.876  1.00  0.00     0.074 A 
ATOM     40  C   UNL A   1      40.854  25.739  27.598  1.00  0.00     0.031 C 
ATOM     41  C   UNL A   1      41.865  32.084  30.072  1.00  0.00     0.029 A 
ATOM     42  C   UNL A   1      43.080  31.341  29.758  1.00  0.00     0.049 A 
ATOM     43  H   UNL A   1      43.217  29.318  29.261  1.00  0.00     0.167 HD
ATOM     44  C   UNL A   1      43.275  25.209  27.737  1.00  0.00     0.037 A 
ATOM     45  C   UNL A   1      44.334  31.837  29.776  1.00  0.00     0.037 A 
ATOM     46  C   UNL A   1      44.643  25.546  28.036  1.00  0.00     0.049 A 
ATOM     47  C   UNL A   1      45.479  30.886  29.538  1.00  0.00     0.074 A 
ATOM     48  C   UNL A   1      45.757  24.726  28.027  1.00  0.00     0.029 A 
ATOM     49  N   UNL A   1      45.084  26.812  28.393  1.00  0.00    -0.354 N 
ATOM     50  N   UNL A   1      45.441  29.629  29.165  1.00  0.00    -0.248 NA
ATOM     51  C   UNL A   1      46.833  31.401  29.783  1.00  0.00     0.031 C 
ATOM     52  C   UNL A   1      46.867  25.488  28.409  1.00  0.00     0.029 A 
ATOM     53  C   UNL A   1      46.452  26.795  28.610  1.00  0.00     0.049 A 
ATOM     54  H   UNL A   1      44.509  27.607  28.478  1.00  0.00     0.167 HD
ATOM     55  C   UNL A   1      46.761  29.192  29.175  1.00  0.00     0.074 A 
ATOM     56  C   UNL A   1      47.579  30.336  29.519  1.00  0.00     0.031 C 
ATOM     57  C   UNL A   1      47.247  27.945  28.964  1.00  0.00     0.037 A 
BRANCH  44  58
ATOM     58  C   UNL A   1      42.949  23.798  27.342  1.00  0.00     0.058 A 
ATOM     59  C   UNL A   1      42.978  23.368  26.009  1.00  0.00     0.135 A 
ATOM     60  C   UNL A   1      42.596  22.862  28.328  1.00  0.00     0.135 A 
ATOM     61  F   UNL A   1      43.281  24.232  25.026  1.00  0.00    -0.206 F 
ATOM     62  C   UNL A   1      42.644  22.062  25.662  1.00  0.00     0.059 A 
ATOM     63  C   UNL A   1      42.281  21.547  28.008  1.00  0.00     0.059 A 
ATOM     64  F   UNL A   1      42.544  23.227  29.620  1.00  0.00    -0.206 F 
ATOM     65  C   UNL A   1      42.293  21.160  26.669  1.00  0.00     0.060 A 
BRANCH  65  66
ATOM     66  S   UNL A   1      41.848  19.474  26.207  1.00  0.00     0.124 S 
ATOM     67  O   UNL A   1      42.269  18.728  27.389  1.00  0.00    -0.237 OA
ATOM     68  O   UNL A   1      40.405  19.576  26.004  1.00  0.00    -0.237 OA
ATOM     69  O   UNL A   1      42.632  19.232  25.001  1.00  0.00    -0.744 OA
ENDBRANCH  65  66
ENDBRANCH  44  58
BRANCH  45  70
ATOM     70  C   UNL A   1      44.598  33.282  30.041  1.00  0.00     0.058 A 
ATOM     71  C   UNL A   1      44.759  33.750  31.357  1.00  0.00     0.135 A 
ATOM     72  C   UNL A   1      44.660  34.231  29.009  1.00  0.00     0.135 A 
ATOM     73  F   UNL A   1      44.696  32.892  32.386  1.00  0.00    -0.206 F 
ATOM     74  C   UNL A   1      44.950  35.101  31.640  1.00  0.00     0.059 A 
ATOM     75  C   UNL A   1      44.886  35.581  29.263  1.00  0.00     0.059 A 
ATOM     76  F   UNL A   1      44.514  33.846  27.732  1.00  0.00    -0.206 F 
ATOM     77  C   UNL A   1      45.009  36.010  30.584  1.00  0.00     0.060 A 
BRANCH  77  78
ATOM     78  S   UNL A   1      45.285  37.760  30.940  1.00  0.00     0.124 S 
ATOM     79  O   UNL A   1      45.702  38.260  29.636  1.00  0.00    -0.237 OA
ATOM     80  O   UNL A   1      43.973  38.198  31.403  1.00  0.00    -0.237 OA
ATOM     81  O   UNL A   1      46.323  37.727  31.967  1.00  0.00    -0.744 OA
ENDBRANCH  77  78
ENDBRANCH  45  70
BRANCH  57  82
ATOM     82  C   UNL A   1      48.726  27.746  29.135  1.00  0.00     0.058 A 
ATOM     83  C   UNL A   1      49.272  27.387  30.379  1.00  0.00     0.135 A 
ATOM     84  C   UNL A   1      49.599  27.856  28.042  1.00  0.00     0.135 A 
ATOM     85  F   UNL A   1      48.480  27.272  31.457  1.00  0.00    -0.206 F 
ATOM     86  C   UNL A   1      50.635  27.163  30.536  1.00  0.00     0.059 A 
ATOM     87  C   UNL A   1      50.963  27.614  28.171  1.00  0.00     0.059 A 
ATOM     88  F   UNL A   1      49.125  28.188  26.830  1.00  0.00    -0.206 F 
ATOM     89  C   UNL A   1      51.473  27.277  29.426  1.00  0.00     0.060 A 
BRANCH  89  90
ATOM     90  S   UNL A   1      53.235  26.943  29.634  1.00  0.00     0.124 S 
ATOM     91  O   UNL A   1      53.759  28.280  29.894  1.00  0.00    -0.237 OA
ATOM     92  O   UNL A   1      53.248  26.026  30.771  1.00  0.00    -0.237 OA
ATOM     93  O   UNL A   1      53.622  26.353  28.356  1.00  0.00    -0.744 OA
ENDBRANCH  89  90
ENDBRANCH  57  82
ENDBRANCH  31  32
ENDBRANCH  24  26
ENDBRANCH  23  24
ENDBRANCH   1  23
TORSDOF 16
ENDMDL
MODEL 2
REMARK VINA RESULT:     -11.0      0.904      2.093
REMARK SMILES C[C@@H]1[C@@H](C(=O)OCCOC(=O)c2ccc(-c3c4nc(c(-c5c(F)cc(S(=O)(=O)[O-])cc5F)c5ccc([nH]5)c(-c5c(F)cc(S(=O)(=O)[O-])cc5F)c5nc(c(-c6c(F)cc(S(=O)(=O)[O-])cc6F)c6ccc3[nH]6)C=C5)C=C4)cc2)CCN1C(=O)N1CCC[C@H]2CCC[C@@H]21
REMARK SMILES IDX 8 1 7 2 6 3 4 4 5 5 3 6 1 7 2 8 80 9 78 10 79 11 81 12 82 13
REMARK SMILES IDX 83 14 84 15 91 16 85 17 87 18 90 19 86 20 88 21 89 22 9 23
REMARK SMILES IDX 10 24 11 25 12 26 13 27 77 28 14 29 76 30 15 31 16 32 17 33
REMARK SMILES IDX 70 34 18 35 75 36 69 37 71 38 19 39 74 40 68 41 67 42 20 44
REMARK SMILES IDX 54 45 33 46 53 47 34 48 37 49 52 50 72 51 35 52 36 53 51 55
REMARK SMILES IDX 73 56 38 57 21 58 22 59 31 60 23 61 24 62 30 63 32 64 25 65
REMARK SMILES IDX 26 66 27 67 28 68 29 69 55 70 56 71 65 72 57 73 58 74 64 75
REMARK SMILES IDX 66 76 59 77 60 78 61 79 62 80 63 81 39 82 40 83 49 84 41 85
REMARK SMILES IDX 42 86 48 87 50 88 43 89 44 90 45 91 46 92 47 93
REMARK H PARENT 71 43 37 54
REMARK Flexibility Score: inf
ROOT
ATOM      1  C   UNL A   1      32.909  28.915  27.041  1.00  0.00     0.275 C 
ENDROOT
BRANCH   1   2
ATOM      2  C   UNL A   1      32.745  29.337  25.575  1.00  0.00     0.274 C 
BRANCH   2   3
ATOM      3  O   UNL A   1      32.704  28.206  24.685  1.00  0.00    -0.462 OA
BRANCH   3   4
ATOM      4  C   UNL A   1      31.493  27.947  24.108  1.00  0.00     0.311 C 
ATOM      5  O   UNL A   1      31.015  28.598  23.192  1.00  0.00    -0.252 OA
BRANCH   4   6
ATOM      6  C   UNL A   1      30.891  26.683  24.698  1.00  0.00     0.123 C 
ATOM      7  C   UNL A   1      31.446  24.859  26.332  1.00  0.00     0.032 C 
ATOM      8  C   UNL A   1      31.982  25.705  25.171  1.00  0.00     0.098 C 
ATOM      9  N   UNL A   1      32.271  24.901  23.975  1.00  0.00    -0.321 N 
ATOM     10  C   UNL A   1      30.119  25.856  23.672  1.00  0.00     0.039 C 
ATOM     11  C   UNL A   1      31.194  25.004  23.008  1.00  0.00     0.122 C 
BRANCH   9  12
ATOM     12  C   UNL A   1      33.528  24.531  23.512  1.00  0.00     0.320 C 
ATOM     13  O   UNL A   1      33.978  24.958  22.449  1.00  0.00    -0.248 OA
BRANCH  12  14
ATOM     14  N   UNL A   1      34.284  23.784  24.378  1.00  0.00    -0.321 N 
ATOM     15  C   UNL A   1      35.272  24.392  25.260  1.00  0.00     0.121 C 
ATOM     16  C   UNL A   1      33.892  22.449  24.789  1.00  0.00     0.090 C 
ATOM     17  C   UNL A   1      36.542  23.543  25.329  1.00  0.00     0.022 C 
ATOM     18  C   UNL A   1      35.133  21.564  24.648  1.00  0.00     0.012 C 
ATOM     19  C   UNL A   1      32.859  21.676  23.979  1.00  0.00     0.025 C 
ATOM     20  C   UNL A   1      36.238  22.057  25.581  1.00  0.00     0.007 C 
ATOM     21  C   UNL A   1      34.581  20.164  24.870  1.00  0.00     0.006 C 
ATOM     22  C   UNL A   1      33.159  20.208  24.300  1.00  0.00     0.002 C 
ENDBRANCH  12  14
ENDBRANCH   9  12
ENDBRANCH   4   6
ENDBRANCH   3   4
ENDBRANCH   2   3
ENDBRANCH   1   2
BRANCH   1  23
ATOM     23  O   UNL A   1      34.291  28.818  27.437  1.00  0.00    -0.458 OA
BRANCH  23  24
ATOM     24  C   UNL A   1      34.817  29.947  27.973  1.00  0.00     0.338 C 
ATOM     25  O   UNL A   1      34.211  30.970  28.251  1.00  0.00    -0.246 OA
BRANCH  24  26
ATOM     26  C   UNL A   1      36.232  29.734  28.338  1.00  0.00     0.060 A 
ATOM     27  C   UNL A   1      37.180  29.904  27.326  1.00  0.00     0.016 A 
ATOM     28  C   UNL A   1      36.635  29.327  29.615  1.00  0.00     0.016 A 
ATOM     29  C   UNL A   1      38.530  29.692  27.589  1.00  0.00     0.010 A 
ATOM     30  C   UNL A   1      37.995  29.088  29.871  1.00  0.00     0.010 A 
ATOM     31  C   UNL A   1      38.949  29.270  28.859  1.00  0.00    -0.014 A 
BRANCH  31  32
ATOM     32  C   UNL A   1      40.392  28.983  29.056  1.00  0.00     0.031 A 
ATOM     33  C   UNL A   1      40.963  27.697  28.544  1.00  0.00     0.074 A 
ATOM     34  C   UNL A   1      41.204  29.929  29.565  1.00  0.00     0.049 A 
ATOM     35  N   UNL A   1      42.209  27.303  28.524  1.00  0.00    -0.248 NA
ATOM     36  C   UNL A   1      40.008  26.720  28.001  1.00  0.00     0.031 C 
ATOM     37  C   UNL A   1      40.752  31.214  30.082  1.00  0.00     0.029 A 
ATOM     38  N   UNL A   1      42.573  29.996  29.659  1.00  0.00    -0.354 N 
ATOM     39  C   UNL A   1      42.185  26.009  28.027  1.00  0.00     0.074 A 
ATOM     40  C   UNL A   1      40.806  25.702  27.708  1.00  0.00     0.031 C 
ATOM     41  C   UNL A   1      41.823  31.996  30.308  1.00  0.00     0.029 A 
ATOM     42  C   UNL A   1      43.037  31.243  30.014  1.00  0.00     0.049 A 
ATOM     43  H   UNL A   1      43.165  29.227  29.488  1.00  0.00     0.167 HD
ATOM     44  C   UNL A   1      43.218  25.142  27.900  1.00  0.00     0.037 A 
ATOM     45  C   UNL A   1      44.296  31.725  30.072  1.00  0.00     0.037 A 
ATOM     46  C   UNL A   1      44.580  25.459  28.240  1.00  0.00     0.049 A 
ATOM     47  C   UNL A   1      45.436  30.765  29.848  1.00  0.00     0.074 A 
ATOM     48  C   UNL A   1      45.686  24.627  28.247  1.00  0.00     0.029 A 
ATOM     49  N   UNL A   1      45.026  26.715  28.628  1.00  0.00    -0.354 N 
ATOM     50  N   UNL A   1      45.394  29.514  29.454  1.00  0.00    -0.248 NA
ATOM     51  C   UNL A   1      46.789  31.261  30.137  1.00  0.00     0.031 C 
ATOM     52  C   UNL A   1      46.794  25.370  28.669  1.00  0.00     0.029 A 
ATOM     53  C   UNL A   1      46.388  26.678  28.880  1.00  0.00     0.049 A 
ATOM     54  H   UNL A   1      44.458  27.514  28.711  1.00  0.00     0.167 HD
ATOM     55  C   UNL A   1      46.708  29.063  29.491  1.00  0.00     0.074 A 
ATOM     56  C   UNL A   1      47.530  30.192  29.874  1.00  0.00     0.031 C 
ATOM     57  C   UNL A   1      47.186  27.813  29.273  1.00  0.00     0.037 A 
BRANCH  44  58
ATOM     58  C   UNL A   1      42.887  23.742  27.475  1.00  0.00     0.058 A 
ATOM     59  C   UNL A   1      42.518  22.749  28.392  1.00  0.00     0.135 A 
ATOM     60  C   UNL A   1      42.948  23.392  26.115  1.00  0.00     0.135 A 
ATOM     61  F   UNL A   1      42.473  23.024  29.705  1.00  0.00    -0.206 F 
ATOM     62  C   UNL A   1      42.243  21.448  27.979  1.00  0.00     0.059 A 
ATOM     63  C   UNL A   1      42.656  22.106  25.677  1.00  0.00     0.059 A 
ATOM     64  F   UNL A   1      43.307  24.305  25.198  1.00  0.00    -0.206 F 
ATOM     65  C   UNL A   1      42.319  21.136  26.620  1.00  0.00     0.060 A 
BRANCH  65  66
ATOM     66  S   UNL A   1      41.975  19.444  26.097  1.00  0.00     0.124 S 
ATOM     67  O   UNL A   1      42.794  19.340  24.892  1.00  0.00    -0.237 OA
ATOM     68  O   UNL A   1      42.432  18.663  27.243  1.00  0.00    -0.237 OA
ATOM     69  O   UNL A   1      40.532  19.442  25.877  1.00  0.00    -0.744 OA
ENDBRANCH  65  66
ENDBRANCH  44  58
BRANCH  45  70
ATOM     70  C   UNL A   1      44.569  33.163  30.366  1.00  0.00     0.058 A 
ATOM     71  C   UNL A   1      44.675  34.099  29.322  1.00  0.00     0.135 A 
ATOM     72  C   UNL A   1      44.766  33.633  31.673  1.00  0.00     0.135 A 
ATOM     73  F   UNL A   1      44.510  33.705  28.050  1.00  0.00    -0.206 F 
ATOM     74  C   UNL A   1      44.984  35.436  29.561  1.00  0.00     0.059 A 
ATOM     75  C   UNL A   1      45.041  34.972  31.941  1.00  0.00     0.059 A 
ATOM     76  F   UNL A   1      44.678  32.788  32.713  1.00  0.00    -0.206 F 
ATOM     77  C   UNL A   1      45.168  35.862  30.875  1.00  0.00     0.060 A 
BRANCH  77  78
ATOM     78  S   UNL A   1      45.542  37.601  31.196  1.00  0.00     0.124 S 
ATOM     79  O   UNL A   1      46.274  37.514  32.453  1.00  0.00    -0.237 OA
ATOM     80  O   UNL A   1      46.327  37.976  30.025  1.00  0.00    -0.237 OA
ATOM     81  O   UNL A   1      44.218  38.213  31.274  1.00  0.00    -0.744 OA
ENDBRANCH  77  78
ENDBRANCH  45  70
BRANCH  57  82
ATOM     82  C   UNL A   1      48.658  27.595  29.479  1.00  0.00     0.058 A 
ATOM     83  C   UNL A   1      49.170  27.235  30.736  1.00  0.00     0.135 A 
ATOM     84  C   UNL A   1      49.557  27.688  28.405  1.00  0.00     0.135 A 
ATOM     85  F   UNL A   1      48.353  27.136  31.796  1.00  0.00    -0.206 F 
ATOM     86  C   UNL A   1      50.526  26.993  30.926  1.00  0.00     0.059 A 
ATOM     87  C   UNL A   1      50.914  27.427  28.567  1.00  0.00     0.059 A 
ATOM     88  F   UNL A   1      49.115  28.020  27.182  1.00  0.00    -0.206 F 
ATOM     89  C   UNL A   1      51.391  27.090  29.834  1.00  0.00     0.060 A 
BRANCH  89  90
ATOM     90  S   UNL A   1      53.142  26.733  30.085  1.00  0.00     0.124 S 
ATOM     91  O   UNL A   1      53.526  26.211  28.777  1.00  0.00    -0.237 OA
ATOM     92  O   UNL A   1      53.684  28.046  30.427  1.00  0.00    -0.237 OA
ATOM     93  O   UNL A   1      53.138  25.761  31.173  1.00  0.00    -0.744 OA
ENDBRANCH  89  90
ENDBRANCH  57  82
ENDBRANCH  31  32
ENDBRANCH  24  26
ENDBRANCH  23  24
ENDBRANCH   1  23
TORSDOF 16
ENDMDL
MODEL 3
REMARK VINA RESULT:     -10.9      1.961      8.576
REMARK SMILES C[C@@H]1[C@@H](C(=O)OCCOC(=O)c2ccc(-c3c4nc(c(-c5c(F)cc(S(=O)(=O)[O-])cc5F)c5ccc([nH]5)c(-c5c(F)cc(S(=O)(=O)[O-])cc5F)c5nc(c(-c6c(F)cc(S(=O)(=O)[O-])cc6F)c6ccc3[nH]6)C=C5)C=C4)cc2)CCN1C(=O)N1CCC[C@H]2CCC[C@@H]21
REMARK SMILES IDX 8 1 7 2 6 3 4 4 5 5 3 6 1 7 2 8 80 9 78 10 79 11 81 12 82 13
REMARK SMILES IDX 83 14 84 15 91 16 85 17 87 18 90 19 86 20 88 21 89 22 9 23
REMARK SMILES IDX 10 24 11 25 12 26 13 27 77 28 14 29 76 30 15 31 16 32 17 33
REMARK SMILES IDX 70 34 18 35 75 36 69 37 71 38 19 39 74 40 68 41 67 42 20 44
REMARK SMILES IDX 54 45 33 46 53 47 34 48 37 49 52 50 72 51 35 52 36 53 51 55
REMARK SMILES IDX 73 56 38 57 21 58 22 59 31 60 23 61 24 62 30 63 32 64 25 65
REMARK SMILES IDX 26 66 27 67 28 68 29 69 55 70 56 71 65 72 57 73 58 74 64 75
REMARK SMILES IDX 66 76 59 77 60 78 61 79 62 80 63 81 39 82 40 83 49 84 41 85
REMARK SMILES IDX 42 86 48 87 50 88 43 89 44 90 45 91 46 92 47 93
REMARK H PARENT 71 43 37 54
REMARK Flexibility Score: inf
ROOT
ATOM      1  C   UNL A   1      34.343  29.927  27.508  1.00  0.00     0.275 C 
ENDROOT
BRANCH   1   2
ATOM      2  C   UNL A   1      33.195  28.968  27.171  1.00  0.00     0.274 C 
BRANCH   2   3
ATOM      3  O   UNL A   1      33.379  28.325  25.896  1.00  0.00    -0.462 OA
BRANCH   3   4
ATOM      4  C   UNL A   1      32.333  28.422  25.024  1.00  0.00     0.311 C 
ATOM      5  O   UNL A   1      32.248  29.262  24.142  1.00  0.00    -0.252 OA
BRANCH   4   6
ATOM      6  C   UNL A   1      31.358  27.278  25.245  1.00  0.00     0.123 C 
ATOM      7  C   UNL A   1      31.308  24.920  26.106  1.00  0.00     0.032 C 
ATOM      8  C   UNL A   1      32.072  25.914  25.223  1.00  0.00     0.098 C 
ATOM      9  N   UNL A   1      32.054  25.535  23.803  1.00  0.00    -0.321 N 
ATOM     10  C   UNL A   1      30.334  27.141  24.119  1.00  0.00     0.039 C 
ATOM     11  C   UNL A   1      31.053  26.294  23.076  1.00  0.00     0.122 C 
BRANCH   9  12
ATOM     12  C   UNL A   1      33.108  24.989  23.080  1.00  0.00     0.320 C 
ATOM     13  O   UNL A   1      33.825  25.680  22.358  1.00  0.00    -0.248 OA
BRANCH  12  14
ATOM     14  N   UNL A   1      33.383  23.670  23.337  1.00  0.00    -0.321 N 
ATOM     15  C   UNL A   1      32.815  22.594  22.536  1.00  0.00     0.121 C 
ATOM     16  C   UNL A   1      34.541  23.261  24.110  1.00  0.00     0.090 C 
ATOM     17  C   UNL A   1      32.386  21.421  23.418  1.00  0.00     0.022 C 
ATOM     18  C   UNL A   1      34.045  22.237  25.134  1.00  0.00     0.012 C 
ATOM     19  C   UNL A   1      35.259  24.270  24.997  1.00  0.00     0.025 C 
ATOM     20  C   UNL A   1      33.478  21.011  24.418  1.00  0.00     0.007 C 
ATOM     21  C   UNL A   1      35.254  22.043  26.036  1.00  0.00     0.006 C 
ATOM     22  C   UNL A   1      35.953  23.407  26.057  1.00  0.00     0.002 C 
ENDBRANCH  12  14
ENDBRANCH   9  12
ENDBRANCH   4   6
ENDBRANCH   3   4
ENDBRANCH   2   3
ENDBRANCH   1   2
BRANCH   1  23
ATOM     23  O   UNL A   1      35.410  29.280  28.229  1.00  0.00    -0.458 OA
BRANCH  23  24
ATOM     24  C   UNL A   1      36.165  30.101  29.000  1.00  0.00     0.338 C 
ATOM     25  O   UNL A   1      35.757  30.883  29.844  1.00  0.00    -0.246 OA
BRANCH  24  26
ATOM     26  C   UNL A   1      37.601  29.819  28.802  1.00  0.00     0.060 A 
ATOM     27  C   UNL A   1      38.066  29.796  27.484  1.00  0.00     0.016 A 
ATOM     28  C   UNL A   1      38.472  29.529  29.857  1.00  0.00     0.016 A 
ATOM     29  C   UNL A   1      39.401  29.509  27.218  1.00  0.00     0.010 A 
ATOM     30  C   UNL A   1      39.813  29.214  29.585  1.00  0.00     0.010 A 
ATOM     31  C   UNL A   1      40.284  29.203  28.264  1.00  0.00    -0.014 A 
BRANCH  31  32
ATOM     32  C   UNL A   1      41.676  28.826  27.911  1.00  0.00     0.031 A 
ATOM     33  C   UNL A   1      42.798  29.758  28.248  1.00  0.00     0.074 A 
ATOM     34  C   UNL A   1      41.938  27.600  27.420  1.00  0.00     0.049 A 
ATOM     35  N   UNL A   1      44.086  29.572  28.118  1.00  0.00    -0.248 NA
ATOM     36  C   UNL A   1      42.425  31.076  28.783  1.00  0.00     0.031 C 
ATOM     37  C   UNL A   1      40.922  26.617  27.067  1.00  0.00     0.029 A 
ATOM     38  N   UNL A   1      43.125  26.942  27.209  1.00  0.00    -0.354 N 
ATOM     39  C   UNL A   1      44.677  30.769  28.494  1.00  0.00     0.074 A 
ATOM     40  C   UNL A   1      43.611  31.658  28.907  1.00  0.00     0.031 C 
ATOM     41  C   UNL A   1      41.521  25.439  26.819  1.00  0.00     0.029 A 
ATOM     42  C   UNL A   1      42.966  25.602  26.930  1.00  0.00     0.049 A 
ATOM     43  H   UNL A   1      44.004  27.384  27.254  1.00  0.00     0.167 HD
ATOM     44  C   UNL A   1      45.987  31.106  28.446  1.00  0.00     0.037 A 
ATOM     45  C   UNL A   1      43.882  24.619  26.803  1.00  0.00     0.037 A 
ATOM     46  C   UNL A   1      47.032  30.214  28.015  1.00  0.00     0.049 A 
ATOM     47  C   UNL A   1      45.340  24.998  26.834  1.00  0.00     0.074 A 
ATOM     48  C   UNL A   1      48.378  30.483  27.832  1.00  0.00     0.029 A 
ATOM     49  N   UNL A   1      46.849  28.873  27.706  1.00  0.00    -0.354 N 
ATOM     50  N   UNL A   1      45.884  26.159  27.113  1.00  0.00    -0.248 NA
ATOM     51  C   UNL A   1      46.306  23.951  26.471  1.00  0.00     0.031 C 
ATOM     52  C   UNL A   1      49.002  29.314  27.381  1.00  0.00     0.029 A 
ATOM     53  C   UNL A   1      48.055  28.304  27.329  1.00  0.00     0.049 A 
ATOM     54  H   UNL A   1      45.989  28.397  27.749  1.00  0.00     0.167 HD
ATOM     55  C   UNL A   1      47.250  25.993  26.915  1.00  0.00     0.074 A 
ATOM     56  C   UNL A   1      47.458  24.603  26.565  1.00  0.00     0.031 C 
ATOM     57  C   UNL A   1      48.238  26.919  26.972  1.00  0.00     0.037 A 
BRANCH  44  58
ATOM     58  C   UNL A   1      46.340  32.528  28.768  1.00  0.00     0.058 A 
ATOM     59  C   UNL A   1      46.700  32.936  30.060  1.00  0.00     0.135 A 
ATOM     60  C   UNL A   1      46.309  33.501  27.755  1.00  0.00     0.135 A 
ATOM     61  F   UNL A   1      46.716  32.051  31.069  1.00  0.00    -0.206 F 
ATOM     62  C   UNL A   1      46.995  34.267  30.343  1.00  0.00     0.059 A 
ATOM     63  C   UNL A   1      46.622  34.832  28.010  1.00  0.00     0.059 A 
ATOM     64  F   UNL A   1      45.960  33.163  26.504  1.00  0.00    -0.206 F 
ATOM     65  C   UNL A   1      46.949  35.207  29.311  1.00  0.00     0.060 A 
BRANCH  65  66
ATOM     66  S   UNL A   1      47.320  36.932  29.692  1.00  0.00     0.124 S 
ATOM     67  O   UNL A   1      46.104  37.343  30.388  1.00  0.00    -0.237 OA
ATOM     68  O   UNL A   1      48.517  36.819  30.520  1.00  0.00    -0.237 OA
ATOM     69  O   UNL A   1      47.524  37.534  28.378  1.00  0.00    -0.744 OA
ENDBRANCH  65  66
ENDBRANCH  44  58
BRANCH  45  70
ATOM     70  C   UNL A   1      43.477  23.194  26.619  1.00  0.00     0.058 A 
ATOM     71  C   UNL A   1      43.016  22.436  27.710  1.00  0.00     0.135 A 
ATOM     72  C   UNL A   1      43.572  22.545  25.379  1.00  0.00     0.135 A 
ATOM     73  F   UNL A   1      42.917  22.998  28.924  1.00  0.00    -0.206 F 
ATOM     74  C   UNL A   1      42.684  21.089  27.582  1.00  0.00     0.059 A 
ATOM     75  C   UNL A   1      43.213  21.209  25.218  1.00  0.00     0.059 A 
ATOM     76  F   UNL A   1      44.006  23.215  24.300  1.00  0.00    -0.206 F 
ATOM     77  C   UNL A   1      42.789  20.483  26.331  1.00  0.00     0.060 A 
BRANCH  77  78
ATOM     78  S   UNL A   1      42.334  18.744  26.150  1.00  0.00     0.124 S 
ATOM     79  O   UNL A   1      43.279  18.300  25.133  1.00  0.00    -0.237 OA
ATOM     80  O   UNL A   1      42.550  18.220  27.495  1.00  0.00    -0.237 OA
ATOM     81  O   UNL A   1      40.936  18.811  25.731  1.00  0.00    -0.744 OA
ENDBRANCH  77  78
ENDBRANCH  45  70
BRANCH  57  82
ATOM     82  C   UNL A   1      49.625  26.467  26.615  1.00  0.00     0.058 A 
ATOM     83  C   UNL A   1      50.513  26.001  27.599  1.00  0.00     0.135 A 
ATOM     84  C   UNL A   1      50.052  26.442  25.279  1.00  0.00     0.135 A 
ATOM     85  F   UNL A   1      50.154  26.008  28.892  1.00  0.00    -0.206 F 
ATOM     86  C   UNL A   1      51.784  25.544  27.271  1.00  0.00     0.059 A 
ATOM     87  C   UNL A   1      51.312  25.967  24.926  1.00  0.00     0.059 A 
ATOM     88  F   UNL A   1      49.237  26.867  24.301  1.00  0.00    -0.206 F 
ATOM     89  C   UNL A   1      52.175  25.529  25.931  1.00  0.00     0.060 A 
BRANCH  89  90
ATOM     90  S   UNL A   1      53.813  24.895  25.515  1.00  0.00     0.124 S 
ATOM     91  O   UNL A   1      54.217  25.803  24.447  1.00  0.00    -0.237 OA
ATOM     92  O   UNL A   1      54.535  25.039  26.776  1.00  0.00    -0.237 OA
ATOM     93  O   UNL A   1      53.550  23.519  25.104  1.00  0.00    -0.744 OA
ENDBRANCH  89  90
ENDBRANCH  57  82
ENDBRANCH  31  32
ENDBRANCH  24  26
ENDBRANCH  23  24
ENDBRANCH   1  23
TORSDOF 16
ENDMDL
