MODEL 1
REMARK VINA RESULT:     -12.3      0.000      0.000
REMARK SMILES Cc1c(F)cc(C(=O)OCCOC(=O)c2ccc(-c3c4nc(c(-c5c(F)cc(S(=O)(=O)[O-])cc5F)c5ccc([nH]5)c(-c5c(F)cc(S(=O)(=O)[O-])cc5F)c5nc(c(-c6c(F)cc(S(=O)(=O)[O-])cc6F)c6ccc3[nH]6)C=C5)C=C4)cc2)cc1S(=O)(=O)NC#N
REMARK SMILES IDX 10 1 9 2 7 3 8 4 6 5 1 6 2 7 3 8 82 9 4 10 5 11 81 12 83 13
REMARK SMILES IDX 84 14 85 15 86 16 87 18 88 19 11 20 12 21 13 22 14 23 15 24
REMARK SMILES IDX 16 25 80 26 17 27 79 28 18 29 19 30 20 31 73 32 21 33 78 34
REMARK SMILES IDX 72 35 74 36 22 37 77 38 71 39 70 40 23 42 57 43 36 44 56 45
REMARK SMILES IDX 37 46 40 47 55 48 75 49 38 50 39 51 54 53 76 54 41 55 24 56
REMARK SMILES IDX 25 57 34 58 26 59 27 60 33 61 35 62 28 63 29 64 30 65 31 66
REMARK SMILES IDX 32 67 58 68 59 69 68 70 60 71 61 72 67 73 69 74 62 75 63 76
REMARK SMILES IDX 64 77 65 78 66 79 42 80 43 81 52 82 44 83 45 84 51 85 53 86
REMARK SMILES IDX 46 87 47 88 48 89 49 90 50 91
REMARK H PARENT 86 17 74 41 40 52
REMARK Flexibility Score: inf
ROOT
ATOM      1  C   UNL A   1      39.892  21.288  26.299  1.00  0.00     0.275 C 
ENDROOT
BRANCH   1   2
ATOM      2  O   UNL A   1      38.560  21.441  25.778  1.00  0.00    -0.458 OA
BRANCH   2   3
ATOM      3  C   UNL A   1      38.006  20.343  25.214  1.00  0.00     0.338 C 
ATOM      4  O   UNL A   1      38.558  19.294  24.923  1.00  0.00    -0.246 OA
BRANCH   3   5
ATOM      5  C   UNL A   1      36.569  20.571  24.981  1.00  0.00     0.064 A 
ATOM      6  C   UNL A   1      32.465  21.385  23.972  1.00  0.00     0.049 C 
ATOM      7  C   UNL A   1      33.835  20.993  24.425  1.00  0.00     0.005 A 
ATOM      8  C   UNL A   1      34.758  22.058  24.533  1.00  0.00     0.128 A 
ATOM      9  C   UNL A   1      34.291  19.694  24.714  1.00  0.00     0.095 A 
ATOM     10  F   UNL A   1      34.336  23.314  24.316  1.00  0.00    -0.207 F 
ATOM     11  C   UNL A   1      36.100  21.866  24.837  1.00  0.00     0.055 A 
ATOM     12  C   UNL A   1      35.677  19.496  24.939  1.00  0.00     0.038 A 
BRANCH   9  13
ATOM     13  S   UNL A   1      33.336  18.187  24.730  1.00  0.00     0.270 S 
ATOM     14  O   UNL A   1      32.163  18.347  25.556  1.00  0.00    -0.201 OA
ATOM     15  O   UNL A   1      33.185  17.802  23.333  1.00  0.00    -0.201 OA
BRANCH  13  16
ATOM     16  N   UNL A   1      34.140  16.837  25.309  1.00  0.00    -0.215 NA
ATOM     17  H   UNL A   1      35.078  16.920  25.597  1.00  0.00     0.193 HD
BRANCH  16  18
ATOM     18  C   UNL A   1      33.537  15.661  25.388  1.00  0.00     0.191 C 
ATOM     19  N   UNL A   1      33.031  14.632  25.286  1.00  0.00    -0.172 NA
ENDBRANCH  16  18
ENDBRANCH  13  16
ENDBRANCH   9  13
ENDBRANCH   3   5
ENDBRANCH   2   3
ENDBRANCH   1   2
BRANCH   1  20
ATOM     20  C   UNL A   1      40.238  22.458  27.217  1.00  0.00     0.275 C 
BRANCH  20  21
ATOM     21  O   UNL A   1      40.072  23.772  26.650  1.00  0.00    -0.458 OA
BRANCH  21  22
ATOM     22  C   UNL A   1      39.008  24.513  27.038  1.00  0.00     0.338 C 
ATOM     23  O   UNL A   1      37.835  24.201  26.960  1.00  0.00    -0.246 OA
BRANCH  22  24
ATOM     24  C   UNL A   1      39.489  25.761  27.637  1.00  0.00     0.060 A 
ATOM     25  C   UNL A   1      39.295  25.965  29.013  1.00  0.00     0.016 A 
ATOM     26  C   UNL A   1      40.015  26.755  26.812  1.00  0.00     0.016 A 
ATOM     27  C   UNL A   1      39.459  27.227  29.545  1.00  0.00     0.010 A 
ATOM     28  C   UNL A   1      40.195  28.002  27.339  1.00  0.00     0.010 A 
ATOM     29  C   UNL A   1      39.860  28.235  28.681  1.00  0.00    -0.014 A 
BRANCH  29  30
ATOM     30  C   UNL A   1      40.219  29.550  29.140  1.00  0.00     0.031 A 
ATOM     31  C   UNL A   1      39.127  30.543  29.061  1.00  0.00     0.074 A 
ATOM     32  C   UNL A   1      41.355  29.591  29.869  1.00  0.00     0.049 A 
ATOM     33  N   UNL A   1      39.278  31.801  29.245  1.00  0.00    -0.248 NA
ATOM     34  C   UNL A   1      37.745  30.210  28.667  1.00  0.00     0.031 C 
ATOM     35  C   UNL A   1      41.711  30.435  30.995  1.00  0.00     0.029 A 
ATOM     36  N   UNL A   1      42.524  28.866  29.621  1.00  0.00    -0.354 N 
ATOM     37  C   UNL A   1      38.013  32.329  29.427  1.00  0.00     0.074 A 
ATOM     38  C   UNL A   1      37.106  31.371  28.858  1.00  0.00     0.031 C 
ATOM     39  C   UNL A   1      43.045  30.386  31.178  1.00  0.00     0.029 A 
ATOM     40  C   UNL A   1      43.615  29.637  30.067  1.00  0.00     0.049 A 
ATOM     41  H   UNL A   1      42.576  27.973  29.208  1.00  0.00     0.167 HD
ATOM     42  C   UNL A   1      37.895  33.412  30.241  1.00  0.00     0.037 A 
ATOM     43  C   UNL A   1      44.477  30.169  29.139  1.00  0.00     0.037 A 
ATOM     44  C   UNL A   1      39.222  33.762  30.735  1.00  0.00     0.049 A 
ATOM     45  C   UNL A   1      44.290  31.657  28.941  1.00  0.00     0.074 A 
ATOM     46  C   UNL A   1      39.948  33.379  31.848  1.00  0.00     0.029 A 
ATOM     47  N   UNL A   1      40.124  34.273  29.839  1.00  0.00    -0.354 N 
ATOM     48  N   UNL A   1      43.294  32.337  29.434  1.00  0.00    -0.248 NA
ATOM     49  C   UNL A   1      45.176  32.477  28.120  1.00  0.00     0.031 C 
ATOM     50  C   UNL A   1      41.320  33.657  31.581  1.00  0.00     0.029 A 
ATOM     51  C   UNL A   1      41.413  34.192  30.308  1.00  0.00     0.049 A 
ATOM     52  H   UNL A   1      39.877  34.655  28.965  1.00  0.00     0.167 HD
ATOM     53  C   UNL A   1      43.374  33.634  29.022  1.00  0.00     0.074 A 
ATOM     54  C   UNL A   1      44.545  33.663  28.160  1.00  0.00     0.031 C 
ATOM     55  C   UNL A   1      42.481  34.588  29.414  1.00  0.00     0.037 A 
BRANCH  42  56
ATOM     56  C   UNL A   1      36.656  34.056  30.811  1.00  0.00     0.058 A 
ATOM     57  C   UNL A   1      35.626  34.428  29.915  1.00  0.00     0.135 A 
ATOM     58  C   UNL A   1      36.377  34.302  32.170  1.00  0.00     0.135 A 
ATOM     59  F   UNL A   1      35.736  34.253  28.592  1.00  0.00    -0.206 F 
ATOM     60  C   UNL A   1      34.427  34.996  30.317  1.00  0.00     0.059 A 
ATOM     61  C   UNL A   1      35.175  34.891  32.600  1.00  0.00     0.059 A 
ATOM     62  F   UNL A   1      37.235  33.954  33.137  1.00  0.00    -0.206 F 
ATOM     63  C   UNL A   1      34.202  35.225  31.663  1.00  0.00     0.060 A 
BRANCH  63  64
ATOM     64  S   UNL A   1      32.612  35.931  32.121  1.00  0.00     0.124 S 
ATOM     65  O   UNL A   1      32.169  36.523  30.862  1.00  0.00    -0.237 OA
ATOM     66  O   UNL A   1      31.871  34.752  32.559  1.00  0.00    -0.237 OA
ATOM     67  O   UNL A   1      32.951  36.885  33.171  1.00  0.00    -0.744 OA
ENDBRANCH  63  64
ENDBRANCH  42  56
BRANCH  43  68
ATOM     68  C   UNL A   1      44.747  29.214  28.016  1.00  0.00     0.058 A 
ATOM     69  C   UNL A   1      45.662  28.179  28.297  1.00  0.00     0.135 A 
ATOM     70  C   UNL A   1      43.718  28.957  27.098  1.00  0.00     0.135 A 
ATOM     71  F   UNL A   1      46.700  28.402  29.118  1.00  0.00    -0.206 F 
ATOM     72  C   UNL A   1      45.379  26.869  27.942  1.00  0.00     0.059 A 
ATOM     73  C   UNL A   1      43.417  27.651  26.729  1.00  0.00     0.059 A 
ATOM     74  F   UNL A   1      42.870  29.932  26.737  1.00  0.00    -0.206 F 
ATOM     75  C   UNL A   1      44.200  26.615  27.247  1.00  0.00     0.060 A 
BRANCH  75  76
ATOM     76  S   UNL A   1      43.549  24.939  27.318  1.00  0.00     0.124 S 
ATOM     77  O   UNL A   1      44.750  24.130  27.483  1.00  0.00    -0.237 OA
ATOM     78  O   UNL A   1      42.667  25.015  28.480  1.00  0.00    -0.237 OA
ATOM     79  O   UNL A   1      42.881  24.801  26.033  1.00  0.00    -0.744 OA
ENDBRANCH  75  76
ENDBRANCH  43  68
BRANCH  55  80
ATOM     80  C   UNL A   1      42.566  36.005  28.939  1.00  0.00     0.058 A 
ATOM     81  C   UNL A   1      42.054  36.381  27.692  1.00  0.00     0.135 A 
ATOM     82  C   UNL A   1      43.215  37.019  29.680  1.00  0.00     0.135 A 
ATOM     83  F   UNL A   1      41.539  35.465  26.854  1.00  0.00    -0.206 F 
ATOM     84  C   UNL A   1      42.046  37.703  27.274  1.00  0.00     0.059 A 
ATOM     85  C   UNL A   1      43.301  38.329  29.240  1.00  0.00     0.059 A 
ATOM     86  F   UNL A   1      43.754  36.797  30.887  1.00  0.00    -0.206 F 
ATOM     87  C   UNL A   1      42.659  38.671  28.063  1.00  0.00     0.060 A 
BRANCH  87  88
ATOM     88  S   UNL A   1      42.594  40.388  27.548  1.00  0.00     0.124 S 
ATOM     89  O   UNL A   1      43.598  40.433  26.490  1.00  0.00    -0.237 OA
ATOM     90  O   UNL A   1      41.206  40.499  27.108  1.00  0.00    -0.237 OA
ATOM     91  O   UNL A   1      42.931  41.123  28.762  1.00  0.00    -0.744 OA
ENDBRANCH  87  88
ENDBRANCH  55  80
ENDBRANCH  29  30
ENDBRANCH  22  24
ENDBRANCH  21  22
ENDBRANCH  20  21
ENDBRANCH   1  20
TORSDOF 17
ENDMDL
MODEL 2
REMARK VINA RESULT:     -12.1      5.576     11.235
REMARK SMILES Cc1c(F)cc(C(=O)OCCOC(=O)c2ccc(-c3c4nc(c(-c5c(F)cc(S(=O)(=O)[O-])cc5F)c5ccc([nH]5)c(-c5c(F)cc(S(=O)(=O)[O-])cc5F)c5nc(c(-c6c(F)cc(S(=O)(=O)[O-])cc6F)c6ccc3[nH]6)C=C5)C=C4)cc2)cc1S(=O)(=O)NC#N
REMARK SMILES IDX 10 1 9 2 7 3 8 4 6 5 1 6 2 7 3 8 82 9 4 10 5 11 81 12 83 13
REMARK SMILES IDX 84 14 85 15 86 16 87 18 88 19 11 20 12 21 13 22 14 23 15 24
REMARK SMILES IDX 16 25 80 26 17 27 79 28 18 29 19 30 20 31 73 32 21 33 78 34
REMARK SMILES IDX 72 35 74 36 22 37 77 38 71 39 70 40 23 42 57 43 36 44 56 45
REMARK SMILES IDX 37 46 40 47 55 48 75 49 38 50 39 51 54 53 76 54 41 55 24 56
REMARK SMILES IDX 25 57 34 58 26 59 27 60 33 61 35 62 28 63 29 64 30 65 31 66
REMARK SMILES IDX 32 67 58 68 59 69 68 70 60 71 61 72 67 73 69 74 62 75 63 76
REMARK SMILES IDX 64 77 65 78 66 79 42 80 43 81 52 82 44 83 45 84 51 85 53 86
REMARK SMILES IDX 46 87 47 88 48 89 49 90 50 91
REMARK H PARENT 86 17 74 41 40 52
REMARK Flexibility Score: inf
ROOT
ATOM      1  C   UNL A   1      34.043  29.054  26.067  1.00  0.00     0.275 C 
ENDROOT
BRANCH   1   2
ATOM      2  O   UNL A   1      33.347  28.152  25.189  1.00  0.00    -0.458 OA
BRANCH   2   3
ATOM      3  C   UNL A   1      32.938  28.663  24.004  1.00  0.00     0.338 C 
ATOM      4  O   UNL A   1      33.605  29.274  23.184  1.00  0.00    -0.246 OA
BRANCH   3   5
ATOM      5  C   UNL A   1      31.507  28.376  23.802  1.00  0.00     0.064 A 
ATOM      6  C   UNL A   1      27.299  27.499  23.582  1.00  0.00     0.049 C 
ATOM      7  C   UNL A   1      28.746  27.872  23.515  1.00  0.00     0.005 A 
ATOM      8  C   UNL A   1      29.637  26.916  24.052  1.00  0.00     0.128 A 
ATOM      9  C   UNL A   1      29.288  29.068  23.011  1.00  0.00     0.095 A 
ATOM     10  F   UNL A   1      29.152  25.743  24.491  1.00  0.00    -0.207 F 
ATOM     11  C   UNL A   1      31.003  27.140  24.171  1.00  0.00     0.055 A 
ATOM     12  C   UNL A   1      30.668  29.325  23.213  1.00  0.00     0.038 A 
BRANCH   9  13
ATOM     13  S   UNL A   1      28.415  30.406  22.217  1.00  0.00     0.270 S 
ATOM     14  O   UNL A   1      27.977  30.006  20.901  1.00  0.00    -0.201 OA
ATOM     15  O   UNL A   1      27.435  30.870  23.191  1.00  0.00    -0.201 OA
BRANCH  13  16
ATOM     16  N   UNL A   1      29.297  31.815  22.014  1.00  0.00    -0.215 NA
ATOM     17  H   UNL A   1      30.070  31.817  21.405  1.00  0.00     0.193 HD
BRANCH  16  18
ATOM     18  C   UNL A   1      28.973  32.927  22.658  1.00  0.00     0.191 C 
ATOM     19  N   UNL A   1      28.638  33.950  23.064  1.00  0.00    -0.172 NA
ENDBRANCH  16  18
ENDBRANCH  13  16
ENDBRANCH   9  13
ENDBRANCH   3   5
ENDBRANCH   2   3
ENDBRANCH   1   2
BRANCH   1  20
ATOM     20  C   UNL A   1      33.136  30.221  26.452  1.00  0.00     0.275 C 
BRANCH  20  21
ATOM     21  O   UNL A   1      33.301  30.731  27.789  1.00  0.00    -0.458 OA
BRANCH  21  22
ATOM     22  C   UNL A   1      34.177  31.743  27.990  1.00  0.00     0.338 C 
ATOM     23  O   UNL A   1      33.955  32.933  27.873  1.00  0.00    -0.246 OA
BRANCH  22  24
ATOM     24  C   UNL A   1      35.457  31.186  28.438  1.00  0.00     0.060 A 
ATOM     25  C   UNL A   1      35.448  30.204  29.441  1.00  0.00     0.016 A 
ATOM     26  C   UNL A   1      36.644  31.724  27.945  1.00  0.00     0.016 A 
ATOM     27  C   UNL A   1      36.623  29.879  30.088  1.00  0.00     0.010 A 
ATOM     28  C   UNL A   1      37.812  31.394  28.570  1.00  0.00     0.010 A 
ATOM     29  C   UNL A   1      37.778  30.522  29.669  1.00  0.00    -0.014 A 
BRANCH  29  30
ATOM     30  C   UNL A   1      39.084  30.157  30.151  1.00  0.00     0.031 A 
ATOM     31  C   UNL A   1      39.566  28.845  29.672  1.00  0.00     0.074 A 
ATOM     32  C   UNL A   1      39.789  31.186  30.669  1.00  0.00     0.049 A 
ATOM     33  N   UNL A   1      40.611  28.253  30.116  1.00  0.00    -0.248 NA
ATOM     34  C   UNL A   1      38.846  28.018  28.686  1.00  0.00     0.031 C 
ATOM     35  C   UNL A   1      41.216  31.447  30.640  1.00  0.00     0.029 A 
ATOM     36  N   UNL A   1      39.283  32.215  31.471  1.00  0.00    -0.354 N 
ATOM     37  C   UNL A   1      40.915  27.255  29.208  1.00  0.00     0.074 A 
ATOM     38  C   UNL A   1      39.704  27.012  28.476  1.00  0.00     0.031 C 
ATOM     39  C   UNL A   1      41.513  32.376  31.571  1.00  0.00     0.029 A 
ATOM     40  C   UNL A   1      40.307  32.622  32.348  1.00  0.00     0.049 A 
ATOM     41  H   UNL A   1      38.373  32.588  31.428  1.00  0.00     0.167 HD
ATOM     42  C   UNL A   1      42.227  26.926  29.052  1.00  0.00     0.037 A 
ATOM     43  C   UNL A   1      40.183  32.346  33.688  1.00  0.00     0.037 A 
ATOM     44  C   UNL A   1      43.019  27.760  29.947  1.00  0.00     0.049 A 
ATOM     45  C   UNL A   1      41.076  31.215  34.146  1.00  0.00     0.074 A 
ATOM     46  C   UNL A   1      43.622  28.997  29.802  1.00  0.00     0.029 A 
ATOM     47  N   UNL A   1      42.908  27.537  31.295  1.00  0.00    -0.354 N 
ATOM     48  N   UNL A   1      41.744  30.443  33.336  1.00  0.00    -0.248 NA
ATOM     49  C   UNL A   1      41.235  30.830  35.545  1.00  0.00     0.031 C 
ATOM     50  C   UNL A   1      43.849  29.519  31.108  1.00  0.00     0.029 A 
ATOM     51  C   UNL A   1      43.372  28.603  32.029  1.00  0.00     0.049 A 
ATOM     52  H   UNL A   1      42.543  26.712  31.689  1.00  0.00     0.167 HD
ATOM     53  C   UNL A   1      42.397  29.483  34.051  1.00  0.00     0.074 A 
ATOM     54  C   UNL A   1      42.008  29.737  35.429  1.00  0.00     0.031 C 
ATOM     55  C   UNL A   1      43.206  28.552  33.467  1.00  0.00     0.037 A 
BRANCH  42  56
ATOM     56  C   UNL A   1      42.883  26.067  28.000  1.00  0.00     0.058 A 
ATOM     57  C   UNL A   1      42.730  24.663  28.094  1.00  0.00     0.135 A 
ATOM     58  C   UNL A   1      43.618  26.509  26.882  1.00  0.00     0.135 A 
ATOM     59  F   UNL A   1      42.053  24.087  29.096  1.00  0.00    -0.206 F 
ATOM     60  C   UNL A   1      43.255  23.771  27.173  1.00  0.00     0.059 A 
ATOM     61  C   UNL A   1      44.172  25.622  25.943  1.00  0.00     0.059 A 
ATOM     62  F   UNL A   1      43.799  27.813  26.632  1.00  0.00    -0.206 F 
ATOM     63  C   UNL A   1      43.975  24.253  26.095  1.00  0.00     0.060 A 
BRANCH  63  64
ATOM     64  S   UNL A   1      44.600  23.045  24.918  1.00  0.00     0.124 S 
ATOM     65  O   UNL A   1      43.381  22.643  24.220  1.00  0.00    -0.237 OA
ATOM     66  O   UNL A   1      45.541  23.841  24.136  1.00  0.00    -0.237 OA
ATOM     67  O   UNL A   1      45.198  22.019  25.765  1.00  0.00    -0.744 OA
ENDBRANCH  63  64
ENDBRANCH  42  56
BRANCH  43  68
ATOM     68  C   UNL A   1      38.775  32.533  34.168  1.00  0.00     0.058 A 
ATOM     69  C   UNL A   1      38.321  33.865  34.236  1.00  0.00     0.135 A 
ATOM     70  C   UNL A   1      37.838  31.526  33.891  1.00  0.00     0.135 A 
ATOM     71  F   UNL A   1      39.171  34.851  34.564  1.00  0.00    -0.206 F 
ATOM     72  C   UNL A   1      37.078  34.215  33.732  1.00  0.00     0.059 A 
ATOM     73  C   UNL A   1      36.586  31.856  33.384  1.00  0.00     0.059 A 
ATOM     74  F   UNL A   1      38.204  30.236  33.894  1.00  0.00    -0.206 F 
ATOM     75  C   UNL A   1      36.268  33.206  33.218  1.00  0.00     0.060 A 
BRANCH  75  76
ATOM     76  S   UNL A   1      34.981  33.696  32.059  1.00  0.00     0.124 S 
ATOM     77  O   UNL A   1      34.519  34.967  32.603  1.00  0.00    -0.237 OA
ATOM     78  O   UNL A   1      35.728  33.773  30.806  1.00  0.00    -0.237 OA
ATOM     79  O   UNL A   1      34.031  32.599  32.154  1.00  0.00    -0.744 OA
ENDBRANCH  75  76
ENDBRANCH  43  68
BRANCH  55  80
ATOM     80  C   UNL A   1      43.902  27.489  34.259  1.00  0.00     0.058 A 
ATOM     81  C   UNL A   1      45.290  27.514  34.435  1.00  0.00     0.135 A 
ATOM     82  C   UNL A   1      43.221  26.381  34.812  1.00  0.00     0.135 A 
ATOM     83  F   UNL A   1      46.045  28.450  33.836  1.00  0.00    -0.206 F 
ATOM     84  C   UNL A   1      45.941  26.587  35.236  1.00  0.00     0.059 A 
ATOM     85  C   UNL A   1      43.864  25.394  35.538  1.00  0.00     0.059 A 
ATOM     86  F   UNL A   1      41.893  26.230  34.714  1.00  0.00    -0.206 F 
ATOM     87  C   UNL A   1      45.215  25.540  35.795  1.00  0.00     0.060 A 
BRANCH  87  88
ATOM     88  S   UNL A   1      46.050  24.380  36.879  1.00  0.00     0.124 S 
ATOM     89  O   UNL A   1      46.489  23.346  35.948  1.00  0.00    -0.237 OA
ATOM     90  O   UNL A   1      47.105  25.221  37.436  1.00  0.00    -0.237 OA
ATOM     91  O   UNL A   1      45.007  23.975  37.815  1.00  0.00    -0.744 OA
ENDBRANCH  87  88
ENDBRANCH  55  80
ENDBRANCH  29  30
ENDBRANCH  22  24
ENDBRANCH  21  22
ENDBRANCH  20  21
ENDBRANCH   1  20
TORSDOF 17
ENDMDL
MODEL 3
REMARK VINA RESULT:     -11.8      5.862     11.428
REMARK SMILES Cc1c(F)cc(C(=O)OCCOC(=O)c2ccc(-c3c4nc(c(-c5c(F)cc(S(=O)(=O)[O-])cc5F)c5ccc([nH]5)c(-c5c(F)cc(S(=O)(=O)[O-])cc5F)c5nc(c(-c6c(F)cc(S(=O)(=O)[O-])cc6F)c6ccc3[nH]6)C=C5)C=C4)cc2)cc1S(=O)(=O)NC#N
REMARK SMILES IDX 10 1 9 2 7 3 8 4 6 5 1 6 2 7 3 8 82 9 4 10 5 11 81 12 83 13
REMARK SMILES IDX 84 14 85 15 86 16 87 18 88 19 11 20 12 21 13 22 14 23 15 24
REMARK SMILES IDX 16 25 80 26 17 27 79 28 18 29 19 30 20 31 73 32 21 33 78 34
REMARK SMILES IDX 72 35 74 36 22 37 77 38 71 39 70 40 23 42 57 43 36 44 56 45
REMARK SMILES IDX 37 46 40 47 55 48 75 49 38 50 39 51 54 53 76 54 41 55 24 56
REMARK SMILES IDX 25 57 34 58 26 59 27 60 33 61 35 62 28 63 29 64 30 65 31 66
REMARK SMILES IDX 32 67 58 68 59 69 68 70 60 71 61 72 67 73 69 74 62 75 63 76
REMARK SMILES IDX 64 77 65 78 66 79 42 80 43 81 52 82 44 83 45 84 51 85 53 86
REMARK SMILES IDX 46 87 47 88 48 89 49 90 50 91
REMARK H PARENT 86 17 74 41 40 52
REMARK Flexibility Score: inf
ROOT
ATOM      1  C   UNL A   1      33.707  27.683  25.372  1.00  0.00     0.275 C 
ENDROOT
BRANCH   1   2
ATOM      2  O   UNL A   1      32.620  26.744  25.293  1.00  0.00    -0.458 OA
BRANCH   2   3
ATOM      3  C   UNL A   1      32.213  26.399  24.049  1.00  0.00     0.338 C 
ATOM      4  O   UNL A   1      32.835  25.770  23.207  1.00  0.00    -0.246 OA
BRANCH   3   5
ATOM      5  C   UNL A   1      30.846  26.896  23.813  1.00  0.00     0.064 A 
ATOM      6  C   UNL A   1      26.806  28.345  23.494  1.00  0.00     0.049 C 
ATOM      7  C   UNL A   1      28.234  27.903  23.459  1.00  0.00     0.005 A 
ATOM      8  C   UNL A   1      28.486  26.641  24.043  1.00  0.00     0.128 A 
ATOM      9  C   UNL A   1      29.329  28.620  22.944  1.00  0.00     0.095 A 
ATOM     10  F   UNL A   1      27.452  25.910  24.494  1.00  0.00    -0.207 F 
ATOM     11  C   UNL A   1      29.764  26.120  24.195  1.00  0.00     0.055 A 
ATOM     12  C   UNL A   1      30.636  28.124  23.179  1.00  0.00     0.038 A 
BRANCH   9  13
ATOM     13  S   UNL A   1      29.296  30.189  22.096  1.00  0.00     0.270 S 
ATOM     14  O   UNL A   1      29.179  31.269  23.047  1.00  0.00    -0.201 OA
ATOM     15  O   UNL A   1      30.423  30.163  21.173  1.00  0.00    -0.201 OA
BRANCH  13  16
ATOM     16  N   UNL A   1      28.042  30.385  21.003  1.00  0.00    -0.215 NA
ATOM     17  H   UNL A   1      27.484  29.611  20.765  1.00  0.00     0.193 HD
BRANCH  16  18
ATOM     18  C   UNL A   1      27.788  31.564  20.454  1.00  0.00     0.191 C 
ATOM     19  N   UNL A   1      27.732  32.624  20.009  1.00  0.00    -0.172 NA
ENDBRANCH  16  18
ENDBRANCH  13  16
ENDBRANCH   9  13
ENDBRANCH   3   5
ENDBRANCH   2   3
ENDBRANCH   1   2
BRANCH   1  20
ATOM     20  C   UNL A   1      33.317  28.867  26.253  1.00  0.00     0.275 C 
BRANCH  20  21
ATOM     21  O   UNL A   1      34.029  28.983  27.500  1.00  0.00    -0.458 OA
BRANCH  21  22
ATOM     22  C   UNL A   1      34.526  30.193  27.850  1.00  0.00     0.338 C 
ATOM     23  O   UNL A   1      33.925  31.250  27.870  1.00  0.00    -0.246 OA
BRANCH  22  24
ATOM     24  C   UNL A   1      35.922  30.033  28.269  1.00  0.00     0.060 A 
ATOM     25  C   UNL A   1      36.935  30.212  27.314  1.00  0.00     0.016 A 
ATOM     26  C   UNL A   1      36.198  29.596  29.564  1.00  0.00     0.016 A 
ATOM     27  C   UNL A   1      38.217  29.784  27.592  1.00  0.00     0.010 A 
ATOM     28  C   UNL A   1      37.469  29.187  29.850  1.00  0.00     0.010 A 
ATOM     29  C   UNL A   1      38.446  29.232  28.844  1.00  0.00    -0.014 A 
BRANCH  29  30
ATOM     30  C   UNL A   1      39.764  28.897  29.313  1.00  0.00     0.031 A 
ATOM     31  C   UNL A   1      40.203  27.527  28.972  1.00  0.00     0.074 A 
ATOM     32  C   UNL A   1      40.509  29.962  29.679  1.00  0.00     0.049 A 
ATOM     33  N   UNL A   1      41.254  26.967  29.440  1.00  0.00    -0.248 NA
ATOM     34  C   UNL A   1      39.426  26.608  28.119  1.00  0.00     0.031 C 
ATOM     35  C   UNL A   1      41.938  30.186  29.562  1.00  0.00     0.029 A 
ATOM     36  N   UNL A   1      40.056  31.089  30.374  1.00  0.00    -0.354 N 
ATOM     37  C   UNL A   1      41.502  25.863  28.644  1.00  0.00     0.074 A 
ATOM     38  C   UNL A   1      40.256  25.565  27.994  1.00  0.00     0.031 C 
ATOM     39  C   UNL A   1      42.291  31.209  30.366  1.00  0.00     0.029 A 
ATOM     40  C   UNL A   1      41.123  31.572  31.156  1.00  0.00     0.049 A 
ATOM     41  H   UNL A   1      39.152  31.475  30.323  1.00  0.00     0.167 HD
ATOM     42  C   UNL A   1      42.799  25.488  28.476  1.00  0.00     0.037 A 
ATOM     43  C   UNL A   1      41.051  31.456  32.523  1.00  0.00     0.037 A 
ATOM     44  C   UNL A   1      43.644  26.403  29.235  1.00  0.00     0.049 A 
ATOM     45  C   UNL A   1      41.942  30.366  33.074  1.00  0.00     0.074 A 
ATOM     46  C   UNL A   1      44.262  27.600  28.922  1.00  0.00     0.029 A 
ATOM     47  N   UNL A   1      43.586  26.341  30.603  1.00  0.00    -0.354 N 
ATOM     48  N   UNL A   1      42.561  29.490  32.334  1.00  0.00    -0.248 NA
ATOM     49  C   UNL A   1      42.152  30.142  34.501  1.00  0.00     0.031 C 
ATOM     50  C   UNL A   1      44.554  28.265  30.149  1.00  0.00     0.029 A 
ATOM     51  C   UNL A   1      44.099  27.473  31.189  1.00  0.00     0.049 A 
ATOM     52  H   UNL A   1      43.222  25.576  31.106  1.00  0.00     0.167 HD
ATOM     53  C   UNL A   1      43.225  28.605  33.130  1.00  0.00     0.074 A 
ATOM     54  C   UNL A   1      42.900  29.026  34.484  1.00  0.00     0.031 C 
ATOM     55  C   UNL A   1      43.993  27.594  32.628  1.00  0.00     0.037 A 
BRANCH  42  56
ATOM     56  C   UNL A   1      43.396  24.499  27.507  1.00  0.00     0.058 A 
ATOM     57  C   UNL A   1      43.018  23.140  27.624  1.00  0.00     0.135 A 
ATOM     58  C   UNL A   1      44.277  24.779  26.443  1.00  0.00     0.135 A 
ATOM     59  F   UNL A   1      42.182  22.714  28.580  1.00  0.00    -0.206 F 
ATOM     60  C   UNL A   1      43.469  22.142  26.775  1.00  0.00     0.059 A 
ATOM     61  C   UNL A   1      44.759  23.781  25.579  1.00  0.00     0.059 A 
ATOM     62  F   UNL A   1      44.679  26.028  26.175  1.00  0.00    -0.206 F 
ATOM     63  C   UNL A   1      44.340  22.466  25.750  1.00  0.00     0.060 A 
BRANCH  63  64
ATOM     64  S   UNL A   1      44.859  21.130  24.662  1.00  0.00     0.124 S 
ATOM     65  O   UNL A   1      44.642  21.713  23.341  1.00  0.00    -0.237 OA
ATOM     66  O   UNL A   1      46.255  20.948  25.050  1.00  0.00    -0.237 OA
ATOM     67  O   UNL A   1      43.963  20.034  25.013  1.00  0.00    -0.744 OA
ENDBRANCH  63  64
ENDBRANCH  42  56
BRANCH  43  68
ATOM     68  C   UNL A   1      39.668  31.730  33.034  1.00  0.00     0.058 A 
ATOM     69  C   UNL A   1      38.971  30.617  33.546  1.00  0.00     0.135 A 
ATOM     70  C   UNL A   1      39.399  32.991  33.586  1.00  0.00     0.135 A 
ATOM     71  F   UNL A   1      39.149  29.402  33.002  1.00  0.00    -0.206 F 
ATOM     72  C   UNL A   1      38.295  30.699  34.753  1.00  0.00     0.059 A 
ATOM     73  C   UNL A   1      38.724  33.096  34.796  1.00  0.00     0.059 A 
ATOM     74  F   UNL A   1      39.977  34.091  33.081  1.00  0.00    -0.206 F 
ATOM     75  C   UNL A   1      38.271  31.926  35.411  1.00  0.00     0.060 A 
BRANCH  75  76
ATOM     76  S   UNL A   1      37.946  31.903  37.181  1.00  0.00     0.124 S 
ATOM     77  O   UNL A   1      36.882  32.888  37.330  1.00  0.00    -0.237 OA
ATOM     78  O   UNL A   1      37.558  30.510  37.391  1.00  0.00    -0.237 OA
ATOM     79  O   UNL A   1      39.229  32.286  37.747  1.00  0.00    -0.744 OA
ENDBRANCH  75  76
ENDBRANCH  43  68
BRANCH  55  80
ATOM     80  C   UNL A   1      44.702  26.615  33.510  1.00  0.00     0.058 A 
ATOM     81  C   UNL A   1      43.989  25.693  34.285  1.00  0.00     0.135 A 
ATOM     82  C   UNL A   1      46.108  26.605  33.661  1.00  0.00     0.135 A 
ATOM     83  F   UNL A   1      42.646  25.711  34.317  1.00  0.00    -0.206 F 
ATOM     84  C   UNL A   1      44.631  24.723  35.041  1.00  0.00     0.059 A 
ATOM     85  C   UNL A   1      46.766  25.705  34.482  1.00  0.00     0.059 A 
ATOM     86  F   UNL A   1      46.911  27.435  32.983  1.00  0.00    -0.206 F 
ATOM     87  C   UNL A   1      46.021  24.729  35.120  1.00  0.00     0.060 A 
BRANCH  87  88
ATOM     88  S   UNL A   1      46.848  23.437  36.049  1.00  0.00     0.124 S 
ATOM     89  O   UNL A   1      45.974  22.289  35.829  1.00  0.00    -0.237 OA
ATOM     90  O   UNL A   1      48.142  23.387  35.374  1.00  0.00    -0.237 OA
ATOM     91  O   UNL A   1      46.867  23.955  37.412  1.00  0.00    -0.744 OA
ENDBRANCH  87  88
ENDBRANCH  55  80
ENDBRANCH  29  30
ENDBRANCH  22  24
ENDBRANCH  21  22
ENDBRANCH  20  21
ENDBRANCH   1  20
TORSDOF 17
ENDMDL
