MODEL 1
REMARK VINA RESULT:     -12.3      0.000      0.000
REMARK SMILES COc1cccc([C@@H]2[NH2+][C@@](C)(C(=O)OCCOC(=O)c3ccc(-c4c5nc(c(-c6c(F)cc(S(=O)(=O)[O-])cc6F)c6ccc([nH]6)c(-c6c(F)cc(S(=O)(=O)[O-])cc6F)c6nc(c(-c7c(F)cc(S(=O)(=O)[O-])cc7F)c7ccc4[nH]7)C=C6)C=C5)cc3)[C@@H]3C(=O)N(C)C(=O)[C@@H]32)c1O
REMARK SMILES IDX 16 1 15 2 14 3 12 4 13 5 10 6 8 7 9 8 93 9 86 12 91 13 11 14
REMARK SMILES IDX 87 15 89 16 92 17 88 18 90 19 7 20 3 21 4 22 94 23 5 24 6 25
REMARK SMILES IDX 2 26 1 27 95 28 17 30 18 31 19 32 20 33 21 34 85 35 22 36
REMARK SMILES IDX 84 37 23 38 24 39 25 40 78 41 26 42 83 43 77 44 79 45 27 46
REMARK SMILES IDX 82 47 76 48 75 49 28 51 62 52 41 53 61 54 42 55 45 56 60 57
REMARK SMILES IDX 80 58 43 59 44 60 59 62 81 63 46 64 29 65 30 66 39 67 31 68
REMARK SMILES IDX 32 69 38 70 40 71 33 72 34 73 35 74 36 75 37 76 63 77 64 78
REMARK SMILES IDX 73 79 65 80 66 81 72 82 74 83 67 84 68 85 69 86 70 87 71 88
REMARK SMILES IDX 47 89 48 90 57 91 49 92 50 93 56 94 58 95 51 96 52 97 53 98
REMARK SMILES IDX 54 99 55 100
REMARK H PARENT 9 10 9 11 95 29 79 50 45 61
REMARK Flexibility Score: inf
ROOT
ATOM      1  C   UNL A   1      32.878  28.506  26.618  1.00  0.00     0.275 C 
ENDROOT
BRANCH   1   2
ATOM      2  C   UNL A   1      32.083  27.216  26.801  1.00  0.00     0.274 C 
BRANCH   2   3
ATOM      3  O   UNL A   1      31.798  26.596  25.531  1.00  0.00    -0.457 OA
BRANCH   3   4
ATOM      4  C   UNL A   1      31.240  25.356  25.593  1.00  0.00     0.368 C 
ATOM      5  O   UNL A   1      30.405  25.026  26.432  1.00  0.00    -0.245 OA
BRANCH   4   6
ATOM      6  C   UNL A   1      31.777  24.359  24.531  1.00  0.00     0.204 C 
ATOM      7  C   UNL A   1      32.234  22.163  25.424  1.00  0.00     0.232 C 
ATOM      8  N   UNL A   1      31.231  22.981  24.698  1.00  0.00    -0.325 N 
ATOM      9  C   UNL A   1      33.471  23.030  25.629  1.00  0.00     0.161 C 
ATOM     10  H   UNL A   1      30.364  23.017  25.234  1.00  0.00     0.347 HD
ATOM     11  H   UNL A   1      31.037  22.569  23.785  1.00  0.00     0.347 HD
ATOM     12  C   UNL A   1      33.278  24.250  24.748  1.00  0.00     0.170 C 
ATOM     13  C   UNL A   1      34.812  22.508  25.196  1.00  0.00     0.239 C 
ATOM     14  C   UNL A   1      31.335  24.940  23.185  1.00  0.00     0.093 C 
ATOM     15  C   UNL A   1      34.204  24.000  23.588  1.00  0.00     0.240 C 
ATOM     16  N   UNL A   1      35.140  23.092  24.004  1.00  0.00    -0.285 N 
ATOM     17  O   UNL A   1      35.482  21.708  25.831  1.00  0.00    -0.274 OA
ATOM     18  O   UNL A   1      34.192  24.600  22.523  1.00  0.00    -0.274 OA
ATOM     19  C   UNL A   1      36.367  22.806  23.301  1.00  0.00     0.156 C 
BRANCH   7  20
ATOM     20  C   UNL A   1      32.514  20.810  24.803  1.00  0.00     0.056 A 
ATOM     21  C   UNL A   1      32.901  18.408  24.964  1.00  0.00     0.161 A 
ATOM     22  C   UNL A   1      32.689  18.252  23.601  1.00  0.00     0.050 A 
ATOM     23  C   UNL A   1      32.856  19.679  25.548  1.00  0.00     0.166 A 
ATOM     24  C   UNL A   1      32.391  19.373  22.826  1.00  0.00     0.005 A 
ATOM     25  C   UNL A   1      32.292  20.635  23.424  1.00  0.00     0.014 A 
BRANCH  21  26
ATOM     26  O   UNL A   1      33.198  17.318  25.742  1.00  0.00    -0.493 OA
ATOM     27  C   UNL A   1      32.735  16.118  25.114  1.00  0.00     0.278 C 
ENDBRANCH  21  26
BRANCH  23  28
ATOM     28  O   UNL A   1      33.140  19.805  26.883  1.00  0.00    -0.504 OA
ATOM     29  H   UNL A   1      32.448  19.779  27.514  1.00  0.00     0.293 HD
ENDBRANCH  23  28
ENDBRANCH   7  20
ENDBRANCH   4   6
ENDBRANCH   3   4
ENDBRANCH   2   3
ENDBRANCH   1   2
BRANCH   1  30
ATOM     30  O   UNL A   1      33.921  28.585  27.606  1.00  0.00    -0.458 OA
BRANCH  30  31
ATOM     31  C   UNL A   1      34.334  29.835  27.919  1.00  0.00     0.338 C 
ATOM     32  O   UNL A   1      33.642  30.837  27.996  1.00  0.00    -0.246 OA
BRANCH  31  33
ATOM     33  C   UNL A   1      35.780  29.848  28.230  1.00  0.00     0.060 A 
ATOM     34  C   UNL A   1      36.712  30.187  27.253  1.00  0.00     0.016 A 
ATOM     35  C   UNL A   1      36.217  29.329  29.449  1.00  0.00     0.016 A 
ATOM     36  C   UNL A   1      38.055  29.840  27.427  1.00  0.00     0.010 A 
ATOM     37  C   UNL A   1      37.583  29.126  29.674  1.00  0.00     0.010 A 
ATOM     38  C   UNL A   1      38.522  29.324  28.647  1.00  0.00    -0.014 A 
BRANCH  38  39
ATOM     39  C   UNL A   1      39.965  28.975  28.856  1.00  0.00     0.031 A 
ATOM     40  C   UNL A   1      40.948  30.019  29.343  1.00  0.00     0.074 A 
ATOM     41  C   UNL A   1      40.423  27.734  28.591  1.00  0.00     0.049 A 
ATOM     42  N   UNL A   1      42.256  30.018  29.280  1.00  0.00    -0.248 NA
ATOM     43  C   UNL A   1      40.384  31.234  29.953  1.00  0.00     0.031 C 
ATOM     44  C   UNL A   1      39.611  26.597  28.150  1.00  0.00     0.029 A 
ATOM     45  N   UNL A   1      41.698  27.216  28.647  1.00  0.00    -0.354 N 
ATOM     46  C   UNL A   1      42.666  31.259  29.763  1.00  0.00     0.074 A 
ATOM     47  C   UNL A   1      41.465  31.985  30.120  1.00  0.00     0.031 C 
ATOM     48  C   UNL A   1      40.389  25.514  28.022  1.00  0.00     0.029 A 
ATOM     49  C   UNL A   1      41.775  25.903  28.243  1.00  0.00     0.049 A 
ATOM     50  H   UNL A   1      42.478  27.735  28.947  1.00  0.00     0.167 HD
ATOM     51  C   UNL A   1      43.926  31.745  29.894  1.00  0.00     0.037 A 
ATOM     52  C   UNL A   1      42.835  25.108  28.000  1.00  0.00     0.037 A 
ATOM     53  C   UNL A   1      45.121  30.982  29.624  1.00  0.00     0.049 A 
ATOM     54  C   UNL A   1      44.221  25.661  28.151  1.00  0.00     0.074 A 
ATOM     55  C   UNL A   1      46.444  31.380  29.736  1.00  0.00     0.029 A 
ATOM     56  N   UNL A   1      45.140  29.654  29.224  1.00  0.00    -0.354 N 
ATOM     57  N   UNL A   1      44.589  26.869  28.503  1.00  0.00    -0.248 NA
ATOM     58  C   UNL A   1      45.334  24.752  27.849  1.00  0.00     0.031 C 
ATOM     59  C   UNL A   1      47.261  30.300  29.384  1.00  0.00     0.029 A 
ATOM     60  C   UNL A   1      46.449  29.218  29.090  1.00  0.00     0.049 A 
ATOM     61  H   UNL A   1      44.341  29.102  29.060  1.00  0.00     0.167 HD
ATOM     62  C   UNL A   1      45.978  26.865  28.464  1.00  0.00     0.074 A 
ATOM     63  C   UNL A   1      46.384  25.528  28.082  1.00  0.00     0.031 C 
ATOM     64  C   UNL A   1      46.838  27.883  28.714  1.00  0.00     0.037 A 
BRANCH  51  65
ATOM     65  C   UNL A   1      44.093  33.179  30.329  1.00  0.00     0.058 A 
ATOM     66  C   UNL A   1      44.082  34.244  29.418  1.00  0.00     0.135 A 
ATOM     67  C   UNL A   1      44.206  33.493  31.695  1.00  0.00     0.135 A 
ATOM     68  F   UNL A   1      43.983  34.006  28.101  1.00  0.00    -0.206 F 
ATOM     69  C   UNL A   1      44.204  35.566  29.839  1.00  0.00     0.059 A 
ATOM     70  C   UNL A   1      44.303  34.808  32.142  1.00  0.00     0.059 A 
ATOM     71  F   UNL A   1      44.213  32.515  32.616  1.00  0.00    -0.206 F 
ATOM     72  C   UNL A   1      44.315  35.838  31.205  1.00  0.00     0.060 A 
BRANCH  72  73
ATOM     73  S   UNL A   1      44.462  37.558  31.739  1.00  0.00     0.124 S 
ATOM     74  O   UNL A   1      43.623  37.565  32.934  1.00  0.00    -0.237 OA
ATOM     75  O   UNL A   1      45.896  37.694  31.973  1.00  0.00    -0.237 OA
ATOM     76  O   UNL A   1      43.942  38.313  30.603  1.00  0.00    -0.744 OA
ENDBRANCH  72  73
ENDBRANCH  51  65
BRANCH  52  77
ATOM     77  C   UNL A   1      42.613  23.719  27.513  1.00  0.00     0.058 A 
ATOM     78  C   UNL A   1      42.625  23.422  26.144  1.00  0.00     0.135 A 
ATOM     79  C   UNL A   1      42.426  22.657  28.414  1.00  0.00     0.135 A 
ATOM     80  F   UNL A   1      42.788  24.405  25.246  1.00  0.00    -0.206 F 
ATOM     81  C   UNL A   1      42.458  22.121  25.682  1.00  0.00     0.059 A 
ATOM     82  C   UNL A   1      42.289  21.345  27.977  1.00  0.00     0.059 A 
ATOM     83  F   UNL A   1      42.424  22.888  29.736  1.00  0.00    -0.206 F 
ATOM     84  C   UNL A   1      42.297  21.087  26.607  1.00  0.00     0.060 A 
BRANCH  84  85
ATOM     85  S   UNL A   1      42.155  19.391  26.007  1.00  0.00     0.124 S 
ATOM     86  O   UNL A   1      42.651  18.634  27.150  1.00  0.00    -0.237 OA
ATOM     87  O   UNL A   1      40.725  19.276  25.738  1.00  0.00    -0.237 OA
ATOM     88  O   UNL A   1      43.008  19.384  24.823  1.00  0.00    -0.744 OA
ENDBRANCH  84  85
ENDBRANCH  52  77
BRANCH  64  89
ATOM     89  C   UNL A   1      48.305  27.575  28.613  1.00  0.00     0.058 A 
ATOM     90  C   UNL A   1      49.001  27.703  27.401  1.00  0.00     0.135 A 
ATOM     91  C   UNL A   1      49.026  27.170  29.747  1.00  0.00     0.135 A 
ATOM     92  F   UNL A   1      48.354  28.077  26.286  1.00  0.00    -0.206 F 
ATOM     93  C   UNL A   1      50.359  27.416  27.312  1.00  0.00     0.059 A 
ATOM     94  C   UNL A   1      50.389  26.900  29.685  1.00  0.00     0.059 A 
ATOM     95  F   UNL A   1      48.407  27.039  30.931  1.00  0.00    -0.206 F 
ATOM     96  C   UNL A   1      51.044  27.012  28.459  1.00  0.00     0.060 A 
BRANCH  96  97
ATOM     97  S   UNL A   1      52.811  26.660  28.337  1.00  0.00     0.124 S 
ATOM     98  O   UNL A   1      53.126  26.265  29.705  1.00  0.00    -0.237 OA
ATOM     99  O   UNL A   1      52.849  25.591  27.343  1.00  0.00    -0.237 OA
ATOM    100  O   UNL A   1      53.381  27.932  27.902  1.00  0.00    -0.744 OA
ENDBRANCH  96  97
ENDBRANCH  64  89
ENDBRANCH  38  39
ENDBRANCH  31  33
ENDBRANCH  30  31
ENDBRANCH   1  30
TORSDOF 17
ENDMDL
MODEL 2
REMARK VINA RESULT:     -12.2      4.035     10.020
REMARK SMILES COc1cccc([C@@H]2[NH2+][C@@](C)(C(=O)OCCOC(=O)c3ccc(-c4c5nc(c(-c6c(F)cc(S(=O)(=O)[O-])cc6F)c6ccc([nH]6)c(-c6c(F)cc(S(=O)(=O)[O-])cc6F)c6nc(c(-c7c(F)cc(S(=O)(=O)[O-])cc7F)c7ccc4[nH]7)C=C6)C=C5)cc3)[C@@H]3C(=O)N(C)C(=O)[C@@H]32)c1O
REMARK SMILES IDX 16 1 15 2 14 3 12 4 13 5 10 6 8 7 9 8 93 9 86 12 91 13 11 14
REMARK SMILES IDX 87 15 89 16 92 17 88 18 90 19 7 20 3 21 4 22 94 23 5 24 6 25
REMARK SMILES IDX 2 26 1 27 95 28 17 30 18 31 19 32 20 33 21 34 85 35 22 36
REMARK SMILES IDX 84 37 23 38 24 39 25 40 78 41 26 42 83 43 77 44 79 45 27 46
REMARK SMILES IDX 82 47 76 48 75 49 28 51 62 52 41 53 61 54 42 55 45 56 60 57
REMARK SMILES IDX 80 58 43 59 44 60 59 62 81 63 46 64 29 65 30 66 39 67 31 68
REMARK SMILES IDX 32 69 38 70 40 71 33 72 34 73 35 74 36 75 37 76 63 77 64 78
REMARK SMILES IDX 73 79 65 80 66 81 72 82 74 83 67 84 68 85 69 86 70 87 71 88
REMARK SMILES IDX 47 89 48 90 57 91 49 92 50 93 56 94 58 95 51 96 52 97 53 98
REMARK SMILES IDX 54 99 55 100
REMARK H PARENT 9 10 9 11 95 29 79 50 45 61
REMARK Flexibility Score: inf
ROOT
ATOM      1  C   UNL A   1      36.294  22.878  24.755  1.00  0.00     0.275 C 
ENDROOT
BRANCH   1   2
ATOM      2  C   UNL A   1      35.522  23.473  23.581  1.00  0.00     0.274 C 
BRANCH   2   3
ATOM      3  O   UNL A   1      34.107  23.521  23.859  1.00  0.00    -0.457 OA
BRANCH   3   4
ATOM      4  C   UNL A   1      33.370  24.306  23.027  1.00  0.00     0.368 C 
ATOM      5  O   UNL A   1      33.672  24.530  21.857  1.00  0.00    -0.245 OA
BRANCH   4   6
ATOM      6  C   UNL A   1      32.117  24.940  23.689  1.00  0.00     0.204 C 
ATOM      7  C   UNL A   1      31.538  27.097  22.772  1.00  0.00     0.232 C 
ATOM      8  N   UNL A   1      31.237  25.645  22.713  1.00  0.00    -0.325 N 
ATOM      9  C   UNL A   1      32.564  27.308  23.879  1.00  0.00     0.161 C 
ATOM     10  H   UNL A   1      31.417  25.294  21.772  1.00  0.00     0.347 HD
ATOM     11  H   UNL A   1      30.257  25.480  22.944  1.00  0.00     0.347 HD
ATOM     12  C   UNL A   1      32.619  26.004  24.653  1.00  0.00     0.170 C 
ATOM     13  C   UNL A   1      32.289  28.326  24.950  1.00  0.00     0.239 C 
ATOM     14  C   UNL A   1      31.366  23.765  24.321  1.00  0.00     0.093 C 
ATOM     15  C   UNL A   1      31.864  26.310  25.918  1.00  0.00     0.240 C 
ATOM     16  N   UNL A   1      31.863  27.670  26.071  1.00  0.00    -0.285 N 
ATOM     17  O   UNL A   1      32.443  29.530  24.816  1.00  0.00    -0.274 OA
ATOM     18  O   UNL A   1      31.449  25.485  26.718  1.00  0.00    -0.274 OA
ATOM     19  C   UNL A   1      31.504  28.352  27.291  1.00  0.00     0.156 C 
BRANCH   7  20
ATOM     20  C   UNL A   1      30.319  27.991  22.869  1.00  0.00     0.056 A 
ATOM     21  C   UNL A   1      29.061  29.987  22.254  1.00  0.00     0.161 A 
ATOM     22  C   UNL A   1      27.899  29.459  22.802  1.00  0.00     0.050 A 
ATOM     23  C   UNL A   1      30.265  29.278  22.327  1.00  0.00     0.166 A 
ATOM     24  C   UNL A   1      27.937  28.195  23.390  1.00  0.00     0.005 A 
ATOM     25  C   UNL A   1      29.131  27.465  23.412  1.00  0.00     0.014 A 
BRANCH  21  26
ATOM     26  O   UNL A   1      29.044  31.229  21.674  1.00  0.00    -0.493 OA
ATOM     27  C   UNL A   1      28.027  31.295  20.668  1.00  0.00     0.278 C 
ENDBRANCH  21  26
BRANCH  23  28
ATOM     28  O   UNL A   1      31.407  29.858  21.840  1.00  0.00    -0.504 OA
ATOM     29  H   UNL A   1      31.896  29.435  21.162  1.00  0.00     0.293 HD
ENDBRANCH  23  28
ENDBRANCH   7  20
ENDBRANCH   4   6
ENDBRANCH   3   4
ENDBRANCH   2   3
ENDBRANCH   1   2
BRANCH   1  30
ATOM     30  O   UNL A   1      37.323  23.789  25.178  1.00  0.00    -0.458 OA
BRANCH  30  31
ATOM     31  C   UNL A   1      38.419  23.217  25.730  1.00  0.00     0.338 C 
ATOM     32  O   UNL A   1      38.841  22.091  25.521  1.00  0.00    -0.246 OA
BRANCH  31  33
ATOM     33  C   UNL A   1      39.119  24.170  26.618  1.00  0.00     0.060 A 
ATOM     34  C   UNL A   1      38.868  24.178  27.988  1.00  0.00     0.016 A 
ATOM     35  C   UNL A   1      39.882  25.191  26.052  1.00  0.00     0.016 A 
ATOM     36  C   UNL A   1      39.225  25.293  28.751  1.00  0.00     0.010 A 
ATOM     37  C   UNL A   1      40.368  26.229  26.854  1.00  0.00     0.010 A 
ATOM     38  C   UNL A   1      40.002  26.330  28.207  1.00  0.00    -0.014 A 
BRANCH  38  39
ATOM     39  C   UNL A   1      40.416  27.517  29.023  1.00  0.00     0.031 A 
ATOM     40  C   UNL A   1      41.716  27.503  29.799  1.00  0.00     0.074 A 
ATOM     41  C   UNL A   1      39.630  28.611  29.104  1.00  0.00     0.049 A 
ATOM     42  N   UNL A   1      42.096  28.266  30.793  1.00  0.00    -0.248 NA
ATOM     43  C   UNL A   1      42.706  26.478  29.425  1.00  0.00     0.031 C 
ATOM     44  C   UNL A   1      38.363  28.809  28.396  1.00  0.00     0.029 A 
ATOM     45  N   UNL A   1      39.777  29.770  29.833  1.00  0.00    -0.354 N 
ATOM     46  C   UNL A   1      43.325  27.764  31.217  1.00  0.00     0.074 A 
ATOM     47  C   UNL A   1      43.629  26.633  30.366  1.00  0.00     0.031 C 
ATOM     48  C   UNL A   1      37.876  30.024  28.682  1.00  0.00     0.029 A 
ATOM     49  C   UNL A   1      38.722  30.643  29.694  1.00  0.00     0.049 A 
ATOM     50  H   UNL A   1      40.561  29.957  30.397  1.00  0.00     0.167 HD
ATOM     51  C   UNL A   1      44.122  28.207  32.222  1.00  0.00     0.037 A 
ATOM     52  C   UNL A   1      38.414  31.778  30.351  1.00  0.00     0.037 A 
ATOM     53  C   UNL A   1      43.857  29.390  33.005  1.00  0.00     0.049 A 
ATOM     54  C   UNL A   1      39.307  32.253  31.458  1.00  0.00     0.074 A 
ATOM     55  C   UNL A   1      44.608  29.928  34.037  1.00  0.00     0.029 A 
ATOM     56  N   UNL A   1      42.777  30.240  32.816  1.00  0.00    -0.354 N 
ATOM     57  N   UNL A   1      40.406  31.707  31.920  1.00  0.00    -0.248 NA
ATOM     58  C   UNL A   1      38.905  33.484  32.152  1.00  0.00     0.031 C 
ATOM     59  C   UNL A   1      43.971  31.090  34.487  1.00  0.00     0.029 A 
ATOM     60  C   UNL A   1      42.844  31.298  33.710  1.00  0.00     0.049 A 
ATOM     61  H   UNL A   1      42.067  30.111  32.146  1.00  0.00     0.167 HD
ATOM     62  C   UNL A   1      40.827  32.528  32.958  1.00  0.00     0.074 A 
ATOM     63  C   UNL A   1      39.881  33.622  33.039  1.00  0.00     0.031 C 
ATOM     64  C   UNL A   1      41.898  32.382  33.776  1.00  0.00     0.037 A 
BRANCH  51  65
ATOM     65  C   UNL A   1      45.351  27.402  32.561  1.00  0.00     0.058 A 
ATOM     66  C   UNL A   1      46.599  27.659  31.975  1.00  0.00     0.135 A 
ATOM     67  C   UNL A   1      45.286  26.392  33.537  1.00  0.00     0.135 A 
ATOM     68  F   UNL A   1      46.721  28.608  31.034  1.00  0.00    -0.206 F 
ATOM     69  C   UNL A   1      47.732  26.929  32.324  1.00  0.00     0.059 A 
ATOM     70  C   UNL A   1      46.411  25.666  33.920  1.00  0.00     0.059 A 
ATOM     71  F   UNL A   1      44.119  26.106  34.138  1.00  0.00    -0.206 F 
ATOM     72  C   UNL A   1      47.628  25.932  33.297  1.00  0.00     0.060 A 
BRANCH  72  73
ATOM     73  S   UNL A   1      49.108  24.999  33.747  1.00  0.00     0.124 S 
ATOM     74  O   UNL A   1      48.531  23.731  34.185  1.00  0.00    -0.237 OA
ATOM     75  O   UNL A   1      49.848  24.956  32.490  1.00  0.00    -0.237 OA
ATOM     76  O   UNL A   1      49.714  25.809  34.799  1.00  0.00    -0.744 OA
ENDBRANCH  72  73
ENDBRANCH  51  65
BRANCH  52  77
ATOM     77  C   UNL A   1      37.156  32.499  30.018  1.00  0.00     0.058 A 
ATOM     78  C   UNL A   1      35.946  32.171  30.645  1.00  0.00     0.135 A 
ATOM     79  C   UNL A   1      37.150  33.558  29.095  1.00  0.00     0.135 A 
ATOM     80  F   UNL A   1      35.900  31.160  31.526  1.00  0.00    -0.206 F 
ATOM     81  C   UNL A   1      34.774  32.866  30.370  1.00  0.00     0.059 A 
ATOM     82  C   UNL A   1      35.998  34.287  28.827  1.00  0.00     0.059 A 
ATOM     83  F   UNL A   1      38.287  33.921  28.480  1.00  0.00    -0.206 F 
ATOM     84  C   UNL A   1      34.811  33.928  29.463  1.00  0.00     0.060 A 
BRANCH  84  85
ATOM     85  S   UNL A   1      33.304  34.874  29.163  1.00  0.00     0.124 S 
ATOM     86  O   UNL A   1      32.703  34.895  30.492  1.00  0.00    -0.237 OA
ATOM     87  O   UNL A   1      33.828  36.148  28.680  1.00  0.00    -0.237 OA
ATOM     88  O   UNL A   1      32.602  34.076  28.163  1.00  0.00    -0.744 OA
ENDBRANCH  84  85
ENDBRANCH  52  77
BRANCH  64  89
ATOM     89  C   UNL A   1      42.119  33.451  34.807  1.00  0.00     0.058 A 
ATOM     90  C   UNL A   1      42.870  34.603  34.524  1.00  0.00     0.135 A 
ATOM     91  C   UNL A   1      41.553  33.333  36.086  1.00  0.00     0.135 A 
ATOM     92  F   UNL A   1      43.440  34.758  33.319  1.00  0.00    -0.206 F 
ATOM     93  C   UNL A   1      43.073  35.590  35.483  1.00  0.00     0.059 A 
ATOM     94  C   UNL A   1      41.725  34.318  37.053  1.00  0.00     0.059 A 
ATOM     95  F   UNL A   1      40.822  32.253  36.405  1.00  0.00    -0.206 F 
ATOM     96  C   UNL A   1      42.498  35.437  36.746  1.00  0.00     0.060 A 
BRANCH  96  97
ATOM     97  S   UNL A   1      42.752  36.732  37.978  1.00  0.00     0.124 S 
ATOM     98  O   UNL A   1      43.494  37.726  37.209  1.00  0.00    -0.237 OA
ATOM     99  O   UNL A   1      41.385  37.098  38.335  1.00  0.00    -0.237 OA
ATOM    100  O   UNL A   1      43.509  36.057  39.029  1.00  0.00    -0.744 OA
ENDBRANCH  96  97
ENDBRANCH  64  89
ENDBRANCH  38  39
ENDBRANCH  31  33
ENDBRANCH  30  31
ENDBRANCH   1  30
TORSDOF 17
ENDMDL
MODEL 3
REMARK VINA RESULT:     -11.9      4.597      8.374
REMARK SMILES COc1cccc([C@@H]2[NH2+][C@@](C)(C(=O)OCCOC(=O)c3ccc(-c4c5nc(c(-c6c(F)cc(S(=O)(=O)[O-])cc6F)c6ccc([nH]6)c(-c6c(F)cc(S(=O)(=O)[O-])cc6F)c6nc(c(-c7c(F)cc(S(=O)(=O)[O-])cc7F)c7ccc4[nH]7)C=C6)C=C5)cc3)[C@@H]3C(=O)N(C)C(=O)[C@@H]32)c1O
REMARK SMILES IDX 16 1 15 2 14 3 12 4 13 5 10 6 8 7 9 8 93 9 86 12 91 13 11 14
REMARK SMILES IDX 87 15 89 16 92 17 88 18 90 19 7 20 3 21 4 22 94 23 5 24 6 25
REMARK SMILES IDX 2 26 1 27 95 28 17 30 18 31 19 32 20 33 21 34 85 35 22 36
REMARK SMILES IDX 84 37 23 38 24 39 25 40 78 41 26 42 83 43 77 44 79 45 27 46
REMARK SMILES IDX 82 47 76 48 75 49 28 51 62 52 41 53 61 54 42 55 45 56 60 57
REMARK SMILES IDX 80 58 43 59 44 60 59 62 81 63 46 64 29 65 30 66 39 67 31 68
REMARK SMILES IDX 32 69 38 70 40 71 33 72 34 73 35 74 36 75 37 76 63 77 64 78
REMARK SMILES IDX 73 79 65 80 66 81 72 82 74 83 67 84 68 85 69 86 70 87 71 88
REMARK SMILES IDX 47 89 48 90 57 91 49 92 50 93 56 94 58 95 51 96 52 97 53 98
REMARK SMILES IDX 54 99 55 100
REMARK H PARENT 9 10 9 11 95 29 79 50 45 61
REMARK Flexibility Score: inf
ROOT
ATOM      1  C   UNL A   1      35.462  32.987  29.333  1.00  0.00     0.275 C 
ENDROOT
BRANCH   1   2
ATOM      2  C   UNL A   1      34.264  33.802  29.813  1.00  0.00     0.274 C 
BRANCH   2   3
ATOM      3  O   UNL A   1      34.571  34.514  31.029  1.00  0.00    -0.457 OA
BRANCH   3   4
ATOM      4  C   UNL A   1      34.605  33.758  32.160  1.00  0.00     0.368 C 
ATOM      5  O   UNL A   1      33.738  32.940  32.460  1.00  0.00    -0.245 OA
BRANCH   4   6
ATOM      6  C   UNL A   1      35.823  34.041  33.082  1.00  0.00     0.204 C 
ATOM      7  C   UNL A   1      37.937  33.991  31.918  1.00  0.00     0.232 C 
ATOM      8  N   UNL A   1      36.865  34.883  32.427  1.00  0.00    -0.325 N 
ATOM      9  C   UNL A   1      37.596  32.570  32.351  1.00  0.00     0.161 C 
ATOM     10  H   UNL A   1      36.452  35.401  31.652  1.00  0.00     0.347 HD
ATOM     11  H   UNL A   1      37.251  35.547  33.098  1.00  0.00     0.347 HD
ATOM     12  C   UNL A   1      36.479  32.700  33.370  1.00  0.00     0.170 C 
ATOM     13  C   UNL A   1      38.628  31.758  33.081  1.00  0.00     0.239 C 
ATOM     14  C   UNL A   1      35.239  34.775  34.293  1.00  0.00     0.093 C 
ATOM     15  C   UNL A   1      37.167  32.449  34.685  1.00  0.00     0.240 C 
ATOM     16  N   UNL A   1      38.323  31.768  34.414  1.00  0.00    -0.285 N 
ATOM     17  O   UNL A   1      39.563  31.184  32.546  1.00  0.00    -0.274 OA
ATOM     18  O   UNL A   1      36.705  32.695  35.789  1.00  0.00    -0.274 OA
ATOM     19  C   UNL A   1      39.118  31.087  35.407  1.00  0.00     0.156 C 
BRANCH   7  20
ATOM     20  C   UNL A   1      39.344  34.431  32.267  1.00  0.00     0.056 A 
ATOM     21  C   UNL A   1      41.054  35.089  33.875  1.00  0.00     0.161 A 
ATOM     22  C   UNL A   1      42.055  34.913  32.928  1.00  0.00     0.050 A 
ATOM     23  C   UNL A   1      39.712  34.892  33.534  1.00  0.00     0.166 A 
ATOM     24  C   UNL A   1      41.708  34.498  31.642  1.00  0.00     0.005 A 
ATOM     25  C   UNL A   1      40.369  34.248  31.320  1.00  0.00     0.014 A 
BRANCH  21  26
ATOM     26  O   UNL A   1      41.374  35.499  35.144  1.00  0.00    -0.493 OA
ATOM     27  C   UNL A   1      42.082  36.743  35.101  1.00  0.00     0.278 C 
ENDBRANCH  21  26
BRANCH  23  28
ATOM     28  O   UNL A   1      38.746  35.143  34.473  1.00  0.00    -0.504 OA
ATOM     29  H   UNL A   1      38.949  35.077  35.385  1.00  0.00     0.293 HD
ENDBRANCH  23  28
ENDBRANCH   7  20
ENDBRANCH   4   6
ENDBRANCH   3   4
ENDBRANCH   2   3
ENDBRANCH   1   2
BRANCH   1  30
ATOM     30  O   UNL A   1      35.338  31.625  29.776  1.00  0.00    -0.458 OA
BRANCH  30  31
ATOM     31  C   UNL A   1      35.332  30.691  28.797  1.00  0.00     0.338 C 
ATOM     32  O   UNL A   1      34.431  30.468  28.004  1.00  0.00    -0.246 OA
BRANCH  31  33
ATOM     33  C   UNL A   1      36.620  29.967  28.752  1.00  0.00     0.060 A 
ATOM     34  C   UNL A   1      37.166  29.418  29.910  1.00  0.00     0.016 A 
ATOM     35  C   UNL A   1      37.381  30.007  27.584  1.00  0.00     0.016 A 
ATOM     36  C   UNL A   1      38.521  29.079  29.944  1.00  0.00     0.010 A 
ATOM     37  C   UNL A   1      38.694  29.523  27.587  1.00  0.00     0.010 A 
ATOM     38  C   UNL A   1      39.308  29.102  28.779  1.00  0.00    -0.014 A 
BRANCH  38  39
ATOM     39  C   UNL A   1      40.756  28.714  28.796  1.00  0.00     0.031 A 
ATOM     40  C   UNL A   1      41.824  29.737  29.119  1.00  0.00     0.074 A 
ATOM     41  C   UNL A   1      41.139  27.455  28.498  1.00  0.00     0.049 A 
ATOM     42  N   UNL A   1      43.111  29.696  28.877  1.00  0.00    -0.248 NA
ATOM     43  C   UNL A   1      41.383  30.980  29.774  1.00  0.00     0.031 C 
ATOM     44  C   UNL A   1      40.242  26.335  28.199  1.00  0.00     0.029 A 
ATOM     45  N   UNL A   1      42.394  26.901  28.390  1.00  0.00    -0.354 N 
ATOM     46  C   UNL A   1      43.617  30.932  29.271  1.00  0.00     0.074 A 
ATOM     47  C   UNL A   1      42.497  31.700  29.773  1.00  0.00     0.031 C 
ATOM     48  C   UNL A   1      40.966  25.227  27.990  1.00  0.00     0.029 A 
ATOM     49  C   UNL A   1      42.379  25.578  28.009  1.00  0.00     0.049 A 
ATOM     50  H   UNL A   1      43.222  27.402  28.568  1.00  0.00     0.167 HD
ATOM     51  C   UNL A   1      44.896  31.383  29.217  1.00  0.00     0.037 A 
ATOM     52  C   UNL A   1      43.374  24.747  27.640  1.00  0.00     0.037 A 
ATOM     53  C   UNL A   1      46.021  30.579  28.802  1.00  0.00     0.049 A 
ATOM     54  C   UNL A   1      44.781  25.261  27.587  1.00  0.00     0.074 A 
ATOM     55  C   UNL A   1      47.357  30.939  28.722  1.00  0.00     0.029 A 
ATOM     56  N   UNL A   1      45.948  29.245  28.433  1.00  0.00    -0.354 N 
ATOM     57  N   UNL A   1      45.228  26.464  27.857  1.00  0.00    -0.248 NA
ATOM     58  C   UNL A   1      45.817  24.314  27.155  1.00  0.00     0.031 C 
ATOM     59  C   UNL A   1      48.088  29.829  28.285  1.00  0.00     0.029 A 
ATOM     60  C   UNL A   1      47.214  28.766  28.130  1.00  0.00     0.049 A 
ATOM     61  H   UNL A   1      45.120  28.714  28.393  1.00  0.00     0.167 HD
ATOM     62  C   UNL A   1      46.597  26.418  27.628  1.00  0.00     0.074 A 
ATOM     63  C   UNL A   1      46.909  25.062  27.224  1.00  0.00     0.031 C 
ATOM     64  C   UNL A   1      47.511  27.413  27.734  1.00  0.00     0.037 A 
BRANCH  51  65
ATOM     65  C   UNL A   1      45.160  32.819  29.592  1.00  0.00     0.058 A 
ATOM     66  C   UNL A   1      45.122  33.858  28.652  1.00  0.00     0.135 A 
ATOM     67  C   UNL A   1      45.397  33.164  30.935  1.00  0.00     0.135 A 
ATOM     68  F   UNL A   1      44.905  33.589  27.355  1.00  0.00    -0.206 F 
ATOM     69  C   UNL A   1      45.335  35.184  29.021  1.00  0.00     0.059 A 
ATOM     70  C   UNL A   1      45.588  34.486  31.331  1.00  0.00     0.059 A 
ATOM     71  F   UNL A   1      45.437  32.213  31.881  1.00  0.00    -0.206 F 
ATOM     72  C   UNL A   1      45.569  35.488  30.365  1.00  0.00     0.060 A 
BRANCH  72  73
ATOM     73  S   UNL A   1      45.833  37.213  30.831  1.00  0.00     0.124 S 
ATOM     74  O   UNL A   1      44.487  37.619  31.224  1.00  0.00    -0.237 OA
ATOM     75  O   UNL A   1      46.802  37.101  31.918  1.00  0.00    -0.237 OA
ATOM     76  O   UNL A   1      46.340  37.823  29.607  1.00  0.00    -0.744 OA
ENDBRANCH  72  73
ENDBRANCH  51  65
BRANCH  52  77
ATOM     77  C   UNL A   1      43.049  23.357  27.220  1.00  0.00     0.058 A 
ATOM     78  C   UNL A   1      42.947  23.016  25.865  1.00  0.00     0.135 A 
ATOM     79  C   UNL A   1      42.875  22.335  28.169  1.00  0.00     0.135 A 
ATOM     80  F   UNL A   1      43.094  23.960  24.923  1.00  0.00    -0.206 F 
ATOM     81  C   UNL A   1      42.684  21.712  25.462  1.00  0.00     0.059 A 
ATOM     82  C   UNL A   1      42.642  21.019  27.789  1.00  0.00     0.059 A 
ATOM     83  F   UNL A   1      42.979  22.609  29.479  1.00  0.00    -0.206 F 
ATOM     84  C   UNL A   1      42.539  20.718  26.432  1.00  0.00     0.060 A 
BRANCH  84  85
ATOM     85  S   UNL A   1      42.270  19.013  25.904  1.00  0.00     0.124 S 
ATOM     86  O   UNL A   1      40.825  18.992  25.710  1.00  0.00    -0.237 OA
ATOM     87  O   UNL A   1      43.078  18.933  24.691  1.00  0.00    -0.237 OA
ATOM     88  O   UNL A   1      42.770  18.232  27.031  1.00  0.00    -0.744 OA
ENDBRANCH  84  85
ENDBRANCH  52  77
BRANCH  64  89
ATOM     89  C   UNL A   1      48.941  27.061  27.440  1.00  0.00     0.058 A 
ATOM     90  C   UNL A   1      49.767  26.471  28.408  1.00  0.00     0.135 A 
ATOM     91  C   UNL A   1      49.483  27.295  26.166  1.00  0.00     0.135 A 
ATOM     92  F   UNL A   1      49.299  26.236  29.644  1.00  0.00    -0.206 F 
ATOM     93  C   UNL A   1      51.091  26.147  28.132  1.00  0.00     0.059 A 
ATOM     94  C   UNL A   1      50.798  26.959  25.861  1.00  0.00     0.059 A 
ATOM     95  F   UNL A   1      48.732  27.852  25.203  1.00  0.00    -0.206 F 
ATOM     96  C   UNL A   1      51.598  26.397  26.856  1.00  0.00     0.060 A 
BRANCH  96  97
ATOM     97  S   UNL A   1      53.313  25.957  26.501  1.00  0.00     0.124 S 
ATOM     98  O   UNL A   1      53.192  24.536  26.190  1.00  0.00    -0.237 OA
ATOM     99  O   UNL A   1      53.635  26.828  25.375  1.00  0.00    -0.237 OA
ATOM    100  O   UNL A   1      54.008  26.270  27.746  1.00  0.00    -0.744 OA
ENDBRANCH  96  97
ENDBRANCH  64  89
ENDBRANCH  38  39
ENDBRANCH  31  33
ENDBRANCH  30  31
ENDBRANCH   1  30
TORSDOF 17
ENDMDL
