MODEL 1
REMARK VINA RESULT:     -12.7      0.000      0.000
REMARK SMILES Cc1ccn2c([C@@H]3CCCC[C@@H]3C(=O)OCCOC(=O)c3ccc(-c4c5nc(c(-c6c(F)cc(S(=O)(=O)[O-])cc6F)c6ccc([nH]6)c(-c6c(F)cc(S(=O)(=O)[O-])cc6F)c6nc(c(-c7c(F)cc(S(=O)(=O)[O-])cc7F)c7ccc4[nH]7)C=C6)C=C5)cc3)nnc2c1
REMARK SMILES IDX 17 1 16 2 15 3 13 4 14 5 12 6 7 7 8 8 9 9 11 10 10 11 6 12
REMARK SMILES IDX 1 13 2 14 3 15 90 16 4 17 89 18 5 19 88 20 87 21 18 22 19 23
REMARK SMILES IDX 20 24 21 25 22 26 86 27 23 28 85 29 24 30 25 31 26 32 79 33
REMARK SMILES IDX 27 34 84 35 78 36 80 37 28 38 83 39 77 40 76 41 29 43 63 44
REMARK SMILES IDX 42 45 62 46 43 47 46 48 61 49 81 50 44 51 45 52 60 54 82 55
REMARK SMILES IDX 47 56 30 57 31 58 40 59 32 60 33 61 39 62 41 63 34 64 35 65
REMARK SMILES IDX 36 66 37 67 38 68 64 69 65 70 74 71 66 72 67 73 73 74 75 75
REMARK SMILES IDX 68 76 69 77 70 78 71 79 72 80 48 81 49 82 58 83 50 84 51 85
REMARK SMILES IDX 57 86 59 87 52 88 53 89 54 90 55 91 56 92
REMARK H PARENT 80 42 46 53
REMARK Flexibility Score: inf
ROOT
ATOM      1  C   UNL A   1      38.444  21.430  25.684  1.00  0.00     0.275 C 
ENDROOT
BRANCH   1   2
ATOM      2  C   UNL A   1      37.315  21.933  24.749  1.00  0.00     0.274 C 
BRANCH   2   3
ATOM      3  O   UNL A   1      36.419  22.818  25.460  1.00  0.00    -0.462 OA
BRANCH   3   4
ATOM      4  C   UNL A   1      35.206  22.315  25.833  1.00  0.00     0.309 C 
ATOM      5  O   UNL A   1      34.743  22.480  26.948  1.00  0.00    -0.252 OA
BRANCH   4   6
ATOM      6  C   UNL A   1      34.498  21.612  24.654  1.00  0.00     0.110 C 
ATOM      7  C   UNL A   1      33.603  22.311  23.602  1.00  0.00     0.072 C 
ATOM      8  C   UNL A   1      32.189  21.720  23.495  1.00  0.00     0.012 C 
ATOM      9  C   UNL A   1      32.264  20.227  23.226  1.00  0.00     0.001 C 
ATOM     10  C   UNL A   1      33.965  20.236  25.114  1.00  0.00     0.016 C 
ATOM     11  C   UNL A   1      32.831  19.518  24.424  1.00  0.00     0.001 C 
BRANCH   7  12
ATOM     12  C   UNL A   1      33.541  23.794  23.571  1.00  0.00     0.141 A 
ATOM     13  C   UNL A   1      31.669  27.640  27.105  1.00  0.00     0.044 C 
ATOM     14  C   UNL A   1      32.081  26.614  26.101  1.00  0.00    -0.046 A 
ATOM     15  C   UNL A   1      31.717  25.234  26.408  1.00  0.00     0.022 A 
ATOM     16  C   UNL A   1      32.751  26.924  24.967  1.00  0.00     0.053 A 
ATOM     17  C   UNL A   1      32.104  24.259  25.575  1.00  0.00     0.095 A 
ATOM     18  C   UNL A   1      33.173  25.885  24.096  1.00  0.00     0.161 A 
ATOM     19  N   UNL A   1      32.883  24.586  24.473  1.00  0.00    -0.286 N 
ATOM     20  N   UNL A   1      33.809  25.872  22.947  1.00  0.00    -0.130 NA
ATOM     21  N   UNL A   1      34.036  24.557  22.613  1.00  0.00    -0.134 NA
ENDBRANCH   7  12
ENDBRANCH   4   6
ENDBRANCH   3   4
ENDBRANCH   2   3
ENDBRANCH   1   2
BRANCH   1  22
ATOM     22  O   UNL A   1      38.895  22.533  26.490  1.00  0.00    -0.458 OA
BRANCH  22  23
ATOM     23  C   UNL A   1      39.992  22.414  27.302  1.00  0.00     0.338 C 
ATOM     24  O   UNL A   1      40.523  21.406  27.681  1.00  0.00    -0.246 OA
BRANCH  23  25
ATOM     25  C   UNL A   1      40.587  23.786  27.239  1.00  0.00     0.060 A 
ATOM     26  C   UNL A   1      41.493  24.148  28.236  1.00  0.00     0.016 A 
ATOM     27  C   UNL A   1      39.862  24.764  26.555  1.00  0.00     0.016 A 
ATOM     28  C   UNL A   1      41.438  25.432  28.770  1.00  0.00     0.010 A 
ATOM     29  C   UNL A   1      39.812  26.048  27.101  1.00  0.00     0.010 A 
ATOM     30  C   UNL A   1      40.502  26.354  28.290  1.00  0.00    -0.014 A 
BRANCH  30  31
ATOM     31  C   UNL A   1      40.527  27.731  28.811  1.00  0.00     0.031 A 
ATOM     32  C   UNL A   1      41.669  28.449  28.221  1.00  0.00     0.074 A 
ATOM     33  C   UNL A   1      39.780  28.398  29.723  1.00  0.00     0.049 A 
ATOM     34  N   UNL A   1      42.885  28.338  28.634  1.00  0.00    -0.248 NA
ATOM     35  C   UNL A   1      41.512  29.122  26.928  1.00  0.00     0.031 C 
ATOM     36  C   UNL A   1      38.472  28.098  30.293  1.00  0.00     0.029 A 
ATOM     37  N   UNL A   1      40.096  29.590  30.333  1.00  0.00    -0.354 N 
ATOM     38  C   UNL A   1      43.627  29.117  27.775  1.00  0.00     0.074 A 
ATOM     39  C   UNL A   1      42.790  29.363  26.626  1.00  0.00     0.031 C 
ATOM     40  C   UNL A   1      38.020  29.165  31.007  1.00  0.00     0.029 A 
ATOM     41  C   UNL A   1      39.082  30.152  31.109  1.00  0.00     0.049 A 
ATOM     42  H   UNL A   1      40.977  30.017  30.230  1.00  0.00     0.167 HD
ATOM     43  C   UNL A   1      44.773  29.714  28.189  1.00  0.00     0.037 A 
ATOM     44  C   UNL A   1      39.145  31.314  31.818  1.00  0.00     0.037 A 
ATOM     45  C   UNL A   1      45.168  29.270  29.505  1.00  0.00     0.049 A 
ATOM     46  C   UNL A   1      40.576  31.547  32.125  1.00  0.00     0.074 A 
ATOM     47  C   UNL A   1      45.547  28.069  30.068  1.00  0.00     0.029 A 
ATOM     48  N   UNL A   1      44.799  30.083  30.548  1.00  0.00    -0.354 N 
ATOM     49  N   UNL A   1      41.282  30.817  32.942  1.00  0.00    -0.248 NA
ATOM     50  C   UNL A   1      41.338  32.414  31.243  1.00  0.00     0.031 C 
ATOM     51  C   UNL A   1      45.019  28.081  31.395  1.00  0.00     0.029 A 
ATOM     52  C   UNL A   1      44.375  29.304  31.596  1.00  0.00     0.049 A 
ATOM     53  H   UNL A   1      44.832  31.068  30.546  1.00  0.00     0.167 HD
ATOM     54  C   UNL A   1      42.547  30.794  32.382  1.00  0.00     0.074 A 
ATOM     55  C   UNL A   1      42.554  31.894  31.424  1.00  0.00     0.031 C 
ATOM     56  C   UNL A   1      43.366  29.716  32.552  1.00  0.00     0.037 A 
BRANCH  43  57
ATOM     57  C   UNL A   1      45.301  30.968  27.568  1.00  0.00     0.058 A 
ATOM     58  C   UNL A   1      46.615  30.999  27.077  1.00  0.00     0.135 A 
ATOM     59  C   UNL A   1      44.627  32.206  27.634  1.00  0.00     0.135 A 
ATOM     60  F   UNL A   1      47.352  29.878  27.028  1.00  0.00    -0.206 F 
ATOM     61  C   UNL A   1      47.221  32.187  26.673  1.00  0.00     0.059 A 
ATOM     62  C   UNL A   1      45.185  33.391  27.178  1.00  0.00     0.059 A 
ATOM     63  F   UNL A   1      43.431  32.331  28.226  1.00  0.00    -0.206 F 
ATOM     64  C   UNL A   1      46.492  33.375  26.722  1.00  0.00     0.060 A 
BRANCH  64  65
ATOM     65  S   UNL A   1      47.286  34.912  26.226  1.00  0.00     0.124 S 
ATOM     66  O   UNL A   1      46.170  35.849  26.284  1.00  0.00    -0.237 OA
ATOM     67  O   UNL A   1      48.307  35.068  27.257  1.00  0.00    -0.237 OA
ATOM     68  O   UNL A   1      47.794  34.613  24.890  1.00  0.00    -0.744 OA
ENDBRANCH  64  65
ENDBRANCH  43  57
BRANCH  44  69
ATOM     69  C   UNL A   1      38.148  32.407  32.030  1.00  0.00     0.058 A 
ATOM     70  C   UNL A   1      37.653  33.164  30.944  1.00  0.00     0.135 A 
ATOM     71  C   UNL A   1      37.396  32.478  33.215  1.00  0.00     0.135 A 
ATOM     72  F   UNL A   1      38.296  33.156  29.765  1.00  0.00    -0.206 F 
ATOM     73  C   UNL A   1      36.445  33.871  31.003  1.00  0.00     0.059 A 
ATOM     74  C   UNL A   1      36.188  33.181  33.299  1.00  0.00     0.059 A 
ATOM     75  F   UNL A   1      37.764  31.775  34.294  1.00  0.00    -0.206 F 
ATOM     76  C   UNL A   1      35.700  33.848  32.179  1.00  0.00     0.060 A 
BRANCH  76  77
ATOM     77  S   UNL A   1      34.044  34.585  32.189  1.00  0.00     0.124 S 
ATOM     78  O   UNL A   1      33.666  34.508  30.781  1.00  0.00    -0.237 OA
ATOM     79  O   UNL A   1      33.315  33.698  33.089  1.00  0.00    -0.237 OA
ATOM     80  O   UNL A   1      34.272  35.934  32.699  1.00  0.00    -0.744 OA
ENDBRANCH  76  77
ENDBRANCH  44  69
BRANCH  56  81
ATOM     81  C   UNL A   1      43.088  28.796  33.717  1.00  0.00     0.058 A 
ATOM     82  C   UNL A   1      43.667  28.890  34.995  1.00  0.00     0.135 A 
ATOM     83  C   UNL A   1      42.103  27.810  33.536  1.00  0.00     0.135 A 
ATOM     84  F   UNL A   1      44.549  29.858  35.287  1.00  0.00    -0.206 F 
ATOM     85  C   UNL A   1      43.314  28.015  36.028  1.00  0.00     0.059 A 
ATOM     86  C   UNL A   1      41.709  26.953  34.560  1.00  0.00     0.059 A 
ATOM     87  F   UNL A   1      41.478  27.693  32.352  1.00  0.00    -0.206 F 
ATOM     88  C   UNL A   1      42.329  27.052  35.802  1.00  0.00     0.060 A 
BRANCH  88  89
ATOM     89  S   UNL A   1      41.821  25.967  37.155  1.00  0.00     0.124 S 
ATOM     90  O   UNL A   1      42.789  26.292  38.196  1.00  0.00    -0.237 OA
ATOM     91  O   UNL A   1      40.449  26.399  37.407  1.00  0.00    -0.237 OA
ATOM     92  O   UNL A   1      41.947  24.627  36.586  1.00  0.00    -0.744 OA
ENDBRANCH  88  89
ENDBRANCH  56  81
ENDBRANCH  30  31
ENDBRANCH  23  25
ENDBRANCH  22  23
ENDBRANCH   1  22
TORSDOF 15
ENDMDL
MODEL 2
REMARK VINA RESULT:     -12.6      1.085      2.710
REMARK SMILES Cc1ccn2c([C@@H]3CCCC[C@@H]3C(=O)OCCOC(=O)c3ccc(-c4c5nc(c(-c6c(F)cc(S(=O)(=O)[O-])cc6F)c6ccc([nH]6)c(-c6c(F)cc(S(=O)(=O)[O-])cc6F)c6nc(c(-c7c(F)cc(S(=O)(=O)[O-])cc7F)c7ccc4[nH]7)C=C6)C=C5)cc3)nnc2c1
REMARK SMILES IDX 17 1 16 2 15 3 13 4 14 5 12 6 7 7 8 8 9 9 11 10 10 11 6 12
REMARK SMILES IDX 1 13 2 14 3 15 90 16 4 17 89 18 5 19 88 20 87 21 18 22 19 23
REMARK SMILES IDX 20 24 21 25 22 26 86 27 23 28 85 29 24 30 25 31 26 32 79 33
REMARK SMILES IDX 27 34 84 35 78 36 80 37 28 38 83 39 77 40 76 41 29 43 63 44
REMARK SMILES IDX 42 45 62 46 43 47 46 48 61 49 81 50 44 51 45 52 60 54 82 55
REMARK SMILES IDX 47 56 30 57 31 58 40 59 32 60 33 61 39 62 41 63 34 64 35 65
REMARK SMILES IDX 36 66 37 67 38 68 64 69 65 70 74 71 66 72 67 73 73 74 75 75
REMARK SMILES IDX 68 76 69 77 70 78 71 79 72 80 48 81 49 82 58 83 50 84 51 85
REMARK SMILES IDX 57 86 59 87 52 88 53 89 54 90 55 91 56 92
REMARK H PARENT 80 42 46 53
REMARK Flexibility Score: inf
ROOT
ATOM      1  C   UNL A   1      38.330  21.671  25.735  1.00  0.00     0.275 C 
ENDROOT
BRANCH   1   2
ATOM      2  C   UNL A   1      36.885  22.108  25.382  1.00  0.00     0.274 C 
BRANCH   2   3
ATOM      3  O   UNL A   1      36.781  22.441  23.979  1.00  0.00    -0.462 OA
BRANCH   3   4
ATOM      4  C   UNL A   1      35.656  23.097  23.572  1.00  0.00     0.309 C 
ATOM      5  O   UNL A   1      35.432  23.352  22.401  1.00  0.00    -0.252 OA
BRANCH   4   6
ATOM      6  C   UNL A   1      34.704  23.378  24.756  1.00  0.00     0.110 C 
ATOM      7  C   UNL A   1      33.277  22.800  24.914  1.00  0.00     0.072 C 
ATOM      8  C   UNL A   1      32.187  23.868  25.088  1.00  0.00     0.012 C 
ATOM      9  C   UNL A   1      32.528  24.778  26.256  1.00  0.00     0.001 C 
ATOM     10  C   UNL A   1      34.832  24.857  25.186  1.00  0.00     0.016 C 
ATOM     11  C   UNL A   1      33.746  25.596  25.931  1.00  0.00     0.001 C 
BRANCH   7  12
ATOM     12  C   UNL A   1      32.813  21.744  23.979  1.00  0.00     0.141 A 
ATOM     13  C   UNL A   1      33.437  16.234  23.784  1.00  0.00     0.044 C 
ATOM     14  C   UNL A   1      33.348  17.725  23.766  1.00  0.00    -0.046 A 
ATOM     15  C   UNL A   1      34.191  18.429  24.728  1.00  0.00     0.022 A 
ATOM     16  C   UNL A   1      32.543  18.402  22.916  1.00  0.00     0.053 A 
ATOM     17  C   UNL A   1      34.119  19.764  24.800  1.00  0.00     0.095 A 
ATOM     18  C   UNL A   1      32.458  19.817  23.008  1.00  0.00     0.161 A 
ATOM     19  N   UNL A   1      33.207  20.432  23.994  1.00  0.00    -0.286 N 
ATOM     20  N   UNL A   1      31.796  20.728  22.332  1.00  0.00    -0.130 NA
ATOM     21  N   UNL A   1      32.023  21.941  22.939  1.00  0.00    -0.134 NA
ENDBRANCH   7  12
ENDBRANCH   4   6
ENDBRANCH   3   4
ENDBRANCH   2   3
ENDBRANCH   1   2
BRANCH   1  22
ATOM     22  O   UNL A   1      38.925  22.687  26.561  1.00  0.00    -0.458 OA
BRANCH  22  23
ATOM     23  C   UNL A   1      40.116  22.469  27.203  1.00  0.00     0.338 C 
ATOM     24  O   UNL A   1      40.661  21.420  27.411  1.00  0.00    -0.246 OA
BRANCH  23  25
ATOM     25  C   UNL A   1      40.740  23.830  27.189  1.00  0.00     0.060 A 
ATOM     26  C   UNL A   1      41.575  24.173  28.253  1.00  0.00     0.016 A 
ATOM     27  C   UNL A   1      40.088  24.823  26.457  1.00  0.00     0.016 A 
ATOM     28  C   UNL A   1      41.504  25.456  28.786  1.00  0.00     0.010 A 
ATOM     29  C   UNL A   1      40.021  26.106  27.001  1.00  0.00     0.010 A 
ATOM     30  C   UNL A   1      40.625  26.397  28.240  1.00  0.00    -0.014 A 
BRANCH  30  31
ATOM     31  C   UNL A   1      40.637  27.772  28.766  1.00  0.00     0.031 A 
ATOM     32  C   UNL A   1      41.787  28.496  28.198  1.00  0.00     0.074 A 
ATOM     33  C   UNL A   1      39.873  28.434  29.667  1.00  0.00     0.049 A 
ATOM     34  N   UNL A   1      42.997  28.386  28.631  1.00  0.00    -0.248 NA
ATOM     35  C   UNL A   1      41.650  29.173  26.905  1.00  0.00     0.031 C 
ATOM     36  C   UNL A   1      38.556  28.128  30.213  1.00  0.00     0.029 A 
ATOM     37  N   UNL A   1      40.175  29.624  30.286  1.00  0.00    -0.354 N 
ATOM     38  C   UNL A   1      43.751  29.171  27.786  1.00  0.00     0.074 A 
ATOM     39  C   UNL A   1      42.932  29.419  26.624  1.00  0.00     0.031 C 
ATOM     40  C   UNL A   1      38.089  29.191  30.923  1.00  0.00     0.029 A 
ATOM     41  C   UNL A   1      39.146  30.181  31.047  1.00  0.00     0.049 A 
ATOM     42  H   UNL A   1      41.057  30.054  30.200  1.00  0.00     0.167 HD
ATOM     43  C   UNL A   1      44.888  29.770  28.223  1.00  0.00     0.037 A 
ATOM     44  C   UNL A   1      39.194  31.342  31.760  1.00  0.00     0.037 A 
ATOM     45  C   UNL A   1      45.261  29.323  29.543  1.00  0.00     0.049 A 
ATOM     46  C   UNL A   1      40.619  31.577  32.093  1.00  0.00     0.074 A 
ATOM     47  C   UNL A   1      45.635  28.121  30.108  1.00  0.00     0.029 A 
ATOM     48  N   UNL A   1      44.872  30.131  30.583  1.00  0.00    -0.354 N 
ATOM     49  N   UNL A   1      41.313  30.847  32.919  1.00  0.00    -0.248 NA
ATOM     50  C   UNL A   1      41.393  32.449  31.227  1.00  0.00     0.031 C 
ATOM     51  C   UNL A   1      45.084  28.127  31.426  1.00  0.00     0.029 A 
ATOM     52  C   UNL A   1      44.433  29.347  31.620  1.00  0.00     0.049 A 
ATOM     53  H   UNL A   1      44.902  31.116  30.585  1.00  0.00     0.167 HD
ATOM     54  C   UNL A   1      42.588  30.829  32.381  1.00  0.00     0.074 A 
ATOM     55  C   UNL A   1      42.607  31.933  31.426  1.00  0.00     0.031 C 
ATOM     56  C   UNL A   1      43.407  29.753  32.561  1.00  0.00     0.037 A 
BRANCH  43  57
ATOM     57  C   UNL A   1      45.423  31.027  27.615  1.00  0.00     0.058 A 
ATOM     58  C   UNL A   1      46.741  31.061  27.136  1.00  0.00     0.135 A 
ATOM     59  C   UNL A   1      44.748  32.266  27.682  1.00  0.00     0.135 A 
ATOM     60  F   UNL A   1      47.478  29.939  27.087  1.00  0.00    -0.206 F 
ATOM     61  C   UNL A   1      47.351  32.251  26.746  1.00  0.00     0.059 A 
ATOM     62  C   UNL A   1      45.312  33.453  27.239  1.00  0.00     0.059 A 
ATOM     63  F   UNL A   1      43.547  32.388  28.263  1.00  0.00    -0.206 F 
ATOM     64  C   UNL A   1      46.623  33.439  26.795  1.00  0.00     0.060 A 
BRANCH  64  65
ATOM     65  S   UNL A   1      47.422  34.979  26.318  1.00  0.00     0.124 S 
ATOM     66  O   UNL A   1      47.496  34.832  24.869  1.00  0.00    -0.237 OA
ATOM     67  O   UNL A   1      46.477  35.973  26.813  1.00  0.00    -0.237 OA
ATOM     68  O   UNL A   1      48.699  34.929  27.025  1.00  0.00    -0.744 OA
ENDBRANCH  64  65
ENDBRANCH  43  57
BRANCH  44  69
ATOM     69  C   UNL A   1      38.190  32.431  31.959  1.00  0.00     0.058 A 
ATOM     70  C   UNL A   1      37.571  33.063  30.857  1.00  0.00     0.135 A 
ATOM     71  C   UNL A   1      37.553  32.608  33.199  1.00  0.00     0.135 A 
ATOM     72  F   UNL A   1      38.098  32.946  29.627  1.00  0.00    -0.206 F 
ATOM     73  C   UNL A   1      36.354  33.748  30.963  1.00  0.00     0.059 A 
ATOM     74  C   UNL A   1      36.339  33.292  33.331  1.00  0.00     0.059 A 
ATOM     75  F   UNL A   1      38.044  32.027  34.301  1.00  0.00    -0.206 F 
ATOM     76  C   UNL A   1      35.726  33.831  32.203  1.00  0.00     0.060 A 
BRANCH  76  77
ATOM     77  S   UNL A   1      34.058  34.533  32.303  1.00  0.00     0.124 S 
ATOM     78  O   UNL A   1      34.307  35.825  32.935  1.00  0.00    -0.237 OA
ATOM     79  O   UNL A   1      33.657  34.581  30.901  1.00  0.00    -0.237 OA
ATOM     80  O   UNL A   1      33.329  33.570  33.122  1.00  0.00    -0.744 OA
ENDBRANCH  76  77
ENDBRANCH  44  69
BRANCH  56  81
ATOM     81  C   UNL A   1      43.111  28.829  33.718  1.00  0.00     0.058 A 
ATOM     82  C   UNL A   1      43.631  28.948  35.019  1.00  0.00     0.135 A 
ATOM     83  C   UNL A   1      42.172  27.806  33.500  1.00  0.00     0.135 A 
ATOM     84  F   UNL A   1      44.464  29.949  35.344  1.00  0.00    -0.206 F 
ATOM     85  C   UNL A   1      43.265  28.065  36.041  1.00  0.00     0.059 A 
ATOM     86  C   UNL A   1      41.765  26.940  34.511  1.00  0.00     0.059 A 
ATOM     87  F   UNL A   1      41.604  27.662  32.291  1.00  0.00    -0.206 F 
ATOM     88  C   UNL A   1      42.326  27.066  35.778  1.00  0.00     0.060 A 
BRANCH  88  89
ATOM     89  S   UNL A   1      41.799  25.969  37.113  1.00  0.00     0.124 S 
ATOM     90  O   UNL A   1      42.799  26.229  38.144  1.00  0.00    -0.237 OA
ATOM     91  O   UNL A   1      40.450  26.448  37.402  1.00  0.00    -0.237 OA
ATOM     92  O   UNL A   1      41.861  24.639  36.510  1.00  0.00    -0.744 OA
ENDBRANCH  88  89
ENDBRANCH  56  81
ENDBRANCH  30  31
ENDBRANCH  23  25
ENDBRANCH  22  23
ENDBRANCH   1  22
TORSDOF 15
ENDMDL
MODEL 3
REMARK VINA RESULT:     -12.5      3.726      6.542
REMARK SMILES Cc1ccn2c([C@@H]3CCCC[C@@H]3C(=O)OCCOC(=O)c3ccc(-c4c5nc(c(-c6c(F)cc(S(=O)(=O)[O-])cc6F)c6ccc([nH]6)c(-c6c(F)cc(S(=O)(=O)[O-])cc6F)c6nc(c(-c7c(F)cc(S(=O)(=O)[O-])cc7F)c7ccc4[nH]7)C=C6)C=C5)cc3)nnc2c1
REMARK SMILES IDX 17 1 16 2 15 3 13 4 14 5 12 6 7 7 8 8 9 9 11 10 10 11 6 12
REMARK SMILES IDX 1 13 2 14 3 15 90 16 4 17 89 18 5 19 88 20 87 21 18 22 19 23
REMARK SMILES IDX 20 24 21 25 22 26 86 27 23 28 85 29 24 30 25 31 26 32 79 33
REMARK SMILES IDX 27 34 84 35 78 36 80 37 28 38 83 39 77 40 76 41 29 43 63 44
REMARK SMILES IDX 42 45 62 46 43 47 46 48 61 49 81 50 44 51 45 52 60 54 82 55
REMARK SMILES IDX 47 56 30 57 31 58 40 59 32 60 33 61 39 62 41 63 34 64 35 65
REMARK SMILES IDX 36 66 37 67 38 68 64 69 65 70 74 71 66 72 67 73 73 74 75 75
REMARK SMILES IDX 68 76 69 77 70 78 71 79 72 80 48 81 49 82 58 83 50 84 51 85
REMARK SMILES IDX 57 86 59 87 52 88 53 89 54 90 55 91 56 92
REMARK H PARENT 80 42 46 53
REMARK Flexibility Score: inf
ROOT
ATOM      1  C   UNL A   1      42.309  20.898  26.215  1.00  0.00     0.275 C 
ENDROOT
BRANCH   1   2
ATOM      2  C   UNL A   1      43.713  20.841  25.559  1.00  0.00     0.274 C 
BRANCH   2   3
ATOM      3  O   UNL A   1      44.215  22.175  25.309  1.00  0.00    -0.462 OA
BRANCH   3   4
ATOM      4  C   UNL A   1      45.155  22.662  26.169  1.00  0.00     0.309 C 
ATOM      5  O   UNL A   1      46.346  22.436  26.035  1.00  0.00    -0.252 OA
BRANCH   4   6
ATOM      6  C   UNL A   1      44.523  23.578  27.241  1.00  0.00     0.110 C 
ATOM      7  C   UNL A   1      44.799  25.093  27.399  1.00  0.00     0.072 C 
ATOM      8  C   UNL A   1      45.302  25.493  28.794  1.00  0.00     0.012 C 
ATOM      9  C   UNL A   1      44.330  25.012  29.858  1.00  0.00     0.001 C 
ATOM     10  C   UNL A   1      44.423  22.816  28.581  1.00  0.00     0.016 C 
ATOM     11  C   UNL A   1      44.338  23.510  29.920  1.00  0.00     0.001 C 
BRANCH   7  12
ATOM     12  C   UNL A   1      45.577  25.803  26.352  1.00  0.00     0.141 A 
ATOM     13  C   UNL A   1      50.977  26.094  25.108  1.00  0.00     0.044 C 
ATOM     14  C   UNL A   1      49.534  26.108  25.493  1.00  0.00    -0.046 A 
ATOM     15  C   UNL A   1      49.207  25.493  26.776  1.00  0.00     0.022 A 
ATOM     16  C   UNL A   1      48.572  26.656  24.716  1.00  0.00     0.053 A 
ATOM     17  C   UNL A   1      47.925  25.425  27.156  1.00  0.00     0.095 A 
ATOM     18  C   UNL A   1      47.213  26.566  25.117  1.00  0.00     0.161 A 
ATOM     19  N   UNL A   1      46.943  25.896  26.295  1.00  0.00    -0.286 N 
ATOM     20  N   UNL A   1      46.087  27.002  24.597  1.00  0.00    -0.130 NA
ATOM     21  N   UNL A   1      45.058  26.526  25.377  1.00  0.00    -0.134 NA
ENDBRANCH   7  12
ENDBRANCH   4   6
ENDBRANCH   3   4
ENDBRANCH   2   3
ENDBRANCH   1   2
BRANCH   1  22
ATOM     22  O   UNL A   1      41.559  21.958  25.597  1.00  0.00    -0.458 OA
BRANCH  22  23
ATOM     23  C   UNL A   1      40.552  22.598  26.270  1.00  0.00     0.338 C 
ATOM     24  O   UNL A   1      39.501  22.143  26.631  1.00  0.00    -0.246 OA
BRANCH  23  25
ATOM     25  C   UNL A   1      41.243  23.817  26.797  1.00  0.00     0.060 A 
ATOM     26  C   UNL A   1      41.095  24.113  28.152  1.00  0.00     0.016 A 
ATOM     27  C   UNL A   1      41.536  24.829  25.881  1.00  0.00     0.016 A 
ATOM     28  C   UNL A   1      40.916  25.437  28.542  1.00  0.00     0.010 A 
ATOM     29  C   UNL A   1      41.351  26.153  26.282  1.00  0.00     0.010 A 
ATOM     30  C   UNL A   1      40.913  26.458  27.585  1.00  0.00    -0.014 A 
BRANCH  30  31
ATOM     31  C   UNL A   1      40.812  27.856  28.037  1.00  0.00     0.031 A 
ATOM     32  C   UNL A   1      41.999  28.598  27.581  1.00  0.00     0.074 A 
ATOM     33  C   UNL A   1      39.917  28.528  28.799  1.00  0.00     0.049 A 
ATOM     34  N   UNL A   1      43.147  28.557  28.168  1.00  0.00    -0.248 NA
ATOM     35  C   UNL A   1      42.006  29.207  26.248  1.00  0.00     0.031 C 
ATOM     36  C   UNL A   1      38.552  28.196  29.190  1.00  0.00     0.029 A 
ATOM     37  N   UNL A   1      40.097  29.758  29.389  1.00  0.00    -0.354 N 
ATOM     38  C   UNL A   1      43.976  29.330  27.386  1.00  0.00     0.074 A 
ATOM     39  C   UNL A   1      43.304  29.490  26.119  1.00  0.00     0.031 C 
ATOM     40  C   UNL A   1      37.963  29.272  29.780  1.00  0.00     0.029 A 
ATOM     41  C   UNL A   1      38.961  30.308  29.984  1.00  0.00     0.049 A 
ATOM     42  H   UNL A   1      40.968  30.218  29.392  1.00  0.00     0.167 HD
ATOM     43  C   UNL A   1      45.027  29.994  27.930  1.00  0.00     0.037 A 
ATOM     44  C   UNL A   1      38.878  31.502  30.637  1.00  0.00     0.037 A 
ATOM     45  C   UNL A   1      45.244  29.625  29.308  1.00  0.00     0.049 A 
ATOM     46  C   UNL A   1      40.240  31.809  31.134  1.00  0.00     0.074 A 
ATOM     47  C   UNL A   1      45.582  28.467  29.977  1.00  0.00     0.029 A 
ATOM     48  N   UNL A   1      44.698  30.465  30.248  1.00  0.00    -0.354 N 
ATOM     49  N   UNL A   1      40.848  31.147  32.077  1.00  0.00    -0.248 NA
ATOM     50  C   UNL A   1      41.089  32.670  30.328  1.00  0.00     0.031 C 
ATOM     51  C   UNL A   1      44.868  28.513  31.213  1.00  0.00     0.029 A 
ATOM     52  C   UNL A   1      44.157  29.714  31.261  1.00  0.00     0.049 A 
ATOM     53  H   UNL A   1      44.694  31.449  30.202  1.00  0.00     0.167 HD
ATOM     54  C   UNL A   1      42.181  31.155  31.705  1.00  0.00     0.074 A 
ATOM     55  C   UNL A   1      42.285  32.213  30.705  1.00  0.00     0.031 C 
ATOM     56  C   UNL A   1      43.006  30.122  32.042  1.00  0.00     0.037 A 
BRANCH  43  57
ATOM     57  C   UNL A   1      45.592  31.242  27.330  1.00  0.00     0.058 A 
ATOM     58  C   UNL A   1      46.954  31.296  26.995  1.00  0.00     0.135 A 
ATOM     59  C   UNL A   1      44.883  32.461  27.271  1.00  0.00     0.135 A 
ATOM     60  F   UNL A   1      47.720  30.196  27.073  1.00  0.00    -0.206 F 
ATOM     61  C   UNL A   1      47.572  32.487  26.622  1.00  0.00     0.059 A 
ATOM     62  C   UNL A   1      45.461  33.646  26.841  1.00  0.00     0.059 A 
ATOM     63  F   UNL A   1      43.623  32.570  27.714  1.00  0.00    -0.206 F 
ATOM     64  C   UNL A   1      46.813  33.654  26.542  1.00  0.00     0.060 A 
BRANCH  64  65
ATOM     65  S   UNL A   1      47.619  35.197  26.087  1.00  0.00     0.124 S 
ATOM     66  O   UNL A   1      46.473  36.069  25.856  1.00  0.00    -0.237 OA
ATOM     67  O   UNL A   1      48.411  35.483  27.279  1.00  0.00    -0.237 OA
ATOM     68  O   UNL A   1      48.391  34.837  24.901  1.00  0.00    -0.744 OA
ENDBRANCH  64  65
ENDBRANCH  43  57
BRANCH  44  69
ATOM     69  C   UNL A   1      37.821  32.558  30.652  1.00  0.00     0.058 A 
ATOM     70  C   UNL A   1      37.590  33.374  29.521  1.00  0.00     0.135 A 
ATOM     71  C   UNL A   1      36.793  32.537  31.609  1.00  0.00     0.135 A 
ATOM     72  F   UNL A   1      38.509  33.454  28.545  1.00  0.00    -0.206 F 
ATOM     73  C   UNL A   1      36.381  34.051  29.311  1.00  0.00     0.059 A 
ATOM     74  C   UNL A   1      35.578  33.209  31.423  1.00  0.00     0.059 A 
ATOM     75  F   UNL A   1      36.902  31.774  32.703  1.00  0.00    -0.206 F 
ATOM     76  C   UNL A   1      35.365  33.936  30.256  1.00  0.00     0.060 A 
BRANCH  76  77
ATOM     77  S   UNL A   1      33.734  34.637  29.888  1.00  0.00     0.124 S 
ATOM     78  O   UNL A   1      33.177  33.649  28.968  1.00  0.00    -0.237 OA
ATOM     79  O   UNL A   1      33.115  34.694  31.207  1.00  0.00    -0.237 OA
ATOM     80  O   UNL A   1      34.045  35.934  29.293  1.00  0.00    -0.744 OA
ENDBRANCH  76  77
ENDBRANCH  44  69
BRANCH  56  81
ATOM     81  C   UNL A   1      42.597  29.242  33.200  1.00  0.00     0.058 A 
ATOM     82  C   UNL A   1      41.678  28.179  33.139  1.00  0.00     0.135 A 
ATOM     83  C   UNL A   1      43.250  29.451  34.427  1.00  0.00     0.135 A 
ATOM     84  F   UNL A   1      41.075  27.848  31.987  1.00  0.00    -0.206 F 
ATOM     85  C   UNL A   1      41.393  27.390  34.259  1.00  0.00     0.059 A 
ATOM     86  C   UNL A   1      43.009  28.654  35.543  1.00  0.00     0.059 A 
ATOM     87  F   UNL A   1      44.170  30.423  34.542  1.00  0.00    -0.206 F 
ATOM     88  C   UNL A   1      42.068  27.633  35.456  1.00  0.00     0.060 A 
BRANCH  88  89
ATOM     89  S   UNL A   1      41.754  26.570  36.884  1.00  0.00     0.124 S 
ATOM     90  O   UNL A   1      42.956  26.762  37.687  1.00  0.00    -0.237 OA
ATOM     91  O   UNL A   1      40.525  27.137  37.434  1.00  0.00    -0.237 OA
ATOM     92  O   UNL A   1      41.606  25.240  36.296  1.00  0.00    -0.744 OA
ENDBRANCH  88  89
ENDBRANCH  56  81
ENDBRANCH  30  31
ENDBRANCH  23  25
ENDBRANCH  22  23
ENDBRANCH   1  22
TORSDOF 15
ENDMDL
