MODEL 1
REMARK VINA RESULT:      -8.6      0.000      0.000
REMARK SMILES C=CC[N@@H+](CC(=O)OCCOC(=O)c1ccc(-c2c3nc(c(-c4c(F)cc(S(=O)(=O)[O-])cc4F)c4ccc([nH]4)c(-c4c(F)cc(S(=O)(=O)[O-])cc4F)c4nc(c(-c5c(F)cc(S(=O)(=O)[O-])cc5F)c5ccc2[nH]5)C=C4)C=C3)cc1)C1CCCCC1
REMARK SMILES IDX 9 1 8 2 6 3 7 4 5 5 4 6 3 8 2 9 1 10 80 11 81 12 85 13 82 14
REMARK SMILES IDX 84 15 83 16 10 17 11 18 12 19 13 20 14 21 15 22 79 23 16 24
REMARK SMILES IDX 78 25 17 26 18 27 19 28 72 29 20 30 77 31 71 32 73 33 21 34
REMARK SMILES IDX 76 35 70 36 69 37 22 39 56 40 35 41 55 42 36 43 39 44 54 45
REMARK SMILES IDX 74 46 37 47 38 48 53 50 75 51 40 52 23 53 24 54 33 55 25 56
REMARK SMILES IDX 26 57 32 58 34 59 27 60 28 61 29 62 30 63 31 64 57 65 58 66
REMARK SMILES IDX 67 67 59 68 60 69 66 70 68 71 61 72 62 73 63 74 64 75 65 76
REMARK SMILES IDX 41 77 42 78 51 79 43 80 44 81 50 82 52 83 45 84 46 85 47 86
REMARK SMILES IDX 48 87 49 88
REMARK H PARENT 4 7 73 38 39 49
REMARK Flexibility Score: inf
ROOT
ATOM      1  C   UNL A   1      34.087  33.756  29.787  1.00  0.00     0.274 C 
ENDROOT
BRANCH   1   2
ATOM      2  O   UNL A   1      34.225  32.622  30.654  1.00  0.00    -0.458 OA
BRANCH   2   3
ATOM      3  C   UNL A   1      34.508  32.849  31.959  1.00  0.00     0.361 C 
ATOM      4  O   UNL A   1      33.794  33.491  32.721  1.00  0.00    -0.245 OA
BRANCH   3   5
ATOM      5  C   UNL A   1      35.804  32.157  32.398  1.00  0.00     0.387 C 
BRANCH   5   6
ATOM      6  N   UNL A   1      36.980  33.017  32.684  1.00  0.00    -0.320 N 
ATOM      7  H   UNL A   1      36.772  33.405  33.604  1.00  0.00     0.349 HD
BRANCH   6   8
ATOM      8  C   UNL A   1      37.066  34.144  31.752  1.00  0.00     0.291 C 
BRANCH   8   9
ATOM      9  C   UNL A   1      37.907  33.858  30.543  1.00  0.00     0.025 C 
ATOM     10  C   UNL A   1      38.862  34.683  30.092  1.00  0.00     0.010 C 
ENDBRANCH   8   9
ENDBRANCH   6   8
BRANCH   6  11
ATOM     11  C   UNL A   1      38.263  32.363  33.027  1.00  0.00     0.184 C 
ATOM     12  C   UNL A   1      38.973  33.018  34.233  1.00  0.00     0.065 C 
ATOM     13  C   UNL A   1      38.216  30.841  33.217  1.00  0.00     0.065 C 
ATOM     14  C   UNL A   1      40.355  32.407  34.487  1.00  0.00     0.006 C 
ATOM     15  C   UNL A   1      39.602  30.239  33.435  1.00  0.00     0.006 C 
ATOM     16  C   UNL A   1      40.306  30.887  34.619  1.00  0.00     0.000 C 
ENDBRANCH   6  11
ENDBRANCH   5   6
ENDBRANCH   3   5
ENDBRANCH   2   3
ENDBRANCH   1   2
BRANCH   1  17
ATOM     17  C   UNL A   1      34.014  33.237  28.343  1.00  0.00     0.275 C 
BRANCH  17  18
ATOM     18  O   UNL A   1      35.082  32.349  27.928  1.00  0.00    -0.458 OA
BRANCH  18  19
ATOM     19  C   UNL A   1      34.843  31.019  27.935  1.00  0.00     0.338 C 
ATOM     20  O   UNL A   1      33.765  30.466  27.849  1.00  0.00    -0.246 OA
BRANCH  19  21
ATOM     21  C   UNL A   1      36.091  30.286  28.231  1.00  0.00     0.060 A 
ATOM     22  C   UNL A   1      37.043  30.201  27.212  1.00  0.00     0.016 A 
ATOM     23  C   UNL A   1      36.370  29.769  29.498  1.00  0.00     0.016 A 
ATOM     24  C   UNL A   1      38.279  29.610  27.458  1.00  0.00     0.010 A 
ATOM     25  C   UNL A   1      37.647  29.256  29.768  1.00  0.00     0.010 A 
ATOM     26  C   UNL A   1      38.623  29.208  28.759  1.00  0.00    -0.014 A 
BRANCH  26  27
ATOM     27  C   UNL A   1      40.055  28.941  29.067  1.00  0.00     0.031 A 
ATOM     28  C   UNL A   1      40.930  29.956  29.741  1.00  0.00     0.074 A 
ATOM     29  C   UNL A   1      40.555  27.733  28.730  1.00  0.00     0.049 A 
ATOM     30  N   UNL A   1      42.197  29.869  30.053  1.00  0.00    -0.248 NA
ATOM     31  C   UNL A   1      40.305  31.232  30.116  1.00  0.00     0.031 C 
ATOM     32  C   UNL A   1      39.792  26.664  28.073  1.00  0.00     0.029 A 
ATOM     33  N   UNL A   1      41.801  27.185  28.901  1.00  0.00    -0.354 N 
ATOM     34  C   UNL A   1      42.532  31.078  30.650  1.00  0.00     0.074 A 
ATOM     35  C   UNL A   1      41.331  31.890  30.643  1.00  0.00     0.031 C 
ATOM     36  C   UNL A   1      40.570  25.580  27.941  1.00  0.00     0.029 A 
ATOM     37  C   UNL A   1      41.906  25.897  28.425  1.00  0.00     0.049 A 
ATOM     38  H   UNL A   1      42.548  27.666  29.323  1.00  0.00     0.167 HD
ATOM     39  C   UNL A   1      43.728  31.466  31.156  1.00  0.00     0.037 A 
ATOM     40  C   UNL A   1      42.964  25.067  28.357  1.00  0.00     0.037 A 
ATOM     41  C   UNL A   1      44.916  30.643  31.152  1.00  0.00     0.049 A 
ATOM     42  C   UNL A   1      44.287  25.542  28.883  1.00  0.00     0.074 A 
ATOM     43  C   UNL A   1      46.175  30.944  31.643  1.00  0.00     0.029 A 
ATOM     44  N   UNL A   1      44.994  29.358  30.627  1.00  0.00    -0.354 N 
ATOM     45  N   UNL A   1      44.583  26.691  29.443  1.00  0.00    -0.248 NA
ATOM     46  C   UNL A   1      45.418  24.616  28.764  1.00  0.00     0.031 C 
ATOM     47  C   UNL A   1      47.025  29.865  31.370  1.00  0.00     0.029 A 
ATOM     48  C   UNL A   1      46.283  28.865  30.762  1.00  0.00     0.049 A 
ATOM     49  H   UNL A   1      44.244  28.869  30.218  1.00  0.00     0.167 HD
ATOM     50  C   UNL A   1      45.933  26.620  29.760  1.00  0.00     0.074 A 
ATOM     51  C   UNL A   1      46.388  25.307  29.347  1.00  0.00     0.031 C 
ATOM     52  C   UNL A   1      46.724  27.557  30.340  1.00  0.00     0.037 A 
BRANCH  39  53
ATOM     53  C   UNL A   1      43.832  32.857  31.725  1.00  0.00     0.058 A 
ATOM     54  C   UNL A   1      43.732  33.106  33.104  1.00  0.00     0.135 A 
ATOM     55  C   UNL A   1      44.077  33.953  30.882  1.00  0.00     0.135 A 
ATOM     56  F   UNL A   1      43.487  32.099  33.957  1.00  0.00    -0.206 F 
ATOM     57  C   UNL A   1      43.846  34.394  33.621  1.00  0.00     0.059 A 
ATOM     58  C   UNL A   1      44.219  35.246  31.380  1.00  0.00     0.059 A 
ATOM     59  F   UNL A   1      44.183  33.775  29.556  1.00  0.00    -0.206 F 
ATOM     60  C   UNL A   1      44.086  35.459  32.751  1.00  0.00     0.060 A 
BRANCH  60  61
ATOM     61  S   UNL A   1      44.226  37.123  33.437  1.00  0.00     0.124 S 
ATOM     62  O   UNL A   1      45.354  36.966  34.351  1.00  0.00    -0.237 OA
ATOM     63  O   UNL A   1      44.483  37.931  32.250  1.00  0.00    -0.237 OA
ATOM     64  O   UNL A   1      42.931  37.341  34.073  1.00  0.00    -0.744 OA
ENDBRANCH  60  61
ENDBRANCH  39  53
BRANCH  40  65
ATOM     65  C   UNL A   1      42.812  23.722  27.740  1.00  0.00     0.058 A 
ATOM     66  C   UNL A   1      42.955  23.532  26.357  1.00  0.00     0.135 A 
ATOM     67  C   UNL A   1      42.546  22.591  28.529  1.00  0.00     0.135 A 
ATOM     68  F   UNL A   1      43.202  24.581  25.559  1.00  0.00    -0.206 F 
ATOM     69  C   UNL A   1      42.827  22.273  25.778  1.00  0.00     0.059 A 
ATOM     70  C   UNL A   1      42.445  21.318  27.978  1.00  0.00     0.059 A 
ATOM     71  F   UNL A   1      42.415  22.714  29.860  1.00  0.00    -0.206 F 
ATOM     72  C   UNL A   1      42.576  21.171  26.598  1.00  0.00     0.060 A 
BRANCH  72  73
ATOM     73  S   UNL A   1      42.461  19.534  25.845  1.00  0.00     0.124 S 
ATOM     74  O   UNL A   1      42.844  18.672  26.957  1.00  0.00    -0.237 OA
ATOM     75  O   UNL A   1      41.059  19.476  25.446  1.00  0.00    -0.237 OA
ATOM     76  O   UNL A   1      43.417  19.605  24.742  1.00  0.00    -0.744 OA
ENDBRANCH  72  73
ENDBRANCH  40  65
BRANCH  52  77
ATOM     77  C   UNL A   1      48.157  27.175  30.591  1.00  0.00     0.058 A 
ATOM     78  C   UNL A   1      48.559  26.552  31.783  1.00  0.00     0.135 A 
ATOM     79  C   UNL A   1      49.139  27.428  29.620  1.00  0.00     0.135 A 
ATOM     80  F   UNL A   1      47.661  26.296  32.749  1.00  0.00    -0.206 F 
ATOM     81  C   UNL A   1      49.890  26.227  32.020  1.00  0.00     0.059 A 
ATOM     82  C   UNL A   1      50.471  27.084  29.823  1.00  0.00     0.059 A 
ATOM     83  F   UNL A   1      48.807  28.013  28.459  1.00  0.00    -0.206 F 
ATOM     84  C   UNL A   1      50.840  26.501  31.034  1.00  0.00     0.060 A 
BRANCH  84  85
ATOM     85  S   UNL A   1      52.565  26.070  31.348  1.00  0.00     0.124 S 
ATOM     86  O   UNL A   1      52.434  24.731  31.913  1.00  0.00    -0.237 OA
ATOM     87  O   UNL A   1      53.153  26.139  30.014  1.00  0.00    -0.237 OA
ATOM     88  O   UNL A   1      53.010  27.103  32.276  1.00  0.00    -0.744 OA
ENDBRANCH  84  85
ENDBRANCH  52  77
ENDBRANCH  26  27
ENDBRANCH  19  21
ENDBRANCH  18  19
ENDBRANCH  17  18
ENDBRANCH   1  17
TORSDOF 18
ENDMDL
MODEL 2
REMARK VINA RESULT:      -8.5      3.679      5.499
REMARK SMILES C=CC[N@@H+](CC(=O)OCCOC(=O)c1ccc(-c2c3nc(c(-c4c(F)cc(S(=O)(=O)[O-])cc4F)c4ccc([nH]4)c(-c4c(F)cc(S(=O)(=O)[O-])cc4F)c4nc(c(-c5c(F)cc(S(=O)(=O)[O-])cc5F)c5ccc2[nH]5)C=C4)C=C3)cc1)C1CCCCC1
REMARK SMILES IDX 9 1 8 2 6 3 7 4 5 5 4 6 3 8 2 9 1 10 80 11 81 12 85 13 82 14
REMARK SMILES IDX 84 15 83 16 10 17 11 18 12 19 13 20 14 21 15 22 79 23 16 24
REMARK SMILES IDX 78 25 17 26 18 27 19 28 72 29 20 30 77 31 71 32 73 33 21 34
REMARK SMILES IDX 76 35 70 36 69 37 22 39 56 40 35 41 55 42 36 43 39 44 54 45
REMARK SMILES IDX 74 46 37 47 38 48 53 50 75 51 40 52 23 53 24 54 33 55 25 56
REMARK SMILES IDX 26 57 32 58 34 59 27 60 28 61 29 62 30 63 31 64 57 65 58 66
REMARK SMILES IDX 67 67 59 68 60 69 66 70 68 71 61 72 62 73 63 74 64 75 65 76
REMARK SMILES IDX 41 77 42 78 51 79 43 80 44 81 50 82 52 83 45 84 46 85 47 86
REMARK SMILES IDX 48 87 49 88
REMARK H PARENT 4 7 73 38 39 49
REMARK Flexibility Score: inf
ROOT
ATOM      1  C   UNL A   1      34.233  31.830  27.946  1.00  0.00     0.274 C 
ENDROOT
BRANCH   1   2
ATOM      2  O   UNL A   1      33.904  30.711  27.111  1.00  0.00    -0.458 OA
BRANCH   2   3
ATOM      3  C   UNL A   1      32.595  30.415  26.929  1.00  0.00     0.361 C 
ATOM      4  O   UNL A   1      31.750  31.217  26.548  1.00  0.00    -0.245 OA
BRANCH   3   5
ATOM      5  C   UNL A   1      32.294  28.936  27.198  1.00  0.00     0.387 C 
BRANCH   5   6
ATOM      6  N   UNL A   1      32.345  28.004  26.044  1.00  0.00    -0.320 N 
ATOM      7  H   UNL A   1      33.180  28.298  25.538  1.00  0.00     0.349 HD
BRANCH   6   8
ATOM      8  C   UNL A   1      31.207  28.195  25.141  1.00  0.00     0.291 C 
BRANCH   8   9
ATOM      9  C   UNL A   1      31.578  28.837  23.838  1.00  0.00     0.025 C 
ATOM     10  C   UNL A   1      32.836  28.928  23.387  1.00  0.00     0.010 C 
ENDBRANCH   8   9
ENDBRANCH   6   8
BRANCH   6  11
ATOM     11  C   UNL A   1      32.744  26.600  26.292  1.00  0.00     0.184 C 
ATOM     12  C   UNL A   1      31.556  25.614  26.239  1.00  0.00     0.065 C 
ATOM     13  C   UNL A   1      33.900  26.064  25.436  1.00  0.00     0.065 C 
ATOM     14  C   UNL A   1      31.973  24.191  26.625  1.00  0.00     0.006 C 
ATOM     15  C   UNL A   1      34.329  24.659  25.851  1.00  0.00     0.006 C 
ATOM     16  C   UNL A   1      33.158  23.688  25.807  1.00  0.00     0.000 C 
ENDBRANCH   6  11
ENDBRANCH   5   6
ENDBRANCH   3   5
ENDBRANCH   2   3
ENDBRANCH   1   2
BRANCH   1  17
ATOM     17  C   UNL A   1      35.475  31.454  28.767  1.00  0.00     0.275 C 
BRANCH  17  18
ATOM     18  O   UNL A   1      35.639  30.046  29.071  1.00  0.00    -0.458 OA
BRANCH  18  19
ATOM     19  C   UNL A   1      36.500  29.703  30.055  1.00  0.00     0.338 C 
ATOM     20  O   UNL A   1      36.237  29.500  31.223  1.00  0.00    -0.246 OA
BRANCH  19  21
ATOM     21  C   UNL A   1      37.887  29.760  29.550  1.00  0.00     0.060 A 
ATOM     22  C   UNL A   1      38.910  29.877  30.493  1.00  0.00     0.016 A 
ATOM     23  C   UNL A   1      38.193  29.613  28.195  1.00  0.00     0.016 A 
ATOM     24  C   UNL A   1      40.241  29.836  30.089  1.00  0.00     0.010 A 
ATOM     25  C   UNL A   1      39.533  29.482  27.801  1.00  0.00     0.010 A 
ATOM     26  C   UNL A   1      40.566  29.555  28.752  1.00  0.00    -0.014 A 
BRANCH  26  27
ATOM     27  C   UNL A   1      41.959  29.145  28.427  1.00  0.00     0.031 A 
ATOM     28  C   UNL A   1      43.102  30.117  28.446  1.00  0.00     0.074 A 
ATOM     29  C   UNL A   1      42.177  27.849  28.122  1.00  0.00     0.049 A 
ATOM     30  N   UNL A   1      44.363  29.905  28.165  1.00  0.00    -0.248 NA
ATOM     31  C   UNL A   1      42.795  31.502  28.828  1.00  0.00     0.031 C 
ATOM     32  C   UNL A   1      41.138  26.812  28.078  1.00  0.00     0.029 A 
ATOM     33  N   UNL A   1      43.327  27.170  27.809  1.00  0.00    -0.354 N 
ATOM     34  C   UNL A   1      45.003  31.128  28.325  1.00  0.00     0.074 A 
ATOM     35  C   UNL A   1      43.984  32.083  28.713  1.00  0.00     0.031 C 
ATOM     36  C   UNL A   1      41.703  25.628  27.805  1.00  0.00     0.029 A 
ATOM     37  C   UNL A   1      43.128  25.828  27.574  1.00  0.00     0.049 A 
ATOM     38  H   UNL A   1      44.211  27.600  27.759  1.00  0.00     0.167 HD
ATOM     39  C   UNL A   1      46.318  31.419  28.162  1.00  0.00     0.037 A 
ATOM     40  C   UNL A   1      43.984  24.864  27.186  1.00  0.00     0.037 A 
ATOM     41  C   UNL A   1      47.319  30.454  27.772  1.00  0.00     0.049 A 
ATOM     42  C   UNL A   1      45.425  25.227  26.970  1.00  0.00     0.074 A 
ATOM     43  C   UNL A   1      48.678  30.649  27.583  1.00  0.00     0.029 A 
ATOM     44  N   UNL A   1      47.073  29.113  27.504  1.00  0.00    -0.354 N 
ATOM     45  N   UNL A   1      46.011  26.390  27.123  1.00  0.00    -0.248 NA
ATOM     46  C   UNL A   1      46.318  24.153  26.522  1.00  0.00     0.031 C 
ATOM     47  C   UNL A   1      49.241  29.442  27.155  1.00  0.00     0.029 A 
ATOM     48  C   UNL A   1      48.248  28.477  27.131  1.00  0.00     0.049 A 
ATOM     49  H   UNL A   1      46.193  28.677  27.569  1.00  0.00     0.167 HD
ATOM     50  C   UNL A   1      47.348  26.185  26.809  1.00  0.00     0.074 A 
ATOM     51  C   UNL A   1      47.485  24.781  26.475  1.00  0.00     0.031 C 
ATOM     52  C   UNL A   1      48.368  27.078  26.796  1.00  0.00     0.037 A 
BRANCH  39  53
ATOM     53  C   UNL A   1      46.751  32.847  28.368  1.00  0.00     0.058 A 
ATOM     54  C   UNL A   1      47.224  33.310  29.607  1.00  0.00     0.135 A 
ATOM     55  C   UNL A   1      46.733  33.757  27.297  1.00  0.00     0.135 A 
ATOM     56  F   UNL A   1      47.253  32.490  30.669  1.00  0.00    -0.206 F 
ATOM     57  C   UNL A   1      47.638  34.628  29.782  1.00  0.00     0.059 A 
ATOM     58  C   UNL A   1      47.165  35.072  27.444  1.00  0.00     0.059 A 
ATOM     59  F   UNL A   1      46.292  33.369  26.090  1.00  0.00    -0.206 F 
ATOM     60  C   UNL A   1      47.602  35.503  28.695  1.00  0.00     0.060 A 
BRANCH  60  61
ATOM     61  S   UNL A   1      48.138  37.210  28.940  1.00  0.00     0.124 S 
ATOM     62  O   UNL A   1      49.557  37.030  29.230  1.00  0.00    -0.237 OA
ATOM     63  O   UNL A   1      47.828  37.824  27.653  1.00  0.00    -0.237 OA
ATOM     64  O   UNL A   1      47.323  37.666  30.062  1.00  0.00    -0.744 OA
ENDBRANCH  60  61
ENDBRANCH  39  53
BRANCH  40  65
ATOM     65  C   UNL A   1      43.489  23.481  26.952  1.00  0.00     0.058 A 
ATOM     66  C   UNL A   1      43.276  22.991  25.655  1.00  0.00     0.135 A 
ATOM     67  C   UNL A   1      43.242  22.610  28.026  1.00  0.00     0.135 A 
ATOM     68  F   UNL A   1      43.489  23.785  24.595  1.00  0.00    -0.206 F 
ATOM     69  C   UNL A   1      42.825  21.694  25.431  1.00  0.00     0.059 A 
ATOM     70  C   UNL A   1      42.823  21.299  27.827  1.00  0.00     0.059 A 
ATOM     71  F   UNL A   1      43.445  23.023  29.288  1.00  0.00    -0.206 F 
ATOM     72  C   UNL A   1      42.605  20.854  26.525  1.00  0.00     0.060 A 
BRANCH  72  73
ATOM     73  S   UNL A   1      42.069  19.156  26.224  1.00  0.00     0.124 S 
ATOM     74  O   UNL A   1      42.992  18.738  25.175  1.00  0.00    -0.237 OA
ATOM     75  O   UNL A   1      42.262  18.535  27.531  1.00  0.00    -0.237 OA
ATOM     76  O   UNL A   1      40.676  19.313  25.813  1.00  0.00    -0.744 OA
ENDBRANCH  72  73
ENDBRANCH  40  65
BRANCH  52  77
ATOM     77  C   UNL A   1      49.730  26.547  26.441  1.00  0.00     0.058 A 
ATOM     78  C   UNL A   1      50.223  26.595  25.128  1.00  0.00     0.135 A 
ATOM     79  C   UNL A   1      50.555  25.992  27.432  1.00  0.00     0.135 A 
ATOM     80  F   UNL A   1      49.471  27.107  24.140  1.00  0.00    -0.206 F 
ATOM     81  C   UNL A   1      51.472  26.076  24.802  1.00  0.00     0.059 A 
ATOM     82  C   UNL A   1      51.819  25.495  27.134  1.00  0.00     0.059 A 
ATOM     83  F   UNL A   1      50.135  25.931  28.705  1.00  0.00    -0.206 F 
ATOM     84  C   UNL A   1      52.262  25.525  25.813  1.00  0.00     0.060 A 
BRANCH  84  85
ATOM     85  S   UNL A   1      53.884  24.860  25.381  1.00  0.00     0.124 S 
ATOM     86  O   UNL A   1      54.639  25.111  26.604  1.00  0.00    -0.237 OA
ATOM     87  O   UNL A   1      53.583  23.459  25.100  1.00  0.00    -0.237 OA
ATOM     88  O   UNL A   1      54.279  25.654  24.223  1.00  0.00    -0.744 OA
ENDBRANCH  84  85
ENDBRANCH  52  77
ENDBRANCH  26  27
ENDBRANCH  19  21
ENDBRANCH  18  19
ENDBRANCH  17  18
ENDBRANCH   1  17
TORSDOF 18
ENDMDL
MODEL 3
REMARK VINA RESULT:      -8.3      2.958     10.018
REMARK SMILES C=CC[N@@H+](CC(=O)OCCOC(=O)c1ccc(-c2c3nc(c(-c4c(F)cc(S(=O)(=O)[O-])cc4F)c4ccc([nH]4)c(-c4c(F)cc(S(=O)(=O)[O-])cc4F)c4nc(c(-c5c(F)cc(S(=O)(=O)[O-])cc5F)c5ccc2[nH]5)C=C4)C=C3)cc1)C1CCCCC1
REMARK SMILES IDX 9 1 8 2 6 3 7 4 5 5 4 6 3 8 2 9 1 10 80 11 81 12 85 13 82 14
REMARK SMILES IDX 84 15 83 16 10 17 11 18 12 19 13 20 14 21 15 22 79 23 16 24
REMARK SMILES IDX 78 25 17 26 18 27 19 28 72 29 20 30 77 31 71 32 73 33 21 34
REMARK SMILES IDX 76 35 70 36 69 37 22 39 56 40 35 41 55 42 36 43 39 44 54 45
REMARK SMILES IDX 74 46 37 47 38 48 53 50 75 51 40 52 23 53 24 54 33 55 25 56
REMARK SMILES IDX 26 57 32 58 34 59 27 60 28 61 29 62 30 63 31 64 57 65 58 66
REMARK SMILES IDX 67 67 59 68 60 69 66 70 68 71 61 72 62 73 63 74 64 75 65 76
REMARK SMILES IDX 41 77 42 78 51 79 43 80 44 81 50 82 52 83 45 84 46 85 47 86
REMARK SMILES IDX 48 87 49 88
REMARK H PARENT 4 7 73 38 39 49
REMARK Flexibility Score: inf
ROOT
ATOM      1  C   UNL A   1      32.843  29.714  25.431  1.00  0.00     0.274 C 
ENDROOT
BRANCH   1   2
ATOM      2  O   UNL A   1      33.096  28.316  25.625  1.00  0.00    -0.458 OA
BRANCH   2   3
ATOM      3  C   UNL A   1      32.117  27.440  25.294  1.00  0.00     0.361 C 
ATOM      4  O   UNL A   1      31.138  27.720  24.612  1.00  0.00    -0.245 OA
BRANCH   3   5
ATOM      5  C   UNL A   1      32.401  26.029  25.824  1.00  0.00     0.387 C 
BRANCH   5   6
ATOM      6  N   UNL A   1      32.522  24.933  24.829  1.00  0.00    -0.320 N 
ATOM      7  H   UNL A   1      32.637  25.427  23.945  1.00  0.00     0.349 HD
BRANCH   6   8
ATOM      8  C   UNL A   1      31.286  24.153  24.729  1.00  0.00     0.291 C 
BRANCH   8   9
ATOM      9  C   UNL A   1      30.544  24.038  26.027  1.00  0.00     0.025 C 
ATOM     10  C   UNL A   1      30.480  22.909  26.747  1.00  0.00     0.010 C 
ENDBRANCH   8   9
ENDBRANCH   6   8
BRANCH   6  11
ATOM     11  C   UNL A   1      33.782  24.156  24.790  1.00  0.00     0.184 C 
ATOM     12  C   UNL A   1      34.222  23.790  23.354  1.00  0.00     0.065 C 
ATOM     13  C   UNL A   1      34.968  24.751  25.559  1.00  0.00     0.065 C 
ATOM     14  C   UNL A   1      35.454  22.878  23.347  1.00  0.00     0.006 C 
ATOM     15  C   UNL A   1      36.178  23.821  25.574  1.00  0.00     0.006 C 
ATOM     16  C   UNL A   1      36.609  23.453  24.161  1.00  0.00     0.000 C 
ENDBRANCH   6  11
ENDBRANCH   5   6
ENDBRANCH   3   5
ENDBRANCH   2   3
ENDBRANCH   1   2
BRANCH   1  17
ATOM     17  C   UNL A   1      32.495  30.321  26.799  1.00  0.00     0.275 C 
BRANCH  17  18
ATOM     18  O   UNL A   1      33.411  30.026  27.882  1.00  0.00    -0.458 OA
BRANCH  18  19
ATOM     19  C   UNL A   1      34.394  30.917  28.145  1.00  0.00     0.338 C 
ATOM     20  O   UNL A   1      34.321  32.128  28.088  1.00  0.00    -0.246 OA
BRANCH  19  21
ATOM     21  C   UNL A   1      35.669  30.206  28.367  1.00  0.00     0.060 A 
ATOM     22  C   UNL A   1      36.547  30.107  27.286  1.00  0.00     0.016 A 
ATOM     23  C   UNL A   1      36.043  29.722  29.623  1.00  0.00     0.016 A 
ATOM     24  C   UNL A   1      37.805  29.537  27.456  1.00  0.00     0.010 A 
ATOM     25  C   UNL A   1      37.343  29.231  29.813  1.00  0.00     0.010 A 
ATOM     26  C   UNL A   1      38.246  29.170  28.738  1.00  0.00    -0.014 A 
BRANCH  26  27
ATOM     27  C   UNL A   1      39.700  28.927  28.949  1.00  0.00     0.031 A 
ATOM     28  C   UNL A   1      40.351  27.624  28.591  1.00  0.00     0.074 A 
ATOM     29  C   UNL A   1      40.435  29.932  29.470  1.00  0.00     0.049 A 
ATOM     30  N   UNL A   1      41.601  27.265  28.738  1.00  0.00    -0.248 NA
ATOM     31  C   UNL A   1      39.495  26.592  27.989  1.00  0.00     0.031 C 
ATOM     32  C   UNL A   1      39.906  31.247  29.852  1.00  0.00     0.029 A 
ATOM     33  N   UNL A   1      41.774  30.025  29.754  1.00  0.00    -0.354 N 
ATOM     34  C   UNL A   1      41.686  25.963  28.259  1.00  0.00     0.074 A 
ATOM     35  C   UNL A   1      40.352  25.590  27.831  1.00  0.00     0.031 C 
ATOM     36  C   UNL A   1      40.912  32.025  30.274  1.00  0.00     0.029 A 
ATOM     37  C   UNL A   1      42.143  31.247  30.271  1.00  0.00     0.049 A 
ATOM     38  H   UNL A   1      42.410  29.290  29.602  1.00  0.00     0.167 HD
ATOM     39  C   UNL A   1      42.777  25.161  28.187  1.00  0.00     0.037 A 
ATOM     40  C   UNL A   1      43.332  31.689  30.722  1.00  0.00     0.037 A 
ATOM     41  C   UNL A   1      44.099  25.549  28.622  1.00  0.00     0.049 A 
ATOM     42  C   UNL A   1      44.511  30.763  30.671  1.00  0.00     0.074 A 
ATOM     43  C   UNL A   1      45.270  24.810  28.587  1.00  0.00     0.029 A 
ATOM     44  N   UNL A   1      44.427  26.780  29.176  1.00  0.00    -0.354 N 
ATOM     45  N   UNL A   1      44.571  29.533  30.217  1.00  0.00    -0.248 NA
ATOM     46  C   UNL A   1      45.781  31.277  31.197  1.00  0.00     0.031 C 
ATOM     47  C   UNL A   1      46.291  25.573  29.165  1.00  0.00     0.029 A 
ATOM     48  C   UNL A   1      45.773  26.812  29.507  1.00  0.00     0.049 A 
ATOM     49  H   UNL A   1      43.795  27.523  29.314  1.00  0.00     0.167 HD
ATOM     50  C   UNL A   1      45.889  29.131  30.387  1.00  0.00     0.074 A 
ATOM     51  C   UNL A   1      46.596  30.257  30.967  1.00  0.00     0.031 C 
ATOM     52  C   UNL A   1      46.462  27.938  30.090  1.00  0.00     0.037 A 
BRANCH  39  53
ATOM     53  C   UNL A   1      42.588  23.766  27.651  1.00  0.00     0.058 A 
ATOM     54  C   UNL A   1      42.551  23.496  26.273  1.00  0.00     0.135 A 
ATOM     55  C   UNL A   1      42.486  22.674  28.530  1.00  0.00     0.135 A 
ATOM     56  F   UNL A   1      42.632  24.500  25.386  1.00  0.00    -0.206 F 
ATOM     57  C   UNL A   1      42.392  22.200  25.788  1.00  0.00     0.059 A 
ATOM     58  C   UNL A   1      42.352  21.368  28.067  1.00  0.00     0.059 A 
ATOM     59  F   UNL A   1      42.517  22.872  29.858  1.00  0.00    -0.206 F 
ATOM     60  C   UNL A   1      42.290  21.142  26.693  1.00  0.00     0.060 A 
BRANCH  60  61
ATOM     61  S   UNL A   1      42.080  19.469  26.049  1.00  0.00     0.124 S 
ATOM     62  O   UNL A   1      40.649  19.446  25.762  1.00  0.00    -0.237 OA
ATOM     63  O   UNL A   1      42.958  19.469  24.883  1.00  0.00    -0.237 OA
ATOM     64  O   UNL A   1      42.510  18.620  27.155  1.00  0.00    -0.744 OA
ENDBRANCH  60  61
ENDBRANCH  39  53
BRANCH  40  65
ATOM     65  C   UNL A   1      43.447  33.062  31.285  1.00  0.00     0.058 A 
ATOM     66  C   UNL A   1      43.287  33.304  32.657  1.00  0.00     0.135 A 
ATOM     67  C   UNL A   1      43.746  34.159  30.460  1.00  0.00     0.135 A 
ATOM     68  F   UNL A   1      42.992  32.293  33.487  1.00  0.00    -0.206 F 
ATOM     69  C   UNL A   1      43.407  34.585  33.190  1.00  0.00     0.059 A 
ATOM     70  C   UNL A   1      43.903  35.442  30.972  1.00  0.00     0.059 A 
ATOM     71  F   UNL A   1      43.925  33.980  29.141  1.00  0.00    -0.206 F 
ATOM     72  C   UNL A   1      43.720  35.647  32.338  1.00  0.00     0.060 A 
BRANCH  72  73
ATOM     73  S   UNL A   1      43.923  37.297  33.044  1.00  0.00     0.124 S 
ATOM     74  O   UNL A   1      42.781  37.371  33.949  1.00  0.00    -0.237 OA
ATOM     75  O   UNL A   1      45.235  37.201  33.678  1.00  0.00    -0.237 OA
ATOM     76  O   UNL A   1      43.861  38.171  31.876  1.00  0.00    -0.744 OA
ENDBRANCH  72  73
ENDBRANCH  40  65
BRANCH  52  77
ATOM     77  C   UNL A   1      47.936  27.808  30.358  1.00  0.00     0.058 A 
ATOM     78  C   UNL A   1      48.897  28.132  29.388  1.00  0.00     0.135 A 
ATOM     79  C   UNL A   1      48.392  27.361  31.609  1.00  0.00     0.135 A 
ATOM     80  F   UNL A   1      48.514  28.556  28.172  1.00  0.00    -0.206 F 
ATOM     81  C   UNL A   1      50.257  27.983  29.634  1.00  0.00     0.059 A 
ATOM     82  C   UNL A   1      49.749  27.232  31.887  1.00  0.00     0.059 A 
ATOM     83  F   UNL A   1      47.516  27.046  32.576  1.00  0.00    -0.206 F 
ATOM     84  C   UNL A   1      50.674  27.528  30.886  1.00  0.00     0.060 A 
BRANCH  84  85
ATOM     85  S   UNL A   1      52.442  27.342  31.198  1.00  0.00     0.124 S 
ATOM     86  O   UNL A   1      53.006  28.326  30.280  1.00  0.00    -0.237 OA
ATOM     87  O   UNL A   1      52.546  27.668  32.618  1.00  0.00    -0.237 OA
ATOM     88  O   UNL A   1      52.702  25.947  30.861  1.00  0.00    -0.744 OA
ENDBRANCH  84  85
ENDBRANCH  52  77
ENDBRANCH  26  27
ENDBRANCH  19  21
ENDBRANCH  18  19
ENDBRANCH  17  18
ENDBRANCH   1  17
TORSDOF 18
ENDMDL
