MODEL 1
REMARK VINA RESULT:     -12.5      0.000      0.000
REMARK SMILES C[NH+]1CCC(C(=O)N2C[C@@H](C(=O)OCCOC(=O)c3ccc(-c4c5nc(c(-c6c(F)cc(S(=O)(=O)[O-])cc6F)c6ccc([nH]6)c(-c6c(F)cc(S(=O)(=O)[O-])cc6F)c6nc(c(-c7c(F)cc(S(=O)(=O)[O-])cc7F)c7ccc4[nH]7)C=C6)C=C5)cc3)[C@H](c3ccc4c(c3)OCO4)C2)CC1
REMARK SMILES IDX 15 1 14 2 13 3 11 4 12 5 10 6 8 7 9 8 95 9 85 10 6 11 7 12
REMARK SMILES IDX 5 13 1 14 2 15 3 16 97 17 4 19 96 20 86 21 87 22 91 23 88 24
REMARK SMILES IDX 90 25 89 26 92 27 94 28 93 29 16 30 17 31 18 32 19 33 20 34
REMARK SMILES IDX 84 35 21 36 83 37 22 38 23 39 24 40 77 41 25 42 82 43 76 44
REMARK SMILES IDX 78 45 26 46 81 47 75 48 74 49 27 51 61 52 40 53 60 54 41 55
REMARK SMILES IDX 44 56 59 57 79 58 42 59 43 60 58 62 80 63 45 64 28 65 29 66
REMARK SMILES IDX 38 67 30 68 31 69 37 70 39 71 32 72 33 73 34 74 35 75 36 76
REMARK SMILES IDX 62 77 63 78 72 79 64 80 65 81 71 82 73 83 66 84 67 85 68 86
REMARK SMILES IDX 69 87 70 88 46 89 47 90 56 91 48 92 49 93 55 94 57 95 50 96
REMARK SMILES IDX 51 97 52 98 53 99 54 100
REMARK H PARENT 2 18 78 50 44 61
REMARK Flexibility Score: inf
ROOT
ATOM      1  C   UNL A   1      33.150  30.726  26.724  1.00  0.00     0.275 C 
ENDROOT
BRANCH   1   2
ATOM      2  C   UNL A   1      31.892  29.965  26.315  1.00  0.00     0.274 C 
BRANCH   2   3
ATOM      3  O   UNL A   1      32.195  28.588  26.017  1.00  0.00    -0.462 OA
BRANCH   3   4
ATOM      4  C   UNL A   1      31.516  27.647  26.727  1.00  0.00     0.311 C 
ATOM      5  O   UNL A   1      31.085  27.797  27.862  1.00  0.00    -0.252 OA
BRANCH   4   6
ATOM      6  C   UNL A   1      31.425  26.356  25.953  1.00  0.00     0.128 C 
ATOM      7  N   UNL A   1      32.661  24.441  25.417  1.00  0.00    -0.341 N 
ATOM      8  C   UNL A   1      32.274  25.261  26.538  1.00  0.00     0.135 C 
ATOM      9  C   UNL A   1      32.672  25.227  24.188  1.00  0.00     0.128 C 
ATOM     10  C   UNL A   1      31.925  26.538  24.498  1.00  0.00     0.055 C 
BRANCH   7  11
ATOM     11  C   UNL A   1      33.262  23.201  25.472  1.00  0.00     0.226 C 
ATOM     12  O   UNL A   1      32.630  22.224  25.889  1.00  0.00    -0.275 OA
BRANCH  11  13
ATOM     13  C   UNL A   1      34.773  23.071  25.250  1.00  0.00     0.090 C 
ATOM     14  C   UNL A   1      38.871  22.003  25.995  1.00  0.00     0.332 C 
ATOM     15  N   UNL A   1      37.454  22.347  26.123  1.00  0.00    -0.337 N 
ATOM     16  C   UNL A   1      36.637  21.374  25.395  1.00  0.00     0.262 C 
ATOM     17  C   UNL A   1      37.201  23.710  25.624  1.00  0.00     0.262 C 
ATOM     18  H   UNL A   1      37.199  22.321  27.110  1.00  0.00     0.347 HD
ATOM     19  C   UNL A   1      35.166  21.646  25.659  1.00  0.00     0.075 C 
ATOM     20  C   UNL A   1      35.731  24.120  25.825  1.00  0.00     0.075 C 
ENDBRANCH  11  13
ENDBRANCH   7  11
BRANCH  10  21
ATOM     21  C   UNL A   1      30.689  26.941  23.702  1.00  0.00    -0.038 A 
ATOM     22  C   UNL A   1      29.381  26.569  24.082  1.00  0.00     0.008 A 
ATOM     23  C   UNL A   1      30.863  27.965  22.745  1.00  0.00     0.054 A 
ATOM     24  C   UNL A   1      28.269  27.269  23.599  1.00  0.00     0.051 A 
ATOM     25  C   UNL A   1      29.758  28.682  22.352  1.00  0.00     0.166 A 
ATOM     26  C   UNL A   1      28.496  28.353  22.779  1.00  0.00     0.165 A 
ATOM     27  O   UNL A   1      29.780  29.827  21.618  1.00  0.00    -0.454 OA
ATOM     28  O   UNL A   1      27.563  29.250  22.358  1.00  0.00    -0.454 OA
ATOM     29  C   UNL A   1      28.422  30.271  21.803  1.00  0.00     0.468 C 
ENDBRANCH  10  21
ENDBRANCH   4   6
ENDBRANCH   3   4
ENDBRANCH   2   3
ENDBRANCH   1   2
BRANCH   1  30
ATOM     30  O   UNL A   1      33.872  29.976  27.716  1.00  0.00    -0.458 OA
BRANCH  30  31
ATOM     31  C   UNL A   1      34.719  30.695  28.482  1.00  0.00     0.338 C 
ATOM     32  O   UNL A   1      34.458  31.673  29.166  1.00  0.00    -0.246 OA
BRANCH  31  33
ATOM     33  C   UNL A   1      36.044  30.064  28.477  1.00  0.00     0.060 A 
ATOM     34  C   UNL A   1      36.539  29.573  29.680  1.00  0.00     0.016 A 
ATOM     35  C   UNL A   1      36.858  30.101  27.350  1.00  0.00     0.016 A 
ATOM     36  C   UNL A   1      37.881  29.233  29.806  1.00  0.00     0.010 A 
ATOM     37  C   UNL A   1      38.179  29.648  27.448  1.00  0.00     0.010 A 
ATOM     38  C   UNL A   1      38.721  29.252  28.687  1.00  0.00    -0.014 A 
BRANCH  38  39
ATOM     39  C   UNL A   1      40.166  28.915  28.825  1.00  0.00     0.031 A 
ATOM     40  C   UNL A   1      41.132  29.954  29.335  1.00  0.00     0.074 A 
ATOM     41  C   UNL A   1      40.620  27.682  28.515  1.00  0.00     0.049 A 
ATOM     42  N   UNL A   1      42.440  29.941  29.327  1.00  0.00    -0.248 NA
ATOM     43  C   UNL A   1      40.552  31.179  29.911  1.00  0.00     0.031 C 
ATOM     44  C   UNL A   1      39.797  26.559  28.059  1.00  0.00     0.029 A 
ATOM     45  N   UNL A   1      41.892  27.163  28.543  1.00  0.00    -0.354 N 
ATOM     46  C   UNL A   1      42.837  31.182  29.814  1.00  0.00     0.074 A 
ATOM     47  C   UNL A   1      41.633  31.917  30.130  1.00  0.00     0.031 C 
ATOM     48  C   UNL A   1      40.575  25.479  27.889  1.00  0.00     0.029 A 
ATOM     49  C   UNL A   1      41.963  25.851  28.132  1.00  0.00     0.049 A 
ATOM     50  H   UNL A   1      42.679  27.682  28.829  1.00  0.00     0.167 HD
ATOM     51  C   UNL A   1      44.093  31.663  29.971  1.00  0.00     0.037 A 
ATOM     52  C   UNL A   1      43.026  25.051  27.926  1.00  0.00     0.037 A 
ATOM     53  C   UNL A   1      45.288  30.893  29.744  1.00  0.00     0.049 A 
ATOM     54  C   UNL A   1      44.411  25.601  28.132  1.00  0.00     0.074 A 
ATOM     55  C   UNL A   1      46.607  31.283  29.906  1.00  0.00     0.029 A 
ATOM     56  N   UNL A   1      45.311  29.568  29.335  1.00  0.00    -0.354 N 
ATOM     57  N   UNL A   1      44.769  26.801  28.524  1.00  0.00    -0.248 NA
ATOM     58  C   UNL A   1      45.534  24.700  27.842  1.00  0.00     0.031 C 
ATOM     59  C   UNL A   1      47.429  30.199  29.575  1.00  0.00     0.029 A 
ATOM     60  C   UNL A   1      46.620  29.127  29.237  1.00  0.00     0.049 A 
ATOM     61  H   UNL A   1      44.514  29.024  29.141  1.00  0.00     0.167 HD
ATOM     62  C   UNL A   1      46.158  26.793  28.539  1.00  0.00     0.074 A 
ATOM     63  C   UNL A   1      46.576  25.468  28.134  1.00  0.00     0.031 C 
ATOM     64  C   UNL A   1      47.013  27.798  28.851  1.00  0.00     0.037 A 
BRANCH  51  65
ATOM     65  C   UNL A   1      44.251  33.101  30.375  1.00  0.00     0.058 A 
ATOM     66  C   UNL A   1      44.275  34.143  29.437  1.00  0.00     0.135 A 
ATOM     67  C   UNL A   1      44.315  33.440  31.737  1.00  0.00     0.135 A 
ATOM     68  F   UNL A   1      44.238  33.871  28.124  1.00  0.00    -0.206 F 
ATOM     69  C   UNL A   1      44.368  35.473  29.835  1.00  0.00     0.059 A 
ATOM     70  C   UNL A   1      44.387  34.764  32.158  1.00  0.00     0.059 A 
ATOM     71  F   UNL A   1      44.300  32.479  32.674  1.00  0.00    -0.206 F 
ATOM     72  C   UNL A   1      44.422  35.775  31.198  1.00  0.00     0.060 A 
BRANCH  72  73
ATOM     73  S   UNL A   1      44.514  37.506  31.704  1.00  0.00     0.124 S 
ATOM     74  O   UNL A   1      43.980  38.181  30.525  1.00  0.00    -0.237 OA
ATOM     75  O   UNL A   1      43.662  37.533  32.889  1.00  0.00    -0.237 OA
ATOM     76  O   UNL A   1      45.936  37.712  31.954  1.00  0.00    -0.744 OA
ENDBRANCH  72  73
ENDBRANCH  51  65
BRANCH  52  77
ATOM     77  C   UNL A   1      42.833  23.656  27.446  1.00  0.00     0.058 A 
ATOM     78  C   UNL A   1      42.519  22.621  28.338  1.00  0.00     0.135 A 
ATOM     79  C   UNL A   1      42.970  23.330  26.088  1.00  0.00     0.135 A 
ATOM     80  F   UNL A   1      42.389  22.881  29.648  1.00  0.00    -0.206 F 
ATOM     81  C   UNL A   1      42.368  21.307  27.905  1.00  0.00     0.059 A 
ATOM     82  C   UNL A   1      42.797  22.030  25.627  1.00  0.00     0.059 A 
ATOM     83  F   UNL A   1      43.257  24.288  25.192  1.00  0.00    -0.206 F 
ATOM     84  C   UNL A   1      42.513  21.021  26.546  1.00  0.00     0.060 A 
BRANCH  84  85
ATOM     85  S   UNL A   1      42.287  19.322  25.977  1.00  0.00     0.124 S 
ATOM     86  O   UNL A   1      43.068  19.322  24.746  1.00  0.00    -0.237 OA
ATOM     87  O   UNL A   1      42.838  18.544  27.082  1.00  0.00    -0.237 OA
ATOM     88  O   UNL A   1      40.840  19.220  25.809  1.00  0.00    -0.744 OA
ENDBRANCH  84  85
ENDBRANCH  52  77
BRANCH  64  89
ATOM     89  C   UNL A   1      48.479  27.486  28.806  1.00  0.00     0.058 A 
ATOM     90  C   UNL A   1      49.243  27.718  27.651  1.00  0.00     0.135 A 
ATOM     91  C   UNL A   1      49.135  26.990  29.943  1.00  0.00     0.135 A 
ATOM     92  F   UNL A   1      48.658  28.185  26.538  1.00  0.00    -0.206 F 
ATOM     93  C   UNL A   1      50.606  27.447  27.620  1.00  0.00     0.059 A 
ATOM     94  C   UNL A   1      50.501  26.731  29.940  1.00  0.00     0.059 A 
ATOM     95  F   UNL A   1      48.448  26.762  31.073  1.00  0.00    -0.206 F 
ATOM     96  C   UNL A   1      51.226  26.951  28.768  1.00  0.00     0.060 A 
BRANCH  96  97
ATOM     97  S   UNL A   1      53.002  26.631  28.730  1.00  0.00     0.124 S 
ATOM     98  O   UNL A   1      53.230  26.083  30.063  1.00  0.00    -0.237 OA
ATOM     99  O   UNL A   1      53.130  25.685  27.626  1.00  0.00    -0.237 OA
ATOM    100  O   UNL A   1      53.578  27.950  28.485  1.00  0.00    -0.744 OA
ENDBRANCH  96  97
ENDBRANCH  64  89
ENDBRANCH  38  39
ENDBRANCH  31  33
ENDBRANCH  30  31
ENDBRANCH   1  30
TORSDOF 17
ENDMDL
MODEL 2
REMARK VINA RESULT:     -12.3      1.818      2.434
REMARK SMILES C[NH+]1CCC(C(=O)N2C[C@@H](C(=O)OCCOC(=O)c3ccc(-c4c5nc(c(-c6c(F)cc(S(=O)(=O)[O-])cc6F)c6ccc([nH]6)c(-c6c(F)cc(S(=O)(=O)[O-])cc6F)c6nc(c(-c7c(F)cc(S(=O)(=O)[O-])cc7F)c7ccc4[nH]7)C=C6)C=C5)cc3)[C@H](c3ccc4c(c3)OCO4)C2)CC1
REMARK SMILES IDX 15 1 14 2 13 3 11 4 12 5 10 6 8 7 9 8 95 9 85 10 6 11 7 12
REMARK SMILES IDX 5 13 1 14 2 15 3 16 97 17 4 19 96 20 86 21 87 22 91 23 88 24
REMARK SMILES IDX 90 25 89 26 92 27 94 28 93 29 16 30 17 31 18 32 19 33 20 34
REMARK SMILES IDX 84 35 21 36 83 37 22 38 23 39 24 40 77 41 25 42 82 43 76 44
REMARK SMILES IDX 78 45 26 46 81 47 75 48 74 49 27 51 61 52 40 53 60 54 41 55
REMARK SMILES IDX 44 56 59 57 79 58 42 59 43 60 58 62 80 63 45 64 28 65 29 66
REMARK SMILES IDX 38 67 30 68 31 69 37 70 39 71 32 72 33 73 34 74 35 75 36 76
REMARK SMILES IDX 62 77 63 78 72 79 64 80 65 81 71 82 73 83 66 84 67 85 68 86
REMARK SMILES IDX 69 87 70 88 46 89 47 90 56 91 48 92 49 93 55 94 57 95 50 96
REMARK SMILES IDX 51 97 52 98 53 99 54 100
REMARK H PARENT 2 18 78 50 44 61
REMARK Flexibility Score: inf
ROOT
ATOM      1  C   UNL A   1      34.544  29.689  26.992  1.00  0.00     0.275 C 
ENDROOT
BRANCH   1   2
ATOM      2  C   UNL A   1      33.152  29.114  27.236  1.00  0.00     0.274 C 
BRANCH   2   3
ATOM      3  O   UNL A   1      32.904  27.980  26.382  1.00  0.00    -0.462 OA
BRANCH   3   4
ATOM      4  C   UNL A   1      31.818  27.217  26.682  1.00  0.00     0.311 C 
ATOM      5  O   UNL A   1      31.033  27.437  27.594  1.00  0.00    -0.252 OA
BRANCH   4   6
ATOM      6  C   UNL A   1      31.747  26.011  25.779  1.00  0.00     0.128 C 
ATOM      7  N   UNL A   1      33.063  24.271  24.926  1.00  0.00    -0.341 N 
ATOM      8  C   UNL A   1      32.727  24.935  26.161  1.00  0.00     0.135 C 
ATOM      9  C   UNL A   1      32.897  25.179  23.796  1.00  0.00     0.128 C 
ATOM     10  C   UNL A   1      32.090  26.385  24.316  1.00  0.00     0.055 C 
BRANCH   7  11
ATOM     11  C   UNL A   1      33.755  23.087  24.789  1.00  0.00     0.226 C 
ATOM     12  O   UNL A   1      33.150  22.009  24.802  1.00  0.00    -0.275 OA
BRANCH  11  13
ATOM     13  C   UNL A   1      35.287  23.081  24.864  1.00  0.00     0.090 C 
ATOM     14  C   UNL A   1      39.249  21.993  26.132  1.00  0.00     0.332 C 
ATOM     15  N   UNL A   1      37.807  22.234  26.048  1.00  0.00    -0.337 N 
ATOM     16  C   UNL A   1      37.241  21.483  24.926  1.00  0.00     0.262 C 
ATOM     17  C   UNL A   1      37.527  23.673  25.901  1.00  0.00     0.262 C 
ATOM     18  H   UNL A   1      37.372  21.915  26.913  1.00  0.00     0.347 HD
ATOM     19  C   UNL A   1      35.727  21.615  24.938  1.00  0.00     0.075 C 
ATOM     20  C   UNL A   1      36.013  23.954  25.893  1.00  0.00     0.075 C 
ENDBRANCH  11  13
ENDBRANCH   7  11
BRANCH  10  21
ATOM     21  C   UNL A   1      30.757  26.763  23.682  1.00  0.00    -0.038 A 
ATOM     22  C   UNL A   1      29.515  26.332  24.198  1.00  0.00     0.008 A 
ATOM     23  C   UNL A   1      30.782  27.821  22.746  1.00  0.00     0.054 A 
ATOM     24  C   UNL A   1      28.331  27.004  23.871  1.00  0.00     0.051 A 
ATOM     25  C   UNL A   1      29.616  28.507  22.508  1.00  0.00     0.166 A 
ATOM     26  C   UNL A   1      28.424  28.119  23.067  1.00  0.00     0.165 A 
ATOM     27  O   UNL A   1      29.512  29.673  21.815  1.00  0.00    -0.454 OA
ATOM     28  O   UNL A   1      27.419  28.993  22.787  1.00  0.00    -0.454 OA
ATOM     29  C   UNL A   1      28.171  30.060  22.171  1.00  0.00     0.468 C 
ENDBRANCH  10  21
ENDBRANCH   4   6
ENDBRANCH   3   4
ENDBRANCH   2   3
ENDBRANCH   1   2
BRANCH   1  30
ATOM     30  O   UNL A   1      35.469  29.150  27.952  1.00  0.00    -0.458 OA
BRANCH  30  31
ATOM     31  C   UNL A   1      36.068  30.057  28.752  1.00  0.00     0.338 C 
ATOM     32  O   UNL A   1      35.533  30.836  29.527  1.00  0.00    -0.246 OA
BRANCH  31  33
ATOM     33  C   UNL A   1      37.526  29.918  28.650  1.00  0.00     0.060 A 
ATOM     34  C   UNL A   1      38.081  29.771  27.384  1.00  0.00     0.016 A 
ATOM     35  C   UNL A   1      38.318  29.769  29.783  1.00  0.00     0.016 A 
ATOM     36  C   UNL A   1      39.397  29.350  27.235  1.00  0.00     0.010 A 
ATOM     37  C   UNL A   1      39.675  29.459  29.629  1.00  0.00     0.010 A 
ATOM     38  C   UNL A   1      40.221  29.200  28.356  1.00  0.00    -0.014 A 
BRANCH  38  39
ATOM     39  C   UNL A   1      41.623  28.721  28.201  1.00  0.00     0.031 A 
ATOM     40  C   UNL A   1      42.767  29.693  28.348  1.00  0.00     0.074 A 
ATOM     41  C   UNL A   1      41.886  27.422  27.946  1.00  0.00     0.049 A 
ATOM     42  N   UNL A   1      44.029  29.535  28.043  1.00  0.00    -0.248 NA
ATOM     43  C   UNL A   1      42.446  31.024  28.890  1.00  0.00     0.031 C 
ATOM     44  C   UNL A   1      40.886  26.357  27.827  1.00  0.00     0.029 A 
ATOM     45  N   UNL A   1      43.079  26.772  27.744  1.00  0.00    -0.354 N 
ATOM     46  C   UNL A   1      44.634  30.766  28.274  1.00  0.00     0.074 A 
ATOM     47  C   UNL A   1      43.606  31.656  28.766  1.00  0.00     0.031 C 
ATOM     48  C   UNL A   1      41.508  25.186  27.615  1.00  0.00     0.029 A 
ATOM     49  C   UNL A   1      42.940  25.426  27.489  1.00  0.00     0.049 A 
ATOM     50  H   UNL A   1      43.952  27.226  27.780  1.00  0.00     0.167 HD
ATOM     51  C   UNL A   1      45.927  31.120  28.082  1.00  0.00     0.037 A 
ATOM     52  C   UNL A   1      43.853  24.498  27.144  1.00  0.00     0.037 A 
ATOM     53  C   UNL A   1      46.964  30.206  27.683  1.00  0.00     0.049 A 
ATOM     54  C   UNL A   1      45.287  24.911  26.961  1.00  0.00     0.074 A 
ATOM     55  C   UNL A   1      48.312  30.462  27.492  1.00  0.00     0.029 A 
ATOM     56  N   UNL A   1      46.777  28.853  27.442  1.00  0.00    -0.354 N 
ATOM     57  N   UNL A   1      45.828  26.096  27.114  1.00  0.00    -0.248 NA
ATOM     58  C   UNL A   1      46.229  23.868  26.533  1.00  0.00     0.031 C 
ATOM     59  C   UNL A   1      48.937  29.268  27.115  1.00  0.00     0.029 A 
ATOM     60  C   UNL A   1      47.983  28.263  27.101  1.00  0.00     0.049 A 
ATOM     61  H   UNL A   1      45.915  28.383  27.502  1.00  0.00     0.167 HD
ATOM     62  C   UNL A   1      47.175  25.937  26.813  1.00  0.00     0.074 A 
ATOM     63  C   UNL A   1      47.371  24.541  26.485  1.00  0.00     0.031 C 
ATOM     64  C   UNL A   1      48.160  26.868  26.798  1.00  0.00     0.037 A 
BRANCH  51  65
ATOM     65  C   UNL A   1      46.297  32.565  28.264  1.00  0.00     0.058 A 
ATOM     66  C   UNL A   1      46.705  33.083  29.502  1.00  0.00     0.135 A 
ATOM     67  C   UNL A   1      46.302  33.428  27.155  1.00  0.00     0.135 A 
ATOM     68  F   UNL A   1      46.698  32.305  30.595  1.00  0.00    -0.206 F 
ATOM     69  C   UNL A   1      47.095  34.411  29.637  1.00  0.00     0.059 A 
ATOM     70  C   UNL A   1      46.707  34.754  27.263  1.00  0.00     0.059 A 
ATOM     71  F   UNL A   1      45.915  32.982  25.950  1.00  0.00    -0.206 F 
ATOM     72  C   UNL A   1      47.094  35.240  28.512  1.00  0.00     0.060 A 
BRANCH  72  73
ATOM     73  S   UNL A   1      47.630  36.955  28.694  1.00  0.00     0.124 S 
ATOM     74  O   UNL A   1      48.881  36.791  29.429  1.00  0.00    -0.237 OA
ATOM     75  O   UNL A   1      47.764  37.391  27.307  1.00  0.00    -0.237 OA
ATOM     76  O   UNL A   1      46.540  37.574  29.440  1.00  0.00    -0.744 OA
ENDBRANCH  72  73
ENDBRANCH  51  65
BRANCH  52  77
ATOM     77  C   UNL A   1      43.434  23.093  26.891  1.00  0.00     0.058 A 
ATOM     78  C   UNL A   1      43.061  22.248  27.947  1.00  0.00     0.135 A 
ATOM     79  C   UNL A   1      43.411  22.564  25.591  1.00  0.00     0.135 A 
ATOM     80  F   UNL A   1      43.078  22.705  29.209  1.00  0.00    -0.206 F 
ATOM     81  C   UNL A   1      42.699  20.922  27.726  1.00  0.00     0.059 A 
ATOM     82  C   UNL A   1      43.027  21.252  25.342  1.00  0.00     0.059 A 
ATOM     83  F   UNL A   1      43.746  23.336  24.545  1.00  0.00    -0.206 F 
ATOM     84  C   UNL A   1      42.688  20.433  26.419  1.00  0.00     0.060 A 
BRANCH  84  85
ATOM     85  S   UNL A   1      42.190  18.722  26.126  1.00  0.00     0.124 S 
ATOM     86  O   UNL A   1      43.093  18.336  25.049  1.00  0.00    -0.237 OA
ATOM     87  O   UNL A   1      42.436  18.096  27.422  1.00  0.00    -0.237 OA
ATOM     88  O   UNL A   1      40.782  18.846  25.758  1.00  0.00    -0.744 OA
ENDBRANCH  84  85
ENDBRANCH  52  77
BRANCH  64  89
ATOM     89  C   UNL A   1      49.542  26.395  26.458  1.00  0.00     0.058 A 
ATOM     90  C   UNL A   1      50.005  26.377  25.133  1.00  0.00     0.135 A 
ATOM     91  C   UNL A   1      50.425  25.994  27.472  1.00  0.00     0.135 A 
ATOM     92  F   UNL A   1      49.194  26.745  24.130  1.00  0.00    -0.206 F 
ATOM     93  C   UNL A   1      51.294  25.957  24.824  1.00  0.00     0.059 A 
ATOM     94  C   UNL A   1      51.724  25.589  27.187  1.00  0.00     0.059 A 
ATOM     95  F   UNL A   1      50.030  26.003  28.754  1.00  0.00    -0.206 F 
ATOM     96  C   UNL A   1      52.146  25.562  25.857  1.00  0.00     0.060 A 
BRANCH  96  97
ATOM     97  S   UNL A   1      53.828  25.047  25.451  1.00  0.00     0.124 S 
ATOM     98  O   UNL A   1      53.619  23.663  25.040  1.00  0.00    -0.237 OA
ATOM     99  O   UNL A   1      54.195  25.976  24.387  1.00  0.00    -0.237 OA
ATOM    100  O   UNL A   1      54.549  25.228  26.708  1.00  0.00    -0.744 OA
ENDBRANCH  96  97
ENDBRANCH  64  89
ENDBRANCH  38  39
ENDBRANCH  31  33
ENDBRANCH  30  31
ENDBRANCH   1  30
TORSDOF 17
ENDMDL
MODEL 3
REMARK VINA RESULT:     -12.1      2.309      3.159
REMARK SMILES C[NH+]1CCC(C(=O)N2C[C@@H](C(=O)OCCOC(=O)c3ccc(-c4c5nc(c(-c6c(F)cc(S(=O)(=O)[O-])cc6F)c6ccc([nH]6)c(-c6c(F)cc(S(=O)(=O)[O-])cc6F)c6nc(c(-c7c(F)cc(S(=O)(=O)[O-])cc7F)c7ccc4[nH]7)C=C6)C=C5)cc3)[C@H](c3ccc4c(c3)OCO4)C2)CC1
REMARK SMILES IDX 15 1 14 2 13 3 11 4 12 5 10 6 8 7 9 8 95 9 85 10 6 11 7 12
REMARK SMILES IDX 5 13 1 14 2 15 3 16 97 17 4 19 96 20 86 21 87 22 91 23 88 24
REMARK SMILES IDX 90 25 89 26 92 27 94 28 93 29 16 30 17 31 18 32 19 33 20 34
REMARK SMILES IDX 84 35 21 36 83 37 22 38 23 39 24 40 77 41 25 42 82 43 76 44
REMARK SMILES IDX 78 45 26 46 81 47 75 48 74 49 27 51 61 52 40 53 60 54 41 55
REMARK SMILES IDX 44 56 59 57 79 58 42 59 43 60 58 62 80 63 45 64 28 65 29 66
REMARK SMILES IDX 38 67 30 68 31 69 37 70 39 71 32 72 33 73 34 74 35 75 36 76
REMARK SMILES IDX 62 77 63 78 72 79 64 80 65 81 71 82 73 83 66 84 67 85 68 86
REMARK SMILES IDX 69 87 70 88 46 89 47 90 56 91 48 92 49 93 55 94 57 95 50 96
REMARK SMILES IDX 51 97 52 98 53 99 54 100
REMARK H PARENT 2 18 78 50 44 61
REMARK Flexibility Score: inf
ROOT
ATOM      1  C   UNL A   1      34.373  30.964  27.670  1.00  0.00     0.275 C 
ENDROOT
BRANCH   1   2
ATOM      2  C   UNL A   1      33.237  30.067  27.188  1.00  0.00     0.274 C 
BRANCH   2   3
ATOM      3  O   UNL A   1      32.734  30.510  25.912  1.00  0.00    -0.462 OA
BRANCH   3   4
ATOM      4  C   UNL A   1      32.588  29.558  24.951  1.00  0.00     0.311 C 
ATOM      5  O   UNL A   1      33.325  29.415  23.985  1.00  0.00    -0.252 OA
BRANCH   4   6
ATOM      6  C   UNL A   1      31.347  28.738  25.195  1.00  0.00     0.128 C 
ATOM      7  N   UNL A   1      30.623  26.525  25.444  1.00  0.00    -0.341 N 
ATOM      8  C   UNL A   1      31.630  27.445  25.911  1.00  0.00     0.135 C 
ATOM      9  C   UNL A   1      30.164  26.900  24.112  1.00  0.00     0.128 C 
ATOM     10  C   UNL A   1      30.670  28.335  23.862  1.00  0.00     0.055 C 
BRANCH   7  11
ATOM     11  C   UNL A   1      30.337  25.282  25.970  1.00  0.00     0.226 C 
ATOM     12  O   UNL A   1      29.336  25.123  26.677  1.00  0.00    -0.275 OA
BRANCH  11  13
ATOM     13  C   UNL A   1      31.374  24.155  25.884  1.00  0.00     0.090 C 
ATOM     14  C   UNL A   1      32.986  20.201  25.380  1.00  0.00     0.332 C 
ATOM     15  N   UNL A   1      32.122  21.353  25.647  1.00  0.00    -0.337 N 
ATOM     16  C   UNL A   1      32.010  22.181  24.444  1.00  0.00     0.262 C 
ATOM     17  C   UNL A   1      32.643  22.146  26.774  1.00  0.00     0.262 C 
ATOM     18  H   UNL A   1      31.195  21.013  25.902  1.00  0.00     0.347 HD
ATOM     19  C   UNL A   1      30.994  23.285  24.681  1.00  0.00     0.075 C 
ATOM     20  C   UNL A   1      31.705  23.315  27.122  1.00  0.00     0.075 C 
ENDBRANCH  11  13
ENDBRANCH   7  11
BRANCH  10  21
ATOM     21  C   UNL A   1      29.695  29.464  23.555  1.00  0.00    -0.038 A 
ATOM     22  C   UNL A   1      29.707  30.695  24.249  1.00  0.00     0.008 A 
ATOM     23  C   UNL A   1      28.979  29.367  22.342  1.00  0.00     0.054 A 
ATOM     24  C   UNL A   1      29.109  31.834  23.698  1.00  0.00     0.051 A 
ATOM     25  C   UNL A   1      28.471  30.519  21.791  1.00  0.00     0.166 A 
ATOM     26  C   UNL A   1      28.546  31.724  22.444  1.00  0.00     0.165 A 
ATOM     27  O   UNL A   1      27.956  30.636  20.538  1.00  0.00    -0.454 OA
ATOM     28  O   UNL A   1      28.079  32.750  21.682  1.00  0.00    -0.454 OA
ATOM     29  C   UNL A   1      27.902  32.071  20.419  1.00  0.00     0.468 C 
ENDBRANCH  10  21
ENDBRANCH   4   6
ENDBRANCH   3   4
ENDBRANCH   2   3
ENDBRANCH   1   2
BRANCH   1  30
ATOM     30  O   UNL A   1      35.554  30.176  27.896  1.00  0.00    -0.458 OA
BRANCH  30  31
ATOM     31  C   UNL A   1      36.216  30.441  29.043  1.00  0.00     0.338 C 
ATOM     32  O   UNL A   1      35.737  30.694  30.138  1.00  0.00    -0.246 OA
BRANCH  31  33
ATOM     33  C   UNL A   1      37.658  30.277  28.829  1.00  0.00     0.060 A 
ATOM     34  C   UNL A   1      38.087  29.817  27.589  1.00  0.00     0.016 A 
ATOM     35  C   UNL A   1      38.564  30.412  29.877  1.00  0.00     0.016 A 
ATOM     36  C   UNL A   1      39.391  29.368  27.415  1.00  0.00     0.010 A 
ATOM     37  C   UNL A   1      39.905  30.070  29.666  1.00  0.00     0.010 A 
ATOM     38  C   UNL A   1      40.326  29.500  28.447  1.00  0.00    -0.014 A 
BRANCH  38  39
ATOM     39  C   UNL A   1      41.717  28.993  28.272  1.00  0.00     0.031 A 
ATOM     40  C   UNL A   1      42.881  29.945  28.389  1.00  0.00     0.074 A 
ATOM     41  C   UNL A   1      41.950  27.687  28.025  1.00  0.00     0.049 A 
ATOM     42  N   UNL A   1      44.134  29.761  28.064  1.00  0.00    -0.248 NA
ATOM     43  C   UNL A   1      42.594  31.287  28.924  1.00  0.00     0.031 C 
ATOM     44  C   UNL A   1      40.929  26.640  27.935  1.00  0.00     0.029 A 
ATOM     45  N   UNL A   1      43.127  27.013  27.810  1.00  0.00    -0.354 N 
ATOM     46  C   UNL A   1      44.765  30.982  28.272  1.00  0.00     0.074 A 
ATOM     47  C   UNL A   1      43.763  31.896  28.773  1.00  0.00     0.031 C 
ATOM     48  C   UNL A   1      41.525  25.456  27.724  1.00  0.00     0.029 A 
ATOM     49  C   UNL A   1      42.959  25.668  27.570  1.00  0.00     0.049 A 
ATOM     50  H   UNL A   1      44.009  27.451  27.825  1.00  0.00     0.167 HD
ATOM     51  C   UNL A   1      46.061  31.310  28.054  1.00  0.00     0.037 A 
ATOM     52  C   UNL A   1      43.848  24.719  27.218  1.00  0.00     0.037 A 
ATOM     53  C   UNL A   1      47.074  30.372  27.645  1.00  0.00     0.049 A 
ATOM     54  C   UNL A   1      45.286  25.103  27.006  1.00  0.00     0.074 A 
ATOM     55  C   UNL A   1      48.422  30.602  27.428  1.00  0.00     0.029 A 
ATOM     56  N   UNL A   1      46.858  29.021  27.421  1.00  0.00    -0.354 N 
ATOM     57  N   UNL A   1      45.851  26.279  27.138  1.00  0.00    -0.248 NA
ATOM     58  C   UNL A   1      46.201  24.038  26.572  1.00  0.00     0.031 C 
ATOM     59  C   UNL A   1      49.018  29.392  27.052  1.00  0.00     0.029 A 
ATOM     60  C   UNL A   1      48.046  28.406  27.065  1.00  0.00     0.049 A 
ATOM     61  H   UNL A   1      45.988  28.568  27.501  1.00  0.00     0.167 HD
ATOM     62  C   UNL A   1      47.189  26.092  26.814  1.00  0.00     0.074 A 
ATOM     63  C   UNL A   1      47.354  24.690  26.497  1.00  0.00     0.031 C 
ATOM     64  C   UNL A   1      48.192  27.004  26.773  1.00  0.00     0.037 A 
BRANCH  51  65
ATOM     65  C   UNL A   1      46.461  32.749  28.214  1.00  0.00     0.058 A 
ATOM     66  C   UNL A   1      47.010  33.244  29.406  1.00  0.00     0.135 A 
ATOM     67  C   UNL A   1      46.348  33.630  27.126  1.00  0.00     0.135 A 
ATOM     68  F   UNL A   1      47.120  32.449  30.481  1.00  0.00    -0.206 F 
ATOM     69  C   UNL A   1      47.424  34.568  29.516  1.00  0.00     0.059 A 
ATOM     70  C   UNL A   1      46.773  34.952  27.207  1.00  0.00     0.059 A 
ATOM     71  F   UNL A   1      45.824  33.206  25.965  1.00  0.00    -0.206 F 
ATOM     72  C   UNL A   1      47.304  35.415  28.411  1.00  0.00     0.060 A 
BRANCH  72  73
ATOM     73  S   UNL A   1      47.871  37.123  28.557  1.00  0.00     0.124 S 
ATOM     74  O   UNL A   1      48.283  37.172  29.957  1.00  0.00    -0.237 OA
ATOM     75  O   UNL A   1      48.950  37.181  27.576  1.00  0.00    -0.237 OA
ATOM     76  O   UNL A   1      46.683  37.904  28.226  1.00  0.00    -0.744 OA
ENDBRANCH  72  73
ENDBRANCH  51  65
BRANCH  52  77
ATOM     77  C   UNL A   1      43.398  23.320  26.987  1.00  0.00     0.058 A 
ATOM     78  C   UNL A   1      43.153  22.452  28.061  1.00  0.00     0.135 A 
ATOM     79  C   UNL A   1      43.218  22.820  25.688  1.00  0.00     0.135 A 
ATOM     80  F   UNL A   1      43.323  22.880  29.321  1.00  0.00    -0.206 F 
ATOM     81  C   UNL A   1      42.764  21.131  27.856  1.00  0.00     0.059 A 
ATOM     82  C   UNL A   1      42.804  21.513  25.458  1.00  0.00     0.059 A 
ATOM     83  F   UNL A   1      43.426  23.615  24.626  1.00  0.00    -0.206 F 
ATOM     84  C   UNL A   1      42.595  20.670  26.549  1.00  0.00     0.060 A 
BRANCH  84  85
ATOM     85  S   UNL A   1      42.061  18.966  26.281  1.00  0.00     0.124 S 
ATOM     86  O   UNL A   1      42.212  18.401  27.617  1.00  0.00    -0.237 OA
ATOM     87  O   UNL A   1      40.690  19.136  25.811  1.00  0.00    -0.237 OA
ATOM     88  O   UNL A   1      43.003  18.479  25.277  1.00  0.00    -0.744 OA
ENDBRANCH  84  85
ENDBRANCH  52  77
BRANCH  64  89
ATOM     89  C   UNL A   1      49.558  26.502  26.413  1.00  0.00     0.058 A 
ATOM     90  C   UNL A   1      50.058  26.610  25.106  1.00  0.00     0.135 A 
ATOM     91  C   UNL A   1      50.391  25.944  27.395  1.00  0.00     0.135 A 
ATOM     92  F   UNL A   1      49.295  27.130  24.132  1.00  0.00    -0.206 F 
ATOM     93  C   UNL A   1      51.334  26.162  24.781  1.00  0.00     0.059 A 
ATOM     94  C   UNL A   1      51.677  25.507  27.096  1.00  0.00     0.059 A 
ATOM     95  F   UNL A   1      49.959  25.829  28.660  1.00  0.00    -0.206 F 
ATOM     96  C   UNL A   1      52.135  25.610  25.781  1.00  0.00     0.060 A 
BRANCH  96  97
ATOM     97  S   UNL A   1      53.801  25.058  25.358  1.00  0.00     0.124 S 
ATOM     98  O   UNL A   1      53.616  23.613  25.263  1.00  0.00    -0.237 OA
ATOM     99  O   UNL A   1      54.053  25.749  24.098  1.00  0.00    -0.237 OA
ATOM    100  O   UNL A   1      54.605  25.515  26.488  1.00  0.00    -0.744 OA
ENDBRANCH  96  97
ENDBRANCH  64  89
ENDBRANCH  38  39
ENDBRANCH  31  33
ENDBRANCH  30  31
ENDBRANCH   1  30
TORSDOF 17
ENDMDL
