MODEL 1
REMARK VINA RESULT:     -11.6      0.000      0.000
REMARK SMILES C[C@]1(C(=O)N2CCC(CC(=O)OCCOC(=O)c3ccc(-c4c5nc(c(-c6c(F)cc(S(=O)(=O)[O-])cc6F)c6ccc([nH]6)c(-c6c(F)cc(S(=O)(=O)[O-])cc6F)c6nc(c(-c7c(F)cc(S(=O)(=O)[O-])cc7F)c7ccc4[nH]7)C=C6)C=C5)cc3)CC2)CCC[NH2+]C1
REMARK SMILES IDX 14 1 13 2 12 3 10 4 11 5 9 6 8 7 3 8 4 9 5 10 6 11 85 12
REMARK SMILES IDX 7 13 84 14 2 15 1 16 86 17 90 18 87 19 89 20 88 21 15 24
REMARK SMILES IDX 16 25 17 26 18 27 19 28 83 29 20 30 82 31 21 32 22 33 23 34
REMARK SMILES IDX 76 35 24 36 81 37 75 38 77 39 25 40 80 41 74 42 73 43 26 45
REMARK SMILES IDX 60 46 39 47 59 48 40 49 43 50 58 51 78 52 41 53 42 54 57 56
REMARK SMILES IDX 79 57 44 58 27 59 28 60 37 61 29 62 30 63 36 64 38 65 31 66
REMARK SMILES IDX 32 67 33 68 34 69 35 70 61 71 62 72 71 73 63 74 64 75 70 76
REMARK SMILES IDX 72 77 65 78 66 79 67 80 68 81 69 82 45 83 46 84 55 85 47 86
REMARK SMILES IDX 48 87 54 88 56 89 49 90 50 91 51 92 52 93 53 94
REMARK H PARENT 89 22 89 23 77 44 43 55
REMARK Flexibility Score: inf
ROOT
ATOM      1  C   UNL A   1      40.341  22.318  26.811  1.00  0.00     0.275 C 
ENDROOT
BRANCH   1   2
ATOM      2  C   UNL A   1      39.326  21.421  26.098  1.00  0.00     0.274 C 
BRANCH   2   3
ATOM      3  O   UNL A   1      38.424  22.182  25.271  1.00  0.00    -0.462 OA
BRANCH   3   4
ATOM      4  C   UNL A   1      37.370  21.512  24.739  1.00  0.00     0.306 C 
ATOM      5  O   UNL A   1      37.233  20.295  24.765  1.00  0.00    -0.252 OA
BRANCH   4   6
ATOM      6  C   UNL A   1      36.406  22.431  24.019  1.00  0.00     0.126 C 
BRANCH   6   7
ATOM      7  C   UNL A   1      35.083  22.763  24.738  1.00  0.00     0.003 C 
ATOM      8  C   UNL A   1      31.738  25.276  24.047  1.00  0.00     0.234 C 
ATOM      9  O   UNL A   1      30.546  24.961  24.135  1.00  0.00    -0.274 OA
ATOM     10  N   UNL A   1      32.720  24.403  24.461  1.00  0.00    -0.342 N 
ATOM     11  C   UNL A   1      32.560  22.976  24.251  1.00  0.00     0.120 C 
ATOM     12  C   UNL A   1      33.646  24.725  25.528  1.00  0.00     0.120 C 
ATOM     13  C   UNL A   1      33.902  22.396  23.803  1.00  0.00     0.026 C 
ATOM     14  C   UNL A   1      35.042  24.240  25.176  1.00  0.00     0.026 C 
BRANCH   8  15
ATOM     15  C   UNL A   1      32.149  26.571  23.283  1.00  0.00     0.095 C 
ATOM     16  C   UNL A   1      33.425  26.135  22.502  1.00  0.00     0.028 C 
ATOM     17  C   UNL A   1      31.078  26.961  22.245  1.00  0.00     0.028 C 
ATOM     18  C   UNL A   1      32.568  27.795  24.130  1.00  0.00     0.277 C 
ATOM     19  C   UNL A   1      29.977  27.837  22.833  1.00  0.00     0.063 C 
ATOM     20  N   UNL A   1      31.475  28.639  24.621  1.00  0.00    -0.345 N 
ATOM     21  C   UNL A   1      30.556  29.042  23.567  1.00  0.00     0.260 C 
ATOM     22  H   UNL A   1      30.954  28.119  25.326  1.00  0.00     0.346 HD
ATOM     23  H   UNL A   1      31.892  29.487  25.004  1.00  0.00     0.346 HD
ENDBRANCH   8  15
ENDBRANCH   6   7
ENDBRANCH   4   6
ENDBRANCH   3   4
ENDBRANCH   2   3
ENDBRANCH   1   2
BRANCH   1  24
ATOM     24  O   UNL A   1      39.983  23.707  26.703  1.00  0.00    -0.458 OA
BRANCH  24  25
ATOM     25  C   UNL A   1      41.025  24.571  26.722  1.00  0.00     0.338 C 
ATOM     26  O   UNL A   1      42.019  24.537  26.017  1.00  0.00    -0.246 OA
BRANCH  25  27
ATOM     27  C   UNL A   1      40.738  25.674  27.653  1.00  0.00     0.060 A 
ATOM     28  C   UNL A   1      41.640  26.743  27.711  1.00  0.00     0.016 A 
ATOM     29  C   UNL A   1      39.643  25.619  28.517  1.00  0.00     0.016 A 
ATOM     30  C   UNL A   1      41.462  27.754  28.651  1.00  0.00     0.010 A 
ATOM     31  C   UNL A   1      39.468  26.636  29.462  1.00  0.00     0.010 A 
ATOM     32  C   UNL A   1      40.388  27.695  29.547  1.00  0.00    -0.014 A 
BRANCH  32  33
ATOM     33  C   UNL A   1      40.289  28.696  30.635  1.00  0.00     0.031 A 
ATOM     34  C   UNL A   1      41.210  28.591  31.817  1.00  0.00     0.074 A 
ATOM     35  C   UNL A   1      39.401  29.703  30.550  1.00  0.00     0.049 A 
ATOM     36  N   UNL A   1      41.265  29.335  32.892  1.00  0.00    -0.248 NA
ATOM     37  C   UNL A   1      42.200  27.503  31.786  1.00  0.00     0.031 C 
ATOM     38  C   UNL A   1      38.480  29.926  29.435  1.00  0.00     0.029 A 
ATOM     39  N   UNL A   1      39.128  30.727  31.421  1.00  0.00    -0.354 N 
ATOM     40  C   UNL A   1      42.279  28.794  33.673  1.00  0.00     0.074 A 
ATOM     41  C   UNL A   1      42.804  27.652  32.956  1.00  0.00     0.031 C 
ATOM     42  C   UNL A   1      37.743  31.020  29.691  1.00  0.00     0.029 A 
ATOM     43  C   UNL A   1      38.119  31.556  30.997  1.00  0.00     0.049 A 
ATOM     44  H   UNL A   1      39.611  30.856  32.269  1.00  0.00     0.167 HD
ATOM     45  C   UNL A   1      42.733  29.215  34.878  1.00  0.00     0.037 A 
ATOM     46  C   UNL A   1      37.555  32.620  31.601  1.00  0.00     0.037 A 
ATOM     47  C   UNL A   1      42.218  30.361  35.580  1.00  0.00     0.049 A 
ATOM     48  C   UNL A   1      38.062  33.056  32.949  1.00  0.00     0.074 A 
ATOM     49  C   UNL A   1      42.615  30.874  36.803  1.00  0.00     0.029 A 
ATOM     50  N   UNL A   1      41.193  31.175  35.119  1.00  0.00    -0.354 N 
ATOM     51  N   UNL A   1      39.022  32.536  33.677  1.00  0.00    -0.248 NA
ATOM     52  C   UNL A   1      37.411  34.224  33.558  1.00  0.00     0.031 C 
ATOM     53  C   UNL A   1      41.813  31.984  37.094  1.00  0.00     0.029 A 
ATOM     54  C   UNL A   1      40.939  32.182  36.037  1.00  0.00     0.049 A 
ATOM     55  H   UNL A   1      40.717  31.055  34.267  1.00  0.00     0.167 HD
ATOM     56  C   UNL A   1      39.110  33.331  34.814  1.00  0.00     0.074 A 
ATOM     57  C   UNL A   1      38.108  34.368  34.677  1.00  0.00     0.031 C 
ATOM     58  C   UNL A   1      39.947  33.215  35.874  1.00  0.00     0.037 A 
BRANCH  45  59
ATOM     59  C   UNL A   1      43.823  28.410  35.523  1.00  0.00     0.058 A 
ATOM     60  C   UNL A   1      45.179  28.664  35.268  1.00  0.00     0.135 A 
ATOM     61  C   UNL A   1      43.506  27.375  36.418  1.00  0.00     0.135 A 
ATOM     62  F   UNL A   1      45.535  29.630  34.405  1.00  0.00    -0.206 F 
ATOM     63  C   UNL A   1      46.184  27.902  35.856  1.00  0.00     0.059 A 
ATOM     64  C   UNL A   1      44.494  26.614  37.034  1.00  0.00     0.059 A 
ATOM     65  F   UNL A   1      42.223  27.088  36.693  1.00  0.00    -0.206 F 
ATOM     66  C   UNL A   1      45.831  26.875  36.733  1.00  0.00     0.060 A 
BRANCH  66  67
ATOM     67  S   UNL A   1      47.140  25.884  37.484  1.00  0.00     0.124 S 
ATOM     68  O   UNL A   1      47.912  25.488  36.310  1.00  0.00    -0.237 OA
ATOM     69  O   UNL A   1      47.789  26.840  38.376  1.00  0.00    -0.237 OA
ATOM     70  O   UNL A   1      46.412  24.808  38.148  1.00  0.00    -0.744 OA
ENDBRANCH  66  67
ENDBRANCH  45  59
BRANCH  46  71
ATOM     71  C   UNL A   1      36.447  33.350  30.932  1.00  0.00     0.058 A 
ATOM     72  C   UNL A   1      35.133  33.266  31.415  1.00  0.00     0.135 A 
ATOM     73  C   UNL A   1      36.682  34.149  29.804  1.00  0.00     0.135 A 
ATOM     74  F   UNL A   1      34.860  32.506  32.487  1.00  0.00    -0.206 F 
ATOM     75  C   UNL A   1      34.086  33.942  30.797  1.00  0.00     0.059 A 
ATOM     76  C   UNL A   1      35.655  34.851  29.180  1.00  0.00     0.059 A 
ATOM     77  F   UNL A   1      37.924  34.269  29.311  1.00  0.00    -0.206 F 
ATOM     78  C   UNL A   1      34.358  34.732  29.678  1.00  0.00     0.060 A 
BRANCH  78  79
ATOM     79  S   UNL A   1      33.004  35.648  28.909  1.00  0.00     0.124 S 
ATOM     80  O   UNL A   1      33.728  36.671  28.165  1.00  0.00    -0.237 OA
ATOM     81  O   UNL A   1      32.350  34.619  28.106  1.00  0.00    -0.237 OA
ATOM     82  O   UNL A   1      32.231  36.124  30.052  1.00  0.00    -0.744 OA
ENDBRANCH  78  79
ENDBRANCH  46  71
BRANCH  58  83
ATOM     83  C   UNL A   1      39.847  34.261  36.948  1.00  0.00     0.058 A 
ATOM     84  C   UNL A   1      40.512  35.492  36.842  1.00  0.00     0.135 A 
ATOM     85  C   UNL A   1      39.042  34.041  38.076  1.00  0.00     0.135 A 
ATOM     86  F   UNL A   1      41.297  35.747  35.784  1.00  0.00    -0.206 F 
ATOM     87  C   UNL A   1      40.399  36.463  37.832  1.00  0.00     0.059 A 
ATOM     88  C   UNL A   1      38.900  35.006  39.068  1.00  0.00     0.059 A 
ATOM     89  F   UNL A   1      38.379  32.883  38.219  1.00  0.00    -0.206 F 
ATOM     90  C   UNL A   1      39.593  36.209  38.944  1.00  0.00     0.060 A 
BRANCH  90  91
ATOM     91  S   UNL A   1      39.431  37.484  40.212  1.00  0.00     0.124 S 
ATOM     92  O   UNL A   1      40.812  37.929  40.358  1.00  0.00    -0.237 OA
ATOM     93  O   UNL A   1      38.519  38.439  39.588  1.00  0.00    -0.237 OA
ATOM     94  O   UNL A   1      38.880  36.757  41.352  1.00  0.00    -0.744 OA
ENDBRANCH  90  91
ENDBRANCH  58  83
ENDBRANCH  32  33
ENDBRANCH  25  27
ENDBRANCH  24  25
ENDBRANCH   1  24
TORSDOF 16
ENDMDL
MODEL 2
REMARK VINA RESULT:     -11.5      6.648     12.363
REMARK SMILES C[C@]1(C(=O)N2CCC(CC(=O)OCCOC(=O)c3ccc(-c4c5nc(c(-c6c(F)cc(S(=O)(=O)[O-])cc6F)c6ccc([nH]6)c(-c6c(F)cc(S(=O)(=O)[O-])cc6F)c6nc(c(-c7c(F)cc(S(=O)(=O)[O-])cc7F)c7ccc4[nH]7)C=C6)C=C5)cc3)CC2)CCC[NH2+]C1
REMARK SMILES IDX 14 1 13 2 12 3 10 4 11 5 9 6 8 7 3 8 4 9 5 10 6 11 85 12
REMARK SMILES IDX 7 13 84 14 2 15 1 16 86 17 90 18 87 19 89 20 88 21 15 24
REMARK SMILES IDX 16 25 17 26 18 27 19 28 83 29 20 30 82 31 21 32 22 33 23 34
REMARK SMILES IDX 76 35 24 36 81 37 75 38 77 39 25 40 80 41 74 42 73 43 26 45
REMARK SMILES IDX 60 46 39 47 59 48 40 49 43 50 58 51 78 52 41 53 42 54 57 56
REMARK SMILES IDX 79 57 44 58 27 59 28 60 37 61 29 62 30 63 36 64 38 65 31 66
REMARK SMILES IDX 32 67 33 68 34 69 35 70 61 71 62 72 71 73 63 74 64 75 70 76
REMARK SMILES IDX 72 77 65 78 66 79 67 80 68 81 69 82 45 83 46 84 55 85 47 86
REMARK SMILES IDX 48 87 54 88 56 89 49 90 50 91 51 92 52 93 53 94
REMARK H PARENT 89 22 89 23 77 44 43 55
REMARK Flexibility Score: inf
ROOT
ATOM      1  C   UNL A   1      34.511  31.567  28.465  1.00  0.00     0.275 C 
ENDROOT
BRANCH   1   2
ATOM      2  C   UNL A   1      34.004  30.770  27.260  1.00  0.00     0.274 C 
BRANCH   2   3
ATOM      3  O   UNL A   1      33.297  29.580  27.661  1.00  0.00    -0.462 OA
BRANCH   3   4
ATOM      4  C   UNL A   1      32.272  29.180  26.867  1.00  0.00     0.306 C 
ATOM      5  O   UNL A   1      31.585  29.931  26.187  1.00  0.00    -0.252 OA
BRANCH   4   6
ATOM      6  C   UNL A   1      32.003  27.695  26.976  1.00  0.00     0.126 C 
BRANCH   6   7
ATOM      7  C   UNL A   1      32.294  26.835  25.729  1.00  0.00     0.003 C 
ATOM      8  C   UNL A   1      34.034  23.052  24.925  1.00  0.00     0.234 C 
ATOM      9  O   UNL A   1      33.574  22.166  24.196  1.00  0.00    -0.274 OA
ATOM     10  N   UNL A   1      33.445  24.296  24.964  1.00  0.00    -0.342 N 
ATOM     11  C   UNL A   1      32.001  24.421  24.873  1.00  0.00     0.120 C 
ATOM     12  C   UNL A   1      34.149  25.502  24.579  1.00  0.00     0.120 C 
ATOM     13  C   UNL A   1      31.541  25.487  25.866  1.00  0.00     0.026 C 
ATOM     14  C   UNL A   1      33.810  26.636  25.531  1.00  0.00     0.026 C 
BRANCH   8  15
ATOM     15  C   UNL A   1      35.154  22.712  25.953  1.00  0.00     0.095 C 
ATOM     16  C   UNL A   1      34.457  22.936  27.328  1.00  0.00     0.028 C 
ATOM     17  C   UNL A   1      35.547  21.223  25.868  1.00  0.00     0.028 C 
ATOM     18  C   UNL A   1      36.410  23.614  25.964  1.00  0.00     0.277 C 
ATOM     19  C   UNL A   1      36.630  20.958  24.827  1.00  0.00     0.063 C 
ATOM     20  N   UNL A   1      37.448  23.280  24.984  1.00  0.00    -0.345 N 
ATOM     21  C   UNL A   1      37.831  21.876  25.025  1.00  0.00     0.260 C 
ATOM     22  H   UNL A   1      37.096  23.494  24.051  1.00  0.00     0.346 HD
ATOM     23  H   UNL A   1      38.275  23.829  25.215  1.00  0.00     0.346 HD
ENDBRANCH   8  15
ENDBRANCH   6   7
ENDBRANCH   4   6
ENDBRANCH   3   4
ENDBRANCH   2   3
ENDBRANCH   1   2
BRANCH   1  24
ATOM     24  O   UNL A   1      35.948  31.570  28.528  1.00  0.00    -0.458 OA
BRANCH  24  25
ATOM     25  C   UNL A   1      36.474  31.010  29.642  1.00  0.00     0.338 C 
ATOM     26  O   UNL A   1      35.966  30.959  30.748  1.00  0.00    -0.246 OA
BRANCH  25  27
ATOM     27  C   UNL A   1      37.737  30.331  29.307  1.00  0.00     0.060 A 
ATOM     28  C   UNL A   1      38.691  30.170  30.317  1.00  0.00     0.016 A 
ATOM     29  C   UNL A   1      38.013  29.933  27.998  1.00  0.00     0.016 A 
ATOM     30  C   UNL A   1      39.938  29.629  30.020  1.00  0.00     0.010 A 
ATOM     31  C   UNL A   1      39.268  29.390  27.700  1.00  0.00     0.010 A 
ATOM     32  C   UNL A   1      40.242  29.257  28.704  1.00  0.00    -0.014 A 
BRANCH  32  33
ATOM     33  C   UNL A   1      41.617  28.818  28.370  1.00  0.00     0.031 A 
ATOM     34  C   UNL A   1      42.732  29.825  28.372  1.00  0.00     0.074 A 
ATOM     35  C   UNL A   1      41.867  27.526  28.092  1.00  0.00     0.049 A 
ATOM     36  N   UNL A   1      43.995  29.663  28.073  1.00  0.00    -0.248 NA
ATOM     37  C   UNL A   1      42.377  31.199  28.764  1.00  0.00     0.031 C 
ATOM     38  C   UNL A   1      40.872  26.454  28.092  1.00  0.00     0.029 A 
ATOM     39  N   UNL A   1      43.039  26.897  27.755  1.00  0.00    -0.354 N 
ATOM     40  C   UNL A   1      44.581  30.914  28.219  1.00  0.00     0.074 A 
ATOM     41  C   UNL A   1      43.534  31.829  28.621  1.00  0.00     0.031 C 
ATOM     42  C   UNL A   1      41.476  25.297  27.771  1.00  0.00     0.029 A 
ATOM     43  C   UNL A   1      42.892  25.553  27.513  1.00  0.00     0.049 A 
ATOM     44  H   UNL A   1      43.903  27.364  27.692  1.00  0.00     0.167 HD
ATOM     45  C   UNL A   1      45.876  31.266  28.037  1.00  0.00     0.037 A 
ATOM     46  C   UNL A   1      43.795  24.636  27.117  1.00  0.00     0.037 A 
ATOM     47  C   UNL A   1      46.917  30.350  27.652  1.00  0.00     0.049 A 
ATOM     48  C   UNL A   1      45.225  25.056  26.901  1.00  0.00     0.074 A 
ATOM     49  C   UNL A   1      48.262  30.607  27.450  1.00  0.00     0.029 A 
ATOM     50  N   UNL A   1      46.729  28.996  27.414  1.00  0.00    -0.354 N 
ATOM     51  N   UNL A   1      45.766  26.243  27.044  1.00  0.00    -0.248 NA
ATOM     52  C   UNL A   1      46.167  24.012  26.473  1.00  0.00     0.031 C 
ATOM     53  C   UNL A   1      48.883  29.414  27.063  1.00  0.00     0.029 A 
ATOM     54  C   UNL A   1      47.931  28.406  27.059  1.00  0.00     0.049 A 
ATOM     55  H   UNL A   1      45.869  28.524  27.487  1.00  0.00     0.167 HD
ATOM     56  C   UNL A   1      47.115  26.082  26.752  1.00  0.00     0.074 A 
ATOM     57  C   UNL A   1      47.309  24.683  26.427  1.00  0.00     0.031 C 
ATOM     58  C   UNL A   1      48.106  27.008  26.755  1.00  0.00     0.037 A 
BRANCH  45  59
ATOM     59  C   UNL A   1      46.229  32.714  28.225  1.00  0.00     0.058 A 
ATOM     60  C   UNL A   1      46.675  33.211  29.459  1.00  0.00     0.135 A 
ATOM     61  C   UNL A   1      46.130  33.613  27.151  1.00  0.00     0.135 A 
ATOM     62  F   UNL A   1      46.768  32.396  30.522  1.00  0.00    -0.206 F 
ATOM     63  C   UNL A   1      46.983  34.557  29.631  1.00  0.00     0.059 A 
ATOM     64  C   UNL A   1      46.454  34.959  27.294  1.00  0.00     0.059 A 
ATOM     65  F   UNL A   1      45.705  33.189  25.950  1.00  0.00    -0.206 F 
ATOM     66  C   UNL A   1      46.863  35.424  28.544  1.00  0.00     0.060 A 
BRANCH  66  67
ATOM     67  S   UNL A   1      47.256  37.171  28.777  1.00  0.00     0.124 S 
ATOM     68  O   UNL A   1      48.529  37.089  29.486  1.00  0.00    -0.237 OA
ATOM     69  O   UNL A   1      47.326  37.667  27.406  1.00  0.00    -0.237 OA
ATOM     70  O   UNL A   1      46.132  37.669  29.562  1.00  0.00    -0.744 OA
ENDBRANCH  66  67
ENDBRANCH  45  59
BRANCH  46  71
ATOM     71  C   UNL A   1      43.376  23.227  26.903  1.00  0.00     0.058 A 
ATOM     72  C   UNL A   1      43.246  22.702  25.609  1.00  0.00     0.135 A 
ATOM     73  C   UNL A   1      43.105  22.378  27.986  1.00  0.00     0.135 A 
ATOM     74  F   UNL A   1      43.486  23.480  24.543  1.00  0.00    -0.206 F 
ATOM     75  C   UNL A   1      42.850  21.386  25.394  1.00  0.00     0.059 A 
ATOM     76  C   UNL A   1      42.728  21.052  27.797  1.00  0.00     0.059 A 
ATOM     77  F   UNL A   1      43.225  22.832  29.243  1.00  0.00    -0.206 F 
ATOM     78  C   UNL A   1      42.593  20.568  26.496  1.00  0.00     0.060 A 
BRANCH  78  79
ATOM     79  S   UNL A   1      42.130  18.845  26.214  1.00  0.00     0.124 S 
ATOM     80  O   UNL A   1      42.335  18.266  27.536  1.00  0.00    -0.237 OA
ATOM     81  O   UNL A   1      40.741  18.965  25.778  1.00  0.00    -0.237 OA
ATOM     82  O   UNL A   1      43.066  18.413  25.181  1.00  0.00    -0.744 OA
ENDBRANCH  78  79
ENDBRANCH  46  71
BRANCH  58  83
ATOM     83  C   UNL A   1      49.496  26.531  26.443  1.00  0.00     0.058 A 
ATOM     84  C   UNL A   1      50.006  26.552  25.136  1.00  0.00     0.135 A 
ATOM     85  C   UNL A   1      50.339  26.086  27.472  1.00  0.00     0.135 A 
ATOM     86  F   UNL A   1      49.236  26.965  24.116  1.00  0.00    -0.206 F 
ATOM     87  C   UNL A   1      51.301  26.125  24.858  1.00  0.00     0.059 A 
ATOM     88  C   UNL A   1      51.643  25.674  27.219  1.00  0.00     0.059 A 
ATOM     89  F   UNL A   1      49.900  26.056  28.741  1.00  0.00    -0.206 F 
ATOM     90  C   UNL A   1      52.111  25.685  25.906  1.00  0.00     0.060 A 
BRANCH  90  91
ATOM     91  S   UNL A   1      53.799  25.156  25.541  1.00  0.00     0.124 S 
ATOM     92  O   UNL A   1      53.627  23.717  25.381  1.00  0.00    -0.237 OA
ATOM     93  O   UNL A   1      54.106  25.898  24.320  1.00  0.00    -0.237 OA
ATOM     94  O   UNL A   1      54.546  25.574  26.723  1.00  0.00    -0.744 OA
ENDBRANCH  90  91
ENDBRANCH  58  83
ENDBRANCH  32  33
ENDBRANCH  25  27
ENDBRANCH  24  25
ENDBRANCH   1  24
TORSDOF 16
ENDMDL
MODEL 3
REMARK VINA RESULT:     -11.5      0.685      1.820
REMARK SMILES C[C@]1(C(=O)N2CCC(CC(=O)OCCOC(=O)c3ccc(-c4c5nc(c(-c6c(F)cc(S(=O)(=O)[O-])cc6F)c6ccc([nH]6)c(-c6c(F)cc(S(=O)(=O)[O-])cc6F)c6nc(c(-c7c(F)cc(S(=O)(=O)[O-])cc7F)c7ccc4[nH]7)C=C6)C=C5)cc3)CC2)CCC[NH2+]C1
REMARK SMILES IDX 14 1 13 2 12 3 10 4 11 5 9 6 8 7 3 8 4 9 5 10 6 11 85 12
REMARK SMILES IDX 7 13 84 14 2 15 1 16 86 17 90 18 87 19 89 20 88 21 15 24
REMARK SMILES IDX 16 25 17 26 18 27 19 28 83 29 20 30 82 31 21 32 22 33 23 34
REMARK SMILES IDX 76 35 24 36 81 37 75 38 77 39 25 40 80 41 74 42 73 43 26 45
REMARK SMILES IDX 60 46 39 47 59 48 40 49 43 50 58 51 78 52 41 53 42 54 57 56
REMARK SMILES IDX 79 57 44 58 27 59 28 60 37 61 29 62 30 63 36 64 38 65 31 66
REMARK SMILES IDX 32 67 33 68 34 69 35 70 61 71 62 72 71 73 63 74 64 75 70 76
REMARK SMILES IDX 72 77 65 78 66 79 67 80 68 81 69 82 45 83 46 84 55 85 47 86
REMARK SMILES IDX 48 87 54 88 56 89 49 90 50 91 51 92 52 93 53 94
REMARK H PARENT 89 22 89 23 77 44 43 55
REMARK Flexibility Score: inf
ROOT
ATOM      1  C   UNL A   1      40.535  22.789  26.761  1.00  0.00     0.275 C 
ENDROOT
BRANCH   1   2
ATOM      2  C   UNL A   1      39.700  21.630  26.210  1.00  0.00     0.274 C 
BRANCH   2   3
ATOM      3  O   UNL A   1      38.379  22.055  25.824  1.00  0.00    -0.462 OA
BRANCH   3   4
ATOM      4  C   UNL A   1      37.665  21.203  25.047  1.00  0.00     0.306 C 
ATOM      5  O   UNL A   1      37.958  20.031  24.848  1.00  0.00    -0.252 OA
BRANCH   4   6
ATOM      6  C   UNL A   1      36.496  21.883  24.366  1.00  0.00     0.126 C 
BRANCH   6   7
ATOM      7  C   UNL A   1      35.198  22.036  25.185  1.00  0.00     0.003 C 
ATOM      8  C   UNL A   1      31.918  24.720  25.302  1.00  0.00     0.234 C 
ATOM      9  O   UNL A   1      30.719  24.422  25.333  1.00  0.00    -0.274 OA
ATOM     10  N   UNL A   1      32.881  23.745  25.434  1.00  0.00    -0.342 N 
ATOM     11  C   UNL A   1      32.674  22.434  24.844  1.00  0.00     0.120 C 
ATOM     12  C   UNL A   1      33.837  23.738  26.522  1.00  0.00     0.120 C 
ATOM     13  C   UNL A   1      33.989  21.969  24.218  1.00  0.00     0.026 C 
ATOM     14  C   UNL A   1      35.211  23.336  26.013  1.00  0.00     0.026 C 
BRANCH   8  15
ATOM     15  C   UNL A   1      32.353  26.165  24.913  1.00  0.00     0.095 C 
ATOM     16  C   UNL A   1      32.509  26.875  26.290  1.00  0.00     0.028 C 
ATOM     17  C   UNL A   1      33.736  26.160  24.231  1.00  0.00     0.028 C 
ATOM     18  C   UNL A   1      31.345  27.021  24.109  1.00  0.00     0.277 C 
ATOM     19  C   UNL A   1      33.651  25.940  22.724  1.00  0.00     0.063 C 
ATOM     20  N   UNL A   1      31.346  26.815  22.658  1.00  0.00    -0.345 N 
ATOM     21  C   UNL A   1      32.676  26.915  22.073  1.00  0.00     0.260 C 
ATOM     22  H   UNL A   1      30.972  25.887  22.460  1.00  0.00     0.346 HD
ATOM     23  H   UNL A   1      30.774  27.551  22.244  1.00  0.00     0.346 HD
ENDBRANCH   8  15
ENDBRANCH   6   7
ENDBRANCH   4   6
ENDBRANCH   3   4
ENDBRANCH   2   3
ENDBRANCH   1   2
BRANCH   1  24
ATOM     24  O   UNL A   1      39.856  24.047  26.607  1.00  0.00    -0.458 OA
BRANCH  24  25
ATOM     25  C   UNL A   1      40.662  25.109  26.373  1.00  0.00     0.338 C 
ATOM     26  O   UNL A   1      41.200  25.403  25.320  1.00  0.00    -0.246 OA
BRANCH  25  27
ATOM     27  C   UNL A   1      40.710  25.968  27.567  1.00  0.00     0.060 A 
ATOM     28  C   UNL A   1      39.667  25.874  28.494  1.00  0.00     0.016 A 
ATOM     29  C   UNL A   1      41.724  26.914  27.731  1.00  0.00     0.016 A 
ATOM     30  C   UNL A   1      39.620  26.740  29.581  1.00  0.00     0.010 A 
ATOM     31  C   UNL A   1      41.673  27.786  28.823  1.00  0.00     0.010 A 
ATOM     32  C   UNL A   1      40.610  27.717  29.740  1.00  0.00    -0.014 A 
BRANCH  32  33
ATOM     33  C   UNL A   1      40.474  28.727  30.817  1.00  0.00     0.031 A 
ATOM     34  C   UNL A   1      41.378  28.651  32.015  1.00  0.00     0.074 A 
ATOM     35  C   UNL A   1      39.568  29.714  30.708  1.00  0.00     0.049 A 
ATOM     36  N   UNL A   1      41.401  29.406  33.083  1.00  0.00    -0.248 NA
ATOM     37  C   UNL A   1      42.389  27.583  32.010  1.00  0.00     0.031 C 
ATOM     38  C   UNL A   1      38.661  29.908  29.576  1.00  0.00     0.029 A 
ATOM     39  N   UNL A   1      39.261  30.741  31.564  1.00  0.00    -0.354 N 
ATOM     40  C   UNL A   1      42.412  28.893  33.886  1.00  0.00     0.074 A 
ATOM     41  C   UNL A   1      42.972  27.755  33.188  1.00  0.00     0.031 C 
ATOM     42  C   UNL A   1      37.899  30.990  29.809  1.00  0.00     0.029 A 
ATOM     43  C   UNL A   1      38.243  31.546  31.115  1.00  0.00     0.049 A 
ATOM     44  H   UNL A   1      39.728  30.888  32.419  1.00  0.00     0.167 HD
ATOM     45  C   UNL A   1      42.838  29.335  35.093  1.00  0.00     0.037 A 
ATOM     46  C   UNL A   1      37.648  32.604  31.700  1.00  0.00     0.037 A 
ATOM     47  C   UNL A   1      42.289  30.477  35.776  1.00  0.00     0.049 A 
ATOM     48  C   UNL A   1      38.125  33.063  33.052  1.00  0.00     0.074 A 
ATOM     49  C   UNL A   1      42.657  31.009  36.999  1.00  0.00     0.029 A 
ATOM     50  N   UNL A   1      41.256  31.266  35.291  1.00  0.00    -0.354 N 
ATOM     51  N   UNL A   1      39.083  32.570  33.800  1.00  0.00    -0.248 NA
ATOM     52  C   UNL A   1      37.441  34.224  33.639  1.00  0.00     0.031 C 
ATOM     53  C   UNL A   1      41.828  32.105  37.267  1.00  0.00     0.029 A 
ATOM     54  C   UNL A   1      40.968  32.276  36.194  1.00  0.00     0.049 A 
ATOM     55  H   UNL A   1      40.797  31.128  34.432  1.00  0.00     0.167 HD
ATOM     56  C   UNL A   1      39.137  33.376  34.930  1.00  0.00     0.074 A 
ATOM     57  C   UNL A   1      38.116  34.392  34.767  1.00  0.00     0.031 C 
ATOM     58  C   UNL A   1      39.958  33.287  36.005  1.00  0.00     0.037 A 
BRANCH  45  59
ATOM     59  C   UNL A   1      43.934  28.557  35.764  1.00  0.00     0.058 A 
ATOM     60  C   UNL A   1      45.288  28.853  35.549  1.00  0.00     0.135 A 
ATOM     61  C   UNL A   1      43.622  27.507  36.643  1.00  0.00     0.135 A 
ATOM     62  F   UNL A   1      45.639  29.835  34.702  1.00  0.00    -0.206 F 
ATOM     63  C   UNL A   1      46.299  28.117  36.160  1.00  0.00     0.059 A 
ATOM     64  C   UNL A   1      44.615  26.772  37.282  1.00  0.00     0.059 A 
ATOM     65  F   UNL A   1      42.341  27.181  36.881  1.00  0.00    -0.206 F 
ATOM     66  C   UNL A   1      45.952  27.073  37.020  1.00  0.00     0.060 A 
BRANCH  66  67
ATOM     67  S   UNL A   1      47.268  26.117  37.801  1.00  0.00     0.124 S 
ATOM     68  O   UNL A   1      46.580  24.864  38.096  1.00  0.00    -0.237 OA
ATOM     69  O   UNL A   1      48.279  26.052  36.751  1.00  0.00    -0.237 OA
ATOM     70  O   UNL A   1      47.629  26.923  38.963  1.00  0.00    -0.744 OA
ENDBRANCH  66  67
ENDBRANCH  45  59
BRANCH  46  71
ATOM     71  C   UNL A   1      36.537  33.305  31.006  1.00  0.00     0.058 A 
ATOM     72  C   UNL A   1      36.785  34.134  29.903  1.00  0.00     0.135 A 
ATOM     73  C   UNL A   1      35.208  33.153  31.428  1.00  0.00     0.135 A 
ATOM     74  F   UNL A   1      38.041  34.316  29.470  1.00  0.00    -0.206 F 
ATOM     75  C   UNL A   1      35.754  34.799  29.246  1.00  0.00     0.059 A 
ATOM     76  C   UNL A   1      34.157  33.791  30.775  1.00  0.00     0.059 A 
ATOM     77  F   UNL A   1      34.920  32.362  32.473  1.00  0.00    -0.206 F 
ATOM     78  C   UNL A   1      34.442  34.621  29.691  1.00  0.00     0.060 A 
BRANCH  78  79
ATOM     79  S   UNL A   1      33.102  35.445  28.804  1.00  0.00     0.124 S 
ATOM     80  O   UNL A   1      32.324  36.005  29.903  1.00  0.00    -0.237 OA
ATOM     81  O   UNL A   1      33.823  36.409  27.978  1.00  0.00    -0.237 OA
ATOM     82  O   UNL A   1      32.468  34.355  28.070  1.00  0.00    -0.744 OA
ENDBRANCH  78  79
ENDBRANCH  46  71
BRANCH  58  83
ATOM     83  C   UNL A   1      39.820  34.341  37.067  1.00  0.00     0.058 A 
ATOM     84  C   UNL A   1      39.023  34.141  38.205  1.00  0.00     0.135 A 
ATOM     85  C   UNL A   1      40.528  35.548  36.961  1.00  0.00     0.135 A 
ATOM     86  F   UNL A   1      38.323  33.005  38.348  1.00  0.00    -0.206 F 
ATOM     87  C   UNL A   1      38.915  35.115  39.192  1.00  0.00     0.059 A 
ATOM     88  C   UNL A   1      40.450  36.527  37.947  1.00  0.00     0.059 A 
ATOM     89  F   UNL A   1      41.311  35.783  35.896  1.00  0.00    -0.206 F 
ATOM     90  C   UNL A   1      39.630  36.307  39.053  1.00  0.00     0.060 A 
BRANCH  90  91
ATOM     91  S   UNL A   1      39.504  37.556  40.351  1.00  0.00     0.124 S 
ATOM     92  O   UNL A   1      38.629  38.541  39.726  1.00  0.00    -0.237 OA
ATOM     93  O   UNL A   1      38.922  36.803  41.460  1.00  0.00    -0.237 OA
ATOM     94  O   UNL A   1      40.888  37.978  40.548  1.00  0.00    -0.744 OA
ENDBRANCH  90  91
ENDBRANCH  58  83
ENDBRANCH  32  33
ENDBRANCH  25  27
ENDBRANCH  24  25
ENDBRANCH   1  24
TORSDOF 16
ENDMDL
