MODEL 1
REMARK VINA RESULT:     -12.2      0.000      0.000
REMARK SMILES Cn1cc(Cl)cc1C(=O)N[C@H]1C=C[C@H](C(=O)OCCOC(=O)c2ccc(-c3c4nc(c(-c5c(F)cc(S(=O)(=O)[O-])cc5F)c5ccc([nH]5)c(-c5c(F)cc(S(=O)(=O)[O-])cc5F)c5nc(c(-c6c(F)cc(S(=O)(=O)[O-])cc6F)c6ccc3[nH]6)C=C5)C=C4)cc2)C1
REMARK SMILES IDX 19 1 18 2 17 3 15 4 16 5 14 6 11 7 12 8 89 9 13 10 10 11
REMARK SMILES IDX 8 12 9 13 7 15 1 16 2 17 3 18 4 19 6 20 5 21 20 22 21 23
REMARK SMILES IDX 22 24 23 25 24 26 88 27 25 28 87 29 26 30 27 31 28 32 81 33
REMARK SMILES IDX 29 34 86 35 80 36 82 37 30 38 85 39 79 40 78 41 31 43 65 44
REMARK SMILES IDX 44 45 64 46 45 47 48 48 63 49 83 50 46 51 47 52 62 54 84 55
REMARK SMILES IDX 49 56 32 57 33 58 42 59 34 60 35 61 41 62 43 63 36 64 37 65
REMARK SMILES IDX 38 66 39 67 40 68 66 69 67 70 76 71 68 72 69 73 75 74 77 75
REMARK SMILES IDX 70 76 71 77 72 78 73 79 74 80 50 81 51 82 60 83 52 84 53 85
REMARK SMILES IDX 59 86 61 87 54 88 55 89 56 90 57 91 58 92
REMARK H PARENT 10 14 82 42 48 53
REMARK Flexibility Score: inf
ROOT
ATOM      1  C   UNL A   1      32.602  30.113  27.080  1.00  0.00     0.275 C 
ENDROOT
BRANCH   1   2
ATOM      2  C   UNL A   1      31.772  30.263  25.809  1.00  0.00     0.274 C 
BRANCH   2   3
ATOM      3  O   UNL A   1      32.350  29.533  24.712  1.00  0.00    -0.462 OA
BRANCH   3   4
ATOM      4  C   UNL A   1      31.473  28.771  24.003  1.00  0.00     0.312 C 
ATOM      5  O   UNL A   1      30.431  29.196  23.513  1.00  0.00    -0.252 OA
BRANCH   4   6
ATOM      6  C   UNL A   1      31.966  27.330  23.849  1.00  0.00     0.124 C 
ATOM      7  C   UNL A   1      31.537  26.448  26.060  1.00  0.00     0.106 C 
ATOM      8  C   UNL A   1      33.014  26.578  25.813  1.00  0.00    -0.006 C 
ATOM      9  C   UNL A   1      31.038  26.371  24.612  1.00  0.00     0.048 C 
ATOM     10  C   UNL A   1      33.248  27.103  24.599  1.00  0.00    -0.014 C 
BRANCH   7  11
ATOM     11  N   UNL A   1      31.237  25.276  26.818  1.00  0.00    -0.345 N 
ATOM     12  C   UNL A   1      31.477  23.940  26.658  1.00  0.00     0.268 C 
ATOM     13  O   UNL A   1      30.924  23.266  27.538  1.00  0.00    -0.268 OA
ATOM     14  H   UNL A   1      30.742  25.475  27.645  1.00  0.00     0.164 HD
BRANCH  12  15
ATOM     15  C   UNL A   1      32.242  23.264  25.602  1.00  0.00     0.108 A 
ATOM     16  C   UNL A   1      34.763  23.208  26.135  1.00  0.00     0.150 C 
ATOM     17  N   UNL A   1      33.575  22.951  25.358  1.00  0.00    -0.345 N 
ATOM     18  C   UNL A   1      33.698  22.230  24.185  1.00  0.00     0.106 A 
ATOM     19  C   UNL A   1      32.457  22.050  23.650  1.00  0.00     0.059 A 
ATOM     20  C   UNL A   1      31.558  22.689  24.515  1.00  0.00     0.054 A 
ATOM     21  Cl  UNL A   1      32.056  21.210  22.236  1.00  0.00    -0.083 Cl
ENDBRANCH  12  15
ENDBRANCH   7  11
ENDBRANCH   4   6
ENDBRANCH   3   4
ENDBRANCH   2   3
ENDBRANCH   1   2
BRANCH   1  22
ATOM     22  O   UNL A   1      34.001  30.318  26.863  1.00  0.00    -0.458 OA
BRANCH  22  23
ATOM     23  C   UNL A   1      34.520  31.320  27.607  1.00  0.00     0.338 C 
ATOM     24  O   UNL A   1      34.182  32.492  27.599  1.00  0.00    -0.246 OA
BRANCH  23  25
ATOM     25  C   UNL A   1      35.729  30.874  28.298  1.00  0.00     0.060 A 
ATOM     26  C   UNL A   1      36.610  31.866  28.746  1.00  0.00     0.016 A 
ATOM     27  C   UNL A   1      36.103  29.526  28.226  1.00  0.00     0.016 A 
ATOM     28  C   UNL A   1      37.920  31.523  29.007  1.00  0.00     0.010 A 
ATOM     29  C   UNL A   1      37.414  29.190  28.473  1.00  0.00     0.010 A 
ATOM     30  C   UNL A   1      38.319  30.200  28.809  1.00  0.00    -0.014 A 
BRANCH  30  31
ATOM     31  C   UNL A   1      39.707  29.860  29.066  1.00  0.00     0.031 A 
ATOM     32  C   UNL A   1      40.079  29.882  30.505  1.00  0.00     0.074 A 
ATOM     33  C   UNL A   1      40.494  29.380  28.084  1.00  0.00     0.049 A 
ATOM     34  N   UNL A   1      41.067  30.484  31.083  1.00  0.00    -0.248 NA
ATOM     35  C   UNL A   1      39.142  29.238  31.445  1.00  0.00     0.031 C 
ATOM     36  C   UNL A   1      40.089  29.037  26.717  1.00  0.00     0.029 A 
ATOM     37  N   UNL A   1      41.783  28.949  28.143  1.00  0.00    -0.354 N 
ATOM     38  C   UNL A   1      40.992  30.116  32.427  1.00  0.00     0.074 A 
ATOM     39  C   UNL A   1      39.701  29.522  32.618  1.00  0.00     0.031 C 
ATOM     40  C   UNL A   1      41.028  28.236  26.169  1.00  0.00     0.029 A 
ATOM     41  C   UNL A   1      42.130  28.092  27.105  1.00  0.00     0.049 A 
ATOM     42  H   UNL A   1      42.409  29.218  28.852  1.00  0.00     0.167 HD
ATOM     43  C   UNL A   1      42.096  30.091  33.223  1.00  0.00     0.037 A 
ATOM     44  C   UNL A   1      43.185  27.239  27.082  1.00  0.00     0.037 A 
ATOM     45  C   UNL A   1      43.122  30.964  32.713  1.00  0.00     0.049 A 
ATOM     46  C   UNL A   1      44.137  27.671  28.140  1.00  0.00     0.074 A 
ATOM     47  C   UNL A   1      43.178  32.312  32.412  1.00  0.00     0.029 A 
ATOM     48  N   UNL A   1      44.218  30.401  32.105  1.00  0.00    -0.354 N 
ATOM     49  N   UNL A   1      44.825  28.779  28.109  1.00  0.00    -0.248 NA
ATOM     50  C   UNL A   1      44.018  27.055  29.454  1.00  0.00     0.031 C 
ATOM     51  C   UNL A   1      44.025  32.407  31.270  1.00  0.00     0.029 A 
ATOM     52  C   UNL A   1      44.468  31.120  30.965  1.00  0.00     0.049 A 
ATOM     53  H   UNL A   1      44.729  29.625  32.429  1.00  0.00     0.167 HD
ATOM     54  C   UNL A   1      44.868  29.212  29.427  1.00  0.00     0.074 A 
ATOM     55  C   UNL A   1      44.452  28.059  30.219  1.00  0.00     0.031 C 
ATOM     56  C   UNL A   1      44.965  30.540  29.736  1.00  0.00     0.037 A 
BRANCH  43  57
ATOM     57  C   UNL A   1      42.371  28.983  34.225  1.00  0.00     0.058 A 
ATOM     58  C   UNL A   1      42.480  27.655  33.761  1.00  0.00     0.135 A 
ATOM     59  C   UNL A   1      42.231  29.117  35.628  1.00  0.00     0.135 A 
ATOM     60  F   UNL A   1      42.644  27.399  32.453  1.00  0.00    -0.206 F 
ATOM     61  C   UNL A   1      42.329  26.552  34.602  1.00  0.00     0.059 A 
ATOM     62  C   UNL A   1      42.135  28.032  36.489  1.00  0.00     0.059 A 
ATOM     63  F   UNL A   1      42.085  30.298  36.238  1.00  0.00    -0.206 F 
ATOM     64  C   UNL A   1      42.122  26.754  35.962  1.00  0.00     0.060 A 
BRANCH  64  65
ATOM     65  S   UNL A   1      41.745  25.354  37.027  1.00  0.00     0.124 S 
ATOM     66  O   UNL A   1      40.552  25.835  37.716  1.00  0.00    -0.237 OA
ATOM     67  O   UNL A   1      41.540  24.283  36.058  1.00  0.00    -0.237 OA
ATOM     68  O   UNL A   1      42.943  25.228  37.851  1.00  0.00    -0.744 OA
ENDBRANCH  64  65
ENDBRANCH  43  57
BRANCH  44  69
ATOM     69  C   UNL A   1      43.256  25.899  26.436  1.00  0.00     0.058 A 
ATOM     70  C   UNL A   1      44.129  25.656  25.361  1.00  0.00     0.135 A 
ATOM     71  C   UNL A   1      42.653  24.759  27.011  1.00  0.00     0.135 A 
ATOM     72  F   UNL A   1      44.773  26.675  24.772  1.00  0.00    -0.206 F 
ATOM     73  C   UNL A   1      44.412  24.363  24.907  1.00  0.00     0.059 A 
ATOM     74  C   UNL A   1      42.901  23.466  26.559  1.00  0.00     0.059 A 
ATOM     75  F   UNL A   1      41.869  24.856  28.094  1.00  0.00    -0.206 F 
ATOM     76  C   UNL A   1      43.802  23.272  25.523  1.00  0.00     0.060 A 
BRANCH  76  77
ATOM     77  S   UNL A   1      44.277  21.594  25.048  1.00  0.00     0.124 S 
ATOM     78  O   UNL A   1      43.123  20.817  25.488  1.00  0.00    -0.237 OA
ATOM     79  O   UNL A   1      44.452  21.718  23.606  1.00  0.00    -0.237 OA
ATOM     80  O   UNL A   1      45.506  21.363  25.804  1.00  0.00    -0.744 OA
ENDBRANCH  76  77
ENDBRANCH  44  69
BRANCH  56  81
ATOM     81  C   UNL A   1      45.368  31.499  28.648  1.00  0.00     0.058 A 
ATOM     82  C   UNL A   1      44.498  31.981  27.655  1.00  0.00     0.135 A 
ATOM     83  C   UNL A   1      46.651  32.067  28.706  1.00  0.00     0.135 A 
ATOM     84  F   UNL A   1      43.220  31.578  27.601  1.00  0.00    -0.206 F 
ATOM     85  C   UNL A   1      44.901  32.945  26.729  1.00  0.00     0.059 A 
ATOM     86  C   UNL A   1      47.063  33.054  27.814  1.00  0.00     0.059 A 
ATOM     87  F   UNL A   1      47.508  31.700  29.673  1.00  0.00    -0.206 F 
ATOM     88  C   UNL A   1      46.186  33.477  26.818  1.00  0.00     0.060 A 
BRANCH  88  89
ATOM     89  S   UNL A   1      46.676  34.783  25.670  1.00  0.00     0.124 S 
ATOM     90  O   UNL A   1      45.698  34.632  24.599  1.00  0.00    -0.237 OA
ATOM     91  O   UNL A   1      46.544  35.988  26.484  1.00  0.00    -0.237 OA
ATOM     92  O   UNL A   1      48.049  34.430  25.317  1.00  0.00    -0.744 OA
ENDBRANCH  88  89
ENDBRANCH  56  81
ENDBRANCH  30  31
ENDBRANCH  23  25
ENDBRANCH  22  23
ENDBRANCH   1  22
TORSDOF 16
ENDMDL
MODEL 2
REMARK VINA RESULT:     -12.0      1.150      1.639
REMARK SMILES Cn1cc(Cl)cc1C(=O)N[C@H]1C=C[C@H](C(=O)OCCOC(=O)c2ccc(-c3c4nc(c(-c5c(F)cc(S(=O)(=O)[O-])cc5F)c5ccc([nH]5)c(-c5c(F)cc(S(=O)(=O)[O-])cc5F)c5nc(c(-c6c(F)cc(S(=O)(=O)[O-])cc6F)c6ccc3[nH]6)C=C5)C=C4)cc2)C1
REMARK SMILES IDX 19 1 18 2 17 3 15 4 16 5 14 6 11 7 12 8 89 9 13 10 10 11
REMARK SMILES IDX 8 12 9 13 7 15 1 16 2 17 3 18 4 19 6 20 5 21 20 22 21 23
REMARK SMILES IDX 22 24 23 25 24 26 88 27 25 28 87 29 26 30 27 31 28 32 81 33
REMARK SMILES IDX 29 34 86 35 80 36 82 37 30 38 85 39 79 40 78 41 31 43 65 44
REMARK SMILES IDX 44 45 64 46 45 47 48 48 63 49 83 50 46 51 47 52 62 54 84 55
REMARK SMILES IDX 49 56 32 57 33 58 42 59 34 60 35 61 41 62 43 63 36 64 37 65
REMARK SMILES IDX 38 66 39 67 40 68 66 69 67 70 76 71 68 72 69 73 75 74 77 75
REMARK SMILES IDX 70 76 71 77 72 78 73 79 74 80 50 81 51 82 60 83 52 84 53 85
REMARK SMILES IDX 59 86 61 87 54 88 55 89 56 90 57 91 58 92
REMARK H PARENT 10 14 82 42 48 53
REMARK Flexibility Score: inf
ROOT
ATOM      1  C   UNL A   1      32.512  30.165  26.953  1.00  0.00     0.275 C 
ENDROOT
BRANCH   1   2
ATOM      2  C   UNL A   1      31.865  28.793  27.121  1.00  0.00     0.274 C 
BRANCH   2   3
ATOM      3  O   UNL A   1      31.443  28.251  25.856  1.00  0.00    -0.462 OA
BRANCH   3   4
ATOM      4  C   UNL A   1      30.988  26.968  25.905  1.00  0.00     0.312 C 
ATOM      5  O   UNL A   1      31.105  26.232  26.880  1.00  0.00    -0.252 OA
BRANCH   4   6
ATOM      6  C   UNL A   1      30.268  26.571  24.614  1.00  0.00     0.124 C 
ATOM      7  C   UNL A   1      32.123  25.833  23.248  1.00  0.00     0.106 C 
ATOM      8  C   UNL A   1      31.551  27.120  22.723  1.00  0.00    -0.006 C 
ATOM      9  C   UNL A   1      30.908  25.305  24.021  1.00  0.00     0.048 C 
ATOM     10  C   UNL A   1      30.545  27.546  23.506  1.00  0.00    -0.014 C 
BRANCH   7  11
ATOM     11  N   UNL A   1      32.527  24.971  22.186  1.00  0.00    -0.345 N 
ATOM     12  C   UNL A   1      33.144  23.753  22.117  1.00  0.00     0.268 C 
ATOM     13  O   UNL A   1      33.394  23.430  20.948  1.00  0.00    -0.268 OA
ATOM     14  H   UNL A   1      32.314  25.337  21.297  1.00  0.00     0.164 HD
BRANCH  12  15
ATOM     15  C   UNL A   1      33.546  22.865  23.216  1.00  0.00     0.108 A 
ATOM     16  C   UNL A   1      35.486  23.861  24.589  1.00  0.00     0.150 C 
ATOM     17  N   UNL A   1      34.492  22.878  24.236  1.00  0.00    -0.345 N 
ATOM     18  C   UNL A   1      34.363  21.754  25.032  1.00  0.00     0.106 A 
ATOM     19  C   UNL A   1      33.332  20.998  24.558  1.00  0.00     0.059 A 
ATOM     20  C   UNL A   1      32.830  21.673  23.437  1.00  0.00     0.054 A 
ATOM     21  Cl  UNL A   1      32.748  19.541  25.191  1.00  0.00    -0.083 Cl
ENDBRANCH  12  15
ENDBRANCH   7  11
ENDBRANCH   4   6
ENDBRANCH   3   4
ENDBRANCH   2   3
ENDBRANCH   1   2
BRANCH   1  22
ATOM     22  O   UNL A   1      33.939  30.104  26.869  1.00  0.00    -0.458 OA
BRANCH  22  23
ATOM     23  C   UNL A   1      34.558  31.158  27.447  1.00  0.00     0.338 C 
ATOM     24  O   UNL A   1      34.303  32.339  27.283  1.00  0.00    -0.246 OA
BRANCH  23  25
ATOM     25  C   UNL A   1      35.760  30.723  28.155  1.00  0.00     0.060 A 
ATOM     26  C   UNL A   1      36.603  31.723  28.654  1.00  0.00     0.016 A 
ATOM     27  C   UNL A   1      36.171  29.388  28.055  1.00  0.00     0.016 A 
ATOM     28  C   UNL A   1      37.915  31.406  28.939  1.00  0.00     0.010 A 
ATOM     29  C   UNL A   1      37.483  29.078  28.326  1.00  0.00     0.010 A 
ATOM     30  C   UNL A   1      38.353  30.100  28.714  1.00  0.00    -0.014 A 
BRANCH  30  31
ATOM     31  C   UNL A   1      39.743  29.788  28.997  1.00  0.00     0.031 A 
ATOM     32  C   UNL A   1      40.091  29.833  30.441  1.00  0.00     0.074 A 
ATOM     33  C   UNL A   1      40.554  29.312  28.033  1.00  0.00     0.049 A 
ATOM     34  N   UNL A   1      41.059  30.459  31.027  1.00  0.00    -0.248 NA
ATOM     35  C   UNL A   1      39.151  29.182  31.373  1.00  0.00     0.031 C 
ATOM     36  C   UNL A   1      40.177  28.946  26.663  1.00  0.00     0.029 A 
ATOM     37  N   UNL A   1      41.849  28.905  28.117  1.00  0.00    -0.354 N 
ATOM     38  C   UNL A   1      40.969  30.105  32.374  1.00  0.00     0.074 A 
ATOM     39  C   UNL A   1      39.686  29.489  32.552  1.00  0.00     0.031 C 
ATOM     40  C   UNL A   1      41.139  28.156  26.140  1.00  0.00     0.029 A 
ATOM     41  C   UNL A   1      42.228  28.043  27.095  1.00  0.00     0.049 A 
ATOM     42  H   UNL A   1      42.458  29.192  28.833  1.00  0.00     0.167 HD
ATOM     43  C   UNL A   1      42.060  30.109  33.188  1.00  0.00     0.037 A 
ATOM     44  C   UNL A   1      43.299  27.208  27.098  1.00  0.00     0.037 A 
ATOM     45  C   UNL A   1      43.078  30.994  32.684  1.00  0.00     0.049 A 
ATOM     46  C   UNL A   1      44.225  27.669  28.165  1.00  0.00     0.074 A 
ATOM     47  C   UNL A   1      43.116  32.340  32.369  1.00  0.00     0.029 A 
ATOM     48  N   UNL A   1      44.194  30.445  32.100  1.00  0.00    -0.354 N 
ATOM     49  N   UNL A   1      44.894  28.789  28.133  1.00  0.00    -0.248 NA
ATOM     50  C   UNL A   1      44.096  27.065  29.485  1.00  0.00     0.031 C 
ATOM     51  C   UNL A   1      43.978  32.437  31.239  1.00  0.00     0.029 A 
ATOM     52  C   UNL A   1      44.449  31.155  30.956  1.00  0.00     0.049 A 
ATOM     53  H   UNL A   1      44.714  29.681  32.441  1.00  0.00     0.167 HD
ATOM     54  C   UNL A   1      44.908  29.238  29.447  1.00  0.00     0.074 A 
ATOM     55  C   UNL A   1      44.500  28.086  30.245  1.00  0.00     0.031 C 
ATOM     56  C   UNL A   1      44.976  30.570  29.742  1.00  0.00     0.037 A 
BRANCH  43  57
ATOM     57  C   UNL A   1      42.339  29.017  34.207  1.00  0.00     0.058 A 
ATOM     58  C   UNL A   1      42.491  27.688  33.758  1.00  0.00     0.135 A 
ATOM     59  C   UNL A   1      42.164  29.161  35.605  1.00  0.00     0.135 A 
ATOM     60  F   UNL A   1      42.690  27.423  32.457  1.00  0.00    -0.206 F 
ATOM     61  C   UNL A   1      42.347  26.590  34.607  1.00  0.00     0.059 A 
ATOM     62  C   UNL A   1      42.074  28.082  36.474  1.00  0.00     0.059 A 
ATOM     63  F   UNL A   1      41.976  30.343  36.199  1.00  0.00    -0.206 F 
ATOM     64  C   UNL A   1      42.104  26.799  35.960  1.00  0.00     0.060 A 
BRANCH  64  65
ATOM     65  S   UNL A   1      41.736  25.400  37.030  1.00  0.00     0.124 S 
ATOM     66  O   UNL A   1      41.552  24.335  36.051  1.00  0.00    -0.237 OA
ATOM     67  O   UNL A   1      42.941  25.320  37.849  1.00  0.00    -0.237 OA
ATOM     68  O   UNL A   1      40.532  25.827  37.736  1.00  0.00    -0.744 OA
ENDBRANCH  64  65
ENDBRANCH  43  57
BRANCH  44  69
ATOM     69  C   UNL A   1      43.404  25.863  26.469  1.00  0.00     0.058 A 
ATOM     70  C   UNL A   1      44.310  25.619  25.422  1.00  0.00     0.135 A 
ATOM     71  C   UNL A   1      42.798  24.722  27.038  1.00  0.00     0.135 A 
ATOM     72  F   UNL A   1      44.959  26.640  24.840  1.00  0.00    -0.206 F 
ATOM     73  C   UNL A   1      44.621  24.325  24.989  1.00  0.00     0.059 A 
ATOM     74  C   UNL A   1      43.074  23.427  26.608  1.00  0.00     0.059 A 
ATOM     75  F   UNL A   1      41.982  24.820  28.098  1.00  0.00    -0.206 F 
ATOM     76  C   UNL A   1      44.006  23.233  25.599  1.00  0.00     0.060 A 
BRANCH  76  77
ATOM     77  S   UNL A   1      44.515  21.556  25.156  1.00  0.00     0.124 S 
ATOM     78  O   UNL A   1      45.854  21.484  25.730  1.00  0.00    -0.237 OA
ATOM     79  O   UNL A   1      43.495  20.742  25.809  1.00  0.00    -0.237 OA
ATOM     80  O   UNL A   1      44.463  21.560  23.696  1.00  0.00    -0.744 OA
ENDBRANCH  76  77
ENDBRANCH  44  69
BRANCH  56  81
ATOM     81  C   UNL A   1      45.380  31.524  28.650  1.00  0.00     0.058 A 
ATOM     82  C   UNL A   1      44.519  31.975  27.634  1.00  0.00     0.135 A 
ATOM     83  C   UNL A   1      46.649  32.121  28.725  1.00  0.00     0.135 A 
ATOM     84  F   UNL A   1      43.251  31.543  27.560  1.00  0.00    -0.206 F 
ATOM     85  C   UNL A   1      44.919  32.935  26.703  1.00  0.00     0.059 A 
ATOM     86  C   UNL A   1      47.056  33.106  27.828  1.00  0.00     0.059 A 
ATOM     87  F   UNL A   1      47.494  31.785  29.713  1.00  0.00    -0.206 F 
ATOM     88  C   UNL A   1      46.190  33.497  26.810  1.00  0.00     0.060 A 
BRANCH  88  89
ATOM     89  S   UNL A   1      46.674  34.798  25.655  1.00  0.00     0.124 S 
ATOM     90  O   UNL A   1      45.724  34.609  24.565  1.00  0.00    -0.237 OA
ATOM     91  O   UNL A   1      46.495  36.011  26.449  1.00  0.00    -0.237 OA
ATOM     92  O   UNL A   1      48.063  34.474  25.337  1.00  0.00    -0.744 OA
ENDBRANCH  88  89
ENDBRANCH  56  81
ENDBRANCH  30  31
ENDBRANCH  23  25
ENDBRANCH  22  23
ENDBRANCH   1  22
TORSDOF 16
ENDMDL
MODEL 3
REMARK VINA RESULT:     -11.9      0.776      1.309
REMARK SMILES Cn1cc(Cl)cc1C(=O)N[C@H]1C=C[C@H](C(=O)OCCOC(=O)c2ccc(-c3c4nc(c(-c5c(F)cc(S(=O)(=O)[O-])cc5F)c5ccc([nH]5)c(-c5c(F)cc(S(=O)(=O)[O-])cc5F)c5nc(c(-c6c(F)cc(S(=O)(=O)[O-])cc6F)c6ccc3[nH]6)C=C5)C=C4)cc2)C1
REMARK SMILES IDX 19 1 18 2 17 3 15 4 16 5 14 6 11 7 12 8 89 9 13 10 10 11
REMARK SMILES IDX 8 12 9 13 7 15 1 16 2 17 3 18 4 19 6 20 5 21 20 22 21 23
REMARK SMILES IDX 22 24 23 25 24 26 88 27 25 28 87 29 26 30 27 31 28 32 81 33
REMARK SMILES IDX 29 34 86 35 80 36 82 37 30 38 85 39 79 40 78 41 31 43 65 44
REMARK SMILES IDX 44 45 64 46 45 47 48 48 63 49 83 50 46 51 47 52 62 54 84 55
REMARK SMILES IDX 49 56 32 57 33 58 42 59 34 60 35 61 41 62 43 63 36 64 37 65
REMARK SMILES IDX 38 66 39 67 40 68 66 69 67 70 76 71 68 72 69 73 75 74 77 75
REMARK SMILES IDX 70 76 71 77 72 78 73 79 74 80 50 81 51 82 60 83 52 84 53 85
REMARK SMILES IDX 59 86 61 87 54 88 55 89 56 90 57 91 58 92
REMARK H PARENT 10 14 82 42 48 53
REMARK Flexibility Score: inf
ROOT
ATOM      1  C   UNL A   1      32.772  30.105  27.233  1.00  0.00     0.275 C 
ENDROOT
BRANCH   1   2
ATOM      2  C   UNL A   1      32.000  30.265  25.928  1.00  0.00     0.274 C 
BRANCH   2   3
ATOM      3  O   UNL A   1      32.669  29.609  24.835  1.00  0.00    -0.462 OA
BRANCH   3   4
ATOM      4  C   UNL A   1      31.869  28.828  24.058  1.00  0.00     0.312 C 
ATOM      5  O   UNL A   1      30.870  29.233  23.472  1.00  0.00    -0.252 OA
BRANCH   4   6
ATOM      6  C   UNL A   1      32.394  27.393  23.963  1.00  0.00     0.124 C 
ATOM      7  C   UNL A   1      31.698  26.496  26.099  1.00  0.00     0.106 C 
ATOM      8  C   UNL A   1      33.193  26.644  26.042  1.00  0.00    -0.006 C 
ATOM      9  C   UNL A   1      31.387  26.421  24.599  1.00  0.00     0.048 C 
ATOM     10  C   UNL A   1      33.573  27.177  24.869  1.00  0.00    -0.014 C 
BRANCH   7  11
ATOM     11  N   UNL A   1      31.317  25.318  26.809  1.00  0.00    -0.345 N 
ATOM     12  C   UNL A   1      31.492  23.977  26.610  1.00  0.00     0.268 C 
ATOM     13  O   UNL A   1      30.881  23.305  27.452  1.00  0.00    -0.268 OA
ATOM     14  H   UNL A   1      30.811  25.516  27.629  1.00  0.00     0.164 HD
BRANCH  12  15
ATOM     15  C   UNL A   1      32.250  23.297  25.552  1.00  0.00     0.108 A 
ATOM     16  C   UNL A   1      34.777  23.261  26.057  1.00  0.00     0.150 C 
ATOM     17  N   UNL A   1      33.582  22.989  25.296  1.00  0.00    -0.345 N 
ATOM     18  C   UNL A   1      33.696  22.259  24.127  1.00  0.00     0.106 A 
ATOM     19  C   UNL A   1      32.450  22.066  23.608  1.00  0.00     0.059 A 
ATOM     20  C   UNL A   1      31.557  22.708  24.477  1.00  0.00     0.054 A 
ATOM     21  Cl  UNL A   1      32.039  21.212  22.206  1.00  0.00    -0.083 Cl
ENDBRANCH  12  15
ENDBRANCH   7  11
ENDBRANCH   4   6
ENDBRANCH   3   4
ENDBRANCH   2   3
ENDBRANCH   1   2
BRANCH   1  22
ATOM     22  O   UNL A   1      34.192  30.145  27.053  1.00  0.00    -0.458 OA
BRANCH  22  23
ATOM     23  C   UNL A   1      34.792  31.152  27.726  1.00  0.00     0.338 C 
ATOM     24  O   UNL A   1      34.514  32.338  27.672  1.00  0.00    -0.246 OA
BRANCH  23  25
ATOM     25  C   UNL A   1      36.003  30.676  28.391  1.00  0.00     0.060 A 
ATOM     26  C   UNL A   1      36.868  31.646  28.911  1.00  0.00     0.016 A 
ATOM     27  C   UNL A   1      36.396  29.342  28.228  1.00  0.00     0.016 A 
ATOM     28  C   UNL A   1      38.181  31.304  29.156  1.00  0.00     0.010 A 
ATOM     29  C   UNL A   1      37.710  29.007  28.459  1.00  0.00     0.010 A 
ATOM     30  C   UNL A   1      38.600  30.003  28.869  1.00  0.00    -0.014 A 
BRANCH  30  31
ATOM     31  C   UNL A   1      39.991  29.666  29.109  1.00  0.00     0.031 A 
ATOM     32  C   UNL A   1      40.373  29.661  30.546  1.00  0.00     0.074 A 
ATOM     33  C   UNL A   1      40.774  29.209  28.113  1.00  0.00     0.049 A 
ATOM     34  N   UNL A   1      41.362  30.256  31.129  1.00  0.00    -0.248 NA
ATOM     35  C   UNL A   1      39.446  28.993  31.480  1.00  0.00     0.031 C 
ATOM     36  C   UNL A   1      40.361  28.890  26.742  1.00  0.00     0.029 A 
ATOM     37  N   UNL A   1      42.065  28.783  28.154  1.00  0.00    -0.354 N 
ATOM     38  C   UNL A   1      41.298  29.862  32.466  1.00  0.00     0.074 A 
ATOM     39  C   UNL A   1      40.012  29.257  32.654  1.00  0.00     0.031 C 
ATOM     40  C   UNL A   1      41.300  28.105  26.172  1.00  0.00     0.029 A 
ATOM     41  C   UNL A   1      42.409  27.949  27.097  1.00  0.00     0.049 A 
ATOM     42  H   UNL A   1      42.694  29.041  28.864  1.00  0.00     0.167 HD
ATOM     43  C   UNL A   1      42.408  29.826  33.254  1.00  0.00     0.037 A 
ATOM     44  C   UNL A   1      43.468  27.101  27.050  1.00  0.00     0.037 A 
ATOM     45  C   UNL A   1      43.426  30.714  32.753  1.00  0.00     0.049 A 
ATOM     46  C   UNL A   1      44.425  27.517  28.109  1.00  0.00     0.074 A 
ATOM     47  C   UNL A   1      43.474  32.069  32.479  1.00  0.00     0.029 A 
ATOM     48  N   UNL A   1      44.520  30.169  32.127  1.00  0.00    -0.354 N 
ATOM     49  N   UNL A   1      45.108  28.629  28.096  1.00  0.00    -0.248 NA
ATOM     50  C   UNL A   1      44.318  26.874  29.412  1.00  0.00     0.031 C 
ATOM     51  C   UNL A   1      44.312  32.190  31.333  1.00  0.00     0.029 A 
ATOM     52  C   UNL A   1      44.759  30.911  31.000  1.00  0.00     0.049 A 
ATOM     53  H   UNL A   1      45.038  29.389  32.432  1.00  0.00     0.167 HD
ATOM     54  C   UNL A   1      45.158  29.037  29.422  1.00  0.00     0.074 A 
ATOM     55  C   UNL A   1      44.753  27.866  30.193  1.00  0.00     0.031 C 
ATOM     56  C   UNL A   1      45.250  30.358  29.756  1.00  0.00     0.037 A 
BRANCH  43  57
ATOM     57  C   UNL A   1      42.696  28.701  34.232  1.00  0.00     0.058 A 
ATOM     58  C   UNL A   1      42.952  29.021  35.583  1.00  0.00     0.135 A 
ATOM     59  C   UNL A   1      43.029  27.376  33.857  1.00  0.00     0.135 A 
ATOM     60  F   UNL A   1      42.654  30.237  36.067  1.00  0.00    -0.206 F 
ATOM     61  C   UNL A   1      43.605  28.143  36.449  1.00  0.00     0.059 A 
ATOM     62  C   UNL A   1      43.629  26.470  34.720  1.00  0.00     0.059 A 
ATOM     63  F   UNL A   1      42.882  26.912  32.612  1.00  0.00    -0.206 F 
ATOM     64  C   UNL A   1      43.971  26.881  35.995  1.00  0.00     0.060 A 
BRANCH  64  65
ATOM     65  S   UNL A   1      44.971  25.810  37.039  1.00  0.00     0.124 S 
ATOM     66  O   UNL A   1      44.032  25.501  38.111  1.00  0.00    -0.237 OA
ATOM     67  O   UNL A   1      45.293  24.715  36.130  1.00  0.00    -0.237 OA
ATOM     68  O   UNL A   1      46.097  26.662  37.410  1.00  0.00    -0.744 OA
ENDBRANCH  64  65
ENDBRANCH  43  57
BRANCH  44  69
ATOM     69  C   UNL A   1      43.541  25.775  26.377  1.00  0.00     0.058 A 
ATOM     70  C   UNL A   1      44.472  25.530  25.352  1.00  0.00     0.135 A 
ATOM     71  C   UNL A   1      42.872  24.641  26.886  1.00  0.00     0.135 A 
ATOM     72  F   UNL A   1      45.180  26.543  24.829  1.00  0.00    -0.206 F 
ATOM     73  C   UNL A   1      44.746  24.240  24.885  1.00  0.00     0.059 A 
ATOM     74  C   UNL A   1      43.110  23.351  26.420  1.00  0.00     0.059 A 
ATOM     75  F   UNL A   1      42.025  24.736  27.922  1.00  0.00    -0.206 F 
ATOM     76  C   UNL A   1      44.068  23.154  25.436  1.00  0.00     0.060 A 
BRANCH  76  77
ATOM     77  S   UNL A   1      44.524  21.473  24.951  1.00  0.00     0.124 S 
ATOM     78  O   UNL A   1      43.418  20.691  25.492  1.00  0.00    -0.237 OA
ATOM     79  O   UNL A   1      44.583  21.576  23.497  1.00  0.00    -0.237 OA
ATOM     80  O   UNL A   1      45.812  21.268  25.610  1.00  0.00    -0.744 OA
ENDBRANCH  76  77
ENDBRANCH  44  69
BRANCH  56  81
ATOM     81  C   UNL A   1      45.641  31.341  28.685  1.00  0.00     0.058 A 
ATOM     82  C   UNL A   1      44.735  31.945  27.796  1.00  0.00     0.135 A 
ATOM     83  C   UNL A   1      46.968  31.800  28.657  1.00  0.00     0.135 A 
ATOM     84  F   UNL A   1      43.428  31.649  27.834  1.00  0.00    -0.206 F 
ATOM     85  C   UNL A   1      45.140  32.923  26.885  1.00  0.00     0.059 A 
ATOM     86  C   UNL A   1      47.386  32.799  27.782  1.00  0.00     0.059 A 
ATOM     87  F   UNL A   1      47.868  31.313  29.527  1.00  0.00    -0.206 F 
ATOM     88  C   UNL A   1      46.468  33.345  26.887  1.00  0.00     0.060 A 
BRANCH  88  89
ATOM     89  S   UNL A   1      46.970  34.669  25.765  1.00  0.00     0.124 S 
ATOM     90  O   UNL A   1      48.290  34.223  25.337  1.00  0.00    -0.237 OA
ATOM     91  O   UNL A   1      45.926  34.633  24.745  1.00  0.00    -0.237 OA
ATOM     92  O   UNL A   1      46.956  35.859  26.614  1.00  0.00    -0.744 OA
ENDBRANCH  88  89
ENDBRANCH  56  81
ENDBRANCH  30  31
ENDBRANCH  23  25
ENDBRANCH  22  23
ENDBRANCH   1  22
TORSDOF 16
ENDMDL
