MODEL 1
REMARK VINA RESULT:     -11.0      0.000      0.000
REMARK SMILES Cc1ccc([C@H](C)[N@@H+](CC(=O)OCCOC(=O)c2ccc(-c3c4nc(c(-c5c(F)cc(S(=O)(=O)[O-])cc5F)c5ccc([nH]5)c(-c5c(F)cc(S(=O)(=O)[O-])cc5F)c5nc(c(-c6c(F)cc(S(=O)(=O)[O-])cc6F)c6ccc3[nH]6)C=C5)C=C4)cc2)CC(F)(F)F)cc1
REMARK SMILES IDX 13 1 12 2 10 3 11 4 9 5 8 6 6 8 7 9 5 10 1 11 2 12 3 13
REMARK SMILES IDX 90 14 4 15 89 16 84 17 85 18 86 19 87 20 88 21 14 22 15 23
REMARK SMILES IDX 16 24 17 25 18 26 19 27 83 28 20 29 82 30 21 31 22 32 23 33
REMARK SMILES IDX 76 34 24 35 81 36 75 37 77 38 25 39 80 40 74 41 73 42 26 44
REMARK SMILES IDX 60 45 39 46 59 47 40 48 43 49 58 50 78 51 41 52 42 53 57 55
REMARK SMILES IDX 79 56 44 57 27 58 28 59 37 60 29 61 30 62 36 63 38 64 31 65
REMARK SMILES IDX 32 66 33 67 34 68 35 69 61 70 62 71 71 72 63 73 64 74 70 75
REMARK SMILES IDX 72 76 65 77 66 78 67 79 68 80 69 81 45 82 46 83 55 84 47 85
REMARK SMILES IDX 48 86 54 87 56 88 49 89 50 90 51 91 52 92 53 93
REMARK H PARENT 8 7 77 43 43 54
REMARK Flexibility Score: inf
ROOT
ATOM      1  C   UNL A   1      36.257  30.416  31.583  1.00  0.00     0.274 C 
ENDROOT
BRANCH   1   2
ATOM      2  O   UNL A   1      36.058  31.702  32.233  1.00  0.00    -0.458 OA
BRANCH   2   3
ATOM      3  C   UNL A   1      35.294  32.604  31.565  1.00  0.00     0.361 C 
ATOM      4  O   UNL A   1      34.097  32.699  31.764  1.00  0.00    -0.245 OA
BRANCH   3   5
ATOM      5  C   UNL A   1      36.088  33.405  30.514  1.00  0.00     0.387 C 
BRANCH   5   6
ATOM      6  N   UNL A   1      35.434  33.444  29.204  1.00  0.00    -0.312 N 
ATOM      7  H   UNL A   1      34.528  32.978  29.144  1.00  0.00     0.349 HD
BRANCH   6   8
ATOM      8  C   UNL A   1      35.955  32.477  28.235  1.00  0.00     0.212 C 
ATOM      9  C   UNL A   1      37.420  32.108  28.410  1.00  0.00     0.081 C 
BRANCH   8  10
ATOM     10  C   UNL A   1      35.013  31.285  28.015  1.00  0.00     0.009 A 
ATOM     11  C   UNL A   1      32.916  28.210  25.831  1.00  0.00     0.044 C 
ATOM     12  C   UNL A   1      33.588  29.221  26.715  1.00  0.00    -0.051 A 
ATOM     13  C   UNL A   1      34.861  28.973  27.232  1.00  0.00     0.004 A 
ATOM     14  C   UNL A   1      32.979  30.454  26.979  1.00  0.00     0.004 A 
ATOM     15  C   UNL A   1      35.566  29.993  27.881  1.00  0.00     0.010 A 
ATOM     16  C   UNL A   1      33.678  31.475  27.638  1.00  0.00     0.010 A 
ENDBRANCH   8  10
ENDBRANCH   6   8
BRANCH   6  17
ATOM     17  C   UNL A   1      34.798  34.750  28.894  1.00  0.00     0.380 C 
BRANCH  17  18
ATOM     18  C   UNL A   1      33.293  35.143  28.941  1.00  0.00     0.438 C 
ATOM     19  F   UNL A   1      32.823  35.163  30.211  1.00  0.00    -0.165 F 
ATOM     20  F   UNL A   1      33.170  36.422  28.485  1.00  0.00    -0.165 F 
ATOM     21  F   UNL A   1      32.447  34.407  28.216  1.00  0.00    -0.165 F 
ENDBRANCH  17  18
ENDBRANCH   6  17
ENDBRANCH   5   6
ENDBRANCH   3   5
ENDBRANCH   2   3
ENDBRANCH   1   2
BRANCH   1  22
ATOM     22  C   UNL A   1      37.724  29.925  31.357  1.00  0.00     0.275 C 
BRANCH  22  23
ATOM     23  O   UNL A   1      37.821  29.066  30.193  1.00  0.00    -0.458 OA
BRANCH  23  24
ATOM     24  C   UNL A   1      38.849  28.155  30.129  1.00  0.00     0.338 C 
ATOM     25  O   UNL A   1      38.870  26.992  30.484  1.00  0.00    -0.246 OA
BRANCH  24  26
ATOM     26  C   UNL A   1      39.663  28.614  28.985  1.00  0.00     0.060 A 
ATOM     27  C   UNL A   1      39.427  28.696  27.632  1.00  0.00     0.016 A 
ATOM     28  C   UNL A   1      40.891  29.063  29.421  1.00  0.00     0.016 A 
ATOM     29  C   UNL A   1      40.578  28.854  26.826  1.00  0.00     0.010 A 
ATOM     30  C   UNL A   1      41.770  29.763  28.674  1.00  0.00     0.010 A 
ATOM     31  C   UNL A   1      41.799  29.229  27.426  1.00  0.00    -0.014 A 
BRANCH  31  32
ATOM     32  C   UNL A   1      43.092  28.505  27.340  1.00  0.00     0.031 A 
ATOM     33  C   UNL A   1      43.012  27.085  26.986  1.00  0.00     0.074 A 
ATOM     34  C   UNL A   1      44.228  29.218  27.131  1.00  0.00     0.049 A 
ATOM     35  N   UNL A   1      42.723  26.130  27.809  1.00  0.00    -0.248 NA
ATOM     36  C   UNL A   1      43.067  26.683  25.568  1.00  0.00     0.031 C 
ATOM     37  C   UNL A   1      45.589  28.742  26.940  1.00  0.00     0.029 A 
ATOM     38  N   UNL A   1      44.373  30.601  27.261  1.00  0.00    -0.354 N 
ATOM     39  C   UNL A   1      42.947  24.984  27.070  1.00  0.00     0.074 A 
ATOM     40  C   UNL A   1      42.795  25.382  25.674  1.00  0.00     0.031 C 
ATOM     41  C   UNL A   1      46.425  29.719  27.353  1.00  0.00     0.029 A 
ATOM     42  C   UNL A   1      45.639  30.882  27.780  1.00  0.00     0.049 A 
ATOM     43  H   UNL A   1      43.691  31.271  27.024  1.00  0.00     0.167 HD
ATOM     44  C   UNL A   1      43.958  24.121  27.401  1.00  0.00     0.037 A 
ATOM     45  C   UNL A   1      45.645  31.454  29.019  1.00  0.00     0.037 A 
ATOM     46  C   UNL A   1      44.987  24.799  28.198  1.00  0.00     0.049 A 
ATOM     47  C   UNL A   1      45.683  30.380  30.093  1.00  0.00     0.074 A 
ATOM     48  C   UNL A   1      46.256  25.250  27.871  1.00  0.00     0.029 A 
ATOM     49  N   UNL A   1      44.668  25.410  29.409  1.00  0.00    -0.354 N 
ATOM     50  N   UNL A   1      45.640  29.096  29.845  1.00  0.00    -0.248 NA
ATOM     51  C   UNL A   1      45.817  30.655  31.520  1.00  0.00     0.031 C 
ATOM     52  C   UNL A   1      46.669  26.182  28.857  1.00  0.00     0.029 A 
ATOM     53  C   UNL A   1      45.658  26.301  29.793  1.00  0.00     0.049 A 
ATOM     54  H   UNL A   1      43.848  25.233  29.923  1.00  0.00     0.167 HD
ATOM     55  C   UNL A   1      45.670  28.389  31.013  1.00  0.00     0.074 A 
ATOM     56  C   UNL A   1      45.829  29.411  32.033  1.00  0.00     0.031 C 
ATOM     57  C   UNL A   1      45.556  27.028  31.054  1.00  0.00     0.037 A 
BRANCH  44  58
ATOM     58  C   UNL A   1      44.155  22.865  26.574  1.00  0.00     0.058 A 
ATOM     59  C   UNL A   1      45.276  22.663  25.751  1.00  0.00     0.135 A 
ATOM     60  C   UNL A   1      43.241  21.780  26.623  1.00  0.00     0.135 A 
ATOM     61  F   UNL A   1      46.255  23.574  25.669  1.00  0.00    -0.206 F 
ATOM     62  C   UNL A   1      45.446  21.510  24.983  1.00  0.00     0.059 A 
ATOM     63  C   UNL A   1      43.374  20.632  25.841  1.00  0.00     0.059 A 
ATOM     64  F   UNL A   1      42.172  21.814  27.438  1.00  0.00    -0.206 F 
ATOM     65  C   UNL A   1      44.488  20.503  25.025  1.00  0.00     0.060 A 
BRANCH  65  66
ATOM     66  S   UNL A   1      44.739  19.019  24.031  1.00  0.00     0.124 S 
ATOM     67  O   UNL A   1      43.745  18.106  24.587  1.00  0.00    -0.237 OA
ATOM     68  O   UNL A   1      44.470  19.512  22.685  1.00  0.00    -0.237 OA
ATOM     69  O   UNL A   1      46.129  18.660  24.301  1.00  0.00    -0.744 OA
ENDBRANCH  65  66
ENDBRANCH  44  58
BRANCH  45  70
ATOM     70  C   UNL A   1      44.890  32.757  29.033  1.00  0.00     0.058 A 
ATOM     71  C   UNL A   1      45.371  33.785  28.185  1.00  0.00     0.135 A 
ATOM     72  C   UNL A   1      43.616  32.963  29.581  1.00  0.00     0.135 A 
ATOM     73  F   UNL A   1      46.588  33.671  27.626  1.00  0.00    -0.206 F 
ATOM     74  C   UNL A   1      44.607  34.894  27.820  1.00  0.00     0.059 A 
ATOM     75  C   UNL A   1      42.830  34.081  29.236  1.00  0.00     0.059 A 
ATOM     76  F   UNL A   1      43.072  32.042  30.391  1.00  0.00    -0.206 F 
ATOM     77  C   UNL A   1      43.321  35.022  28.329  1.00  0.00     0.060 A 
BRANCH  77  78
ATOM     78  S   UNL A   1      42.268  36.344  27.663  1.00  0.00     0.124 S 
ATOM     79  O   UNL A   1      42.580  37.451  28.560  1.00  0.00    -0.237 OA
ATOM     80  O   UNL A   1      42.772  36.484  26.299  1.00  0.00    -0.237 OA
ATOM     81  O   UNL A   1      40.927  35.785  27.794  1.00  0.00    -0.744 OA
ENDBRANCH  77  78
ENDBRANCH  45  70
BRANCH  57  82
ATOM     82  C   UNL A   1      45.443  26.229  32.324  1.00  0.00     0.058 A 
ATOM     83  C   UNL A   1      46.506  25.510  32.888  1.00  0.00     0.135 A 
ATOM     84  C   UNL A   1      44.250  26.278  33.083  1.00  0.00     0.135 A 
ATOM     85  F   UNL A   1      47.716  25.490  32.310  1.00  0.00    -0.206 F 
ATOM     86  C   UNL A   1      46.371  24.808  34.084  1.00  0.00     0.059 A 
ATOM     87  C   UNL A   1      44.115  25.642  34.310  1.00  0.00     0.059 A 
ATOM     88  F   UNL A   1      43.174  26.956  32.654  1.00  0.00    -0.206 F 
ATOM     89  C   UNL A   1      45.169  24.875  34.784  1.00  0.00     0.060 A 
BRANCH  89  90
ATOM     90  S   UNL A   1      44.981  23.984  36.335  1.00  0.00     0.124 S 
ATOM     91  O   UNL A   1      43.709  24.516  36.817  1.00  0.00    -0.237 OA
ATOM     92  O   UNL A   1      44.958  22.589  35.908  1.00  0.00    -0.237 OA
ATOM     93  O   UNL A   1      46.162  24.382  37.092  1.00  0.00    -0.744 OA
ENDBRANCH  89  90
ENDBRANCH  57  82
ENDBRANCH  31  32
ENDBRANCH  24  26
ENDBRANCH  23  24
ENDBRANCH  22  23
ENDBRANCH   1  22
TORSDOF 19
ENDMDL
MODEL 2
REMARK VINA RESULT:     -10.9      4.061      6.409
REMARK SMILES Cc1ccc([C@H](C)[N@@H+](CC(=O)OCCOC(=O)c2ccc(-c3c4nc(c(-c5c(F)cc(S(=O)(=O)[O-])cc5F)c5ccc([nH]5)c(-c5c(F)cc(S(=O)(=O)[O-])cc5F)c5nc(c(-c6c(F)cc(S(=O)(=O)[O-])cc6F)c6ccc3[nH]6)C=C5)C=C4)cc2)CC(F)(F)F)cc1
REMARK SMILES IDX 13 1 12 2 10 3 11 4 9 5 8 6 6 8 7 9 5 10 1 11 2 12 3 13
REMARK SMILES IDX 90 14 4 15 89 16 84 17 85 18 86 19 87 20 88 21 14 22 15 23
REMARK SMILES IDX 16 24 17 25 18 26 19 27 83 28 20 29 82 30 21 31 22 32 23 33
REMARK SMILES IDX 76 34 24 35 81 36 75 37 77 38 25 39 80 40 74 41 73 42 26 44
REMARK SMILES IDX 60 45 39 46 59 47 40 48 43 49 58 50 78 51 41 52 42 53 57 55
REMARK SMILES IDX 79 56 44 57 27 58 28 59 37 60 29 61 30 62 36 63 38 64 31 65
REMARK SMILES IDX 32 66 33 67 34 68 35 69 61 70 62 71 71 72 63 73 64 74 70 75
REMARK SMILES IDX 72 76 65 77 66 78 67 79 68 80 69 81 45 82 46 83 55 84 47 85
REMARK SMILES IDX 48 86 54 87 56 88 49 89 50 90 51 91 52 92 53 93
REMARK H PARENT 8 7 77 43 43 54
REMARK Flexibility Score: inf
ROOT
ATOM      1  C   UNL A   1      32.606  28.937  26.930  1.00  0.00     0.274 C 
ENDROOT
BRANCH   1   2
ATOM      2  O   UNL A   1      32.936  27.717  26.210  1.00  0.00    -0.458 OA
BRANCH   2   3
ATOM      3  C   UNL A   1      31.929  26.820  26.050  1.00  0.00     0.361 C 
ATOM      4  O   UNL A   1      31.196  26.511  26.973  1.00  0.00    -0.245 OA
BRANCH   3   5
ATOM      5  C   UNL A   1      31.881  26.213  24.634  1.00  0.00     0.387 C 
BRANCH   5   6
ATOM      6  N   UNL A   1      32.157  24.774  24.615  1.00  0.00    -0.312 N 
ATOM      7  H   UNL A   1      32.743  24.422  25.373  1.00  0.00     0.349 HD
BRANCH   6   8
ATOM      8  C   UNL A   1      33.198  24.367  23.669  1.00  0.00     0.212 C 
ATOM      9  C   UNL A   1      33.501  25.370  22.566  1.00  0.00     0.081 C 
BRANCH   8  10
ATOM     10  C   UNL A   1      34.435  23.777  24.359  1.00  0.00     0.009 A 
ATOM     11  C   UNL A   1      38.303  23.755  26.273  1.00  0.00     0.044 C 
ATOM     12  C   UNL A   1      36.950  23.617  25.638  1.00  0.00    -0.051 A 
ATOM     13  C   UNL A   1      35.791  23.797  26.396  1.00  0.00     0.004 A 
ATOM     14  C   UNL A   1      36.829  23.372  24.264  1.00  0.00     0.004 A 
ATOM     15  C   UNL A   1      34.544  23.870  25.764  1.00  0.00     0.010 A 
ATOM     16  C   UNL A   1      35.580  23.435  23.629  1.00  0.00     0.010 A 
ENDBRANCH   8  10
ENDBRANCH   6   8
BRANCH   6  17
ATOM     17  C   UNL A   1      31.020  23.944  25.089  1.00  0.00     0.380 C 
BRANCH  17  18
ATOM     18  C   UNL A   1      31.016  22.798  26.143  1.00  0.00     0.438 C 
ATOM     19  F   UNL A   1      31.886  21.815  25.812  1.00  0.00    -0.165 F 
ATOM     20  F   UNL A   1      31.468  23.305  27.326  1.00  0.00    -0.165 F 
ATOM     21  F   UNL A   1      29.843  22.218  26.411  1.00  0.00    -0.165 F 
ENDBRANCH  17  18
ENDBRANCH   6  17
ENDBRANCH   5   6
ENDBRANCH   3   5
ENDBRANCH   2   3
ENDBRANCH   1   2
BRANCH   1  22
ATOM     22  C   UNL A   1      33.551  30.171  26.761  1.00  0.00     0.275 C 
BRANCH  22  23
ATOM     23  O   UNL A   1      34.121  30.580  28.029  1.00  0.00    -0.458 OA
BRANCH  23  24
ATOM     24  C   UNL A   1      35.366  31.164  28.036  1.00  0.00     0.338 C 
ATOM     25  O   UNL A   1      35.670  32.330  27.875  1.00  0.00    -0.246 OA
BRANCH  24  26
ATOM     26  C   UNL A   1      36.168  30.285  28.910  1.00  0.00     0.060 A 
ATOM     27  C   UNL A   1      36.222  30.104  30.274  1.00  0.00     0.016 A 
ATOM     28  C   UNL A   1      36.999  29.486  28.154  1.00  0.00     0.016 A 
ATOM     29  C   UNL A   1      37.369  29.428  30.750  1.00  0.00     0.010 A 
ATOM     30  C   UNL A   1      37.679  28.417  28.618  1.00  0.00     0.010 A 
ATOM     31  C   UNL A   1      38.186  28.724  29.839  1.00  0.00    -0.014 A 
BRANCH  31  32
ATOM     32  C   UNL A   1      39.643  28.908  29.625  1.00  0.00     0.031 A 
ATOM     33  C   UNL A   1      40.337  27.812  28.944  1.00  0.00     0.074 A 
ATOM     34  C   UNL A   1      40.150  30.167  29.626  1.00  0.00     0.049 A 
ATOM     35  N   UNL A   1      40.729  26.716  29.508  1.00  0.00    -0.248 NA
ATOM     36  C   UNL A   1      40.452  27.824  27.473  1.00  0.00     0.031 C 
ATOM     37  C   UNL A   1      41.512  30.609  29.370  1.00  0.00     0.029 A 
ATOM     38  N   UNL A   1      39.505  31.319  30.083  1.00  0.00    -0.354 N 
ATOM     39  C   UNL A   1      41.475  26.091  28.527  1.00  0.00     0.074 A 
ATOM     40  C   UNL A   1      40.973  26.615  27.261  1.00  0.00     0.031 C 
ATOM     41  C   UNL A   1      41.693  31.775  30.028  1.00  0.00     0.029 A 
ATOM     42  C   UNL A   1      40.442  32.157  30.693  1.00  0.00     0.049 A 
ATOM     43  H   UNL A   1      38.543  31.510  29.990  1.00  0.00     0.167 HD
ATOM     44  C   UNL A   1      42.825  25.917  28.677  1.00  0.00     0.037 A 
ATOM     45  C   UNL A   1      40.262  32.352  32.032  1.00  0.00     0.037 A 
ATOM     46  C   UNL A   1      43.376  26.875  29.643  1.00  0.00     0.049 A 
ATOM     47  C   UNL A   1      41.015  31.296  32.822  1.00  0.00     0.074 A 
ATOM     48  C   UNL A   1      44.125  28.028  29.471  1.00  0.00     0.029 A 
ATOM     49  N   UNL A   1      42.904  26.921  30.954  1.00  0.00    -0.354 N 
ATOM     50  N   UNL A   1      41.675  30.306  32.277  1.00  0.00    -0.248 NA
ATOM     51  C   UNL A   1      41.128  31.290  34.278  1.00  0.00     0.031 C 
ATOM     52  C   UNL A   1      44.049  28.795  30.662  1.00  0.00     0.029 A 
ATOM     53  C   UNL A   1      43.256  28.113  31.568  1.00  0.00     0.049 A 
ATOM     54  H   UNL A   1      42.388  26.203  31.386  1.00  0.00     0.167 HD
ATOM     55  C   UNL A   1      42.226  29.517  33.246  1.00  0.00     0.074 A 
ATOM     56  C   UNL A   1      41.895  30.203  34.483  1.00  0.00     0.031 C 
ATOM     57  C   UNL A   1      42.903  28.365  32.961  1.00  0.00     0.037 A 
BRANCH  44  58
ATOM     58  C   UNL A   1      43.602  25.209  27.583  1.00  0.00     0.058 A 
ATOM     59  C   UNL A   1      43.728  23.811  27.523  1.00  0.00     0.135 A 
ATOM     60  C   UNL A   1      44.209  25.915  26.512  1.00  0.00     0.135 A 
ATOM     61  F   UNL A   1      43.141  23.017  28.428  1.00  0.00    -0.206 F 
ATOM     62  C   UNL A   1      44.455  23.165  26.521  1.00  0.00     0.059 A 
ATOM     63  C   UNL A   1      44.966  25.294  25.518  1.00  0.00     0.059 A 
ATOM     64  F   UNL A   1      44.088  27.250  26.409  1.00  0.00    -0.206 F 
ATOM     65  C   UNL A   1      45.079  23.912  25.527  1.00  0.00     0.060 A 
BRANCH  65  66
ATOM     66  S   UNL A   1      46.002  23.051  24.240  1.00  0.00     0.124 S 
ATOM     67  O   UNL A   1      46.979  24.057  23.838  1.00  0.00    -0.237 OA
ATOM     68  O   UNL A   1      46.531  21.903  24.967  1.00  0.00    -0.237 OA
ATOM     69  O   UNL A   1      44.983  22.744  23.238  1.00  0.00    -0.744 OA
ENDBRANCH  65  66
ENDBRANCH  44  58
BRANCH  45  70
ATOM     70  C   UNL A   1      38.911  32.950  32.329  1.00  0.00     0.058 A 
ATOM     71  C   UNL A   1      38.572  34.140  31.639  1.00  0.00     0.135 A 
ATOM     72  C   UNL A   1      37.859  32.310  32.999  1.00  0.00     0.135 A 
ATOM     73  F   UNL A   1      39.524  34.820  30.980  1.00  0.00    -0.206 F 
ATOM     74  C   UNL A   1      37.264  34.613  31.531  1.00  0.00     0.059 A 
ATOM     75  C   UNL A   1      36.531  32.776  32.914  1.00  0.00     0.059 A 
ATOM     76  F   UNL A   1      38.081  31.172  33.674  1.00  0.00    -0.206 F 
ATOM     77  C   UNL A   1      36.240  33.908  32.151  1.00  0.00     0.060 A 
BRANCH  77  78
ATOM     78  S   UNL A   1      34.529  34.410  31.806  1.00  0.00     0.124 S 
ATOM     79  O   UNL A   1      34.489  35.746  32.392  1.00  0.00    -0.237 OA
ATOM     80  O   UNL A   1      34.481  34.367  30.346  1.00  0.00    -0.237 OA
ATOM     81  O   UNL A   1      33.747  33.394  32.501  1.00  0.00    -0.744 OA
ENDBRANCH  77  78
ENDBRANCH  45  70
BRANCH  57  82
ATOM     82  C   UNL A   1      43.399  27.399  34.002  1.00  0.00     0.058 A 
ATOM     83  C   UNL A   1      42.569  26.504  34.691  1.00  0.00     0.135 A 
ATOM     84  C   UNL A   1      44.789  27.270  34.239  1.00  0.00     0.135 A 
ATOM     85  F   UNL A   1      41.248  26.460  34.459  1.00  0.00    -0.206 F 
ATOM     86  C   UNL A   1      43.071  25.600  35.625  1.00  0.00     0.059 A 
ATOM     87  C   UNL A   1      45.316  26.331  35.115  1.00  0.00     0.059 A 
ATOM     88  F   UNL A   1      45.680  28.057  33.618  1.00  0.00    -0.206 F 
ATOM     89  C   UNL A   1      44.446  25.526  35.835  1.00  0.00     0.060 A 
BRANCH  89  90
ATOM     90  S   UNL A   1      45.111  24.358  37.029  1.00  0.00     0.124 S 
ATOM     91  O   UNL A   1      44.772  23.084  36.402  1.00  0.00    -0.237 OA
ATOM     92  O   UNL A   1      46.532  24.690  37.052  1.00  0.00    -0.237 OA
ATOM     93  O   UNL A   1      44.380  24.678  38.250  1.00  0.00    -0.744 OA
ENDBRANCH  89  90
ENDBRANCH  57  82
ENDBRANCH  31  32
ENDBRANCH  24  26
ENDBRANCH  23  24
ENDBRANCH  22  23
ENDBRANCH   1  22
TORSDOF 19
ENDMDL
MODEL 3
REMARK VINA RESULT:     -10.5      1.637      2.814
REMARK SMILES Cc1ccc([C@H](C)[N@@H+](CC(=O)OCCOC(=O)c2ccc(-c3c4nc(c(-c5c(F)cc(S(=O)(=O)[O-])cc5F)c5ccc([nH]5)c(-c5c(F)cc(S(=O)(=O)[O-])cc5F)c5nc(c(-c6c(F)cc(S(=O)(=O)[O-])cc6F)c6ccc3[nH]6)C=C5)C=C4)cc2)CC(F)(F)F)cc1
REMARK SMILES IDX 13 1 12 2 10 3 11 4 9 5 8 6 6 8 7 9 5 10 1 11 2 12 3 13
REMARK SMILES IDX 90 14 4 15 89 16 84 17 85 18 86 19 87 20 88 21 14 22 15 23
REMARK SMILES IDX 16 24 17 25 18 26 19 27 83 28 20 29 82 30 21 31 22 32 23 33
REMARK SMILES IDX 76 34 24 35 81 36 75 37 77 38 25 39 80 40 74 41 73 42 26 44
REMARK SMILES IDX 60 45 39 46 59 47 40 48 43 49 58 50 78 51 41 52 42 53 57 55
REMARK SMILES IDX 79 56 44 57 27 58 28 59 37 60 29 61 30 62 36 63 38 64 31 65
REMARK SMILES IDX 32 66 33 67 34 68 35 69 61 70 62 71 71 72 63 73 64 74 70 75
REMARK SMILES IDX 72 76 65 77 66 78 67 79 68 80 69 81 45 82 46 83 55 84 47 85
REMARK SMILES IDX 48 86 54 87 56 88 49 89 50 90 51 91 52 92 53 93
REMARK H PARENT 8 7 77 43 43 54
REMARK Flexibility Score: inf
ROOT
ATOM      1  C   UNL A   1      36.765  30.788  30.657  1.00  0.00     0.274 C 
ENDROOT
BRANCH   1   2
ATOM      2  O   UNL A   1      36.008  31.307  31.785  1.00  0.00    -0.458 OA
BRANCH   2   3
ATOM      3  C   UNL A   1      35.025  32.197  31.493  1.00  0.00     0.361 C 
ATOM      4  O   UNL A   1      34.691  32.426  30.345  1.00  0.00    -0.245 OA
BRANCH   3   5
ATOM      5  C   UNL A   1      34.462  32.905  32.742  1.00  0.00     0.387 C 
BRANCH   5   6
ATOM      6  N   UNL A   1      34.863  34.311  32.837  1.00  0.00    -0.312 N 
ATOM      7  H   UNL A   1      35.397  34.676  32.048  1.00  0.00     0.349 HD
BRANCH   6   8
ATOM      8  C   UNL A   1      36.028  34.555  33.691  1.00  0.00     0.212 C 
ATOM      9  C   UNL A   1      35.944  33.958  35.089  1.00  0.00     0.081 C 
BRANCH   8  10
ATOM     10  C   UNL A   1      37.360  34.314  32.968  1.00  0.00     0.009 A 
ATOM     11  C   UNL A   1      40.164  32.391  30.311  1.00  0.00     0.044 C 
ATOM     12  C   UNL A   1      39.294  33.163  31.259  1.00  0.00    -0.051 A 
ATOM     13  C   UNL A   1      38.456  34.176  30.786  1.00  0.00     0.004 A 
ATOM     14  C   UNL A   1      39.257  32.836  32.620  1.00  0.00     0.004 A 
ATOM     15  C   UNL A   1      37.502  34.751  31.633  1.00  0.00     0.010 A 
ATOM     16  C   UNL A   1      38.309  33.417  33.475  1.00  0.00     0.010 A 
ENDBRANCH   8  10
ENDBRANCH   6   8
BRANCH   6  17
ATOM     17  C   UNL A   1      33.761  35.265  32.552  1.00  0.00     0.380 C 
BRANCH  17  18
ATOM     18  C   UNL A   1      33.464  36.056  31.245  1.00  0.00     0.438 C 
ATOM     19  F   UNL A   1      34.082  35.500  30.176  1.00  0.00    -0.165 F 
ATOM     20  F   UNL A   1      32.128  35.965  30.984  1.00  0.00    -0.165 F 
ATOM     21  F   UNL A   1      33.756  37.360  31.239  1.00  0.00    -0.165 F 
ENDBRANCH  17  18
ENDBRANCH   6  17
ENDBRANCH   5   6
ENDBRANCH   3   5
ENDBRANCH   2   3
ENDBRANCH   1   2
BRANCH   1  22
ATOM     22  C   UNL A   1      37.320  29.329  30.750  1.00  0.00     0.275 C 
BRANCH  22  23
ATOM     23  O   UNL A   1      37.858  28.885  29.480  1.00  0.00    -0.458 OA
BRANCH  23  24
ATOM     24  C   UNL A   1      38.914  28.005  29.483  1.00  0.00     0.338 C 
ATOM     25  O   UNL A   1      38.924  26.815  29.733  1.00  0.00    -0.246 OA
BRANCH  24  26
ATOM     26  C   UNL A   1      39.863  28.582  28.509  1.00  0.00     0.060 A 
ATOM     27  C   UNL A   1      39.778  28.874  27.167  1.00  0.00     0.016 A 
ATOM     28  C   UNL A   1      41.052  28.898  29.131  1.00  0.00     0.016 A 
ATOM     29  C   UNL A   1      41.015  29.087  26.515  1.00  0.00     0.010 A 
ATOM     30  C   UNL A   1      42.032  29.653  28.591  1.00  0.00     0.010 A 
ATOM     31  C   UNL A   1      42.177  29.305  27.286  1.00  0.00    -0.014 A 
BRANCH  31  32
ATOM     32  C   UNL A   1      43.444  28.535  27.223  1.00  0.00     0.031 A 
ATOM     33  C   UNL A   1      43.319  27.117  26.876  1.00  0.00     0.074 A 
ATOM     34  C   UNL A   1      44.608  29.205  27.028  1.00  0.00     0.049 A 
ATOM     35  N   UNL A   1      42.983  26.177  27.700  1.00  0.00    -0.248 NA
ATOM     36  C   UNL A   1      43.380  26.705  25.461  1.00  0.00     0.031 C 
ATOM     37  C   UNL A   1      45.954  28.680  26.860  1.00  0.00     0.029 A 
ATOM     38  N   UNL A   1      44.801  30.584  27.153  1.00  0.00    -0.354 N 
ATOM     39  C   UNL A   1      43.176  25.020  26.971  1.00  0.00     0.074 A 
ATOM     40  C   UNL A   1      43.060  25.415  25.570  1.00  0.00     0.031 C 
ATOM     41  C   UNL A   1      46.818  29.629  27.281  1.00  0.00     0.029 A 
ATOM     42  C   UNL A   1      46.068  30.822  27.690  1.00  0.00     0.049 A 
ATOM     43  H   UNL A   1      44.147  31.276  26.902  1.00  0.00     0.167 HD
ATOM     44  C   UNL A   1      44.151  24.124  27.322  1.00  0.00     0.037 A 
ATOM     45  C   UNL A   1      46.075  31.400  28.926  1.00  0.00     0.037 A 
ATOM     46  C   UNL A   1      45.191  24.768  28.131  1.00  0.00     0.049 A 
ATOM     47  C   UNL A   1      46.059  30.333  30.006  1.00  0.00     0.074 A 
ATOM     48  C   UNL A   1      46.480  25.172  27.820  1.00  0.00     0.029 A 
ATOM     49  N   UNL A   1      44.876  25.398  29.334  1.00  0.00    -0.354 N 
ATOM     50  N   UNL A   1      45.973  29.049  29.764  1.00  0.00    -0.248 NA
ATOM     51  C   UNL A   1      46.181  30.611  31.433  1.00  0.00     0.031 C 
ATOM     52  C   UNL A   1      46.912  26.094  28.808  1.00  0.00     0.029 A 
ATOM     53  C   UNL A   1      45.892  26.255  29.728  1.00  0.00     0.049 A 
ATOM     54  H   UNL A   1      44.042  25.253  29.836  1.00  0.00     0.167 HD
ATOM     55  C   UNL A   1      45.960  28.349  30.936  1.00  0.00     0.074 A 
ATOM     56  C   UNL A   1      46.141  29.370  31.953  1.00  0.00     0.031 C 
ATOM     57  C   UNL A   1      45.797  26.993  30.983  1.00  0.00     0.037 A 
BRANCH  44  58
ATOM     58  C   UNL A   1      44.315  22.856  26.505  1.00  0.00     0.058 A 
ATOM     59  C   UNL A   1      45.426  22.623  25.677  1.00  0.00     0.135 A 
ATOM     60  C   UNL A   1      43.377  21.792  26.568  1.00  0.00     0.135 A 
ATOM     61  F   UNL A   1      46.425  23.510  25.582  1.00  0.00    -0.206 F 
ATOM     62  C   UNL A   1      45.566  21.459  24.918  1.00  0.00     0.059 A 
ATOM     63  C   UNL A   1      43.480  20.635  25.796  1.00  0.00     0.059 A 
ATOM     64  F   UNL A   1      42.314  21.857  27.389  1.00  0.00    -0.206 F 
ATOM     65  C   UNL A   1      44.586  20.474  24.975  1.00  0.00     0.060 A 
BRANCH  65  66
ATOM     66  S   UNL A   1      44.798  18.977  23.992  1.00  0.00     0.124 S 
ATOM     67  O   UNL A   1      46.206  18.662  24.212  1.00  0.00    -0.237 OA
ATOM     68  O   UNL A   1      43.838  18.072  24.614  1.00  0.00    -0.237 OA
ATOM     69  O   UNL A   1      44.465  19.409  22.637  1.00  0.00    -0.744 OA
ENDBRANCH  65  66
ENDBRANCH  44  58
BRANCH  45  70
ATOM     70  C   UNL A   1      45.368  32.730  28.921  1.00  0.00     0.058 A 
ATOM     71  C   UNL A   1      45.945  33.760  28.138  1.00  0.00     0.135 A 
ATOM     72  C   UNL A   1      44.065  32.970  29.381  1.00  0.00     0.135 A 
ATOM     73  F   UNL A   1      47.195  33.615  27.666  1.00  0.00    -0.206 F 
ATOM     74  C   UNL A   1      45.249  34.905  27.749  1.00  0.00     0.059 A 
ATOM     75  C   UNL A   1      43.346  34.124  29.011  1.00  0.00     0.059 A 
ATOM     76  F   UNL A   1      43.432  32.050  30.124  1.00  0.00    -0.206 F 
ATOM     77  C   UNL A   1      43.935  35.069  28.168  1.00  0.00     0.060 A 
BRANCH  77  78
ATOM     78  S   UNL A   1      42.980  36.445  27.464  1.00  0.00     0.124 S 
ATOM     79  O   UNL A   1      41.775  36.419  28.286  1.00  0.00    -0.237 OA
ATOM     80  O   UNL A   1      43.867  37.584  27.690  1.00  0.00    -0.237 OA
ATOM     81  O   UNL A   1      42.805  36.038  26.075  1.00  0.00    -0.744 OA
ENDBRANCH  77  78
ENDBRANCH  45  70
BRANCH  57  82
ATOM     82  C   UNL A   1      45.636  26.206  32.255  1.00  0.00     0.058 A 
ATOM     83  C   UNL A   1      44.423  26.089  32.949  1.00  0.00     0.135 A 
ATOM     84  C   UNL A   1      46.712  25.428  32.745  1.00  0.00     0.135 A 
ATOM     85  F   UNL A   1      43.309  26.693  32.508  1.00  0.00    -0.206 F 
ATOM     86  C   UNL A   1      44.304  25.323  34.106  1.00  0.00     0.059 A 
ATOM     87  C   UNL A   1      46.598  24.606  33.857  1.00  0.00     0.059 A 
ATOM     88  F   UNL A   1      47.913  25.442  32.148  1.00  0.00    -0.206 F 
ATOM     89  C   UNL A   1      45.400  24.591  34.556  1.00  0.00     0.060 A 
BRANCH  89  90
ATOM     90  S   UNL A   1      45.262  23.588  36.043  1.00  0.00     0.124 S 
ATOM     91  O   UNL A   1      44.573  22.408  35.529  1.00  0.00    -0.237 OA
ATOM     92  O   UNL A   1      46.654  23.386  36.431  1.00  0.00    -0.237 OA
ATOM     93  O   UNL A   1      44.485  24.434  36.943  1.00  0.00    -0.744 OA
ENDBRANCH  89  90
ENDBRANCH  57  82
ENDBRANCH  31  32
ENDBRANCH  24  26
ENDBRANCH  23  24
ENDBRANCH  22  23
ENDBRANCH   1  22
TORSDOF 19
ENDMDL
