MODEL 1
REMARK VINA RESULT:     -11.0      0.000      0.000
REMARK SMILES O=C(OCCOC(=O)C1CCN(C(=O)COc2ccc(Cl)cc2Cl)CC1)c1ccc(-c2c3nc(c(-c4c(F)cc(S(=O)(=O)[O-])cc4F)c4ccc([nH]4)c(-c4c(F)cc(S(=O)(=O)[O-])cc4F)c4nc(c(-c5c(F)cc(S(=O)(=O)[O-])cc5F)c5ccc2[nH]5)C=C4)C=C3)cc1
REMARK SMILES IDX 4 1 3 2 2 3 1 4 27 5 28 6 92 7 29 8 91 9 30 10 31 11 32 12
REMARK SMILES IDX 85 13 33 14 90 15 84 16 86 17 34 18 89 19 83 20 82 21 35 23
REMARK SMILES IDX 69 24 48 25 68 26 49 27 52 28 67 29 87 30 50 31 51 32 66 34
REMARK SMILES IDX 88 35 53 36 36 37 37 38 46 39 38 40 39 41 45 42 47 43 40 44
REMARK SMILES IDX 41 45 42 46 43 47 44 48 70 49 71 50 80 51 72 52 73 53 79 54
REMARK SMILES IDX 81 55 74 56 75 57 76 58 77 59 78 60 54 61 55 62 64 63 56 64
REMARK SMILES IDX 57 65 63 66 65 67 58 68 59 69 60 70 61 71 62 72 5 73 6 74
REMARK SMILES IDX 7 75 8 76 9 77 10 78 26 79 11 80 25 81 12 82 13 83 14 84
REMARK SMILES IDX 15 85 16 86 17 87 18 88 23 89 19 90 22 91 24 92 20 93 21 94
REMARK H PARENT 86 22 52 33
REMARK Flexibility Score: inf
ROOT
ATOM      1  C   UNL A   1      32.123  30.771  26.870  1.00  0.00     0.275 C 
ENDROOT
BRANCH   1   2
ATOM      2  O   UNL A   1      33.510  30.637  27.192  1.00  0.00    -0.458 OA
BRANCH   2   3
ATOM      3  C   UNL A   1      34.196  29.559  27.626  1.00  0.00     0.338 C 
ATOM      4  O   UNL A   1      33.591  28.487  27.681  1.00  0.00    -0.246 OA
BRANCH   3   5
ATOM      5  C   UNL A   1      35.610  29.591  28.140  1.00  0.00     0.060 A 
ATOM      6  C   UNL A   1      36.072  29.266  29.416  1.00  0.00     0.016 A 
ATOM      7  C   UNL A   1      36.579  29.907  27.180  1.00  0.00     0.016 A 
ATOM      8  C   UNL A   1      37.446  29.138  29.684  1.00  0.00     0.010 A 
ATOM      9  C   UNL A   1      37.934  29.661  27.412  1.00  0.00     0.010 A 
ATOM     10  C   UNL A   1      38.396  29.276  28.669  1.00  0.00    -0.014 A 
BRANCH  10  11
ATOM     11  C   UNL A   1      39.848  29.082  28.944  1.00  0.00     0.031 A 
ATOM     12  C   UNL A   1      40.482  27.737  28.680  1.00  0.00     0.074 A 
ATOM     13  C   UNL A   1      40.604  30.099  29.421  1.00  0.00     0.049 A 
ATOM     14  N   UNL A   1      41.746  27.401  28.722  1.00  0.00    -0.248 NA
ATOM     15  C   UNL A   1      39.586  26.608  28.368  1.00  0.00     0.031 C 
ATOM     16  C   UNL A   1      40.108  31.411  29.850  1.00  0.00     0.029 A 
ATOM     17  N   UNL A   1      41.962  30.196  29.615  1.00  0.00    -0.354 N 
ATOM     18  C   UNL A   1      41.779  26.048  28.411  1.00  0.00     0.074 A 
ATOM     19  C   UNL A   1      40.417  25.583  28.362  1.00  0.00     0.031 C 
ATOM     20  C   UNL A   1      41.143  32.187  30.217  1.00  0.00     0.029 A 
ATOM     21  C   UNL A   1      42.381  31.440  30.034  1.00  0.00     0.049 A 
ATOM     22  H   UNL A   1      42.579  29.443  29.467  1.00  0.00     0.167 HD
ATOM     23  C   UNL A   1      42.835  25.274  28.073  1.00  0.00     0.037 A 
ATOM     24  C   UNL A   1      43.625  31.934  30.203  1.00  0.00     0.037 A 
ATOM     25  C   UNL A   1      44.189  25.740  28.082  1.00  0.00     0.049 A 
ATOM     26  C   UNL A   1      44.798  31.062  29.828  1.00  0.00     0.074 A 
ATOM     27  C   UNL A   1      45.340  25.065  27.729  1.00  0.00     0.029 A 
ATOM     28  N   UNL A   1      44.565  27.020  28.462  1.00  0.00    -0.354 N 
ATOM     29  N   UNL A   1      44.797  29.827  29.381  1.00  0.00    -0.248 NA
ATOM     30  C   UNL A   1      46.136  31.659  29.937  1.00  0.00     0.031 C 
ATOM     31  C   UNL A   1      46.421  25.933  27.923  1.00  0.00     0.029 A 
ATOM     32  C   UNL A   1      45.934  27.156  28.360  1.00  0.00     0.049 A 
ATOM     33  H   UNL A   1      43.947  27.726  28.760  1.00  0.00     0.167 HD
ATOM     34  C   UNL A   1      46.127  29.514  29.122  1.00  0.00     0.074 A 
ATOM     35  C   UNL A   1      46.901  30.697  29.442  1.00  0.00     0.031 C 
ATOM     36  C   UNL A   1      46.667  28.358  28.663  1.00  0.00     0.037 A 
BRANCH  23  37
ATOM     37  C   UNL A   1      42.522  23.887  27.586  1.00  0.00     0.058 A 
ATOM     38  C   UNL A   1      42.458  22.810  28.489  1.00  0.00     0.135 A 
ATOM     39  C   UNL A   1      42.344  23.612  26.224  1.00  0.00     0.135 A 
ATOM     40  F   UNL A   1      42.654  23.015  29.803  1.00  0.00    -0.206 F 
ATOM     41  C   UNL A   1      42.277  21.504  28.055  1.00  0.00     0.059 A 
ATOM     42  C   UNL A   1      42.130  22.313  25.769  1.00  0.00     0.059 A 
ATOM     43  F   UNL A   1      42.405  24.602  25.320  1.00  0.00    -0.206 F 
ATOM     44  C   UNL A   1      42.118  21.264  26.691  1.00  0.00     0.060 A 
BRANCH  44  45
ATOM     45  S   UNL A   1      41.896  19.559  26.144  1.00  0.00     0.124 S 
ATOM     46  O   UNL A   1      42.773  19.511  24.978  1.00  0.00    -0.237 OA
ATOM     47  O   UNL A   1      42.346  18.798  27.306  1.00  0.00    -0.237 OA
ATOM     48  O   UNL A   1      40.467  19.477  25.859  1.00  0.00    -0.744 OA
ENDBRANCH  44  45
ENDBRANCH  23  37
BRANCH  24  49
ATOM     49  C   UNL A   1      43.845  33.335  30.673  1.00  0.00     0.058 A 
ATOM     50  C   UNL A   1      43.967  33.636  32.040  1.00  0.00     0.135 A 
ATOM     51  C   UNL A   1      43.885  34.410  29.771  1.00  0.00     0.135 A 
ATOM     52  F   UNL A   1      43.942  32.647  32.947  1.00  0.00    -0.206 F 
ATOM     53  C   UNL A   1      44.066  34.947  32.499  1.00  0.00     0.059 A 
ATOM     54  C   UNL A   1      44.007  35.729  30.203  1.00  0.00     0.059 A 
ATOM     55  F   UNL A   1      43.799  34.182  28.452  1.00  0.00    -0.206 F 
ATOM     56  C   UNL A   1      44.075  35.989  31.572  1.00  0.00     0.060 A 
BRANCH  56  57
ATOM     57  S   UNL A   1      44.194  37.689  32.178  1.00  0.00     0.124 S 
ATOM     58  O   UNL A   1      43.821  38.450  30.991  1.00  0.00    -0.237 OA
ATOM     59  O   UNL A   1      43.226  37.694  33.270  1.00  0.00    -0.237 OA
ATOM     60  O   UNL A   1      45.591  37.802  32.588  1.00  0.00    -0.744 OA
ENDBRANCH  56  57
ENDBRANCH  24  49
BRANCH  36  61
ATOM     61  C   UNL A   1      48.152  28.325  28.448  1.00  0.00     0.058 A 
ATOM     62  C   UNL A   1      49.029  27.917  29.461  1.00  0.00     0.135 A 
ATOM     63  C   UNL A   1      48.691  28.637  27.190  1.00  0.00     0.135 A 
ATOM     64  F   UNL A   1      48.559  27.611  30.681  1.00  0.00    -0.206 F 
ATOM     65  C   UNL A   1      50.399  27.842  29.244  1.00  0.00     0.059 A 
ATOM     66  C   UNL A   1      50.055  28.538  26.940  1.00  0.00     0.059 A 
ATOM     67  F   UNL A   1      47.888  29.018  26.183  1.00  0.00    -0.206 F 
ATOM     68  C   UNL A   1      50.902  28.153  27.978  1.00  0.00     0.060 A 
BRANCH  68  69
ATOM     69  S   UNL A   1      52.677  28.011  27.696  1.00  0.00     0.124 S 
ATOM     70  O   UNL A   1      52.729  27.808  26.252  1.00  0.00    -0.237 OA
ATOM     71  O   UNL A   1      53.175  29.297  28.174  1.00  0.00    -0.237 OA
ATOM     72  O   UNL A   1      53.059  26.859  28.507  1.00  0.00    -0.744 OA
ENDBRANCH  68  69
ENDBRANCH  36  61
ENDBRANCH  10  11
ENDBRANCH   3   5
ENDBRANCH   2   3
ENDBRANCH   1   2
BRANCH   1  73
ATOM     73  C   UNL A   1      31.752  30.375  25.438  1.00  0.00     0.274 C 
BRANCH  73  74
ATOM     74  O   UNL A   1      31.766  28.965  25.144  1.00  0.00    -0.462 OA
BRANCH  74  75
ATOM     75  C   UNL A   1      32.321  28.622  23.939  1.00  0.00     0.309 C 
ATOM     76  O   UNL A   1      33.401  29.035  23.542  1.00  0.00    -0.252 OA
BRANCH  75  77
ATOM     77  C   UNL A   1      31.348  27.817  23.071  1.00  0.00     0.103 C 
ATOM     78  C   UNL A   1      30.230  27.123  23.836  1.00  0.00     0.037 C 
ATOM     79  C   UNL A   1      32.077  26.784  22.193  1.00  0.00     0.037 C 
ATOM     80  C   UNL A   1      30.705  25.872  24.552  1.00  0.00     0.120 C 
ATOM     81  C   UNL A   1      32.565  25.571  22.983  1.00  0.00     0.120 C 
ATOM     82  N   UNL A   1      31.491  24.966  23.757  1.00  0.00    -0.340 N 
ATOM     83  C   UNL A   1      31.511  23.640  24.186  1.00  0.00     0.260 C 
ATOM     84  O   UNL A   1      31.015  23.289  25.262  1.00  0.00    -0.271 OA
BRANCH  83  85
ATOM     85  C   UNL A   1      32.088  22.582  23.245  1.00  0.00     0.329 C 
BRANCH  85  86
ATOM     86  O   UNL A   1      33.090  21.705  23.722  1.00  0.00    -0.482 OA
BRANCH  86  87
ATOM     87  C   UNL A   1      34.286  22.197  24.172  1.00  0.00     0.138 A 
ATOM     88  C   UNL A   1      35.234  22.878  23.399  1.00  0.00     0.049 A 
ATOM     89  C   UNL A   1      34.541  22.032  25.545  1.00  0.00     0.084 A 
ATOM     90  C   UNL A   1      36.371  23.437  23.996  1.00  0.00     0.024 A 
ATOM     91  C   UNL A   1      35.689  22.562  26.137  1.00  0.00     0.045 A 
ATOM     92  Cl  UNL A   1      33.444  21.154  26.560  1.00  0.00    -0.080 Cl
ATOM     93  C   UNL A   1      36.591  23.278  25.359  1.00  0.00     0.042 A 
ATOM     94  Cl  UNL A   1      37.988  23.965  26.088  1.00  0.00    -0.084 Cl
ENDBRANCH  86  87
ENDBRANCH  85  86
ENDBRANCH  83  85
ENDBRANCH  75  77
ENDBRANCH  74  75
ENDBRANCH  73  74
ENDBRANCH   1  73
TORSDOF 17
ENDMDL
MODEL 2
REMARK VINA RESULT:     -11.0      4.678      9.121
REMARK SMILES O=C(OCCOC(=O)C1CCN(C(=O)COc2ccc(Cl)cc2Cl)CC1)c1ccc(-c2c3nc(c(-c4c(F)cc(S(=O)(=O)[O-])cc4F)c4ccc([nH]4)c(-c4c(F)cc(S(=O)(=O)[O-])cc4F)c4nc(c(-c5c(F)cc(S(=O)(=O)[O-])cc5F)c5ccc2[nH]5)C=C4)C=C3)cc1
REMARK SMILES IDX 4 1 3 2 2 3 1 4 27 5 28 6 92 7 29 8 91 9 30 10 31 11 32 12
REMARK SMILES IDX 85 13 33 14 90 15 84 16 86 17 34 18 89 19 83 20 82 21 35 23
REMARK SMILES IDX 69 24 48 25 68 26 49 27 52 28 67 29 87 30 50 31 51 32 66 34
REMARK SMILES IDX 88 35 53 36 36 37 37 38 46 39 38 40 39 41 45 42 47 43 40 44
REMARK SMILES IDX 41 45 42 46 43 47 44 48 70 49 71 50 80 51 72 52 73 53 79 54
REMARK SMILES IDX 81 55 74 56 75 57 76 58 77 59 78 60 54 61 55 62 64 63 56 64
REMARK SMILES IDX 57 65 63 66 65 67 58 68 59 69 60 70 61 71 62 72 5 73 6 74
REMARK SMILES IDX 7 75 8 76 9 77 10 78 26 79 11 80 25 81 12 82 13 83 14 84
REMARK SMILES IDX 15 85 16 86 17 87 18 88 23 89 19 90 22 91 24 92 20 93 21 94
REMARK H PARENT 86 22 52 33
REMARK Flexibility Score: inf
ROOT
ATOM      1  C   UNL A   1      32.890  30.464  26.153  1.00  0.00     0.275 C 
ENDROOT
BRANCH   1   2
ATOM      2  O   UNL A   1      33.148  30.930  27.481  1.00  0.00    -0.458 OA
BRANCH   2   3
ATOM      3  C   UNL A   1      34.088  31.789  27.928  1.00  0.00     0.338 C 
ATOM      4  O   UNL A   1      33.793  32.985  27.960  1.00  0.00    -0.246 OA
BRANCH   3   5
ATOM      5  C   UNL A   1      35.496  31.407  28.293  1.00  0.00     0.060 A 
ATOM      6  C   UNL A   1      36.636  32.213  28.302  1.00  0.00     0.016 A 
ATOM      7  C   UNL A   1      35.649  30.096  28.761  1.00  0.00     0.016 A 
ATOM      8  C   UNL A   1      37.840  31.768  28.873  1.00  0.00     0.010 A 
ATOM      9  C   UNL A   1      36.805  29.698  29.437  1.00  0.00     0.010 A 
ATOM     10  C   UNL A   1      37.925  30.524  29.503  1.00  0.00    -0.014 A 
BRANCH  10  11
ATOM     11  C   UNL A   1      39.188  30.080  30.158  1.00  0.00     0.031 A 
ATOM     12  C   UNL A   1      39.536  30.601  31.533  1.00  0.00     0.074 A 
ATOM     13  C   UNL A   1      40.021  29.211  29.539  1.00  0.00     0.049 A 
ATOM     14  N   UNL A   1      40.509  30.237  32.328  1.00  0.00    -0.248 NA
ATOM     15  C   UNL A   1      38.717  31.700  32.074  1.00  0.00     0.031 C 
ATOM     16  C   UNL A   1      39.887  28.725  28.161  1.00  0.00     0.029 A 
ATOM     17  N   UNL A   1      41.146  28.564  29.993  1.00  0.00    -0.354 N 
ATOM     18  C   UNL A   1      40.384  31.038  33.456  1.00  0.00     0.074 A 
ATOM     19  C   UNL A   1      39.370  32.021  33.176  1.00  0.00     0.031 C 
ATOM     20  C   UNL A   1      40.862  27.837  27.898  1.00  0.00     0.029 A 
ATOM     21  C   UNL A   1      41.682  27.670  29.091  1.00  0.00     0.049 A 
ATOM     22  H   UNL A   1      41.534  28.726  30.884  1.00  0.00     0.167 HD
ATOM     23  C   UNL A   1      40.967  30.904  34.668  1.00  0.00     0.037 A 
ATOM     24  C   UNL A   1      42.689  26.783  29.230  1.00  0.00     0.037 A 
ATOM     25  C   UNL A   1      41.948  29.904  34.966  1.00  0.00     0.049 A 
ATOM     26  C   UNL A   1      43.337  26.644  30.586  1.00  0.00     0.074 A 
ATOM     27  C   UNL A   1      42.586  29.645  36.161  1.00  0.00     0.029 A 
ATOM     28  N   UNL A   1      42.424  28.987  34.041  1.00  0.00    -0.354 N 
ATOM     29  N   UNL A   1      43.090  27.310  31.690  1.00  0.00    -0.248 NA
ATOM     30  C   UNL A   1      44.369  25.607  30.730  1.00  0.00     0.031 C 
ATOM     31  C   UNL A   1      43.473  28.583  35.952  1.00  0.00     0.029 A 
ATOM     32  C   UNL A   1      43.356  28.162  34.635  1.00  0.00     0.049 A 
ATOM     33  H   UNL A   1      42.139  28.933  33.100  1.00  0.00     0.167 HD
ATOM     34  C   UNL A   1      43.907  26.749  32.666  1.00  0.00     0.074 A 
ATOM     35  C   UNL A   1      44.640  25.676  32.025  1.00  0.00     0.031 C 
ATOM     36  C   UNL A   1      44.046  27.086  33.972  1.00  0.00     0.037 A 
BRANCH  23  37
ATOM     37  C   UNL A   1      40.470  31.814  35.756  1.00  0.00     0.058 A 
ATOM     38  C   UNL A   1      41.249  32.903  36.189  1.00  0.00     0.135 A 
ATOM     39  C   UNL A   1      39.253  31.578  36.410  1.00  0.00     0.135 A 
ATOM     40  F   UNL A   1      42.438  33.154  35.616  1.00  0.00    -0.206 F 
ATOM     41  C   UNL A   1      40.864  33.694  37.261  1.00  0.00     0.059 A 
ATOM     42  C   UNL A   1      38.832  32.379  37.469  1.00  0.00     0.059 A 
ATOM     43  F   UNL A   1      38.477  30.547  36.043  1.00  0.00    -0.206 F 
ATOM     44  C   UNL A   1      39.654  33.422  37.899  1.00  0.00     0.060 A 
BRANCH  44  45
ATOM     45  S   UNL A   1      39.175  34.454  39.299  1.00  0.00     0.124 S 
ATOM     46  O   UNL A   1      37.939  33.808  39.728  1.00  0.00    -0.237 OA
ATOM     47  O   UNL A   1      40.314  34.302  40.202  1.00  0.00    -0.237 OA
ATOM     48  O   UNL A   1      39.021  35.779  38.709  1.00  0.00    -0.744 OA
ENDBRANCH  44  45
ENDBRANCH  23  37
BRANCH  24  49
ATOM     49  C   UNL A   1      43.106  25.900  28.100  1.00  0.00     0.058 A 
ATOM     50  C   UNL A   1      42.461  24.677  27.852  1.00  0.00     0.135 A 
ATOM     51  C   UNL A   1      44.193  26.233  27.277  1.00  0.00     0.135 A 
ATOM     52  F   UNL A   1      41.412  24.310  28.604  1.00  0.00    -0.206 F 
ATOM     53  C   UNL A   1      42.907  23.795  26.870  1.00  0.00     0.059 A 
ATOM     54  C   UNL A   1      44.644  25.379  26.271  1.00  0.00     0.059 A 
ATOM     55  F   UNL A   1      44.833  27.400  27.448  1.00  0.00    -0.206 F 
ATOM     56  C   UNL A   1      44.007  24.152  26.090  1.00  0.00     0.060 A 
BRANCH  56  57
ATOM     57  S   UNL A   1      44.585  22.996  24.825  1.00  0.00     0.124 S 
ATOM     58  O   UNL A   1      45.485  23.840  24.046  1.00  0.00    -0.237 OA
ATOM     59  O   UNL A   1      45.220  21.955  25.627  1.00  0.00    -0.237 OA
ATOM     60  O   UNL A   1      43.354  22.594  24.151  1.00  0.00    -0.744 OA
ENDBRANCH  56  57
ENDBRANCH  24  49
BRANCH  36  61
ATOM     61  C   UNL A   1      44.994  26.269  34.800  1.00  0.00     0.058 A 
ATOM     62  C   UNL A   1      46.332  26.650  34.971  1.00  0.00     0.135 A 
ATOM     63  C   UNL A   1      44.535  25.134  35.486  1.00  0.00     0.135 A 
ATOM     64  F   UNL A   1      46.815  27.728  34.332  1.00  0.00    -0.206 F 
ATOM     65  C   UNL A   1      47.194  25.918  35.777  1.00  0.00     0.059 A 
ATOM     66  C   UNL A   1      45.372  24.404  36.323  1.00  0.00     0.059 A 
ATOM     67  F   UNL A   1      43.257  24.739  35.366  1.00  0.00    -0.206 F 
ATOM     68  C   UNL A   1      46.703  24.797  36.451  1.00  0.00     0.060 A 
BRANCH  68  69
ATOM     69  S   UNL A   1      47.821  23.879  37.528  1.00  0.00     0.124 S 
ATOM     70  O   UNL A   1      48.687  24.942  38.026  1.00  0.00    -0.237 OA
ATOM     71  O   UNL A   1      46.907  23.295  38.505  1.00  0.00    -0.237 OA
ATOM     72  O   UNL A   1      48.454  22.923  36.623  1.00  0.00    -0.744 OA
ENDBRANCH  68  69
ENDBRANCH  36  61
ENDBRANCH  10  11
ENDBRANCH   3   5
ENDBRANCH   2   3
ENDBRANCH   1   2
BRANCH   1  73
ATOM     73  C   UNL A   1      31.490  29.886  25.933  1.00  0.00     0.274 C 
BRANCH  73  74
ATOM     74  O   UNL A   1      31.418  28.466  25.693  1.00  0.00    -0.462 OA
BRANCH  74  75
ATOM     75  C   UNL A   1      31.663  27.673  26.783  1.00  0.00     0.309 C 
ATOM     76  O   UNL A   1      31.187  27.869  27.891  1.00  0.00    -0.252 OA
BRANCH  75  77
ATOM     77  C   UNL A   1      32.748  26.630  26.497  1.00  0.00     0.103 C 
ATOM     78  C   UNL A   1      33.964  27.159  25.749  1.00  0.00     0.037 C 
ATOM     79  C   UNL A   1      32.190  25.404  25.752  1.00  0.00     0.037 C 
ATOM     80  C   UNL A   1      33.695  27.357  24.268  1.00  0.00     0.120 C 
ATOM     81  C   UNL A   1      31.901  25.685  24.278  1.00  0.00     0.120 C 
ATOM     82  N   UNL A   1      33.059  26.251  23.602  1.00  0.00    -0.340 N 
ATOM     83  C   UNL A   1      33.251  26.180  22.224  1.00  0.00     0.260 C 
ATOM     84  O   UNL A   1      33.798  27.087  21.588  1.00  0.00    -0.271 OA
BRANCH  83  85
ATOM     85  C   UNL A   1      32.845  24.895  21.501  1.00  0.00     0.329 C 
BRANCH  85  86
ATOM     86  O   UNL A   1      33.663  23.746  21.622  1.00  0.00    -0.482 OA
BRANCH  86  87
ATOM     87  C   UNL A   1      33.336  22.754  22.507  1.00  0.00     0.138 A 
ATOM     88  C   UNL A   1      32.292  21.834  22.358  1.00  0.00     0.049 A 
ATOM     89  C   UNL A   1      34.168  22.639  23.636  1.00  0.00     0.084 A 
ATOM     90  C   UNL A   1      32.125  20.789  23.275  1.00  0.00     0.024 A 
ATOM     91  C   UNL A   1      33.985  21.616  24.568  1.00  0.00     0.045 A 
ATOM     92  Cl  UNL A   1      35.449  23.771  23.922  1.00  0.00    -0.080 Cl
ATOM     93  C   UNL A   1      32.973  20.685  24.372  1.00  0.00     0.042 A 
ATOM     94  Cl  UNL A   1      32.765  19.401  25.497  1.00  0.00    -0.084 Cl
ENDBRANCH  86  87
ENDBRANCH  85  86
ENDBRANCH  83  85
ENDBRANCH  75  77
ENDBRANCH  74  75
ENDBRANCH  73  74
ENDBRANCH   1  73
TORSDOF 17
ENDMDL
MODEL 3
REMARK VINA RESULT:     -11.0      1.130      1.869
REMARK SMILES O=C(OCCOC(=O)C1CCN(C(=O)COc2ccc(Cl)cc2Cl)CC1)c1ccc(-c2c3nc(c(-c4c(F)cc(S(=O)(=O)[O-])cc4F)c4ccc([nH]4)c(-c4c(F)cc(S(=O)(=O)[O-])cc4F)c4nc(c(-c5c(F)cc(S(=O)(=O)[O-])cc5F)c5ccc2[nH]5)C=C4)C=C3)cc1
REMARK SMILES IDX 4 1 3 2 2 3 1 4 27 5 28 6 92 7 29 8 91 9 30 10 31 11 32 12
REMARK SMILES IDX 85 13 33 14 90 15 84 16 86 17 34 18 89 19 83 20 82 21 35 23
REMARK SMILES IDX 69 24 48 25 68 26 49 27 52 28 67 29 87 30 50 31 51 32 66 34
REMARK SMILES IDX 88 35 53 36 36 37 37 38 46 39 38 40 39 41 45 42 47 43 40 44
REMARK SMILES IDX 41 45 42 46 43 47 44 48 70 49 71 50 80 51 72 52 73 53 79 54
REMARK SMILES IDX 81 55 74 56 75 57 76 58 77 59 78 60 54 61 55 62 64 63 56 64
REMARK SMILES IDX 57 65 63 66 65 67 58 68 59 69 60 70 61 71 62 72 5 73 6 74
REMARK SMILES IDX 7 75 8 76 9 77 10 78 26 79 11 80 25 81 12 82 13 83 14 84
REMARK SMILES IDX 15 85 16 86 17 87 18 88 23 89 19 90 22 91 24 92 20 93 21 94
REMARK H PARENT 86 22 52 33
REMARK Flexibility Score: inf
ROOT
ATOM      1  C   UNL A   1      32.114  30.752  27.097  1.00  0.00     0.275 C 
ENDROOT
BRANCH   1   2
ATOM      2  O   UNL A   1      33.523  30.631  27.310  1.00  0.00    -0.458 OA
BRANCH   2   3
ATOM      3  C   UNL A   1      34.253  29.556  27.676  1.00  0.00     0.338 C 
ATOM      4  O   UNL A   1      33.683  28.464  27.690  1.00  0.00    -0.246 OA
BRANCH   3   5
ATOM      5  C   UNL A   1      35.675  29.608  28.161  1.00  0.00     0.060 A 
ATOM      6  C   UNL A   1      36.152  29.438  29.461  1.00  0.00     0.016 A 
ATOM      7  C   UNL A   1      36.637  29.766  27.154  1.00  0.00     0.016 A 
ATOM      8  C   UNL A   1      37.525  29.302  29.724  1.00  0.00     0.010 A 
ATOM      9  C   UNL A   1      37.987  29.508  27.396  1.00  0.00     0.010 A 
ATOM     10  C   UNL A   1      38.460  29.275  28.686  1.00  0.00    -0.014 A 
BRANCH  10  11
ATOM     11  C   UNL A   1      39.911  29.072  28.964  1.00  0.00     0.031 A 
ATOM     12  C   UNL A   1      40.538  27.725  28.693  1.00  0.00     0.074 A 
ATOM     13  C   UNL A   1      40.671  30.082  29.448  1.00  0.00     0.049 A 
ATOM     14  N   UNL A   1      41.800  27.382  28.737  1.00  0.00    -0.248 NA
ATOM     15  C   UNL A   1      39.637  26.603  28.373  1.00  0.00     0.031 C 
ATOM     16  C   UNL A   1      40.181  31.395  29.883  1.00  0.00     0.029 A 
ATOM     17  N   UNL A   1      42.029  30.171  29.645  1.00  0.00    -0.354 N 
ATOM     18  C   UNL A   1      41.827  26.031  28.417  1.00  0.00     0.074 A 
ATOM     19  C   UNL A   1      40.462  25.574  28.363  1.00  0.00     0.031 C 
ATOM     20  C   UNL A   1      41.219  32.163  30.257  1.00  0.00     0.029 A 
ATOM     21  C   UNL A   1      42.454  31.411  30.073  1.00  0.00     0.049 A 
ATOM     22  H   UNL A   1      42.642  29.416  29.494  1.00  0.00     0.167 HD
ATOM     23  C   UNL A   1      42.880  25.254  28.078  1.00  0.00     0.037 A 
ATOM     24  C   UNL A   1      43.700  31.897  30.247  1.00  0.00     0.037 A 
ATOM     25  C   UNL A   1      44.236  25.712  28.092  1.00  0.00     0.049 A 
ATOM     26  C   UNL A   1      44.869  31.021  29.870  1.00  0.00     0.074 A 
ATOM     27  C   UNL A   1      45.384  25.033  27.738  1.00  0.00     0.029 A 
ATOM     28  N   UNL A   1      44.618  26.988  28.480  1.00  0.00    -0.354 N 
ATOM     29  N   UNL A   1      44.863  29.788  29.416  1.00  0.00    -0.248 NA
ATOM     30  C   UNL A   1      46.210  31.610  29.985  1.00  0.00     0.031 C 
ATOM     31  C   UNL A   1      46.469  25.894  27.939  1.00  0.00     0.029 A 
ATOM     32  C   UNL A   1      45.988  27.117  28.382  1.00  0.00     0.049 A 
ATOM     33  H   UNL A   1      44.003  27.695  28.781  1.00  0.00     0.167 HD
ATOM     34  C   UNL A   1      46.192  29.470  29.158  1.00  0.00     0.074 A 
ATOM     35  C   UNL A   1      46.971  30.646  29.487  1.00  0.00     0.031 C 
ATOM     36  C   UNL A   1      46.726  28.314  28.694  1.00  0.00     0.037 A 
BRANCH  23  37
ATOM     37  C   UNL A   1      42.561  23.871  27.582  1.00  0.00     0.058 A 
ATOM     38  C   UNL A   1      42.474  22.792  28.481  1.00  0.00     0.135 A 
ATOM     39  C   UNL A   1      42.398  23.602  26.216  1.00  0.00     0.135 A 
ATOM     40  F   UNL A   1      42.653  22.991  29.797  1.00  0.00    -0.206 F 
ATOM     41  C   UNL A   1      42.286  21.489  28.040  1.00  0.00     0.059 A 
ATOM     42  C   UNL A   1      42.178  22.306  25.754  1.00  0.00     0.059 A 
ATOM     43  F   UNL A   1      42.482  24.593  25.317  1.00  0.00    -0.206 F 
ATOM     44  C   UNL A   1      42.144  21.255  26.673  1.00  0.00     0.060 A 
BRANCH  44  45
ATOM     45  S   UNL A   1      41.913  19.554  26.117  1.00  0.00     0.124 S 
ATOM     46  O   UNL A   1      40.498  19.554  25.760  1.00  0.00    -0.237 OA
ATOM     47  O   UNL A   1      42.848  19.462  24.999  1.00  0.00    -0.237 OA
ATOM     48  O   UNL A   1      42.265  18.761  27.291  1.00  0.00    -0.744 OA
ENDBRANCH  44  45
ENDBRANCH  23  37
BRANCH  24  49
ATOM     49  C   UNL A   1      43.927  33.294  30.726  1.00  0.00     0.058 A 
ATOM     50  C   UNL A   1      44.006  33.593  32.096  1.00  0.00     0.135 A 
ATOM     51  C   UNL A   1      44.015  34.368  29.827  1.00  0.00     0.135 A 
ATOM     52  F   UNL A   1      43.933  32.604  33.001  1.00  0.00    -0.206 F 
ATOM     53  C   UNL A   1      44.110  34.902  32.559  1.00  0.00     0.059 A 
ATOM     54  C   UNL A   1      44.144  35.685  30.264  1.00  0.00     0.059 A 
ATOM     55  F   UNL A   1      43.972  34.142  28.504  1.00  0.00    -0.206 F 
ATOM     56  C   UNL A   1      44.169  35.944  31.634  1.00  0.00     0.060 A 
BRANCH  56  57
ATOM     57  S   UNL A   1      44.294  37.642  32.245  1.00  0.00     0.124 S 
ATOM     58  O   UNL A   1      43.328  37.632  33.337  1.00  0.00    -0.237 OA
ATOM     59  O   UNL A   1      45.698  37.723  32.636  1.00  0.00    -0.237 OA
ATOM     60  O   UNL A   1      43.927  38.445  31.083  1.00  0.00    -0.744 OA
ENDBRANCH  56  57
ENDBRANCH  24  49
BRANCH  36  61
ATOM     61  C   UNL A   1      48.211  28.274  28.481  1.00  0.00     0.058 A 
ATOM     62  C   UNL A   1      49.086  27.871  29.500  1.00  0.00     0.135 A 
ATOM     63  C   UNL A   1      48.754  28.574  27.222  1.00  0.00     0.135 A 
ATOM     64  F   UNL A   1      48.612  27.577  30.722  1.00  0.00    -0.206 F 
ATOM     65  C   UNL A   1      50.456  27.790  29.286  1.00  0.00     0.059 A 
ATOM     66  C   UNL A   1      50.118  28.468  26.976  1.00  0.00     0.059 A 
ATOM     67  F   UNL A   1      47.954  28.948  26.211  1.00  0.00    -0.206 F 
ATOM     68  C   UNL A   1      50.962  28.088  28.019  1.00  0.00     0.060 A 
BRANCH  68  69
ATOM     69  S   UNL A   1      52.737  27.938  27.740  1.00  0.00     0.124 S 
ATOM     70  O   UNL A   1      52.883  26.500  27.546  1.00  0.00    -0.237 OA
ATOM     71  O   UNL A   1      52.940  28.763  26.552  1.00  0.00    -0.237 OA
ATOM     72  O   UNL A   1      53.319  28.470  28.969  1.00  0.00    -0.744 OA
ENDBRANCH  68  69
ENDBRANCH  36  61
ENDBRANCH  10  11
ENDBRANCH   3   5
ENDBRANCH   2   3
ENDBRANCH   1   2
BRANCH   1  73
ATOM     73  C   UNL A   1      31.653  30.488  25.662  1.00  0.00     0.274 C 
BRANCH  73  74
ATOM     74  O   UNL A   1      31.713  29.119  25.216  1.00  0.00    -0.462 OA
BRANCH  74  75
ATOM     75  C   UNL A   1      31.872  28.947  23.866  1.00  0.00     0.309 C 
ATOM     76  O   UNL A   1      30.945  28.895  23.070  1.00  0.00    -0.252 OA
BRANCH  75  77
ATOM     77  C   UNL A   1      33.326  28.637  23.497  1.00  0.00     0.103 C 
ATOM     78  C   UNL A   1      33.528  28.088  22.092  1.00  0.00     0.037 C 
ATOM     79  C   UNL A   1      33.990  27.688  24.511  1.00  0.00     0.037 C 
ATOM     80  C   UNL A   1      33.135  26.626  21.977  1.00  0.00     0.120 C 
ATOM     81  C   UNL A   1      33.518  26.242  24.368  1.00  0.00     0.120 C 
ATOM     82  N   UNL A   1      33.661  25.762  23.001  1.00  0.00    -0.340 N 
ATOM     83  C   UNL A   1      33.753  24.412  22.669  1.00  0.00     0.260 C 
ATOM     84  O   UNL A   1      33.275  23.957  21.626  1.00  0.00    -0.271 OA
BRANCH  83  85
ATOM     85  C   UNL A   1      34.552  23.492  23.593  1.00  0.00     0.329 C 
BRANCH  85  86
ATOM     86  O   UNL A   1      33.869  22.731  24.572  1.00  0.00    -0.482 OA
BRANCH  86  87
ATOM     87  C   UNL A   1      33.609  21.404  24.361  1.00  0.00     0.138 A 
ATOM     88  C   UNL A   1      32.505  20.884  23.675  1.00  0.00     0.049 A 
ATOM     89  C   UNL A   1      34.576  20.505  24.845  1.00  0.00     0.084 A 
ATOM     90  C   UNL A   1      32.405  19.510  23.422  1.00  0.00     0.024 A 
ATOM     91  C   UNL A   1      34.463  19.131  24.621  1.00  0.00     0.045 A 
ATOM     92  Cl  UNL A   1      35.944  21.063  25.751  1.00  0.00    -0.080 Cl
ATOM     93  C   UNL A   1      33.384  18.643  23.893  1.00  0.00     0.042 A 
ATOM     94  Cl  UNL A   1      33.258  16.957  23.582  1.00  0.00    -0.084 Cl
ENDBRANCH  86  87
ENDBRANCH  85  86
ENDBRANCH  83  85
ENDBRANCH  75  77
ENDBRANCH  74  75
ENDBRANCH  73  74
ENDBRANCH   1  73
TORSDOF 17
ENDMDL
