MODEL 1
REMARK VINA RESULT:     -12.4      0.000      0.000
REMARK SMILES CCOc1ccccc1-c1cc(C(=O)OCCOC(=O)c2ccc(-c3c4nc(c(-c5c(F)cc(S(=O)(=O)[O-])cc5F)c5ccc([nH]5)c(-c5c(F)cc(S(=O)(=O)[O-])cc5F)c5nc(c(-c6c(F)cc(S(=O)(=O)[O-])cc6F)c6ccc3[nH]6)C=C5)C=C4)cc2)c2cc(C)cc(C)c2n1
REMARK SMILES IDX 16 1 15 2 13 3 14 4 12 5 10 6 11 7 95 8 94 9 87 10 92 11
REMARK SMILES IDX 88 12 91 13 93 14 89 15 90 16 9 17 4 18 5 19 6 20 8 21 7 22
REMARK SMILES IDX 3 23 2 24 1 25 17 26 18 27 19 28 20 29 21 30 22 31 86 32
REMARK SMILES IDX 23 33 85 34 24 35 25 36 26 37 79 38 27 39 84 40 78 41 80 42
REMARK SMILES IDX 28 43 83 44 77 45 76 46 29 48 63 49 42 50 62 51 43 52 46 53
REMARK SMILES IDX 61 54 81 55 44 56 45 57 60 59 82 60 47 61 30 62 31 63 40 64
REMARK SMILES IDX 32 65 33 66 39 67 41 68 34 69 35 70 36 71 37 72 38 73 64 74
REMARK SMILES IDX 65 75 74 76 66 77 67 78 73 79 75 80 68 81 69 82 70 83 71 84
REMARK SMILES IDX 72 85 48 86 49 87 58 88 50 89 51 90 57 91 59 92 52 93 53 94
REMARK SMILES IDX 54 95 55 96 56 97
REMARK H PARENT 80 47 46 58
REMARK Flexibility Score: inf
ROOT
ATOM      1  C   UNL A   1      34.353  29.255  26.815  1.00  0.00     0.275 C 
ENDROOT
BRANCH   1   2
ATOM      2  O   UNL A   1      33.546  28.144  27.264  1.00  0.00    -0.458 OA
BRANCH   2   3
ATOM      3  C   UNL A   1      32.234  28.155  26.893  1.00  0.00     0.339 C 
ATOM      4  O   UNL A   1      31.288  28.192  27.666  1.00  0.00    -0.246 OA
BRANCH   3   5
ATOM      5  C   UNL A   1      32.084  28.043  25.412  1.00  0.00     0.071 A 
ATOM      6  C   UNL A   1      31.315  28.877  23.363  1.00  0.00     0.076 A 
ATOM      7  C   UNL A   1      31.646  29.146  24.668  1.00  0.00     0.045 A 
ATOM      8  N   UNL A   1      32.154  28.043  22.722  1.00  0.00    -0.247 NA
ATOM      9  C   UNL A   1      32.325  26.868  23.332  1.00  0.00     0.075 A 
ATOM     10  C   UNL A   1      32.198  26.798  24.734  1.00  0.00     0.015 A 
ATOM     11  C   UNL A   1      32.410  25.708  22.560  1.00  0.00    -0.024 A 
ATOM     12  C   UNL A   1      31.977  25.530  25.311  1.00  0.00     0.014 A 
ATOM     13  C   UNL A   1      32.108  24.479  23.143  1.00  0.00     0.009 A 
ATOM     14  C   UNL A   1      32.591  25.748  21.070  1.00  0.00     0.047 C 
ATOM     15  C   UNL A   1      31.819  24.400  24.498  1.00  0.00    -0.050 A 
ATOM     16  C   UNL A   1      31.152  23.167  25.018  1.00  0.00     0.044 C 
BRANCH   6  17
ATOM     17  C   UNL A   1      29.890  28.505  22.981  1.00  0.00     0.042 A 
ATOM     18  C   UNL A   1      28.967  29.443  22.450  1.00  0.00     0.128 A 
ATOM     19  C   UNL A   1      27.594  29.318  22.701  1.00  0.00     0.047 A 
ATOM     20  C   UNL A   1      27.103  28.212  23.388  1.00  0.00     0.004 A 
ATOM     21  C   UNL A   1      29.348  27.337  23.564  1.00  0.00     0.014 A 
ATOM     22  C   UNL A   1      27.973  27.199  23.777  1.00  0.00     0.001 A 
BRANCH  18  23
ATOM     23  O   UNL A   1      29.404  30.617  21.883  1.00  0.00    -0.493 OA
BRANCH  23  24
ATOM     24  C   UNL A   1      28.486  31.703  22.045  1.00  0.00     0.226 C 
ATOM     25  C   UNL A   1      28.057  32.256  20.696  1.00  0.00     0.049 C 
ENDBRANCH  23  24
ENDBRANCH  18  23
ENDBRANCH   6  17
ENDBRANCH   3   5
ENDBRANCH   2   3
ENDBRANCH   1   2
BRANCH   1  26
ATOM     26  C   UNL A   1      34.383  30.383  27.846  1.00  0.00     0.275 C 
BRANCH  26  27
ATOM     27  O   UNL A   1      35.735  30.827  27.988  1.00  0.00    -0.458 OA
BRANCH  27  28
ATOM     28  C   UNL A   1      36.315  30.615  29.192  1.00  0.00     0.338 C 
ATOM     29  O   UNL A   1      35.814  30.781  30.288  1.00  0.00    -0.246 OA
BRANCH  28  30
ATOM     30  C   UNL A   1      37.675  30.090  28.935  1.00  0.00     0.060 A 
ATOM     31  C   UNL A   1      38.540  29.907  30.017  1.00  0.00     0.016 A 
ATOM     32  C   UNL A   1      38.123  29.834  27.636  1.00  0.00     0.016 A 
ATOM     33  C   UNL A   1      39.842  29.470  29.803  1.00  0.00     0.010 A 
ATOM     34  C   UNL A   1      39.426  29.348  27.429  1.00  0.00     0.010 A 
ATOM     35  C   UNL A   1      40.299  29.167  28.514  1.00  0.00    -0.014 A 
BRANCH  35  36
ATOM     36  C   UNL A   1      41.739  28.823  28.346  1.00  0.00     0.031 A 
ATOM     37  C   UNL A   1      42.100  27.453  27.850  1.00  0.00     0.074 A 
ATOM     38  C   UNL A   1      42.706  29.753  28.466  1.00  0.00     0.049 A 
ATOM     39  N   UNL A   1      43.275  26.965  27.548  1.00  0.00    -0.248 NA
ATOM     40  C   UNL A   1      40.986  26.510  27.673  1.00  0.00     0.031 C 
ATOM     41  C   UNL A   1      42.496  31.141  28.865  1.00  0.00     0.029 A 
ATOM     42  N   UNL A   1      44.050  29.694  28.170  1.00  0.00    -0.354 N 
ATOM     43  C   UNL A   1      43.053  25.638  27.206  1.00  0.00     0.074 A 
ATOM     44  C   UNL A   1      41.626  25.411  27.303  1.00  0.00     0.031 C 
ATOM     45  C   UNL A   1      43.630  31.834  28.648  1.00  0.00     0.029 A 
ATOM     46  C   UNL A   1      44.675  30.922  28.182  1.00  0.00     0.049 A 
ATOM     47  H   UNL A   1      44.520  28.853  27.968  1.00  0.00     0.167 HD
ATOM     48  C   UNL A   1      43.958  24.684  26.880  1.00  0.00     0.037 A 
ATOM     49  C   UNL A   1      45.935  31.271  27.843  1.00  0.00     0.037 A 
ATOM     50  C   UNL A   1      45.378  24.899  26.780  1.00  0.00     0.049 A 
ATOM     51  C   UNL A   1      46.930  30.191  27.490  1.00  0.00     0.074 A 
ATOM     52  C   UNL A   1      46.376  23.970  26.546  1.00  0.00     0.029 A 
ATOM     53  N   UNL A   1      46.001  26.131  26.902  1.00  0.00    -0.354 N 
ATOM     54  N   UNL A   1      46.729  28.912  27.281  1.00  0.00    -0.248 NA
ATOM     55  C   UNL A   1      48.339  30.601  27.382  1.00  0.00     0.031 C 
ATOM     56  C   UNL A   1      47.608  24.634  26.561  1.00  0.00     0.029 A 
ATOM     57  C   UNL A   1      47.372  25.986  26.752  1.00  0.00     0.049 A 
ATOM     58  H   UNL A   1      45.539  26.984  27.069  1.00  0.00     0.167 HD
ATOM     59  C   UNL A   1      47.985  28.367  27.021  1.00  0.00     0.074 A 
ATOM     60  C   UNL A   1      48.932  29.460  27.060  1.00  0.00     0.031 C 
ATOM     61  C   UNL A   1      48.320  27.072  26.790  1.00  0.00     0.037 A 
BRANCH  48  62
ATOM     62  C   UNL A   1      43.425  23.289  26.731  1.00  0.00     0.058 A 
ATOM     63  C   UNL A   1      43.052  22.503  27.832  1.00  0.00     0.135 A 
ATOM     64  C   UNL A   1      43.360  22.708  25.453  1.00  0.00     0.135 A 
ATOM     65  F   UNL A   1      43.126  23.004  29.075  1.00  0.00    -0.206 F 
ATOM     66  C   UNL A   1      42.684  21.171  27.676  1.00  0.00     0.059 A 
ATOM     67  C   UNL A   1      42.967  21.388  25.272  1.00  0.00     0.059 A 
ATOM     68  F   UNL A   1      43.710  23.417  24.369  1.00  0.00    -0.206 F 
ATOM     69  C   UNL A   1      42.661  20.618  26.393  1.00  0.00     0.060 A 
BRANCH  69  70
ATOM     70  S   UNL A   1      42.262  18.869  26.206  1.00  0.00     0.124 S 
ATOM     71  O   UNL A   1      40.875  18.938  25.754  1.00  0.00    -0.237 OA
ATOM     72  O   UNL A   1      43.232  18.430  25.207  1.00  0.00    -0.237 OA
ATOM     73  O   UNL A   1      42.460  18.332  27.548  1.00  0.00    -0.744 OA
ENDBRANCH  69  70
ENDBRANCH  48  62
BRANCH  49  74
ATOM     74  C   UNL A   1      46.364  32.701  27.820  1.00  0.00     0.058 A 
ATOM     75  C   UNL A   1      46.130  33.501  26.688  1.00  0.00     0.135 A 
ATOM     76  C   UNL A   1      47.056  33.285  28.892  1.00  0.00     0.135 A 
ATOM     77  F   UNL A   1      45.493  32.988  25.624  1.00  0.00    -0.206 F 
ATOM     78  C   UNL A   1      46.577  34.818  26.613  1.00  0.00     0.059 A 
ATOM     79  C   UNL A   1      47.482  34.610  28.855  1.00  0.00     0.059 A 
ATOM     80  F   UNL A   1      47.318  32.568  29.995  1.00  0.00    -0.206 F 
ATOM     81  C   UNL A   1      47.251  35.365  27.706  1.00  0.00     0.060 A 
BRANCH  81  82
ATOM     82  S   UNL A   1      47.795  37.085  27.625  1.00  0.00     0.124 S 
ATOM     83  O   UNL A   1      48.488  37.114  26.342  1.00  0.00    -0.237 OA
ATOM     84  O   UNL A   1      46.531  37.815  27.685  1.00  0.00    -0.237 OA
ATOM     85  O   UNL A   1      48.643  37.222  28.806  1.00  0.00    -0.744 OA
ENDBRANCH  81  82
ENDBRANCH  49  74
BRANCH  61  86
ATOM     86  C   UNL A   1      49.773  26.756  26.540  1.00  0.00     0.058 A 
ATOM     87  C   UNL A   1      50.321  26.759  25.246  1.00  0.00     0.135 A 
ATOM     88  C   UNL A   1      50.639  26.489  27.612  1.00  0.00     0.135 A 
ATOM     89  F   UNL A   1      49.541  27.009  24.182  1.00  0.00    -0.206 F 
ATOM     90  C   UNL A   1      51.666  26.476  25.023  1.00  0.00     0.059 A 
ATOM     91  C   UNL A   1      51.994  26.230  27.413  1.00  0.00     0.059 A 
ATOM     92  F   UNL A   1      50.176  26.488  28.872  1.00  0.00    -0.206 F 
ATOM     93  C   UNL A   1      52.496  26.210  26.113  1.00  0.00     0.060 A 
BRANCH  93  94
ATOM     94  S   UNL A   1      54.242  25.860  25.815  1.00  0.00     0.124 S 
ATOM     95  O   UNL A   1      54.724  25.595  27.166  1.00  0.00    -0.237 OA
ATOM     96  O   UNL A   1      54.183  24.704  24.925  1.00  0.00    -0.237 OA
ATOM     97  O   UNL A   1      54.735  27.090  25.202  1.00  0.00    -0.744 OA
ENDBRANCH  93  94
ENDBRANCH  61  86
ENDBRANCH  35  36
ENDBRANCH  28  30
ENDBRANCH  27  28
ENDBRANCH  26  27
ENDBRANCH   1  26
TORSDOF 17
ENDMDL
MODEL 2
REMARK VINA RESULT:     -12.3      7.219     12.573
REMARK SMILES CCOc1ccccc1-c1cc(C(=O)OCCOC(=O)c2ccc(-c3c4nc(c(-c5c(F)cc(S(=O)(=O)[O-])cc5F)c5ccc([nH]5)c(-c5c(F)cc(S(=O)(=O)[O-])cc5F)c5nc(c(-c6c(F)cc(S(=O)(=O)[O-])cc6F)c6ccc3[nH]6)C=C5)C=C4)cc2)c2cc(C)cc(C)c2n1
REMARK SMILES IDX 16 1 15 2 13 3 14 4 12 5 10 6 11 7 95 8 94 9 87 10 92 11
REMARK SMILES IDX 88 12 91 13 93 14 89 15 90 16 9 17 4 18 5 19 6 20 8 21 7 22
REMARK SMILES IDX 3 23 2 24 1 25 17 26 18 27 19 28 20 29 21 30 22 31 86 32
REMARK SMILES IDX 23 33 85 34 24 35 25 36 26 37 79 38 27 39 84 40 78 41 80 42
REMARK SMILES IDX 28 43 83 44 77 45 76 46 29 48 63 49 42 50 62 51 43 52 46 53
REMARK SMILES IDX 61 54 81 55 44 56 45 57 60 59 82 60 47 61 30 62 31 63 40 64
REMARK SMILES IDX 32 65 33 66 39 67 41 68 34 69 35 70 36 71 37 72 38 73 64 74
REMARK SMILES IDX 65 75 74 76 66 77 67 78 73 79 75 80 68 81 69 82 70 83 71 84
REMARK SMILES IDX 72 85 48 86 49 87 58 88 50 89 51 90 57 91 59 92 52 93 53 94
REMARK SMILES IDX 54 95 55 96 56 97
REMARK H PARENT 80 47 46 58
REMARK Flexibility Score: inf
ROOT
ATOM      1  C   UNL A   1      37.948  22.462  25.813  1.00  0.00     0.275 C 
ENDROOT
BRANCH   1   2
ATOM      2  O   UNL A   1      37.375  23.402  24.876  1.00  0.00    -0.458 OA
BRANCH   2   3
ATOM      3  C   UNL A   1      36.508  22.892  23.955  1.00  0.00     0.339 C 
ATOM      4  O   UNL A   1      36.690  22.891  22.748  1.00  0.00    -0.246 OA
BRANCH   3   5
ATOM      5  C   UNL A   1      35.259  22.391  24.601  1.00  0.00     0.071 A 
ATOM      6  C   UNL A   1      33.869  20.633  25.281  1.00  0.00     0.076 A 
ATOM      7  C   UNL A   1      35.130  21.032  24.916  1.00  0.00     0.045 A 
ATOM      8  N   UNL A   1      33.217  21.480  26.098  1.00  0.00    -0.247 NA
ATOM      9  C   UNL A   1      33.111  22.723  25.622  1.00  0.00     0.075 A 
ATOM     10  C   UNL A   1      34.105  23.211  24.751  1.00  0.00     0.015 A 
ATOM     11  C   UNL A   1      31.922  23.427  25.820  1.00  0.00    -0.024 A 
ATOM     12  C   UNL A   1      33.789  24.329  23.952  1.00  0.00     0.014 A 
ATOM     13  C   UNL A   1      31.603  24.478  24.963  1.00  0.00     0.009 A 
ATOM     14  C   UNL A   1      30.862  22.958  26.775  1.00  0.00     0.047 C 
ATOM     15  C   UNL A   1      32.501  24.879  23.983  1.00  0.00    -0.050 A 
ATOM     16  C   UNL A   1      32.005  25.737  22.864  1.00  0.00     0.044 C 
BRANCH   6  17
ATOM     17  C   UNL A   1      32.882  20.119  24.243  1.00  0.00     0.042 A 
ATOM     18  C   UNL A   1      32.782  18.748  23.890  1.00  0.00     0.128 A 
ATOM     19  C   UNL A   1      32.412  18.367  22.594  1.00  0.00     0.047 A 
ATOM     20  C   UNL A   1      32.034  19.327  21.661  1.00  0.00     0.004 A 
ATOM     21  C   UNL A   1      32.374  21.055  23.314  1.00  0.00     0.014 A 
ATOM     22  C   UNL A   1      31.969  20.665  22.034  1.00  0.00     0.001 A 
BRANCH  18  23
ATOM     23  O   UNL A   1      33.270  17.769  24.725  1.00  0.00    -0.493 OA
BRANCH  23  24
ATOM     24  C   UNL A   1      34.230  16.914  24.097  1.00  0.00     0.226 C 
ATOM     25  C   UNL A   1      34.967  16.077  25.129  1.00  0.00     0.049 C 
ENDBRANCH  23  24
ENDBRANCH  18  23
ENDBRANCH   6  17
ENDBRANCH   3   5
ENDBRANCH   2   3
ENDBRANCH   1   2
BRANCH   1  26
ATOM     26  C   UNL A   1      39.195  23.029  26.490  1.00  0.00     0.275 C 
BRANCH  26  27
ATOM     27  O   UNL A   1      39.047  24.447  26.592  1.00  0.00    -0.458 OA
BRANCH  27  28
ATOM     28  C   UNL A   1      40.144  25.189  26.316  1.00  0.00     0.338 C 
ATOM     29  O   UNL A   1      40.829  25.142  25.312  1.00  0.00    -0.246 OA
BRANCH  28  30
ATOM     30  C   UNL A   1      40.341  26.118  27.452  1.00  0.00     0.060 A 
ATOM     31  C   UNL A   1      39.518  25.991  28.574  1.00  0.00     0.016 A 
ATOM     32  C   UNL A   1      41.285  27.147  27.395  1.00  0.00     0.016 A 
ATOM     33  C   UNL A   1      39.639  26.884  29.632  1.00  0.00     0.010 A 
ATOM     34  C   UNL A   1      41.434  28.020  28.487  1.00  0.00     0.010 A 
ATOM     35  C   UNL A   1      40.606  27.897  29.615  1.00  0.00    -0.014 A 
BRANCH  35  36
ATOM     36  C   UNL A   1      40.597  28.891  30.725  1.00  0.00     0.031 A 
ATOM     37  C   UNL A   1      39.479  29.891  30.789  1.00  0.00     0.074 A 
ATOM     38  C   UNL A   1      41.464  28.810  31.753  1.00  0.00     0.049 A 
ATOM     39  N   UNL A   1      39.221  30.787  31.706  1.00  0.00    -0.248 NA
ATOM     40  C   UNL A   1      38.528  29.876  29.669  1.00  0.00     0.031 C 
ATOM     41  C   UNL A   1      42.553  27.844  31.864  1.00  0.00     0.029 A 
ATOM     42  N   UNL A   1      41.505  29.493  32.949  1.00  0.00    -0.354 N 
ATOM     43  C   UNL A   1      38.115  31.488  31.244  1.00  0.00     0.074 A 
ATOM     44  C   UNL A   1      37.731  30.886  29.984  1.00  0.00     0.031 C 
ATOM     45  C   UNL A   1      43.056  27.895  33.111  1.00  0.00     0.029 A 
ATOM     46  C   UNL A   1      42.390  28.960  33.861  1.00  0.00     0.049 A 
ATOM     47  H   UNL A   1      40.954  30.288  33.134  1.00  0.00     0.167 HD
ATOM     48  C   UNL A   1      37.499  32.559  31.798  1.00  0.00     0.037 A 
ATOM     49  C   UNL A   1      42.623  29.282  35.152  1.00  0.00     0.037 A 
ATOM     50  C   UNL A   1      37.873  33.164  33.050  1.00  0.00     0.049 A 
ATOM     51  C   UNL A   1      41.931  30.486  35.748  1.00  0.00     0.074 A 
ATOM     52  C   UNL A   1      37.363  34.306  33.641  1.00  0.00     0.029 A 
ATOM     53  N   UNL A   1      38.843  32.671  33.908  1.00  0.00    -0.354 N 
ATOM     54  N   UNL A   1      40.961  31.217  35.253  1.00  0.00    -0.248 NA
ATOM     55  C   UNL A   1      42.412  30.941  37.062  1.00  0.00     0.031 C 
ATOM     56  C   UNL A   1      38.050  34.526  34.841  1.00  0.00     0.029 A 
ATOM     57  C   UNL A   1      38.952  33.490  35.022  1.00  0.00     0.049 A 
ATOM     58  H   UNL A   1      39.377  31.859  33.751  1.00  0.00     0.167 HD
ATOM     59  C   UNL A   1      40.719  32.216  36.193  1.00  0.00     0.074 A 
ATOM     60  C   UNL A   1      41.617  31.974  37.302  1.00  0.00     0.031 C 
ATOM     61  C   UNL A   1      39.844  33.252  36.130  1.00  0.00     0.037 A 
BRANCH  48  62
ATOM     62  C   UNL A   1      36.431  33.211  30.970  1.00  0.00     0.058 A 
ATOM     63  C   UNL A   1      36.725  34.039  29.877  1.00  0.00     0.135 A 
ATOM     64  C   UNL A   1      35.083  33.053  31.335  1.00  0.00     0.135 A 
ATOM     65  F   UNL A   1      37.999  34.245  29.509  1.00  0.00    -0.206 F 
ATOM     66  C   UNL A   1      35.723  34.733  29.206  1.00  0.00     0.059 A 
ATOM     67  C   UNL A   1      34.063  33.714  30.661  1.00  0.00     0.059 A 
ATOM     68  F   UNL A   1      34.751  32.274  32.376  1.00  0.00    -0.206 F 
ATOM     69  C   UNL A   1      34.397  34.576  29.618  1.00  0.00     0.060 A 
BRANCH  69  70
ATOM     70  S   UNL A   1      33.112  35.539  28.797  1.00  0.00     0.124 S 
ATOM     71  O   UNL A   1      32.383  36.080  29.941  1.00  0.00    -0.237 OA
ATOM     72  O   UNL A   1      33.887  36.507  28.027  1.00  0.00    -0.237 OA
ATOM     73  O   UNL A   1      32.394  34.544  28.009  1.00  0.00    -0.744 OA
ENDBRANCH  69  70
ENDBRANCH  48  62
BRANCH  49  74
ATOM     74  C   UNL A   1      43.556  28.480  35.995  1.00  0.00     0.058 A 
ATOM     75  C   UNL A   1      44.936  28.751  35.994  1.00  0.00     0.135 A 
ATOM     76  C   UNL A   1      43.111  27.401  36.774  1.00  0.00     0.135 A 
ATOM     77  F   UNL A   1      45.421  29.757  35.249  1.00  0.00    -0.206 F 
ATOM     78  C   UNL A   1      45.838  27.977  36.720  1.00  0.00     0.059 A 
ATOM     79  C   UNL A   1      43.990  26.635  37.536  1.00  0.00     0.059 A 
ATOM     80  F   UNL A   1      41.808  27.087  36.807  1.00  0.00    -0.206 F 
ATOM     81  C   UNL A   1      45.353  26.920  37.491  1.00  0.00     0.060 A 
BRANCH  81  82
ATOM     82  S   UNL A   1      46.518  25.942  38.465  1.00  0.00     0.124 S 
ATOM     83  O   UNL A   1      45.987  24.595  38.291  1.00  0.00    -0.237 OA
ATOM     84  O   UNL A   1      47.788  26.218  37.800  1.00  0.00    -0.237 OA
ATOM     85  O   UNL A   1      46.387  26.506  39.806  1.00  0.00    -0.744 OA
ENDBRANCH  81  82
ENDBRANCH  49  74
BRANCH  61  86
ATOM     86  C   UNL A   1      39.792  34.200  37.301  1.00  0.00     0.058 A 
ATOM     87  C   UNL A   1      40.496  35.416  37.303  1.00  0.00     0.135 A 
ATOM     88  C   UNL A   1      38.992  33.910  38.419  1.00  0.00     0.135 A 
ATOM     89  F   UNL A   1      41.274  35.748  36.261  1.00  0.00    -0.206 F 
ATOM     90  C   UNL A   1      40.435  36.293  38.384  1.00  0.00     0.059 A 
ATOM     91  C   UNL A   1      38.897  34.784  39.499  1.00  0.00     0.059 A 
ATOM     92  F   UNL A   1      38.285  32.770  38.467  1.00  0.00    -0.206 F 
ATOM     93  C   UNL A   1      39.635  35.967  39.479  1.00  0.00     0.060 A 
BRANCH  93  94
ATOM     94  S   UNL A   1      39.550  37.117  40.869  1.00  0.00     0.124 S 
ATOM     95  O   UNL A   1      40.923  37.606  40.932  1.00  0.00    -0.237 OA
ATOM     96  O   UNL A   1      38.553  38.084  40.417  1.00  0.00    -0.237 OA
ATOM     97  O   UNL A   1      39.132  36.273  41.984  1.00  0.00    -0.744 OA
ENDBRANCH  93  94
ENDBRANCH  61  86
ENDBRANCH  35  36
ENDBRANCH  28  30
ENDBRANCH  27  28
ENDBRANCH  26  27
ENDBRANCH   1  26
TORSDOF 17
ENDMDL
MODEL 3
REMARK VINA RESULT:     -12.1      1.925      3.823
REMARK SMILES CCOc1ccccc1-c1cc(C(=O)OCCOC(=O)c2ccc(-c3c4nc(c(-c5c(F)cc(S(=O)(=O)[O-])cc5F)c5ccc([nH]5)c(-c5c(F)cc(S(=O)(=O)[O-])cc5F)c5nc(c(-c6c(F)cc(S(=O)(=O)[O-])cc6F)c6ccc3[nH]6)C=C5)C=C4)cc2)c2cc(C)cc(C)c2n1
REMARK SMILES IDX 16 1 15 2 13 3 14 4 12 5 10 6 11 7 95 8 94 9 87 10 92 11
REMARK SMILES IDX 88 12 91 13 93 14 89 15 90 16 9 17 4 18 5 19 6 20 8 21 7 22
REMARK SMILES IDX 3 23 2 24 1 25 17 26 18 27 19 28 20 29 21 30 22 31 86 32
REMARK SMILES IDX 23 33 85 34 24 35 25 36 26 37 79 38 27 39 84 40 78 41 80 42
REMARK SMILES IDX 28 43 83 44 77 45 76 46 29 48 63 49 42 50 62 51 43 52 46 53
REMARK SMILES IDX 61 54 81 55 44 56 45 57 60 59 82 60 47 61 30 62 31 63 40 64
REMARK SMILES IDX 32 65 33 66 39 67 41 68 34 69 35 70 36 71 37 72 38 73 64 74
REMARK SMILES IDX 65 75 74 76 66 77 67 78 73 79 75 80 68 81 69 82 70 83 71 84
REMARK SMILES IDX 72 85 48 86 49 87 58 88 50 89 51 90 57 91 59 92 52 93 53 94
REMARK SMILES IDX 54 95 55 96 56 97
REMARK H PARENT 80 47 46 58
REMARK Flexibility Score: inf
ROOT
ATOM      1  C   UNL A   1      33.143  28.879  27.263  1.00  0.00     0.275 C 
ENDROOT
BRANCH   1   2
ATOM      2  O   UNL A   1      33.270  27.450  27.082  1.00  0.00    -0.458 OA
BRANCH   2   3
ATOM      3  C   UNL A   1      32.135  26.778  26.736  1.00  0.00     0.339 C 
ATOM      4  O   UNL A   1      31.024  27.000  27.191  1.00  0.00    -0.246 OA
BRANCH   3   5
ATOM      5  C   UNL A   1      32.427  25.674  25.774  1.00  0.00     0.071 A 
ATOM      6  C   UNL A   1      33.205  23.514  25.311  1.00  0.00     0.076 A 
ATOM      7  C   UNL A   1      32.722  24.391  26.251  1.00  0.00     0.045 A 
ATOM      8  N   UNL A   1      32.585  23.559  24.118  1.00  0.00    -0.247 NA
ATOM      9  C   UNL A   1      32.576  24.769  23.555  1.00  0.00     0.075 A 
ATOM     10  C   UNL A   1      32.595  25.911  24.381  1.00  0.00     0.015 A 
ATOM     11  C   UNL A   1      32.765  24.879  22.176  1.00  0.00    -0.024 A 
ATOM     12  C   UNL A   1      32.989  27.135  23.803  1.00  0.00     0.014 A 
ATOM     13  C   UNL A   1      33.231  26.080  21.646  1.00  0.00     0.009 A 
ATOM     14  C   UNL A   1      32.706  23.689  21.261  1.00  0.00     0.047 C 
ATOM     15  C   UNL A   1      33.414  27.183  22.469  1.00  0.00    -0.050 A 
ATOM     16  C   UNL A   1      34.244  28.321  21.967  1.00  0.00     0.044 C 
BRANCH   6  17
ATOM     17  C   UNL A   1      34.700  23.379  25.066  1.00  0.00     0.042 A 
ATOM     18  C   UNL A   1      35.302  22.169  24.632  1.00  0.00     0.128 A 
ATOM     19  C   UNL A   1      36.610  21.842  25.014  1.00  0.00     0.047 A 
ATOM     20  C   UNL A   1      37.378  22.748  25.738  1.00  0.00     0.004 A 
ATOM     21  C   UNL A   1      35.546  24.323  25.691  1.00  0.00     0.014 A 
ATOM     22  C   UNL A   1      36.863  24.006  26.035  1.00  0.00     0.001 A 
BRANCH  18  23
ATOM     23  O   UNL A   1      34.551  21.185  24.033  1.00  0.00    -0.493 OA
BRANCH  23  24
ATOM     24  C   UNL A   1      34.448  19.992  24.817  1.00  0.00     0.226 C 
ATOM     25  C   UNL A   1      33.127  19.947  25.566  1.00  0.00     0.049 C 
ENDBRANCH  23  24
ENDBRANCH  18  23
ENDBRANCH   6  17
ENDBRANCH   3   5
ENDBRANCH   2   3
ENDBRANCH   1   2
BRANCH   1  26
ATOM     26  C   UNL A   1      34.447  29.607  26.940  1.00  0.00     0.275 C 
BRANCH  26  27
ATOM     27  O   UNL A   1      35.495  29.023  27.719  1.00  0.00    -0.458 OA
BRANCH  27  28
ATOM     28  C   UNL A   1      36.006  29.789  28.710  1.00  0.00     0.338 C 
ATOM     29  O   UNL A   1      35.387  30.469  29.507  1.00  0.00    -0.246 OA
BRANCH  28  30
ATOM     30  C   UNL A   1      37.476  29.613  28.684  1.00  0.00     0.060 A 
ATOM     31  C   UNL A   1      38.138  29.667  27.455  1.00  0.00     0.016 A 
ATOM     32  C   UNL A   1      38.196  29.337  29.850  1.00  0.00     0.016 A 
ATOM     33  C   UNL A   1      39.509  29.448  27.391  1.00  0.00     0.010 A 
ATOM     34  C   UNL A   1      39.590  29.162  29.786  1.00  0.00     0.010 A 
ATOM     35  C   UNL A   1      40.257  29.212  28.551  1.00  0.00    -0.014 A 
BRANCH  35  36
ATOM     36  C   UNL A   1      41.697  28.865  28.395  1.00  0.00     0.031 A 
ATOM     37  C   UNL A   1      42.060  27.496  27.897  1.00  0.00     0.074 A 
ATOM     38  C   UNL A   1      42.666  29.793  28.528  1.00  0.00     0.049 A 
ATOM     39  N   UNL A   1      43.237  27.006  27.604  1.00  0.00    -0.248 NA
ATOM     40  C   UNL A   1      40.946  26.557  27.706  1.00  0.00     0.031 C 
ATOM     41  C   UNL A   1      42.456  31.179  28.931  1.00  0.00     0.029 A 
ATOM     42  N   UNL A   1      44.013  29.731  28.244  1.00  0.00    -0.354 N 
ATOM     43  C   UNL A   1      43.015  25.681  27.255  1.00  0.00     0.074 A 
ATOM     44  C   UNL A   1      41.587  25.458  27.337  1.00  0.00     0.031 C 
ATOM     45  C   UNL A   1      43.593  31.870  28.727  1.00  0.00     0.029 A 
ATOM     46  C   UNL A   1      44.640  30.958  28.268  1.00  0.00     0.049 A 
ATOM     47  H   UNL A   1      44.483  28.890  28.044  1.00  0.00     0.167 HD
ATOM     48  C   UNL A   1      43.921  24.726  26.934  1.00  0.00     0.037 A 
ATOM     49  C   UNL A   1      45.904  31.305  27.942  1.00  0.00     0.037 A 
ATOM     50  C   UNL A   1      45.342  24.939  26.848  1.00  0.00     0.049 A 
ATOM     51  C   UNL A   1      46.900  30.224  27.594  1.00  0.00     0.074 A 
ATOM     52  C   UNL A   1      46.340  24.009  26.619  1.00  0.00     0.029 A 
ATOM     53  N   UNL A   1      45.967  26.169  26.981  1.00  0.00    -0.354 N 
ATOM     54  N   UNL A   1      46.698  28.946  27.378  1.00  0.00    -0.248 NA
ATOM     55  C   UNL A   1      48.311  30.631  27.501  1.00  0.00     0.031 C 
ATOM     56  C   UNL A   1      47.574  24.669  26.649  1.00  0.00     0.029 A 
ATOM     57  C   UNL A   1      47.339  26.021  26.844  1.00  0.00     0.049 A 
ATOM     58  H   UNL A   1      45.505  27.023  27.147  1.00  0.00     0.167 HD
ATOM     59  C   UNL A   1      47.955  28.399  27.127  1.00  0.00     0.074 A 
ATOM     60  C   UNL A   1      48.904  29.490  27.180  1.00  0.00     0.031 C 
ATOM     61  C   UNL A   1      48.289  27.105  26.895  1.00  0.00     0.037 A 
BRANCH  48  62
ATOM     62  C   UNL A   1      43.386  23.333  26.774  1.00  0.00     0.058 A 
ATOM     63  C   UNL A   1      43.028  22.534  27.869  1.00  0.00     0.135 A 
ATOM     64  C   UNL A   1      43.303  22.769  25.490  1.00  0.00     0.135 A 
ATOM     65  F   UNL A   1      43.119  23.018  29.118  1.00  0.00    -0.206 F 
ATOM     66  C   UNL A   1      42.658  21.203  27.701  1.00  0.00     0.059 A 
ATOM     67  C   UNL A   1      42.909  21.451  25.296  1.00  0.00     0.059 A 
ATOM     68  F   UNL A   1      43.639  23.493  24.410  1.00  0.00    -0.206 F 
ATOM     69  C   UNL A   1      42.618  20.667  26.411  1.00  0.00     0.060 A 
BRANCH  69  70
ATOM     70  S   UNL A   1      42.216  18.921  26.207  1.00  0.00     0.124 S 
ATOM     71  O   UNL A   1      42.452  18.412  27.556  1.00  0.00    -0.237 OA
ATOM     72  O   UNL A   1      40.820  18.966  25.784  1.00  0.00    -0.237 OA
ATOM     73  O   UNL A   1      43.163  18.472  25.192  1.00  0.00    -0.744 OA
ENDBRANCH  69  70
ENDBRANCH  48  62
BRANCH  49  74
ATOM     74  C   UNL A   1      46.336  32.734  27.929  1.00  0.00     0.058 A 
ATOM     75  C   UNL A   1      46.169  33.523  26.777  1.00  0.00     0.135 A 
ATOM     76  C   UNL A   1      46.968  33.328  29.032  1.00  0.00     0.135 A 
ATOM     77  F   UNL A   1      45.592  33.000  25.684  1.00  0.00    -0.206 F 
ATOM     78  C   UNL A   1      46.622  34.838  26.715  1.00  0.00     0.059 A 
ATOM     79  C   UNL A   1      47.398  34.652  29.006  1.00  0.00     0.059 A 
ATOM     80  F   UNL A   1      47.165  32.622  30.155  1.00  0.00    -0.206 F 
ATOM     81  C   UNL A   1      47.234  35.396  27.838  1.00  0.00     0.060 A 
BRANCH  81  82
ATOM     82  S   UNL A   1      47.785  37.114  27.771  1.00  0.00     0.124 S 
ATOM     83  O   UNL A   1      46.976  37.639  26.677  1.00  0.00    -0.237 OA
ATOM     84  O   UNL A   1      47.448  37.601  29.106  1.00  0.00    -0.237 OA
ATOM     85  O   UNL A   1      49.215  36.995  27.499  1.00  0.00    -0.744 OA
ENDBRANCH  81  82
ENDBRANCH  49  74
BRANCH  61  86
ATOM     86  C   UNL A   1      49.744  26.786  26.657  1.00  0.00     0.058 A 
ATOM     87  C   UNL A   1      50.630  26.530  27.716  1.00  0.00     0.135 A 
ATOM     88  C   UNL A   1      50.249  26.694  25.350  1.00  0.00     0.135 A 
ATOM     89  F   UNL A   1      50.203  26.602  28.987  1.00  0.00    -0.206 F 
ATOM     90  C   UNL A   1      51.970  26.226  27.489  1.00  0.00     0.059 A 
ATOM     91  C   UNL A   1      51.579  26.366  25.099  1.00  0.00     0.059 A 
ATOM     92  F   UNL A   1      49.446  26.914  24.297  1.00  0.00    -0.206 F 
ATOM     93  C   UNL A   1      52.437  26.149  26.177  1.00  0.00     0.060 A 
BRANCH  93  94
ATOM     94  S   UNL A   1      54.173  25.739  25.892  1.00  0.00     0.124 S 
ATOM     95  O   UNL A   1      54.550  25.149  27.171  1.00  0.00    -0.237 OA
ATOM     96  O   UNL A   1      54.096  24.814  24.765  1.00  0.00    -0.237 OA
ATOM     97  O   UNL A   1      54.782  27.031  25.592  1.00  0.00    -0.744 OA
ENDBRANCH  93  94
ENDBRANCH  61  86
ENDBRANCH  35  36
ENDBRANCH  28  30
ENDBRANCH  27  28
ENDBRANCH  26  27
ENDBRANCH   1  26
TORSDOF 17
ENDMDL
