MODEL 1
REMARK VINA RESULT:     -11.6      0.000      0.000
REMARK SMILES Cc1ccc(C)c([C@@H](C)[C@](C)(O)C(=O)OCCOC(=O)c2ccc(-c3c4nc(c(-c5c(F)cc(S(=O)(=O)[O-])cc5F)c5ccc([nH]5)c(-c5c(F)cc(S(=O)(=O)[O-])cc5F)c5nc(c(-c6c(F)cc(S(=O)(=O)[O-])cc6F)c6ccc3[nH]6)C=C5)C=C4)cc2)c1
REMARK SMILES IDX 17 1 16 2 15 3 13 4 14 5 10 6 11 7 8 8 9 9 7 10 1 11 2 12
REMARK SMILES IDX 3 13 87 14 4 15 5 16 6 17 12 18 18 20 19 21 20 22 21 23
REMARK SMILES IDX 22 24 86 25 23 26 85 27 24 28 25 29 26 30 79 31 27 32 84 33
REMARK SMILES IDX 78 34 80 35 28 36 83 37 77 38 76 39 29 41 63 42 42 43 62 44
REMARK SMILES IDX 43 45 46 46 61 47 81 48 44 49 45 50 60 52 82 53 47 54 30 55
REMARK SMILES IDX 31 56 40 57 32 58 33 59 39 60 41 61 34 62 35 63 36 64 37 65
REMARK SMILES IDX 38 66 64 67 65 68 74 69 66 70 67 71 73 72 75 73 68 74 69 75
REMARK SMILES IDX 70 76 71 77 72 78 48 79 49 80 58 81 50 82 51 83 57 84 59 85
REMARK SMILES IDX 52 86 53 87 54 88 55 89 56 90
REMARK H PARENT 12 19 80 40 46 51
REMARK Flexibility Score: inf
ROOT
ATOM      1  C   UNL A   1      33.735  28.375  23.784  1.00  0.00     0.275 C 
ENDROOT
BRANCH   1   2
ATOM      2  C   UNL A   1      32.606  27.324  23.746  1.00  0.00     0.274 C 
BRANCH   2   3
ATOM      3  O   UNL A   1      32.921  26.004  24.220  1.00  0.00    -0.460 OA
BRANCH   3   4
ATOM      4  C   UNL A   1      33.002  25.101  23.184  1.00  0.00     0.338 C 
ATOM      5  O   UNL A   1      33.780  25.251  22.248  1.00  0.00    -0.249 OA
BRANCH   4   6
ATOM      6  C   UNL A   1      32.139  23.813  23.403  1.00  0.00     0.165 C 
ATOM      7  C   UNL A   1      30.671  24.310  23.304  1.00  0.00     0.055 C 
BRANCH   6   8
ATOM      8  C   UNL A   1      32.505  22.930  24.719  1.00  0.00     0.059 C 
ATOM      9  C   UNL A   1      31.779  23.413  25.993  1.00  0.00     0.016 C 
BRANCH   8  10
ATOM     10  C   UNL A   1      33.995  22.520  25.052  1.00  0.00    -0.039 A 
ATOM     11  C   UNL A   1      38.178  24.106  26.040  1.00  0.00     0.044 C 
ATOM     12  C   UNL A   1      37.075  23.234  25.552  1.00  0.00    -0.051 A 
ATOM     13  C   UNL A   1      37.478  21.517  25.234  1.00  0.00     0.004 A 
ATOM     14  C   UNL A   1      35.338  23.765  25.440  1.00  0.00     0.007 A 
ATOM     15  C   UNL A   1      36.148  20.298  24.894  1.00  0.00     0.004 A 
ATOM     16  C   UNL A   1      34.439  20.806  24.815  1.00  0.00    -0.048 A 
ATOM     17  C   UNL A   1      33.450  19.719  24.520  1.00  0.00     0.044 C 
ENDBRANCH   8  10
ENDBRANCH   6   8
BRANCH   6  18
ATOM     18  O   UNL A   1      32.241  22.899  22.280  1.00  0.00    -0.378 OA
ATOM     19  H   UNL A   1      31.674  23.209  21.558  1.00  0.00     0.212 HD
ENDBRANCH   6  18
ENDBRANCH   4   6
ENDBRANCH   3   4
ENDBRANCH   2   3
ENDBRANCH   1   2
BRANCH   1  20
ATOM     20  O   UNL A   1      34.106  28.894  25.079  1.00  0.00    -0.458 OA
BRANCH  20  21
ATOM     21  C   UNL A   1      33.307  29.675  25.862  1.00  0.00     0.338 C 
ATOM     22  O   UNL A   1      32.377  30.318  25.390  1.00  0.00    -0.246 OA
BRANCH  21  23
ATOM     23  C   UNL A   1      33.799  29.949  27.224  1.00  0.00     0.060 A 
ATOM     24  C   UNL A   1      33.602  31.235  27.613  1.00  0.00     0.016 A 
ATOM     25  C   UNL A   1      34.668  29.170  27.978  1.00  0.00     0.016 A 
ATOM     26  C   UNL A   1      34.634  31.820  28.329  1.00  0.00     0.010 A 
ATOM     27  C   UNL A   1      35.595  29.795  28.858  1.00  0.00     0.010 A 
ATOM     28  C   UNL A   1      35.817  31.190  28.829  1.00  0.00    -0.014 A 
BRANCH  28  29
ATOM     29  C   UNL A   1      37.315  31.975  29.524  1.00  0.00     0.031 A 
ATOM     30  C   UNL A   1      37.389  33.395  31.176  1.00  0.00     0.074 A 
ATOM     31  C   UNL A   1      38.341  31.109  28.832  1.00  0.00     0.049 A 
ATOM     32  N   UNL A   1      38.411  34.026  31.885  1.00  0.00    -0.248 NA
ATOM     33  C   UNL A   1      36.184  34.067  32.217  1.00  0.00     0.031 C 
ATOM     34  C   UNL A   1      38.243  30.241  27.617  1.00  0.00     0.029 A 
ATOM     35  N   UNL A   1      39.675  30.725  29.143  1.00  0.00    -0.354 N 
ATOM     36  C   UNL A   1      38.137  34.067  33.258  1.00  0.00     0.074 A 
ATOM     37  C   UNL A   1      36.744  34.218  33.411  1.00  0.00     0.031 C 
ATOM     38  C   UNL A   1      39.185  29.266  27.601  1.00  0.00     0.029 A 
ATOM     39  C   UNL A   1      40.082  29.471  28.705  1.00  0.00     0.049 A 
ATOM     40  H   UNL A   1      40.280  31.319  29.644  1.00  0.00     0.167 HD
ATOM     41  C   UNL A   1      39.096  33.758  34.176  1.00  0.00     0.037 A 
ATOM     42  C   UNL A   1      41.021  28.653  29.264  1.00  0.00     0.037 A 
ATOM     43  C   UNL A   1      40.416  34.023  33.675  1.00  0.00     0.049 A 
ATOM     44  C   UNL A   1      41.745  29.394  30.339  1.00  0.00     0.074 A 
ATOM     45  C   UNL A   1      40.995  35.179  33.199  1.00  0.00     0.029 A 
ATOM     46  N   UNL A   1      41.244  32.979  33.343  1.00  0.00    -0.354 N 
ATOM     47  N   UNL A   1      42.521  30.422  30.148  1.00  0.00    -0.248 NA
ATOM     48  C   UNL A   1      41.437  29.118  31.741  1.00  0.00     0.031 C 
ATOM     49  C   UNL A   1      42.020  34.768  32.320  1.00  0.00     0.029 A 
ATOM     50  C   UNL A   1      42.092  33.375  32.328  1.00  0.00     0.049 A 
ATOM     51  H   UNL A   1      41.235  32.089  33.764  1.00  0.00     0.167 HD
ATOM     52  C   UNL A   1      42.501  31.126  31.339  1.00  0.00     0.074 A 
ATOM     53  C   UNL A   1      41.947  30.209  32.319  1.00  0.00     0.031 C 
ATOM     54  C   UNL A   1      42.691  32.473  31.356  1.00  0.00     0.037 A 
BRANCH  41  55
ATOM     55  C   UNL A   1      38.864  32.994  35.459  1.00  0.00     0.058 A 
ATOM     56  C   UNL A   1      38.516  31.632  35.426  1.00  0.00     0.135 A 
ATOM     57  C   UNL A   1      38.676  33.641  36.700  1.00  0.00     0.135 A 
ATOM     58  F   UNL A   1      38.679  30.920  34.300  1.00  0.00    -0.206 F 
ATOM     59  C   UNL A   1      37.952  30.974  36.523  1.00  0.00     0.059 A 
ATOM     60  C   UNL A   1      38.099  33.011  37.806  1.00  0.00     0.059 A 
ATOM     61  F   UNL A   1      39.008  34.926  36.863  1.00  0.00    -0.206 F 
ATOM     62  C   UNL A   1      37.723  31.677  37.702  1.00  0.00     0.060 A 
BRANCH  62  63
ATOM     63  S   UNL A   1      36.883  30.844  39.070  1.00  0.00     0.124 S 
ATOM     64  O   UNL A   1      35.651  31.617  39.185  1.00  0.00    -0.237 OA
ATOM     65  O   UNL A   1      36.741  29.491  38.546  1.00  0.00    -0.237 OA
ATOM     66  O   UNL A   1      37.819  30.990  40.180  1.00  0.00    -0.744 OA
ENDBRANCH  62  63
ENDBRANCH  41  55
BRANCH  42  67
ATOM     67  C   UNL A   1      41.217  27.171  29.145  1.00  0.00     0.058 A 
ATOM     68  C   UNL A   1      40.114  26.298  28.991  1.00  0.00     0.135 A 
ATOM     69  C   UNL A   1      42.481  26.593  28.928  1.00  0.00     0.135 A 
ATOM     70  F   UNL A   1      38.863  26.752  29.165  1.00  0.00    -0.206 F 
ATOM     71  C   UNL A   1      40.255  24.961  28.595  1.00  0.00     0.059 A 
ATOM     72  C   UNL A   1      42.647  25.258  28.549  1.00  0.00     0.059 A 
ATOM     73  F   UNL A   1      43.597  27.333  28.991  1.00  0.00    -0.206 F 
ATOM     74  C   UNL A   1      41.529  24.454  28.357  1.00  0.00     0.060 A 
BRANCH  74  75
ATOM     75  S   UNL A   1      41.714  22.785  27.678  1.00  0.00     0.124 S 
ATOM     76  O   UNL A   1      42.861  22.280  28.425  1.00  0.00    -0.237 OA
ATOM     77  O   UNL A   1      40.427  22.177  27.997  1.00  0.00    -0.237 OA
ATOM     78  O   UNL A   1      41.954  23.024  26.257  1.00  0.00    -0.744 OA
ENDBRANCH  74  75
ENDBRANCH  42  67
BRANCH  54  79
ATOM     79  C   UNL A   1      43.391  33.100  30.168  1.00  0.00     0.058 A 
ATOM     80  C   UNL A   1      42.748  33.833  29.155  1.00  0.00     0.135 A 
ATOM     81  C   UNL A   1      44.795  33.065  30.126  1.00  0.00     0.135 A 
ATOM     82  F   UNL A   1      41.418  33.997  29.154  1.00  0.00    -0.206 F 
ATOM     83  C   UNL A   1      43.457  34.480  28.144  1.00  0.00     0.059 A 
ATOM     84  C   UNL A   1      45.527  33.741  29.153  1.00  0.00     0.059 A 
ATOM     85  F   UNL A   1      45.483  32.416  31.081  1.00  0.00    -0.206 F 
ATOM     86  C   UNL A   1      44.850  34.437  28.158  1.00  0.00     0.060 A 
BRANCH  86  87
ATOM     87  S   UNL A   1      45.762  35.364  26.907  1.00  0.00     0.124 S 
ATOM     88  O   UNL A   1      45.030  36.626  26.869  1.00  0.00    -0.237 OA
ATOM     89  O   UNL A   1      47.106  35.427  27.475  1.00  0.00    -0.237 OA
ATOM     90  O   UNL A   1      45.640  34.534  25.711  1.00  0.00    -0.744 OA
ENDBRANCH  86  87
ENDBRANCH  54  79
ENDBRANCH  28  29
ENDBRANCH  21  23
ENDBRANCH  20  21
ENDBRANCH   1  20
TORSDOF 17
ENDMDL
MODEL 2
REMARK VINA RESULT:     -11.4      0.881      2.037
REMARK SMILES Cc1ccc(C)c([C@@H](C)[C@](C)(O)C(=O)OCCOC(=O)c2ccc(-c3c4nc(c(-c5c(F)cc(S(=O)(=O)[O-])cc5F)c5ccc([nH]5)c(-c5c(F)cc(S(=O)(=O)[O-])cc5F)c5nc(c(-c6c(F)cc(S(=O)(=O)[O-])cc6F)c6ccc3[nH]6)C=C5)C=C4)cc2)c1
REMARK SMILES IDX 17 1 16 2 15 3 13 4 14 5 10 6 11 7 8 8 9 9 7 10 1 11 2 12
REMARK SMILES IDX 3 13 87 14 4 15 5 16 6 17 12 18 18 20 19 21 20 22 21 23
REMARK SMILES IDX 22 24 86 25 23 26 85 27 24 28 25 29 26 30 79 31 27 32 84 33
REMARK SMILES IDX 78 34 80 35 28 36 83 37 77 38 76 39 29 41 63 42 42 43 62 44
REMARK SMILES IDX 43 45 46 46 61 47 81 48 44 49 45 50 60 52 82 53 47 54 30 55
REMARK SMILES IDX 31 56 40 57 32 58 33 59 39 60 41 61 34 62 35 63 36 64 37 65
REMARK SMILES IDX 38 66 64 67 65 68 74 69 66 70 67 71 73 72 75 73 68 74 69 75
REMARK SMILES IDX 70 76 71 77 72 78 48 79 49 80 58 81 50 82 51 83 57 84 59 85
REMARK SMILES IDX 52 86 53 87 54 88 55 89 56 90
REMARK H PARENT 12 19 80 40 46 51
REMARK Flexibility Score: inf
ROOT
ATOM      1  C   UNL A   1      33.691  27.812  24.268  1.00  0.00     0.275 C 
ENDROOT
BRANCH   1   2
ATOM      2  C   UNL A   1      32.623  26.912  24.924  1.00  0.00     0.274 C 
BRANCH   2   3
ATOM      3  O   UNL A   1      33.070  25.668  25.489  1.00  0.00    -0.460 OA
BRANCH   3   4
ATOM      4  C   UNL A   1      32.022  24.944  26.012  1.00  0.00     0.338 C 
ATOM      5  O   UNL A   1      31.397  25.321  26.996  1.00  0.00    -0.249 OA
BRANCH   4   6
ATOM      6  C   UNL A   1      31.619  23.705  25.144  1.00  0.00     0.165 C 
ATOM      7  C   UNL A   1      31.271  22.602  26.181  1.00  0.00     0.055 C 
BRANCH   6   8
ATOM      8  C   UNL A   1      32.674  23.281  23.980  1.00  0.00     0.059 C 
ATOM      9  C   UNL A   1      32.147  23.556  22.556  1.00  0.00     0.016 C 
BRANCH   8  10
ATOM     10  C   UNL A   1      33.448  21.904  24.029  1.00  0.00    -0.039 A 
ATOM     11  C   UNL A   1      33.027  17.360  23.628  1.00  0.00     0.044 C 
ATOM     12  C   UNL A   1      33.521  18.704  24.033  1.00  0.00    -0.051 A 
ATOM     13  C   UNL A   1      35.172  18.787  24.726  1.00  0.00     0.004 A 
ATOM     14  C   UNL A   1      32.628  20.254  23.702  1.00  0.00     0.007 A 
ATOM     15  C   UNL A   1      35.982  20.410  25.005  1.00  0.00     0.004 A 
ATOM     16  C   UNL A   1      35.123  21.934  24.651  1.00  0.00    -0.048 A 
ATOM     17  C   UNL A   1      35.888  23.193  24.932  1.00  0.00     0.044 C 
ENDBRANCH   8  10
ENDBRANCH   6   8
BRANCH   6  18
ATOM     18  O   UNL A   1      30.353  23.912  24.466  1.00  0.00    -0.378 OA
ATOM     19  H   UNL A   1      30.309  24.821  24.131  1.00  0.00     0.212 HD
ENDBRANCH   6  18
ENDBRANCH   4   6
ENDBRANCH   3   4
ENDBRANCH   2   3
ENDBRANCH   1   2
BRANCH   1  20
ATOM     20  O   UNL A   1      34.133  28.962  25.020  1.00  0.00    -0.458 OA
BRANCH  20  21
ATOM     21  C   UNL A   1      33.331  29.726  25.817  1.00  0.00     0.338 C 
ATOM     22  O   UNL A   1      32.386  30.358  25.359  1.00  0.00    -0.246 OA
BRANCH  21  23
ATOM     23  C   UNL A   1      33.835  30.000  27.175  1.00  0.00     0.060 A 
ATOM     24  C   UNL A   1      33.690  31.299  27.545  1.00  0.00     0.016 A 
ATOM     25  C   UNL A   1      34.671  29.197  27.940  1.00  0.00     0.016 A 
ATOM     26  C   UNL A   1      34.745  31.851  28.253  1.00  0.00     0.010 A 
ATOM     27  C   UNL A   1      35.622  29.796  28.812  1.00  0.00     0.010 A 
ATOM     28  C   UNL A   1      35.902  31.181  28.763  1.00  0.00    -0.014 A 
BRANCH  28  29
ATOM     29  C   UNL A   1      37.431  31.913  29.447  1.00  0.00     0.031 A 
ATOM     30  C   UNL A   1      37.565  33.328  31.100  1.00  0.00     0.074 A 
ATOM     31  C   UNL A   1      38.421  31.015  28.746  1.00  0.00     0.049 A 
ATOM     32  N   UNL A   1      38.613  33.923  31.802  1.00  0.00    -0.248 NA
ATOM     33  C   UNL A   1      36.391  34.038  32.152  1.00  0.00     0.031 C 
ATOM     34  C   UNL A   1      38.285  30.152  27.531  1.00  0.00     0.029 A 
ATOM     35  N   UNL A   1      39.744  30.586  29.045  1.00  0.00    -0.354 N 
ATOM     36  C   UNL A   1      38.352  33.970  33.177  1.00  0.00     0.074 A 
ATOM     37  C   UNL A   1      36.966  34.168  33.341  1.00  0.00     0.031 C 
ATOM     38  C   UNL A   1      39.193  29.146  27.506  1.00  0.00     0.029 A 
ATOM     39  C   UNL A   1      40.105  29.319  28.603  1.00  0.00     0.049 A 
ATOM     40  H   UNL A   1      40.372  31.158  29.542  1.00  0.00     0.167 HD
ATOM     41  C   UNL A   1      39.306  33.629  34.088  1.00  0.00     0.037 A 
ATOM     42  C   UNL A   1      41.020  28.469  29.154  1.00  0.00     0.037 A 
ATOM     43  C   UNL A   1      40.631  33.850  33.576  1.00  0.00     0.049 A 
ATOM     44  C   UNL A   1      41.778  29.183  30.224  1.00  0.00     0.074 A 
ATOM     45  C   UNL A   1      41.245  34.986  33.098  1.00  0.00     0.029 A 
ATOM     46  N   UNL A   1      41.421  32.778  33.237  1.00  0.00    -0.354 N 
ATOM     47  N   UNL A   1      42.586  30.185  30.028  1.00  0.00    -0.248 NA
ATOM     48  C   UNL A   1      41.471  28.916  31.628  1.00  0.00     0.031 C 
ATOM     49  C   UNL A   1      42.249  34.542  32.210  1.00  0.00     0.029 A 
ATOM     50  C   UNL A   1      42.273  33.148  32.215  1.00  0.00     0.049 A 
ATOM     51  H   UNL A   1      41.385  31.889  33.656  1.00  0.00     0.167 HD
ATOM     52  C   UNL A   1      42.599  30.887  31.220  1.00  0.00     0.074 A 
ATOM     53  C   UNL A   1      42.022  29.989  32.203  1.00  0.00     0.031 C 
ATOM     54  C   UNL A   1      42.835  32.227  31.238  1.00  0.00     0.037 A 
BRANCH  41  55
ATOM     55  C   UNL A   1      39.059  32.871  35.372  1.00  0.00     0.058 A 
ATOM     56  C   UNL A   1      38.502  31.579  35.342  1.00  0.00     0.135 A 
ATOM     57  C   UNL A   1      39.070  33.501  36.635  1.00  0.00     0.135 A 
ATOM     58  F   UNL A   1      38.465  30.885  34.194  1.00  0.00    -0.206 F 
ATOM     59  C   UNL A   1      37.930  30.983  36.470  1.00  0.00     0.059 A 
ATOM     60  C   UNL A   1      38.490  32.933  37.773  1.00  0.00     0.059 A 
ATOM     61  F   UNL A   1      39.610  34.714  36.793  1.00  0.00    -0.206 F 
ATOM     62  C   UNL A   1      37.905  31.677  37.676  1.00  0.00     0.060 A 
BRANCH  62  63
ATOM     63  S   UNL A   1      37.055  30.942  39.092  1.00  0.00     0.124 S 
ATOM     64  O   UNL A   1      37.071  29.523  38.751  1.00  0.00    -0.237 OA
ATOM     65  O   UNL A   1      37.920  31.342  40.195  1.00  0.00    -0.237 OA
ATOM     66  O   UNL A   1      35.741  31.577  39.065  1.00  0.00    -0.744 OA
ENDBRANCH  62  63
ENDBRANCH  41  55
BRANCH  42  67
ATOM     67  C   UNL A   1      41.165  26.981  29.031  1.00  0.00     0.058 A 
ATOM     68  C   UNL A   1      40.040  26.153  28.815  1.00  0.00     0.135 A 
ATOM     69  C   UNL A   1      42.416  26.357  28.871  1.00  0.00     0.135 A 
ATOM     70  F   UNL A   1      38.799  26.653  28.931  1.00  0.00    -0.206 F 
ATOM     71  C   UNL A   1      40.148  24.814  28.414  1.00  0.00     0.059 A 
ATOM     72  C   UNL A   1      42.550  25.020  28.490  1.00  0.00     0.059 A 
ATOM     73  F   UNL A   1      43.555  27.053  28.996  1.00  0.00    -0.206 F 
ATOM     74  C   UNL A   1      41.412  24.260  28.235  1.00  0.00     0.060 A 
BRANCH  74  75
ATOM     75  S   UNL A   1      41.568  22.591  27.551  1.00  0.00     0.124 S 
ATOM     76  O   UNL A   1      42.673  22.045  28.332  1.00  0.00    -0.237 OA
ATOM     77  O   UNL A   1      40.252  22.021  27.824  1.00  0.00    -0.237 OA
ATOM     78  O   UNL A   1      41.860  22.830  26.141  1.00  0.00    -0.744 OA
ENDBRANCH  74  75
ENDBRANCH  42  67
BRANCH  54  79
ATOM     79  C   UNL A   1      43.546  32.833  30.045  1.00  0.00     0.058 A 
ATOM     80  C   UNL A   1      44.898  32.621  29.725  1.00  0.00     0.135 A 
ATOM     81  C   UNL A   1      42.783  33.557  29.112  1.00  0.00     0.135 A 
ATOM     82  F   UNL A   1      45.687  31.873  30.508  1.00  0.00    -0.206 F 
ATOM     83  C   UNL A   1      45.469  33.116  28.554  1.00  0.00     0.059 A 
ATOM     84  C   UNL A   1      43.320  34.021  27.913  1.00  0.00     0.059 A 
ATOM     85  F   UNL A   1      41.474  33.768  29.328  1.00  0.00    -0.206 F 
ATOM     86  C   UNL A   1      44.668  33.807  27.647  1.00  0.00     0.060 A 
BRANCH  86  87
ATOM     87  S   UNL A   1      45.391  34.352  26.086  1.00  0.00     0.124 S 
ATOM     88  O   UNL A   1      44.357  33.981  25.127  1.00  0.00    -0.237 OA
ATOM     89  O   UNL A   1      45.571  35.785  26.303  1.00  0.00    -0.237 OA
ATOM     90  O   UNL A   1      46.631  33.585  25.999  1.00  0.00    -0.744 OA
ENDBRANCH  86  87
ENDBRANCH  54  79
ENDBRANCH  28  29
ENDBRANCH  21  23
ENDBRANCH  20  21
ENDBRANCH   1  20
TORSDOF 17
ENDMDL
MODEL 3
REMARK VINA RESULT:     -11.3      4.790     11.629
REMARK SMILES Cc1ccc(C)c([C@@H](C)[C@](C)(O)C(=O)OCCOC(=O)c2ccc(-c3c4nc(c(-c5c(F)cc(S(=O)(=O)[O-])cc5F)c5ccc([nH]5)c(-c5c(F)cc(S(=O)(=O)[O-])cc5F)c5nc(c(-c6c(F)cc(S(=O)(=O)[O-])cc6F)c6ccc3[nH]6)C=C5)C=C4)cc2)c1
REMARK SMILES IDX 17 1 16 2 15 3 13 4 14 5 10 6 11 7 8 8 9 9 7 10 1 11 2 12
REMARK SMILES IDX 3 13 87 14 4 15 5 16 6 17 12 18 18 20 19 21 20 22 21 23
REMARK SMILES IDX 22 24 86 25 23 26 85 27 24 28 25 29 26 30 79 31 27 32 84 33
REMARK SMILES IDX 78 34 80 35 28 36 83 37 77 38 76 39 29 41 63 42 42 43 62 44
REMARK SMILES IDX 43 45 46 46 61 47 81 48 44 49 45 50 60 52 82 53 47 54 30 55
REMARK SMILES IDX 31 56 40 57 32 58 33 59 39 60 41 61 34 62 35 63 36 64 37 65
REMARK SMILES IDX 38 66 64 67 65 68 74 69 66 70 67 71 73 72 75 73 68 74 69 75
REMARK SMILES IDX 70 76 71 77 72 78 48 79 49 80 58 81 50 82 51 83 57 84 59 85
REMARK SMILES IDX 52 86 53 87 54 88 55 89 56 90
REMARK H PARENT 12 19 80 40 46 51
REMARK Flexibility Score: inf
ROOT
ATOM      1  C   UNL A   1      33.695  33.687  28.891  1.00  0.00     0.275 C 
ENDROOT
BRANCH   1   2
ATOM      2  C   UNL A   1      33.803  34.440  30.233  1.00  0.00     0.274 C 
BRANCH   2   3
ATOM      3  O   UNL A   1      34.955  34.168  31.048  1.00  0.00    -0.460 OA
BRANCH   3   4
ATOM      4  C   UNL A   1      34.614  33.494  32.199  1.00  0.00     0.338 C 
ATOM      5  O   UNL A   1      33.809  32.570  32.198  1.00  0.00    -0.249 OA
BRANCH   4   6
ATOM      6  C   UNL A   1      35.463  33.910  33.447  1.00  0.00     0.165 C 
ATOM      7  C   UNL A   1      35.421  35.463  33.441  1.00  0.00     0.055 C 
BRANCH   6   8
ATOM      8  C   UNL A   1      36.939  33.238  33.556  1.00  0.00     0.059 C 
ATOM      9  C   UNL A   1      36.905  31.695  33.545  1.00  0.00     0.016 C 
BRANCH   8  10
ATOM     10  C   UNL A   1      38.011  33.761  34.594  1.00  0.00    -0.039 A 
ATOM     11  C   UNL A   1      38.869  34.490  39.035  1.00  0.00     0.044 C 
ATOM     12  C   UNL A   1      38.898  34.605  37.552  1.00  0.00    -0.051 A 
ATOM     13  C   UNL A   1      40.277  35.498  36.835  1.00  0.00     0.004 A 
ATOM     14  C   UNL A   1      37.734  33.750  36.446  1.00  0.00     0.007 A 
ATOM     15  C   UNL A   1      40.561  35.468  35.021  1.00  0.00     0.004 A 
ATOM     16  C   UNL A   1      39.440  34.604  33.934  1.00  0.00    -0.048 A 
ATOM     17  C   UNL A   1      39.776  34.663  32.473  1.00  0.00     0.044 C 
ENDBRANCH   8  10
ENDBRANCH   6   8
BRANCH   6  18
ATOM     18  O   UNL A   1      34.790  33.580  34.689  1.00  0.00    -0.378 OA
ATOM     19  H   UNL A   1      34.671  34.384  35.218  1.00  0.00     0.212 HD
ENDBRANCH   6  18
ENDBRANCH   4   6
ENDBRANCH   3   4
ENDBRANCH   2   3
ENDBRANCH   1   2
BRANCH   1  20
ATOM     20  O   UNL A   1      34.394  32.428  28.786  1.00  0.00    -0.458 OA
BRANCH  20  21
ATOM     21  C   UNL A   1      35.620  32.265  28.209  1.00  0.00     0.338 C 
ATOM     22  O   UNL A   1      36.135  33.149  27.535  1.00  0.00    -0.246 OA
BRANCH  21  23
ATOM     23  C   UNL A   1      36.144  30.887  28.175  1.00  0.00     0.060 A 
ATOM     24  C   UNL A   1      35.916  30.202  29.325  1.00  0.00     0.016 A 
ATOM     25  C   UNL A   1      37.060  30.358  27.274  1.00  0.00     0.016 A 
ATOM     26  C   UNL A   1      36.950  29.391  29.764  1.00  0.00     0.010 A 
ATOM     27  C   UNL A   1      37.992  29.375  27.710  1.00  0.00     0.010 A 
ATOM     28  C   UNL A   1      38.168  29.079  29.081  1.00  0.00    -0.014 A 
BRANCH  28  29
ATOM     29  C   UNL A   1      39.660  28.251  29.737  1.00  0.00     0.031 A 
ATOM     30  C   UNL A   1      40.627  26.478  28.916  1.00  0.00     0.074 A 
ATOM     31  C   UNL A   1      40.081  29.326  30.710  1.00  0.00     0.049 A 
ATOM     32  N   UNL A   1      41.787  25.763  29.216  1.00  0.00    -0.248 NA
ATOM     33  C   UNL A   1      40.318  25.493  27.530  1.00  0.00     0.031 C 
ATOM     34  C   UNL A   1      39.319  30.456  31.325  1.00  0.00     0.029 A 
ATOM     35  N   UNL A   1      41.331  29.711  31.270  1.00  0.00    -0.354 N 
ATOM     36  C   UNL A   1      42.465  25.370  28.055  1.00  0.00     0.074 A 
ATOM     37  C   UNL A   1      41.496  25.092  27.069  1.00  0.00     0.031 C 
ATOM     38  C   UNL A   1      40.126  31.466  31.730  1.00  0.00     0.029 A 
ATOM     39  C   UNL A   1      41.494  31.058  31.566  1.00  0.00     0.049 A 
ATOM     40  H   UNL A   1      42.045  29.055  31.438  1.00  0.00     0.167 HD
ATOM     41  C   UNL A   1      43.816  25.508  27.948  1.00  0.00     0.037 A 
ATOM     42  C   UNL A   1      42.655  31.776  31.589  1.00  0.00     0.037 A 
ATOM     43  C   UNL A   1      44.457  25.463  29.233  1.00  0.00     0.049 A 
ATOM     44  C   UNL A   1      43.815  30.845  31.456  1.00  0.00     0.074 A 
ATOM     45  C   UNL A   1      44.457  24.500  30.218  1.00  0.00     0.029 A 
ATOM     46  N   UNL A   1      44.983  26.610  29.776  1.00  0.00    -0.354 N 
ATOM     47  N   UNL A   1      44.162  29.949  32.335  1.00  0.00    -0.248 NA
ATOM     48  C   UNL A   1      44.521  30.749  30.180  1.00  0.00     0.031 C 
ATOM     49  C   UNL A   1      44.707  25.181  31.429  1.00  0.00     0.029 A 
ATOM     50  C   UNL A   1      44.921  26.531  31.153  1.00  0.00     0.049 A 
ATOM     51  H   UNL A   1      45.348  27.367  29.264  1.00  0.00     0.167 HD
ATOM     52  C   UNL A   1      44.840  28.976  31.623  1.00  0.00     0.074 A 
ATOM     53  C   UNL A   1      45.158  29.586  30.344  1.00  0.00     0.031 C 
ATOM     54  C   UNL A   1      44.844  27.682  32.041  1.00  0.00     0.037 A 
BRANCH  41  55
ATOM     55  C   UNL A   1      44.557  25.917  26.696  1.00  0.00     0.058 A 
ATOM     56  C   UNL A   1      45.459  25.031  26.079  1.00  0.00     0.135 A 
ATOM     57  C   UNL A   1      44.633  27.260  26.268  1.00  0.00     0.135 A 
ATOM     58  F   UNL A   1      45.451  23.728  26.398  1.00  0.00    -0.206 F 
ATOM     59  C   UNL A   1      46.418  25.459  25.155  1.00  0.00     0.059 A 
ATOM     60  C   UNL A   1      45.592  27.716  25.360  1.00  0.00     0.059 A 
ATOM     61  F   UNL A   1      43.799  28.185  26.756  1.00  0.00    -0.206 F 
ATOM     62  C   UNL A   1      46.495  26.809  24.821  1.00  0.00     0.060 A 
BRANCH  62  63
ATOM     63  S   UNL A   1      47.817  27.363  23.719  1.00  0.00     0.124 S 
ATOM     64  O   UNL A   1      48.286  26.103  23.150  1.00  0.00    -0.237 OA
ATOM     65  O   UNL A   1      47.092  28.242  22.809  1.00  0.00    -0.237 OA
ATOM     66  O   UNL A   1      48.752  28.029  24.620  1.00  0.00    -0.744 OA
ENDBRANCH  62  63
ENDBRANCH  41  55
BRANCH  42  67
ATOM     67  C   UNL A   1      42.891  33.252  31.466  1.00  0.00     0.058 A 
ATOM     68  C   UNL A   1      43.351  34.012  32.567  1.00  0.00     0.135 A 
ATOM     69  C   UNL A   1      42.914  33.910  30.224  1.00  0.00     0.135 A 
ATOM     70  F   UNL A   1      43.381  33.474  33.796  1.00  0.00    -0.206 F 
ATOM     71  C   UNL A   1      43.852  35.314  32.432  1.00  0.00     0.059 A 
ATOM     72  C   UNL A   1      43.392  35.214  30.067  1.00  0.00     0.059 A 
ATOM     73  F   UNL A   1      42.553  33.275  29.099  1.00  0.00    -0.206 F 
ATOM     74  C   UNL A   1      43.887  35.902  31.171  1.00  0.00     0.060 A 
BRANCH  74  75
ATOM     75  S   UNL A   1      44.689  37.511  30.956  1.00  0.00     0.124 S 
ATOM     76  O   UNL A   1      44.940  37.912  32.336  1.00  0.00    -0.237 OA
ATOM     77  O   UNL A   1      45.868  37.166  30.168  1.00  0.00    -0.237 OA
ATOM     78  O   UNL A   1      43.681  38.299  30.252  1.00  0.00    -0.744 OA
ENDBRANCH  74  75
ENDBRANCH  42  67
BRANCH  54  79
ATOM     79  C   UNL A   1      44.532  27.412  33.499  1.00  0.00     0.058 A 
ATOM     80  C   UNL A   1      43.237  27.277  34.029  1.00  0.00     0.135 A 
ATOM     81  C   UNL A   1      45.602  27.150  34.372  1.00  0.00     0.135 A 
ATOM     82  F   UNL A   1      42.152  27.424  33.257  1.00  0.00    -0.206 F 
ATOM     83  C   UNL A   1      43.015  26.922  35.359  1.00  0.00     0.059 A 
ATOM     84  C   UNL A   1      45.404  26.748  35.691  1.00  0.00     0.059 A 
ATOM     85  F   UNL A   1      46.869  27.221  33.928  1.00  0.00    -0.206 F 
ATOM     86  C   UNL A   1      44.106  26.647  36.180  1.00  0.00     0.060 A 
BRANCH  86  87
ATOM     87  S   UNL A   1      43.806  26.085  37.868  1.00  0.00     0.124 S 
ATOM     88  O   UNL A   1      44.400  24.753  37.855  1.00  0.00    -0.237 OA
ATOM     89  O   UNL A   1      44.509  27.086  38.666  1.00  0.00    -0.237 OA
ATOM     90  O   UNL A   1      42.350  26.120  37.985  1.00  0.00    -0.744 OA
ENDBRANCH  86  87
ENDBRANCH  54  79
ENDBRANCH  28  29
ENDBRANCH  21  23
ENDBRANCH  20  21
ENDBRANCH   1  20
TORSDOF 17
ENDMDL
