MODEL 1
REMARK VINA RESULT:      -8.5      0.000      0.000
REMARK SMILES CCCCOC(=O)c1ccc(N2C[C@H](C(=O)OCCOC(=O)c3ccc(-c4c5nc(c(-c6c(F)cc(S(=O)(=O)[O-])cc6F)c6ccc([nH]6)c(-c6c(F)cc(S(=O)(=O)[O-])cc6F)c6nc(c(-c7c(F)cc(S(=O)(=O)[O-])cc7F)c7ccc4[nH]7)C=C6)C=C5)cc3)CC2=O)cc1
REMARK SMILES IDX 17 1 15 2 16 3 14 4 12 5 13 6 90 7 89 8 91 9 11 10 8 11 9 12
REMARK SMILES IDX 93 13 10 14 92 15 6 16 7 17 5 18 4 19 3 20 2 21 1 22 18 23
REMARK SMILES IDX 19 24 20 25 21 26 22 27 23 28 24 29 88 30 25 31 87 32 26 33
REMARK SMILES IDX 27 34 28 35 81 36 29 37 86 38 80 39 82 40 30 41 85 42 79 43
REMARK SMILES IDX 78 44 31 46 65 47 44 48 64 49 45 50 48 51 63 52 83 53 46 54
REMARK SMILES IDX 47 55 62 57 84 58 49 59 32 60 33 61 42 62 34 63 35 64 41 65
REMARK SMILES IDX 43 66 36 67 37 68 38 69 39 70 40 71 66 72 67 73 76 74 68 75
REMARK SMILES IDX 69 76 75 77 77 78 70 79 71 80 72 81 73 82 74 83 50 84 51 85
REMARK SMILES IDX 60 86 52 87 53 88 59 89 61 90 54 91 55 92 56 93 57 94 58 95
REMARK H PARENT 82 45 48 56
REMARK Flexibility Score: inf
ROOT
ATOM      1  O   UNL A   1      34.017  33.405  30.393  1.00  0.00    -0.462 OA
ENDROOT
BRANCH   1   2
ATOM      2  C   UNL A   1      35.005  33.562  31.310  1.00  0.00     0.311 C 
ATOM      3  O   UNL A   1      35.893  34.403  31.248  1.00  0.00    -0.252 OA
BRANCH   2   4
ATOM      4  C   UNL A   1      34.928  32.561  32.440  1.00  0.00     0.128 C 
ATOM      5  N   UNL A   1      36.941  31.613  33.182  1.00  0.00    -0.312 N 
ATOM      6  C   UNL A   1      35.851  31.370  32.276  1.00  0.00     0.141 C 
ATOM      7  C   UNL A   1      36.668  32.650  34.073  1.00  0.00     0.227 C 
ATOM      8  C   UNL A   1      35.297  33.191  33.770  1.00  0.00     0.117 C 
ATOM      9  O   UNL A   1      37.375  33.089  34.968  1.00  0.00    -0.274 OA
BRANCH   5  10
ATOM     10  C   UNL A   1      38.102  30.811  33.208  1.00  0.00     0.044 A 
ATOM     11  C   UNL A   1      40.318  29.128  33.419  1.00  0.00     0.060 A 
ATOM     12  C   UNL A   1      40.410  30.440  33.882  1.00  0.00     0.018 A 
ATOM     13  C   UNL A   1      39.156  28.660  32.810  1.00  0.00     0.018 A 
ATOM     14  C   UNL A   1      39.306  31.292  33.747  1.00  0.00     0.027 A 
ATOM     15  C   UNL A   1      38.049  29.499  32.721  1.00  0.00     0.027 A 
BRANCH  11  16
ATOM     16  C   UNL A   1      41.370  28.153  33.710  1.00  0.00     0.338 C 
ATOM     17  O   UNL A   1      42.208  27.832  32.882  1.00  0.00    -0.246 OA
BRANCH  16  18
ATOM     18  O   UNL A   1      41.293  27.780  35.006  1.00  0.00    -0.462 OA
BRANCH  18  19
ATOM     19  C   UNL A   1      42.549  27.667  35.692  1.00  0.00     0.233 C 
BRANCH  19  20
ATOM     20  C   UNL A   1      43.145  29.041  36.002  1.00  0.00     0.041 C 
BRANCH  20  21
ATOM     21  C   UNL A   1      44.516  29.310  35.377  1.00  0.00     0.000 C 
ATOM     22  C   UNL A   1      45.135  28.087  34.716  1.00  0.00     0.004 C 
ENDBRANCH  20  21
ENDBRANCH  19  20
ENDBRANCH  18  19
ENDBRANCH  16  18
ENDBRANCH  11  16
ENDBRANCH   5  10
ENDBRANCH   2   4
ENDBRANCH   1   2
BRANCH   1  23
ATOM     23  C   UNL A   1      34.280  33.945  29.083  1.00  0.00     0.274 C 
BRANCH  23  24
ATOM     24  C   UNL A   1      34.273  32.848  28.016  1.00  0.00     0.275 C 
BRANCH  24  25
ATOM     25  O   UNL A   1      34.362  31.537  28.607  1.00  0.00    -0.458 OA
BRANCH  25  26
ATOM     26  C   UNL A   1      34.596  30.530  27.735  1.00  0.00     0.338 C 
ATOM     27  O   UNL A   1      33.883  30.167  26.816  1.00  0.00    -0.246 OA
BRANCH  26  28
ATOM     28  C   UNL A   1      35.939  29.977  27.958  1.00  0.00     0.060 A 
ATOM     29  C   UNL A   1      36.217  29.397  29.197  1.00  0.00     0.016 A 
ATOM     30  C   UNL A   1      36.949  30.142  27.010  1.00  0.00     0.016 A 
ATOM     31  C   UNL A   1      37.514  29.001  29.511  1.00  0.00     0.010 A 
ATOM     32  C   UNL A   1      38.249  29.726  27.318  1.00  0.00     0.010 A 
ATOM     33  C   UNL A   1      38.544  29.175  28.579  1.00  0.00    -0.014 A 
BRANCH  33  34
ATOM     34  C   UNL A   1      39.935  28.825  28.956  1.00  0.00     0.031 A 
ATOM     35  C   UNL A   1      40.786  29.817  29.699  1.00  0.00     0.074 A 
ATOM     36  C   UNL A   1      40.426  27.610  28.647  1.00  0.00     0.049 A 
ATOM     37  N   UNL A   1      42.032  29.716  30.083  1.00  0.00    -0.248 NA
ATOM     38  C   UNL A   1      40.150  31.097  30.049  1.00  0.00     0.031 C 
ATOM     39  C   UNL A   1      39.690  26.559  27.945  1.00  0.00     0.029 A 
ATOM     40  N   UNL A   1      41.661  27.059  28.878  1.00  0.00    -0.354 N 
ATOM     41  C   UNL A   1      42.342  30.925  30.692  1.00  0.00     0.074 A 
ATOM     42  C   UNL A   1      41.157  31.753  30.608  1.00  0.00     0.031 C 
ATOM     43  C   UNL A   1      40.489  25.491  27.798  1.00  0.00     0.029 A 
ATOM     44  C   UNL A   1      41.803  25.795  28.356  1.00  0.00     0.049 A 
ATOM     45  H   UNL A   1      42.376  27.523  29.370  1.00  0.00     0.167 HD
ATOM     46  C   UNL A   1      43.506  31.308  31.271  1.00  0.00     0.037 A 
ATOM     47  C   UNL A   1      42.878  24.985  28.308  1.00  0.00     0.037 A 
ATOM     48  C   UNL A   1      44.675  30.470  31.359  1.00  0.00     0.049 A 
ATOM     49  C   UNL A   1      44.166  25.434  28.938  1.00  0.00     0.074 A 
ATOM     50  C   UNL A   1      45.888  30.747  31.965  1.00  0.00     0.029 A 
ATOM     51  N   UNL A   1      44.782  29.197  30.817  1.00  0.00    -0.354 N 
ATOM     52  N   UNL A   1      44.434  26.566  29.543  1.00  0.00    -0.248 NA
ATOM     53  C   UNL A   1      45.295  24.496  28.886  1.00  0.00     0.031 C 
ATOM     54  C   UNL A   1      46.746  29.663  31.742  1.00  0.00     0.029 A 
ATOM     55  C   UNL A   1      46.050  28.686  31.047  1.00  0.00     0.049 A 
ATOM     56  H   UNL A   1      44.063  28.726  30.337  1.00  0.00     0.167 HD
ATOM     57  C   UNL A   1      45.758  26.473  29.959  1.00  0.00     0.074 A 
ATOM     58  C   UNL A   1      46.230  25.165  29.547  1.00  0.00     0.031 C 
ATOM     59  C   UNL A   1      46.510  27.384  30.626  1.00  0.00     0.037 A 
BRANCH  46  60
ATOM     60  C   UNL A   1      43.582  32.712  31.811  1.00  0.00     0.058 A 
ATOM     61  C   UNL A   1      43.848  33.816  30.986  1.00  0.00     0.135 A 
ATOM     62  C   UNL A   1      43.390  32.953  33.181  1.00  0.00     0.135 A 
ATOM     63  F   UNL A   1      44.052  33.644  29.669  1.00  0.00    -0.206 F 
ATOM     64  C   UNL A   1      43.972  35.102  31.506  1.00  0.00     0.059 A 
ATOM     65  C   UNL A   1      43.479  34.234  33.719  1.00  0.00     0.059 A 
ATOM     66  F   UNL A   1      43.129  31.936  34.016  1.00  0.00    -0.206 F 
ATOM     67  C   UNL A   1      43.795  35.298  32.877  1.00  0.00     0.060 A 
BRANCH  67  68
ATOM     68  S   UNL A   1      43.999  36.963  33.546  1.00  0.00     0.124 S 
ATOM     69  O   UNL A   1      42.783  37.107  34.340  1.00  0.00    -0.237 OA
ATOM     70  O   UNL A   1      45.240  36.846  34.304  1.00  0.00    -0.237 OA
ATOM     71  O   UNL A   1      44.072  37.802  32.353  1.00  0.00    -0.744 OA
ENDBRANCH  67  68
ENDBRANCH  46  60
BRANCH  47  72
ATOM     72  C   UNL A   1      42.761  23.669  27.627  1.00  0.00     0.058 A 
ATOM     73  C   UNL A   1      43.270  23.471  26.336  1.00  0.00     0.135 A 
ATOM     74  C   UNL A   1      42.198  22.563  28.286  1.00  0.00     0.135 A 
ATOM     75  F   UNL A   1      43.808  24.499  25.661  1.00  0.00    -0.206 F 
ATOM     76  C   UNL A   1      43.237  22.221  25.725  1.00  0.00     0.059 A 
ATOM     77  C   UNL A   1      42.176  21.299  27.706  1.00  0.00     0.059 A 
ATOM     78  F   UNL A   1      41.708  22.700  29.528  1.00  0.00    -0.206 F 
ATOM     79  C   UNL A   1      42.699  21.139  26.425  1.00  0.00     0.060 A 
BRANCH  79  80
ATOM     80  S   UNL A   1      42.755  19.502  25.663  1.00  0.00     0.124 S 
ATOM     81  O   UNL A   1      41.343  19.254  25.394  1.00  0.00    -0.237 OA
ATOM     82  O   UNL A   1      43.596  19.738  24.493  1.00  0.00    -0.237 OA
ATOM     83  O   UNL A   1      43.358  18.670  26.700  1.00  0.00    -0.744 OA
ENDBRANCH  79  80
ENDBRANCH  47  72
BRANCH  59  84
ATOM     84  C   UNL A   1      47.920  26.995  30.977  1.00  0.00     0.058 A 
ATOM     85  C   UNL A   1      48.212  26.200  32.095  1.00  0.00     0.135 A 
ATOM     86  C   UNL A   1      48.989  27.381  30.151  1.00  0.00     0.135 A 
ATOM     87  F   UNL A   1      47.229  25.809  32.922  1.00  0.00    -0.206 F 
ATOM     88  C   UNL A   1      49.516  25.815  32.395  1.00  0.00     0.059 A 
ATOM     89  C   UNL A   1      50.297  26.987  30.415  1.00  0.00     0.059 A 
ATOM     90  F   UNL A   1      48.766  28.135  29.063  1.00  0.00    -0.206 F 
ATOM     91  C   UNL A   1      50.552  26.213  31.547  1.00  0.00     0.060 A 
BRANCH  91  92
ATOM     92  S   UNL A   1      52.235  25.680  31.925  1.00  0.00     0.124 S 
ATOM     93  O   UNL A   1      52.571  26.548  33.050  1.00  0.00    -0.237 OA
ATOM     94  O   UNL A   1      52.052  24.269  32.247  1.00  0.00    -0.237 OA
ATOM     95  O   UNL A   1      52.963  25.945  30.687  1.00  0.00    -0.744 OA
ENDBRANCH  91  92
ENDBRANCH  59  84
ENDBRANCH  33  34
ENDBRANCH  26  28
ENDBRANCH  25  26
ENDBRANCH  24  25
ENDBRANCH  23  24
ENDBRANCH   1  23
TORSDOF 20
ENDMDL
MODEL 2
REMARK VINA RESULT:      -8.1      4.490     10.559
REMARK SMILES CCCCOC(=O)c1ccc(N2C[C@H](C(=O)OCCOC(=O)c3ccc(-c4c5nc(c(-c6c(F)cc(S(=O)(=O)[O-])cc6F)c6ccc([nH]6)c(-c6c(F)cc(S(=O)(=O)[O-])cc6F)c6nc(c(-c7c(F)cc(S(=O)(=O)[O-])cc7F)c7ccc4[nH]7)C=C6)C=C5)cc3)CC2=O)cc1
REMARK SMILES IDX 17 1 15 2 16 3 14 4 12 5 13 6 90 7 89 8 91 9 11 10 8 11 9 12
REMARK SMILES IDX 93 13 10 14 92 15 6 16 7 17 5 18 4 19 3 20 2 21 1 22 18 23
REMARK SMILES IDX 19 24 20 25 21 26 22 27 23 28 24 29 88 30 25 31 87 32 26 33
REMARK SMILES IDX 27 34 28 35 81 36 29 37 86 38 80 39 82 40 30 41 85 42 79 43
REMARK SMILES IDX 78 44 31 46 65 47 44 48 64 49 45 50 48 51 63 52 83 53 46 54
REMARK SMILES IDX 47 55 62 57 84 58 49 59 32 60 33 61 42 62 34 63 35 64 41 65
REMARK SMILES IDX 43 66 36 67 37 68 38 69 39 70 40 71 66 72 67 73 76 74 68 75
REMARK SMILES IDX 69 76 75 77 77 78 70 79 71 80 72 81 73 82 74 83 50 84 51 85
REMARK SMILES IDX 60 86 52 87 53 88 59 89 61 90 54 91 55 92 56 93 57 94 58 95
REMARK H PARENT 82 45 48 56
REMARK Flexibility Score: inf
ROOT
ATOM      1  O   UNL A   1      34.379  31.830  27.701  1.00  0.00    -0.462 OA
ENDROOT
BRANCH   1   2
ATOM      2  C   UNL A   1      34.395  30.546  27.259  1.00  0.00     0.311 C 
ATOM      3  O   UNL A   1      35.284  29.737  27.489  1.00  0.00    -0.252 OA
BRANCH   2   4
ATOM      4  C   UNL A   1      33.194  30.197  26.411  1.00  0.00     0.128 C 
ATOM      5  N   UNL A   1      32.692  27.922  26.135  1.00  0.00    -0.312 N 
ATOM      6  C   UNL A   1      33.404  29.000  25.504  1.00  0.00     0.141 C 
ATOM      7  C   UNL A   1      31.851  28.367  27.154  1.00  0.00     0.227 C 
ATOM      8  C   UNL A   1      31.985  29.862  27.265  1.00  0.00     0.117 C 
ATOM      9  O   UNL A   1      31.108  27.710  27.868  1.00  0.00    -0.274 OA
BRANCH   5  10
ATOM     10  C   UNL A   1      32.779  26.587  25.687  1.00  0.00     0.044 A 
ATOM     11  C   UNL A   1      33.068  24.013  24.648  1.00  0.00     0.060 A 
ATOM     12  C   UNL A   1      31.874  24.703  24.443  1.00  0.00     0.018 A 
ATOM     13  C   UNL A   1      34.099  24.568  25.403  1.00  0.00     0.018 A 
ATOM     14  C   UNL A   1      31.720  25.983  24.991  1.00  0.00     0.027 A 
ATOM     15  C   UNL A   1      33.955  25.858  25.905  1.00  0.00     0.027 A 
BRANCH  11  16
ATOM     16  C   UNL A   1      33.346  22.763  23.939  1.00  0.00     0.338 C 
ATOM     17  O   UNL A   1      33.794  22.744  22.804  1.00  0.00    -0.246 OA
BRANCH  16  18
ATOM     18  O   UNL A   1      33.116  21.717  24.762  1.00  0.00    -0.462 OA
BRANCH  18  19
ATOM     19  C   UNL A   1      33.636  20.455  24.317  1.00  0.00     0.233 C 
BRANCH  19  20
ATOM     20  C   UNL A   1      32.530  19.408  24.184  1.00  0.00     0.041 C 
BRANCH  20  21
ATOM     21  C   UNL A   1      32.990  18.038  23.676  1.00  0.00     0.000 C 
ATOM     22  C   UNL A   1      34.378  17.644  24.159  1.00  0.00     0.004 C 
ENDBRANCH  20  21
ENDBRANCH  19  20
ENDBRANCH  18  19
ENDBRANCH  16  18
ENDBRANCH  11  16
ENDBRANCH   5  10
ENDBRANCH   2   4
ENDBRANCH   1   2
BRANCH   1  23
ATOM     23  C   UNL A   1      34.635  32.017  29.106  1.00  0.00     0.274 C 
BRANCH  23  24
ATOM     24  C   UNL A   1      36.114  32.307  29.370  1.00  0.00     0.275 C 
BRANCH  24  25
ATOM     25  O   UNL A   1      36.530  31.800  30.652  1.00  0.00    -0.458 OA
BRANCH  25  26
ATOM     26  C   UNL A   1      36.893  30.497  30.663  1.00  0.00     0.338 C 
ATOM     27  O   UNL A   1      36.189  29.536  30.917  1.00  0.00    -0.246 OA
BRANCH  26  28
ATOM     28  C   UNL A   1      38.275  30.357  30.183  1.00  0.00     0.060 A 
ATOM     29  C   UNL A   1      38.480  30.104  28.825  1.00  0.00     0.016 A 
ATOM     30  C   UNL A   1      39.347  30.345  31.076  1.00  0.00     0.016 A 
ATOM     31  C   UNL A   1      39.754  29.811  28.352  1.00  0.00     0.010 A 
ATOM     32  C   UNL A   1      40.631  30.070  30.596  1.00  0.00     0.010 A 
ATOM     33  C   UNL A   1      40.840  29.777  29.235  1.00  0.00    -0.014 A 
BRANCH  33  34
ATOM     34  C   UNL A   1      42.178  29.382  28.732  1.00  0.00     0.031 A 
ATOM     35  C   UNL A   1      42.419  27.976  28.259  1.00  0.00     0.074 A 
ATOM     36  C   UNL A   1      43.169  30.292  28.683  1.00  0.00     0.049 A 
ATOM     37  N   UNL A   1      43.523  27.427  27.822  1.00  0.00    -0.248 NA
ATOM     38  C   UNL A   1      41.265  27.065  28.290  1.00  0.00     0.031 C 
ATOM     39  C   UNL A   1      43.049  31.689  29.098  1.00  0.00     0.029 A 
ATOM     40  N   UNL A   1      44.473  30.174  28.271  1.00  0.00    -0.354 N 
ATOM     41  C   UNL A   1      43.208  26.101  27.553  1.00  0.00     0.074 A 
ATOM     42  C   UNL A   1      41.813  25.923  27.897  1.00  0.00     0.031 C 
ATOM     43  C   UNL A   1      44.232  32.299  28.924  1.00  0.00     0.029 A 
ATOM     44  C   UNL A   1      45.203  31.329  28.426  1.00  0.00     0.049 A 
ATOM     45  H   UNL A   1      44.849  29.344  27.901  1.00  0.00     0.167 HD
ATOM     46  C   UNL A   1      44.008  25.124  27.062  1.00  0.00     0.037 A 
ATOM     47  C   UNL A   1      46.511  31.570  28.218  1.00  0.00     0.037 A 
ATOM     48  C   UNL A   1      45.393  25.316  26.712  1.00  0.00     0.049 A 
ATOM     49  C   UNL A   1      47.388  30.469  27.692  1.00  0.00     0.074 A 
ATOM     50  C   UNL A   1      46.277  24.403  26.164  1.00  0.00     0.029 A 
ATOM     51  N   UNL A   1      46.098  26.499  26.885  1.00  0.00    -0.354 N 
ATOM     52  N   UNL A   1      47.068  29.229  27.408  1.00  0.00    -0.248 NA
ATOM     53  C   UNL A   1      48.798  30.798  27.450  1.00  0.00     0.031 C 
ATOM     54  C   UNL A   1      47.530  25.018  26.057  1.00  0.00     0.029 A 
ATOM     55  C   UNL A   1      47.414  26.332  26.484  1.00  0.00     0.049 A 
ATOM     56  H   UNL A   1      45.720  27.335  27.242  1.00  0.00     0.167 HD
ATOM     57  C   UNL A   1      48.234  28.632  26.939  1.00  0.00     0.074 A 
ATOM     58  C   UNL A   1      49.262  29.654  26.965  1.00  0.00     0.031 C 
ATOM     59  C   UNL A   1      48.430  27.357  26.521  1.00  0.00     0.037 A 
BRANCH  46  60
ATOM     60  C   UNL A   1      43.413  23.747  26.921  1.00  0.00     0.058 A 
ATOM     61  C   UNL A   1      43.262  22.883  28.017  1.00  0.00     0.135 A 
ATOM     62  C   UNL A   1      42.993  23.285  25.664  1.00  0.00     0.135 A 
ATOM     63  F   UNL A   1      43.659  23.267  29.242  1.00  0.00    -0.206 F 
ATOM     64  C   UNL A   1      42.763  21.592  27.864  1.00  0.00     0.059 A 
ATOM     65  C   UNL A   1      42.462  22.010  25.491  1.00  0.00     0.059 A 
ATOM     66  F   UNL A   1      43.109  24.069  24.582  1.00  0.00    -0.206 F 
ATOM     67  C   UNL A   1      42.375  21.162  26.594  1.00  0.00     0.060 A 
BRANCH  67  68
ATOM     68  S   UNL A   1      41.769  19.472  26.401  1.00  0.00     0.124 S 
ATOM     69  O   UNL A   1      40.332  19.694  26.264  1.00  0.00    -0.237 OA
ATOM     70  O   UNL A   1      42.458  19.027  25.194  1.00  0.00    -0.237 OA
ATOM     71  O   UNL A   1      42.187  18.818  27.637  1.00  0.00    -0.744 OA
ENDBRANCH  67  68
ENDBRANCH  46  60
BRANCH  47  72
ATOM     72  C   UNL A   1      47.054  32.921  28.520  1.00  0.00     0.058 A 
ATOM     73  C   UNL A   1      46.982  33.959  27.582  1.00  0.00     0.135 A 
ATOM     74  C   UNL A   1      47.591  33.215  29.784  1.00  0.00     0.135 A 
ATOM     75  F   UNL A   1      46.486  33.726  26.357  1.00  0.00    -0.206 F 
ATOM     76  C   UNL A   1      47.414  35.247  27.888  1.00  0.00     0.059 A 
ATOM     77  C   UNL A   1      48.007  34.499  30.122  1.00  0.00     0.059 A 
ATOM     78  F   UNL A   1      47.670  32.256  30.720  1.00  0.00    -0.206 F 
ATOM     79  C   UNL A   1      47.913  35.508  29.166  1.00  0.00     0.060 A 
BRANCH  79  80
ATOM     80  S   UNL A   1      48.375  37.203  29.585  1.00  0.00     0.124 S 
ATOM     81  O   UNL A   1      49.655  37.003  30.253  1.00  0.00    -0.237 OA
ATOM     82  O   UNL A   1      48.432  37.838  28.270  1.00  0.00    -0.237 OA
ATOM     83  O   UNL A   1      47.277  37.649  30.438  1.00  0.00    -0.744 OA
ENDBRANCH  79  80
ENDBRANCH  47  72
BRANCH  59  84
ATOM     84  C   UNL A   1      49.806  26.993  26.031  1.00  0.00     0.058 A 
ATOM     85  C   UNL A   1      50.193  27.189  24.696  1.00  0.00     0.135 A 
ATOM     86  C   UNL A   1      50.767  26.491  26.925  1.00  0.00     0.135 A 
ATOM     87  F   UNL A   1      49.311  27.659  23.800  1.00  0.00    -0.206 F 
ATOM     88  C   UNL A   1      51.478  26.882  24.258  1.00  0.00     0.059 A 
ATOM     89  C   UNL A   1      52.066  26.203  26.516  1.00  0.00     0.059 A 
ATOM     90  F   UNL A   1      50.454  26.294  28.215  1.00  0.00    -0.206 F 
ATOM     91  C   UNL A   1      52.408  26.391  25.177  1.00  0.00     0.060 A 
BRANCH  91  92
ATOM     92  S   UNL A   1      54.083  26.029  24.606  1.00  0.00     0.124 S 
ATOM     93  O   UNL A   1      54.876  26.931  25.435  1.00  0.00    -0.237 OA
ATOM     94  O   UNL A   1      54.216  24.608  24.908  1.00  0.00    -0.237 OA
ATOM     95  O   UNL A   1      54.036  26.360  23.184  1.00  0.00    -0.744 OA
ENDBRANCH  91  92
ENDBRANCH  59  84
ENDBRANCH  33  34
ENDBRANCH  26  28
ENDBRANCH  25  26
ENDBRANCH  24  25
ENDBRANCH  23  24
ENDBRANCH   1  23
TORSDOF 20
ENDMDL
MODEL 3
REMARK VINA RESULT:      -8.1      4.626     12.241
REMARK SMILES CCCCOC(=O)c1ccc(N2C[C@H](C(=O)OCCOC(=O)c3ccc(-c4c5nc(c(-c6c(F)cc(S(=O)(=O)[O-])cc6F)c6ccc([nH]6)c(-c6c(F)cc(S(=O)(=O)[O-])cc6F)c6nc(c(-c7c(F)cc(S(=O)(=O)[O-])cc7F)c7ccc4[nH]7)C=C6)C=C5)cc3)CC2=O)cc1
REMARK SMILES IDX 17 1 15 2 16 3 14 4 12 5 13 6 90 7 89 8 91 9 11 10 8 11 9 12
REMARK SMILES IDX 93 13 10 14 92 15 6 16 7 17 5 18 4 19 3 20 2 21 1 22 18 23
REMARK SMILES IDX 19 24 20 25 21 26 22 27 23 28 24 29 88 30 25 31 87 32 26 33
REMARK SMILES IDX 27 34 28 35 81 36 29 37 86 38 80 39 82 40 30 41 85 42 79 43
REMARK SMILES IDX 78 44 31 46 65 47 44 48 64 49 45 50 48 51 63 52 83 53 46 54
REMARK SMILES IDX 47 55 62 57 84 58 49 59 32 60 33 61 42 62 34 63 35 64 41 65
REMARK SMILES IDX 43 66 36 67 37 68 38 69 39 70 40 71 66 72 67 73 76 74 68 75
REMARK SMILES IDX 69 76 75 77 77 78 70 79 71 80 72 81 73 82 74 83 50 84 51 85
REMARK SMILES IDX 60 86 52 87 53 88 59 89 61 90 54 91 55 92 56 93 57 94 58 95
REMARK H PARENT 82 45 48 56
REMARK Flexibility Score: inf
ROOT
ATOM      1  O   UNL A   1      44.622  22.248  26.560  1.00  0.00    -0.462 OA
ENDROOT
BRANCH   1   2
ATOM      2  C   UNL A   1      43.475  21.806  25.985  1.00  0.00     0.311 C 
ATOM      3  O   UNL A   1      43.273  21.748  24.779  1.00  0.00    -0.252 OA
BRANCH   2   4
ATOM      4  C   UNL A   1      42.425  21.400  26.994  1.00  0.00     0.128 C 
ATOM      5  N   UNL A   1      40.196  21.342  26.267  1.00  0.00    -0.312 N 
ATOM      6  C   UNL A   1      41.145  22.207  26.913  1.00  0.00     0.141 C 
ATOM      7  C   UNL A   1      40.645  20.024  26.195  1.00  0.00     0.227 C 
ATOM      8  C   UNL A   1      42.013  19.950  26.818  1.00  0.00     0.117 C 
ATOM      9  O   UNL A   1      40.076  19.051  25.722  1.00  0.00    -0.274 OA
BRANCH   5  10
ATOM     10  C   UNL A   1      38.921  21.783  25.854  1.00  0.00     0.044 A 
ATOM     11  C   UNL A   1      36.465  22.644  24.846  1.00  0.00     0.060 A 
ATOM     12  C   UNL A   1      37.334  23.574  25.418  1.00  0.00     0.018 A 
ATOM     13  C   UNL A   1      36.783  21.289  24.814  1.00  0.00     0.018 A 
ATOM     14  C   UNL A   1      38.553  23.134  25.951  1.00  0.00     0.027 A 
ATOM     15  C   UNL A   1      38.015  20.867  25.304  1.00  0.00     0.027 A 
BRANCH  11  16
ATOM     16  C   UNL A   1      35.277  23.079  24.110  1.00  0.00     0.338 C 
ATOM     17  O   UNL A   1      35.347  23.805  23.131  1.00  0.00    -0.246 OA
BRANCH  16  18
ATOM     18  O   UNL A   1      34.182  22.485  24.632  1.00  0.00    -0.462 OA
BRANCH  18  19
ATOM     19  C   UNL A   1      33.977  21.118  24.243  1.00  0.00     0.233 C 
BRANCH  19  20
ATOM     20  C   UNL A   1      32.546  20.662  24.529  1.00  0.00     0.041 C 
BRANCH  20  21
ATOM     21  C   UNL A   1      32.376  19.157  24.755  1.00  0.00     0.000 C 
ATOM     22  C   UNL A   1      32.710  18.316  23.531  1.00  0.00     0.004 C 
ENDBRANCH  20  21
ENDBRANCH  19  20
ENDBRANCH  18  19
ENDBRANCH  16  18
ENDBRANCH  11  16
ENDBRANCH   5  10
ENDBRANCH   2   4
ENDBRANCH   1   2
BRANCH   1  23
ATOM     23  C   UNL A   1      45.123  23.512  26.082  1.00  0.00     0.274 C 
BRANCH  23  24
ATOM     24  C   UNL A   1      44.438  24.686  26.785  1.00  0.00     0.275 C 
BRANCH  24  25
ATOM     25  O   UNL A   1      43.932  25.645  25.837  1.00  0.00    -0.458 OA
BRANCH  25  26
ATOM     26  C   UNL A   1      42.584  25.735  25.776  1.00  0.00     0.338 C 
ATOM     27  O   UNL A   1      41.835  25.132  25.029  1.00  0.00    -0.246 OA
BRANCH  26  28
ATOM     28  C   UNL A   1      42.090  26.596  26.861  1.00  0.00     0.060 A 
ATOM     29  C   UNL A   1      42.554  27.912  26.923  1.00  0.00     0.016 A 
ATOM     30  C   UNL A   1      41.285  26.081  27.876  1.00  0.00     0.016 A 
ATOM     31  C   UNL A   1      42.239  28.715  28.013  1.00  0.00     0.010 A 
ATOM     32  C   UNL A   1      40.952  26.896  28.963  1.00  0.00     0.010 A 
ATOM     33  C   UNL A   1      41.446  28.210  29.051  1.00  0.00    -0.014 A 
BRANCH  33  34
ATOM     34  C   UNL A   1      41.187  29.049  30.246  1.00  0.00     0.031 A 
ATOM     35  C   UNL A   1      42.049  28.907  31.468  1.00  0.00     0.074 A 
ATOM     36  C   UNL A   1      40.187  29.952  30.225  1.00  0.00     0.049 A 
ATOM     37  N   UNL A   1      41.960  29.518  32.620  1.00  0.00    -0.248 NA
ATOM     38  C   UNL A   1      43.156  27.940  31.382  1.00  0.00     0.031 C 
ATOM     39  C   UNL A   1      39.295  30.192  29.091  1.00  0.00     0.029 A 
ATOM     40  N   UNL A   1      39.751  30.827  31.187  1.00  0.00    -0.354 N 
ATOM     41  C   UNL A   1      42.976  28.992  33.410  1.00  0.00     0.074 A 
ATOM     42  C   UNL A   1      43.657  27.996  32.609  1.00  0.00     0.031 C 
ATOM     43  C   UNL A   1      38.415  31.149  29.423  1.00  0.00     0.029 A 
ATOM     44  C   UNL A   1      38.652  31.558  30.805  1.00  0.00     0.049 A 
ATOM     45  H   UNL A   1      40.183  30.922  32.066  1.00  0.00     0.167 HD
ATOM     46  C   UNL A   1      43.311  29.314  34.682  1.00  0.00     0.037 A 
ATOM     47  C   UNL A   1      37.904  32.438  31.497  1.00  0.00     0.037 A 
ATOM     48  C   UNL A   1      42.634  30.317  35.466  1.00  0.00     0.049 A 
ATOM     49  C   UNL A   1      38.279  32.768  32.914  1.00  0.00     0.074 A 
ATOM     50  C   UNL A   1      42.925  30.749  36.747  1.00  0.00     0.029 A 
ATOM     51  N   UNL A   1      41.523  31.035  35.045  1.00  0.00    -0.354 N 
ATOM     52  N   UNL A   1      39.265  32.290  33.636  1.00  0.00    -0.248 NA
ATOM     53  C   UNL A   1      37.448  33.759  33.609  1.00  0.00     0.031 C 
ATOM     54  C   UNL A   1      41.957  31.689  37.122  1.00  0.00     0.029 A 
ATOM     55  C   UNL A   1      41.098  31.886  36.053  1.00  0.00     0.049 A 
ATOM     56  H   UNL A   1      41.099  30.952  34.161  1.00  0.00     0.167 HD
ATOM     57  C   UNL A   1      39.183  32.933  34.867  1.00  0.00     0.074 A 
ATOM     58  C   UNL A   1      38.059  33.845  34.784  1.00  0.00     0.031 C 
ATOM     59  C   UNL A   1      39.972  32.785  35.960  1.00  0.00     0.037 A 
BRANCH  46  60
ATOM     60  C   UNL A   1      44.434  28.537  35.320  1.00  0.00     0.058 A 
ATOM     61  C   UNL A   1      45.771  28.955  35.239  1.00  0.00     0.135 A 
ATOM     62  C   UNL A   1      44.163  27.350  36.019  1.00  0.00     0.135 A 
ATOM     63  F   UNL A   1      46.091  30.077  34.571  1.00  0.00    -0.206 F 
ATOM     64  C   UNL A   1      46.806  28.199  35.783  1.00  0.00     0.059 A 
ATOM     65  C   UNL A   1      45.177  26.593  36.599  1.00  0.00     0.059 A 
ATOM     66  F   UNL A   1      42.902  26.905  36.133  1.00  0.00    -0.206 F 
ATOM     67  C   UNL A   1      46.498  27.013  36.454  1.00  0.00     0.060 A 
BRANCH  67  68
ATOM     68  S   UNL A   1      47.851  26.020  37.119  1.00  0.00     0.124 S 
ATOM     69  O   UNL A   1      47.159  24.780  37.459  1.00  0.00    -0.237 OA
ATOM     70  O   UNL A   1      48.769  25.943  35.988  1.00  0.00    -0.237 OA
ATOM     71  O   UNL A   1      48.323  26.806  38.255  1.00  0.00    -0.744 OA
ENDBRANCH  67  68
ENDBRANCH  46  60
BRANCH  47  72
ATOM     72  C   UNL A   1      36.721  33.055  30.840  1.00  0.00     0.058 A 
ATOM     73  C   UNL A   1      35.417  32.722  31.231  1.00  0.00     0.135 A 
ATOM     74  C   UNL A   1      36.878  34.045  29.856  1.00  0.00     0.135 A 
ATOM     75  F   UNL A   1      35.215  31.775  32.161  1.00  0.00    -0.206 F 
ATOM     76  C   UNL A   1      34.308  33.355  30.678  1.00  0.00     0.059 A 
ATOM     77  C   UNL A   1      35.787  34.709  29.306  1.00  0.00     0.059 A 
ATOM     78  F   UNL A   1      38.108  34.406  29.457  1.00  0.00    -0.206 F 
ATOM     79  C   UNL A   1      34.505  34.357  29.725  1.00  0.00     0.060 A 
BRANCH  79  80
ATOM     80  S   UNL A   1      33.065  35.243  29.089  1.00  0.00     0.124 S 
ATOM     81  O   UNL A   1      32.570  34.314  28.080  1.00  0.00    -0.237 OA
ATOM     82  O   UNL A   1      32.241  35.385  30.287  1.00  0.00    -0.237 OA
ATOM     83  O   UNL A   1      33.634  36.487  28.580  1.00  0.00    -0.744 OA
ENDBRANCH  79  80
ENDBRANCH  47  72
BRANCH  59  84
ATOM     84  C   UNL A   1      39.666  33.645  37.156  1.00  0.00     0.058 A 
ATOM     85  C   UNL A   1      38.817  33.208  38.184  1.00  0.00     0.135 A 
ATOM     86  C   UNL A   1      40.273  34.904  37.299  1.00  0.00     0.135 A 
ATOM     87  F   UNL A   1      38.204  32.017  38.095  1.00  0.00    -0.206 F 
ATOM     88  C   UNL A   1      38.565  33.996  39.305  1.00  0.00     0.059 A 
ATOM     89  C   UNL A   1      40.058  35.697  38.422  1.00  0.00     0.059 A 
ATOM     90  F   UNL A   1      41.102  35.367  36.350  1.00  0.00    -0.206 F 
ATOM     91  C   UNL A   1      39.192  35.238  39.414  1.00  0.00     0.060 A 
BRANCH  91  92
ATOM     92  S   UNL A   1      38.885  36.237  40.888  1.00  0.00     0.124 S 
ATOM     93  O   UNL A   1      37.802  35.493  41.524  1.00  0.00    -0.237 OA
ATOM     94  O   UNL A   1      40.173  36.189  41.571  1.00  0.00    -0.237 OA
ATOM     95  O   UNL A   1      38.518  37.541  40.345  1.00  0.00    -0.744 OA
ENDBRANCH  91  92
ENDBRANCH  59  84
ENDBRANCH  33  34
ENDBRANCH  26  28
ENDBRANCH  25  26
ENDBRANCH  24  25
ENDBRANCH  23  24
ENDBRANCH   1  23
TORSDOF 20
ENDMDL
