MODEL 1
REMARK VINA RESULT:     -11.2      0.000      0.000
REMARK SMILES Cc1nccn1CCC[NH+]1CCC2(CC1)[C@@H](C(=O)OCCOC(=O)c1ccc(-c3c4nc(c(-c5c(F)cc(S(=O)(=O)[O-])cc5F)c5ccc([nH]5)c(-c5c(F)cc(S(=O)(=O)[O-])cc5F)c5nc(c(-c6c(F)cc(S(=O)(=O)[O-])cc6F)c6ccc3[nH]6)C=C5)C=C4)cc1)CC(=O)N2C
REMARK SMILES IDX 20 1 19 2 17 3 18 4 16 5 10 6 11 7 15 8 12 10 14 11 13 12
REMARK SMILES IDX 94 13 91 14 92 15 95 16 93 17 9 18 8 19 7 20 6 21 1 22 2 23
REMARK SMILES IDX 3 24 4 25 5 26 21 27 22 28 23 29 24 30 25 31 26 32 90 33
REMARK SMILES IDX 27 34 89 35 28 36 29 37 30 38 83 39 31 40 88 41 82 42 84 43
REMARK SMILES IDX 32 44 87 45 81 46 80 47 33 49 67 50 46 51 66 52 47 53 50 54
REMARK SMILES IDX 65 55 85 56 48 57 49 58 64 60 86 61 51 62 34 63 35 64 44 65
REMARK SMILES IDX 36 66 37 67 43 68 45 69 38 70 39 71 40 72 41 73 42 74 68 75
REMARK SMILES IDX 69 76 78 77 70 78 71 79 77 80 79 81 72 82 73 83 74 84 75 85
REMARK SMILES IDX 76 86 52 87 53 88 62 89 54 90 55 91 61 92 63 93 56 94 57 95
REMARK SMILES IDX 58 96 59 97 60 98
REMARK H PARENT 10 9 84 48 50 59
REMARK Flexibility Score: inf
ROOT
ATOM      1  C   UNL A   1      36.172  23.090  23.994  1.00  0.00     0.274 C 
ENDROOT
BRANCH   1   2
ATOM      2  O   UNL A   1      34.804  22.670  23.740  1.00  0.00    -0.462 OA
BRANCH   2   3
ATOM      3  C   UNL A   1      34.013  23.553  23.050  1.00  0.00     0.311 C 
ATOM      4  O   UNL A   1      34.439  24.326  22.217  1.00  0.00    -0.252 OA
BRANCH   3   5
ATOM      5  C   UNL A   1      32.538  23.456  23.508  1.00  0.00     0.134 C 
ATOM      6  N   UNL A   1      31.378  26.674  26.009  1.00  0.00    -0.335 N 
ATOM      7  C   UNL A   1      30.355  25.649  25.930  1.00  0.00     0.264 C 
ATOM      8  C   UNL A   1      32.692  26.174  26.327  1.00  0.00     0.264 C 
ATOM      9  H   UNL A   1      31.094  27.164  26.857  1.00  0.00     0.348 HD
ATOM     10  C   UNL A   1      30.666  24.394  25.086  1.00  0.00     0.091 C 
ATOM     11  C   UNL A   1      33.174  25.124  25.342  1.00  0.00     0.091 C 
ATOM     12  C   UNL A   1      32.184  23.992  24.955  1.00  0.00     0.067 C 
ATOM     13  N   UNL A   1      32.353  22.769  25.755  1.00  0.00    -0.339 N 
ATOM     14  C   UNL A   1      32.152  21.985  23.530  1.00  0.00     0.118 C 
ATOM     15  C   UNL A   1      32.212  21.615  24.988  1.00  0.00     0.223 C 
ATOM     16  C   UNL A   1      32.109  22.713  27.182  1.00  0.00     0.147 C 
ATOM     17  O   UNL A   1      32.070  20.480  25.417  1.00  0.00    -0.275 OA
BRANCH   6  18
ATOM     18  C   UNL A   1      31.260  27.894  25.220  1.00  0.00     0.264 C 
BRANCH  18  19
ATOM     19  C   UNL A   1      31.266  27.814  23.687  1.00  0.00     0.083 C 
BRANCH  19  20
ATOM     20  C   UNL A   1      29.893  27.748  23.033  1.00  0.00     0.129 C 
BRANCH  20  21
ATOM     21  N   UNL A   1      29.253  28.924  22.507  1.00  0.00    -0.335 N 
ATOM     22  C   UNL A   1      26.870  28.473  23.340  1.00  0.00     0.087 C 
ATOM     23  C   UNL A   1      27.934  29.300  22.708  1.00  0.00     0.105 A 
ATOM     24  N   UNL A   1      27.735  30.523  22.263  1.00  0.00    -0.242 NA
ATOM     25  C   UNL A   1      28.915  30.926  21.715  1.00  0.00     0.131 A 
ATOM     26  C   UNL A   1      29.871  29.952  21.856  1.00  0.00     0.107 A 
ENDBRANCH  20  21
ENDBRANCH  19  20
ENDBRANCH  18  19
ENDBRANCH   6  18
ENDBRANCH   3   5
ENDBRANCH   2   3
ENDBRANCH   1   2
BRANCH   1  27
ATOM     27  C   UNL A   1      36.904  22.192  25.022  1.00  0.00     0.275 C 
BRANCH  27  28
ATOM     28  O   UNL A   1      37.556  22.875  26.120  1.00  0.00    -0.458 OA
BRANCH  28  29
ATOM     29  C   UNL A   1      38.868  22.602  26.193  1.00  0.00     0.338 C 
ATOM     30  O   UNL A   1      39.342  21.474  26.171  1.00  0.00    -0.246 OA
BRANCH  29  31
ATOM     31  C   UNL A   1      39.749  23.747  26.480  1.00  0.00     0.060 A 
ATOM     32  C   UNL A   1      40.654  23.530  27.513  1.00  0.00     0.016 A 
ATOM     33  C   UNL A   1      39.510  25.043  26.042  1.00  0.00     0.016 A 
ATOM     34  C   UNL A   1      41.069  24.545  28.328  1.00  0.00     0.010 A 
ATOM     35  C   UNL A   1      40.081  26.097  26.759  1.00  0.00     0.010 A 
ATOM     36  C   UNL A   1      40.769  25.844  27.960  1.00  0.00    -0.014 A 
BRANCH  36  37
ATOM     37  C   UNL A   1      41.321  26.866  28.853  1.00  0.00     0.031 A 
ATOM     38  C   UNL A   1      42.667  27.414  28.438  1.00  0.00     0.074 A 
ATOM     39  C   UNL A   1      40.599  27.319  29.893  1.00  0.00     0.049 A 
ATOM     40  N   UNL A   1      43.723  27.672  29.149  1.00  0.00    -0.248 NA
ATOM     41  C   UNL A   1      42.899  27.556  26.981  1.00  0.00     0.031 C 
ATOM     42  C   UNL A   1      39.210  26.989  30.230  1.00  0.00     0.029 A 
ATOM     43  N   UNL A   1      40.877  28.330  30.753  1.00  0.00    -0.354 N 
ATOM     44  C   UNL A   1      44.675  28.173  28.256  1.00  0.00     0.074 A 
ATOM     45  C   UNL A   1      44.178  27.917  26.933  1.00  0.00     0.031 C 
ATOM     46  C   UNL A   1      38.685  28.010  30.936  1.00  0.00     0.029 A 
ATOM     47  C   UNL A   1      39.733  28.987  31.176  1.00  0.00     0.049 A 
ATOM     48  H   UNL A   1      41.786  28.569  31.045  1.00  0.00     0.167 HD
ATOM     49  C   UNL A   1      45.721  28.961  28.627  1.00  0.00     0.037 A 
ATOM     50  C   UNL A   1      39.644  30.310  31.459  1.00  0.00     0.037 A 
ATOM     51  C   UNL A   1      46.079  28.785  30.003  1.00  0.00     0.049 A 
ATOM     52  C   UNL A   1      41.027  30.802  31.718  1.00  0.00     0.074 A 
ATOM     53  C   UNL A   1      46.522  27.709  30.751  1.00  0.00     0.029 A 
ATOM     54  N   UNL A   1      45.701  29.736  30.917  1.00  0.00    -0.354 N 
ATOM     55  N   UNL A   1      41.773  30.404  32.717  1.00  0.00    -0.248 NA
ATOM     56  C   UNL A   1      41.755  31.399  30.605  1.00  0.00     0.031 C 
ATOM     57  C   UNL A   1      45.908  27.872  32.027  1.00  0.00     0.029 A 
ATOM     58  C   UNL A   1      45.162  29.049  31.977  1.00  0.00     0.049 A 
ATOM     59  H   UNL A   1      45.795  30.712  30.831  1.00  0.00     0.167 HD
ATOM     60  C   UNL A   1      43.064  30.340  32.207  1.00  0.00     0.074 A 
ATOM     61  C   UNL A   1      43.000  31.038  30.925  1.00  0.00     0.031 C 
ATOM     62  C   UNL A   1      44.008  29.498  32.722  1.00  0.00     0.037 A 
BRANCH  49  63
ATOM     63  C   UNL A   1      46.201  30.124  27.786  1.00  0.00     0.058 A 
ATOM     64  C   UNL A   1      47.571  30.279  27.496  1.00  0.00     0.135 A 
ATOM     65  C   UNL A   1      45.386  31.239  27.482  1.00  0.00     0.135 A 
ATOM     66  F   UNL A   1      48.442  29.293  27.763  1.00  0.00    -0.206 F 
ATOM     67  C   UNL A   1      48.096  31.475  26.996  1.00  0.00     0.059 A 
ATOM     68  C   UNL A   1      45.877  32.414  26.929  1.00  0.00     0.059 A 
ATOM     69  F   UNL A   1      44.085  31.283  27.799  1.00  0.00    -0.206 F 
ATOM     70  C   UNL A   1      47.239  32.542  26.734  1.00  0.00     0.060 A 
BRANCH  70  71
ATOM     71  S   UNL A   1      47.914  34.131  26.221  1.00  0.00     0.124 S 
ATOM     72  O   UNL A   1      49.281  33.764  25.873  1.00  0.00    -0.237 OA
ATOM     73  O   UNL A   1      47.043  34.488  25.106  1.00  0.00    -0.237 OA
ATOM     74  O   UNL A   1      47.765  34.959  27.414  1.00  0.00    -0.744 OA
ENDBRANCH  70  71
ENDBRANCH  49  63
BRANCH  50  75
ATOM     75  C   UNL A   1      38.522  31.182  31.008  1.00  0.00     0.058 A 
ATOM     76  C   UNL A   1      38.201  31.320  29.650  1.00  0.00     0.135 A 
ATOM     77  C   UNL A   1      37.604  31.754  31.920  1.00  0.00     0.135 A 
ATOM     78  F   UNL A   1      38.981  30.758  28.715  1.00  0.00    -0.206 F 
ATOM     79  C   UNL A   1      37.050  31.997  29.221  1.00  0.00     0.059 A 
ATOM     80  C   UNL A   1      36.472  32.456  31.519  1.00  0.00     0.059 A 
ATOM     81  F   UNL A   1      37.731  31.582  33.244  1.00  0.00    -0.206 F 
ATOM     82  C   UNL A   1      36.192  32.563  30.166  1.00  0.00     0.060 A 
BRANCH  82  83
ATOM     83  S   UNL A   1      34.660  33.356  29.631  1.00  0.00     0.124 S 
ATOM     84  O   UNL A   1      34.063  32.323  28.792  1.00  0.00    -0.237 OA
ATOM     85  O   UNL A   1      33.990  33.615  30.901  1.00  0.00    -0.237 OA
ATOM     86  O   UNL A   1      35.122  34.545  28.919  1.00  0.00    -0.744 OA
ENDBRANCH  82  83
ENDBRANCH  50  75
BRANCH  62  87
ATOM     87  C   UNL A   1      43.709  28.757  33.999  1.00  0.00     0.058 A 
ATOM     88  C   UNL A   1      43.008  27.539  34.040  1.00  0.00     0.135 A 
ATOM     89  C   UNL A   1      44.321  29.179  35.189  1.00  0.00     0.135 A 
ATOM     90  F   UNL A   1      42.503  27.000  32.924  1.00  0.00    -0.206 F 
ATOM     91  C   UNL A   1      42.879  26.798  35.214  1.00  0.00     0.059 A 
ATOM     92  C   UNL A   1      44.232  28.439  36.367  1.00  0.00     0.059 A 
ATOM     93  F   UNL A   1      45.070  30.294  35.201  1.00  0.00    -0.206 F 
ATOM     94  C   UNL A   1      43.498  27.255  36.376  1.00  0.00     0.060 A 
BRANCH  94  95
ATOM     95  S   UNL A   1      43.402  26.248  37.871  1.00  0.00     0.124 S 
ATOM     96  O   UNL A   1      41.961  26.146  38.079  1.00  0.00    -0.237 OA
ATOM     97  O   UNL A   1      44.073  25.014  37.471  1.00  0.00    -0.237 OA
ATOM     98  O   UNL A   1      44.121  27.043  38.864  1.00  0.00    -0.744 OA
ENDBRANCH  94  95
ENDBRANCH  62  87
ENDBRANCH  36  37
ENDBRANCH  29  31
ENDBRANCH  28  29
ENDBRANCH  27  28
ENDBRANCH   1  27
TORSDOF 18
ENDMDL
MODEL 2
REMARK VINA RESULT:     -11.0      1.631      2.383
REMARK SMILES Cc1nccn1CCC[NH+]1CCC2(CC1)[C@@H](C(=O)OCCOC(=O)c1ccc(-c3c4nc(c(-c5c(F)cc(S(=O)(=O)[O-])cc5F)c5ccc([nH]5)c(-c5c(F)cc(S(=O)(=O)[O-])cc5F)c5nc(c(-c6c(F)cc(S(=O)(=O)[O-])cc6F)c6ccc3[nH]6)C=C5)C=C4)cc1)CC(=O)N2C
REMARK SMILES IDX 20 1 19 2 17 3 18 4 16 5 10 6 11 7 15 8 12 10 14 11 13 12
REMARK SMILES IDX 94 13 91 14 92 15 95 16 93 17 9 18 8 19 7 20 6 21 1 22 2 23
REMARK SMILES IDX 3 24 4 25 5 26 21 27 22 28 23 29 24 30 25 31 26 32 90 33
REMARK SMILES IDX 27 34 89 35 28 36 29 37 30 38 83 39 31 40 88 41 82 42 84 43
REMARK SMILES IDX 32 44 87 45 81 46 80 47 33 49 67 50 46 51 66 52 47 53 50 54
REMARK SMILES IDX 65 55 85 56 48 57 49 58 64 60 86 61 51 62 34 63 35 64 44 65
REMARK SMILES IDX 36 66 37 67 43 68 45 69 38 70 39 71 40 72 41 73 42 74 68 75
REMARK SMILES IDX 69 76 78 77 70 78 71 79 77 80 79 81 72 82 73 83 74 84 75 85
REMARK SMILES IDX 76 86 52 87 53 88 62 89 54 90 55 91 61 92 63 93 56 94 57 95
REMARK SMILES IDX 58 96 59 97 60 98
REMARK H PARENT 10 9 84 48 50 59
REMARK Flexibility Score: inf
ROOT
ATOM      1  C   UNL A   1      36.595  21.916  24.618  1.00  0.00     0.274 C 
ENDROOT
BRANCH   1   2
ATOM      2  O   UNL A   1      35.172  21.949  24.327  1.00  0.00    -0.462 OA
BRANCH   2   3
ATOM      3  C   UNL A   1      34.765  22.849  23.375  1.00  0.00     0.311 C 
ATOM      4  O   UNL A   1      35.518  23.617  22.812  1.00  0.00    -0.252 OA
BRANCH   3   5
ATOM      5  C   UNL A   1      33.235  22.776  23.156  1.00  0.00     0.134 C 
ATOM      6  N   UNL A   1      31.264  26.404  24.108  1.00  0.00    -0.335 N 
ATOM      7  C   UNL A   1      30.327  25.333  23.826  1.00  0.00     0.264 C 
ATOM      8  C   UNL A   1      32.283  26.061  25.068  1.00  0.00     0.264 C 
ATOM      9  H   UNL A   1      30.664  27.055  24.614  1.00  0.00     0.348 HD
ATOM     10  C   UNL A   1      30.912  23.940  23.508  1.00  0.00     0.091 C 
ATOM     11  C   UNL A   1      33.092  24.845  24.655  1.00  0.00     0.091 C 
ATOM     12  C   UNL A   1      32.314  23.602  24.144  1.00  0.00     0.067 C 
ATOM     13  N   UNL A   1      32.058  22.601  25.191  1.00  0.00    -0.339 N 
ATOM     14  C   UNL A   1      32.806  21.328  23.340  1.00  0.00     0.118 C 
ATOM     15  C   UNL A   1      32.207  21.299  24.721  1.00  0.00     0.223 C 
ATOM     16  C   UNL A   1      31.216  22.853  26.342  1.00  0.00     0.147 C 
ATOM     17  O   UNL A   1      31.837  20.283  25.290  1.00  0.00    -0.275 OA
BRANCH   6  18
ATOM     18  C   UNL A   1      31.561  27.408  23.093  1.00  0.00     0.264 C 
BRANCH  18  19
ATOM     19  C   UNL A   1      32.059  28.797  23.517  1.00  0.00     0.083 C 
BRANCH  19  20
ATOM     20  C   UNL A   1      31.630  29.245  24.908  1.00  0.00     0.129 C 
BRANCH  20  21
ATOM     21  N   UNL A   1      32.575  29.786  25.848  1.00  0.00    -0.335 N 
ATOM     22  C   UNL A   1      31.261  31.870  26.560  1.00  0.00     0.087 C 
ATOM     23  C   UNL A   1      32.388  30.902  26.649  1.00  0.00     0.105 A 
ATOM     24  N   UNL A   1      33.359  30.997  27.533  1.00  0.00    -0.242 NA
ATOM     25  C   UNL A   1      34.216  29.972  27.269  1.00  0.00     0.131 A 
ATOM     26  C   UNL A   1      33.751  29.208  26.230  1.00  0.00     0.107 A 
ENDBRANCH  20  21
ENDBRANCH  19  20
ENDBRANCH  18  19
ENDBRANCH   6  18
ENDBRANCH   3   5
ENDBRANCH   2   3
ENDBRANCH   1   2
BRANCH   1  27
ATOM     27  C   UNL A   1      36.940  22.437  26.035  1.00  0.00     0.275 C 
BRANCH  27  28
ATOM     28  O   UNL A   1      37.632  23.707  26.100  1.00  0.00    -0.458 OA
BRANCH  28  29
ATOM     29  C   UNL A   1      38.879  23.594  26.583  1.00  0.00     0.338 C 
ATOM     30  O   UNL A   1      39.421  22.531  26.857  1.00  0.00    -0.246 OA
BRANCH  29  31
ATOM     31  C   UNL A   1      39.548  24.856  26.943  1.00  0.00     0.060 A 
ATOM     32  C   UNL A   1      40.795  24.695  27.537  1.00  0.00     0.016 A 
ATOM     33  C   UNL A   1      38.903  26.082  27.031  1.00  0.00     0.016 A 
ATOM     34  C   UNL A   1      41.264  25.576  28.471  1.00  0.00     0.010 A 
ATOM     35  C   UNL A   1      39.469  27.069  27.842  1.00  0.00     0.010 A 
ATOM     36  C   UNL A   1      40.589  26.771  28.640  1.00  0.00    -0.014 A 
BRANCH  36  37
ATOM     37  C   UNL A   1      41.209  27.682  29.605  1.00  0.00     0.031 A 
ATOM     38  C   UNL A   1      42.474  28.354  29.123  1.00  0.00     0.074 A 
ATOM     39  C   UNL A   1      40.604  27.943  30.777  1.00  0.00     0.049 A 
ATOM     40  N   UNL A   1      43.600  28.563  29.738  1.00  0.00    -0.248 NA
ATOM     41  C   UNL A   1      42.522  28.715  27.687  1.00  0.00     0.031 C 
ATOM     42  C   UNL A   1      39.278  27.494  31.219  1.00  0.00     0.029 A 
ATOM     43  N   UNL A   1      40.949  28.833  31.740  1.00  0.00    -0.354 N 
ATOM     44  C   UNL A   1      44.417  29.236  28.826  1.00  0.00     0.074 A 
ATOM     45  C   UNL A   1      43.772  29.146  27.546  1.00  0.00     0.031 C 
ATOM     46  C   UNL A   1      38.807  28.375  32.125  1.00  0.00     0.029 A 
ATOM     47  C   UNL A   1      39.842  29.361  32.385  1.00  0.00     0.049 A 
ATOM     48  H   UNL A   1      41.877  29.076  31.957  1.00  0.00     0.167 HD
ATOM     49  C   UNL A   1      45.472  30.017  29.187  1.00  0.00     0.037 A 
ATOM     50  C   UNL A   1      39.741  30.623  32.870  1.00  0.00     0.037 A 
ATOM     51  C   UNL A   1      46.001  29.664  30.471  1.00  0.00     0.049 A 
ATOM     52  C   UNL A   1      41.128  31.145  33.037  1.00  0.00     0.074 A 
ATOM     53  C   UNL A   1      46.569  28.518  30.994  1.00  0.00     0.029 A 
ATOM     54  N   UNL A   1      45.704  30.454  31.554  1.00  0.00    -0.354 N 
ATOM     55  N   UNL A   1      42.003  30.648  33.874  1.00  0.00    -0.248 NA
ATOM     56  C   UNL A   1      41.693  31.934  31.950  1.00  0.00     0.031 C 
ATOM     57  C   UNL A   1      46.110  28.463  32.342  1.00  0.00     0.029 A 
ATOM     58  C   UNL A   1      45.323  29.594  32.554  1.00  0.00     0.049 A 
ATOM     59  H   UNL A   1      45.752  31.435  31.603  1.00  0.00     0.167 HD
ATOM     60  C   UNL A   1      43.224  30.727  33.214  1.00  0.00     0.074 A 
ATOM     61  C   UNL A   1      42.980  31.597  32.066  1.00  0.00     0.031 C 
ATOM     62  C   UNL A   1      44.253  29.870  33.486  1.00  0.00     0.037 A 
BRANCH  49  63
ATOM     63  C   UNL A   1      45.805  31.312  28.479  1.00  0.00     0.058 A 
ATOM     64  C   UNL A   1      44.867  32.363  28.433  1.00  0.00     0.135 A 
ATOM     65  C   UNL A   1      46.916  31.451  27.614  1.00  0.00     0.135 A 
ATOM     66  F   UNL A   1      43.763  32.328  29.195  1.00  0.00    -0.206 F 
ATOM     67  C   UNL A   1      44.998  33.439  27.550  1.00  0.00     0.059 A 
ATOM     68  C   UNL A   1      47.096  32.541  26.774  1.00  0.00     0.059 A 
ATOM     69  F   UNL A   1      47.833  30.487  27.468  1.00  0.00    -0.206 F 
ATOM     70  C   UNL A   1      46.109  33.507  26.712  1.00  0.00     0.060 A 
BRANCH  70  71
ATOM     71  S   UNL A   1      46.224  34.811  25.475  1.00  0.00     0.124 S 
ATOM     72  O   UNL A   1      45.247  34.361  24.491  1.00  0.00    -0.237 OA
ATOM     73  O   UNL A   1      45.858  35.995  26.245  1.00  0.00    -0.237 OA
ATOM     74  O   UNL A   1      47.620  34.752  25.055  1.00  0.00    -0.744 OA
ENDBRANCH  70  71
ENDBRANCH  49  63
BRANCH  50  75
ATOM     75  C   UNL A   1      38.543  31.491  32.686  1.00  0.00     0.058 A 
ATOM     76  C   UNL A   1      38.088  31.851  31.410  1.00  0.00     0.135 A 
ATOM     77  C   UNL A   1      37.692  31.830  33.763  1.00  0.00     0.135 A 
ATOM     78  F   UNL A   1      38.800  31.517  30.323  1.00  0.00    -0.206 F 
ATOM     79  C   UNL A   1      36.871  32.521  31.214  1.00  0.00     0.059 A 
ATOM     80  C   UNL A   1      36.495  32.521  33.598  1.00  0.00     0.059 A 
ATOM     81  F   UNL A   1      37.952  31.431  35.017  1.00  0.00    -0.206 F 
ATOM     82  C   UNL A   1      36.082  32.852  32.317  1.00  0.00     0.060 A 
BRANCH  82  83
ATOM     83  S   UNL A   1      34.471  33.632  32.071  1.00  0.00     0.124 S 
ATOM     84  O   UNL A   1      33.634  32.895  33.012  1.00  0.00    -0.237 OA
ATOM     85  O   UNL A   1      34.749  35.022  32.415  1.00  0.00    -0.237 OA
ATOM     86  O   UNL A   1      34.186  33.386  30.660  1.00  0.00    -0.744 OA
ENDBRANCH  82  83
ENDBRANCH  50  75
BRANCH  62  87
ATOM     87  C   UNL A   1      44.138  28.939  34.665  1.00  0.00     0.058 A 
ATOM     88  C   UNL A   1      43.558  27.660  34.586  1.00  0.00     0.135 A 
ATOM     89  C   UNL A   1      44.812  29.260  35.853  1.00  0.00     0.135 A 
ATOM     90  F   UNL A   1      43.007  27.226  33.447  1.00  0.00    -0.206 F 
ATOM     91  C   UNL A   1      43.603  26.761  35.651  1.00  0.00     0.059 A 
ATOM     92  C   UNL A   1      44.897  28.365  36.918  1.00  0.00     0.059 A 
ATOM     93  F   UNL A   1      45.454  30.435  35.965  1.00  0.00    -0.206 F 
ATOM     94  C   UNL A   1      44.278  27.120  36.815  1.00  0.00     0.060 A 
BRANCH  94  95
ATOM     95  S   UNL A   1      44.409  25.919  38.156  1.00  0.00     0.124 S 
ATOM     96  O   UNL A   1      43.721  26.603  39.246  1.00  0.00    -0.237 OA
ATOM     97  O   UNL A   1      43.724  24.751  37.610  1.00  0.00    -0.237 OA
ATOM     98  O   UNL A   1      45.850  25.759  38.331  1.00  0.00    -0.744 OA
ENDBRANCH  94  95
ENDBRANCH  62  87
ENDBRANCH  36  37
ENDBRANCH  29  31
ENDBRANCH  28  29
ENDBRANCH  27  28
ENDBRANCH   1  27
TORSDOF 18
ENDMDL
MODEL 3
REMARK VINA RESULT:     -10.6      2.681      8.156
REMARK SMILES Cc1nccn1CCC[NH+]1CCC2(CC1)[C@@H](C(=O)OCCOC(=O)c1ccc(-c3c4nc(c(-c5c(F)cc(S(=O)(=O)[O-])cc5F)c5ccc([nH]5)c(-c5c(F)cc(S(=O)(=O)[O-])cc5F)c5nc(c(-c6c(F)cc(S(=O)(=O)[O-])cc6F)c6ccc3[nH]6)C=C5)C=C4)cc1)CC(=O)N2C
REMARK SMILES IDX 20 1 19 2 17 3 18 4 16 5 10 6 11 7 15 8 12 10 14 11 13 12
REMARK SMILES IDX 94 13 91 14 92 15 95 16 93 17 9 18 8 19 7 20 6 21 1 22 2 23
REMARK SMILES IDX 3 24 4 25 5 26 21 27 22 28 23 29 24 30 25 31 26 32 90 33
REMARK SMILES IDX 27 34 89 35 28 36 29 37 30 38 83 39 31 40 88 41 82 42 84 43
REMARK SMILES IDX 32 44 87 45 81 46 80 47 33 49 67 50 46 51 66 52 47 53 50 54
REMARK SMILES IDX 65 55 85 56 48 57 49 58 64 60 86 61 51 62 34 63 35 64 44 65
REMARK SMILES IDX 36 66 37 67 43 68 45 69 38 70 39 71 40 72 41 73 42 74 68 75
REMARK SMILES IDX 69 76 78 77 70 78 71 79 77 80 79 81 72 82 73 83 74 84 75 85
REMARK SMILES IDX 76 86 52 87 53 88 62 89 54 90 55 91 61 92 63 93 56 94 57 95
REMARK SMILES IDX 58 96 59 97 60 98
REMARK H PARENT 10 9 84 48 50 59
REMARK Flexibility Score: inf
ROOT
ATOM      1  C   UNL A   1      36.690  22.744  24.123  1.00  0.00     0.274 C 
ENDROOT
BRANCH   1   2
ATOM      2  O   UNL A   1      35.419  22.293  23.583  1.00  0.00    -0.462 OA
BRANCH   2   3
ATOM      3  C   UNL A   1      34.482  23.264  23.337  1.00  0.00     0.311 C 
ATOM      4  O   UNL A   1      34.740  24.329  22.816  1.00  0.00    -0.252 OA
BRANCH   3   5
ATOM      5  C   UNL A   1      33.085  22.834  23.847  1.00  0.00     0.134 C 
ATOM      6  N   UNL A   1      31.259  25.765  26.303  1.00  0.00    -0.335 N 
ATOM      7  C   UNL A   1      30.508  24.524  26.285  1.00  0.00     0.264 C 
ATOM      8  C   UNL A   1      32.663  25.602  26.588  1.00  0.00     0.264 C 
ATOM      9  H   UNL A   1      30.890  26.201  27.147  1.00  0.00     0.348 HD
ATOM     10  C   UNL A   1      31.087  23.352  25.464  1.00  0.00     0.091 C 
ATOM     11  C   UNL A   1      33.354  24.665  25.615  1.00  0.00     0.091 C 
ATOM     12  C   UNL A   1      32.653  23.318  25.291  1.00  0.00     0.067 C 
ATOM     13  N   UNL A   1      33.131  22.197  26.116  1.00  0.00    -0.339 N 
ATOM     14  C   UNL A   1      33.063  21.314  23.921  1.00  0.00     0.118 C 
ATOM     15  C   UNL A   1      33.249  21.018  25.385  1.00  0.00     0.223 C 
ATOM     16  C   UNL A   1      32.946  22.132  27.552  1.00  0.00     0.147 C 
ATOM     17  O   UNL A   1      33.393  19.897  25.848  1.00  0.00    -0.275 OA
BRANCH   6  18
ATOM     18  C   UNL A   1      30.832  26.895  25.487  1.00  0.00     0.264 C 
BRANCH  18  19
ATOM     19  C   UNL A   1      30.060  26.645  24.184  1.00  0.00     0.083 C 
BRANCH  19  20
ATOM     20  C   UNL A   1      30.523  27.463  22.986  1.00  0.00     0.129 C 
BRANCH  20  21
ATOM     21  N   UNL A   1      31.920  27.667  22.710  1.00  0.00    -0.335 N 
ATOM     22  C   UNL A   1      32.298  25.680  21.134  1.00  0.00     0.087 C 
ATOM     23  C   UNL A   1      32.697  26.935  21.826  1.00  0.00     0.105 A 
ATOM     24  N   UNL A   1      33.870  27.513  21.663  1.00  0.00    -0.242 NA
ATOM     25  C   UNL A   1      33.880  28.595  22.490  1.00  0.00     0.131 A 
ATOM     26  C   UNL A   1      32.682  28.711  23.148  1.00  0.00     0.107 A 
ENDBRANCH  20  21
ENDBRANCH  19  20
ENDBRANCH  18  19
ENDBRANCH   6  18
ENDBRANCH   3   5
ENDBRANCH   2   3
ENDBRANCH   1   2
BRANCH   1  27
ATOM     27  C   UNL A   1      36.699  22.833  25.669  1.00  0.00     0.275 C 
BRANCH  27  28
ATOM     28  O   UNL A   1      37.644  23.760  26.253  1.00  0.00    -0.458 OA
BRANCH  28  29
ATOM     29  C   UNL A   1      38.865  23.225  26.410  1.00  0.00     0.338 C 
ATOM     30  O   UNL A   1      39.092  22.023  26.463  1.00  0.00    -0.246 OA
BRANCH  29  31
ATOM     31  C   UNL A   1      39.953  24.176  26.695  1.00  0.00     0.060 A 
ATOM     32  C   UNL A   1      40.720  23.853  27.810  1.00  0.00     0.016 A 
ATOM     33  C   UNL A   1      40.031  25.454  26.159  1.00  0.00     0.016 A 
ATOM     34  C   UNL A   1      41.291  24.818  28.591  1.00  0.00     0.010 A 
ATOM     35  C   UNL A   1      40.770  26.416  26.853  1.00  0.00     0.010 A 
ATOM     36  C   UNL A   1      41.306  26.118  28.119  1.00  0.00    -0.014 A 
BRANCH  36  37
ATOM     37  C   UNL A   1      42.007  27.067  28.988  1.00  0.00     0.031 A 
ATOM     38  C   UNL A   1      41.112  28.032  29.730  1.00  0.00     0.074 A 
ATOM     39  C   UNL A   1      43.338  26.977  29.154  1.00  0.00     0.049 A 
ATOM     40  N   UNL A   1      41.244  29.308  29.936  1.00  0.00    -0.248 NA
ATOM     41  C   UNL A   1      39.805  27.502  30.183  1.00  0.00     0.031 C 
ATOM     42  C   UNL A   1      44.237  25.939  28.635  1.00  0.00     0.029 A 
ATOM     43  N   UNL A   1      44.147  27.672  29.993  1.00  0.00    -0.354 N 
ATOM     44  C   UNL A   1      40.132  29.691  30.693  1.00  0.00     0.074 A 
ATOM     45  C   UNL A   1      39.210  28.590  30.662  1.00  0.00     0.031 C 
ATOM     46  C   UNL A   1      45.316  25.863  29.441  1.00  0.00     0.029 A 
ATOM     47  C   UNL A   1      45.213  26.910  30.442  1.00  0.00     0.049 A 
ATOM     48  H   UNL A   1      43.994  28.609  30.251  1.00  0.00     0.167 HD
ATOM     49  C   UNL A   1      40.099  30.799  31.484  1.00  0.00     0.037 A 
ATOM     50  C   UNL A   1      45.786  27.005  31.667  1.00  0.00     0.037 A 
ATOM     51  C   UNL A   1      41.039  31.798  31.068  1.00  0.00     0.049 A 
ATOM     52  C   UNL A   1      45.427  28.341  32.223  1.00  0.00     0.074 A 
ATOM     53  C   UNL A   1      41.212  32.533  29.910  1.00  0.00     0.029 A 
ATOM     54  N   UNL A   1      42.204  31.951  31.777  1.00  0.00    -0.354 N 
ATOM     55  N   UNL A   1      45.809  29.479  31.703  1.00  0.00    -0.248 NA
ATOM     56  C   UNL A   1      44.263  28.422  33.097  1.00  0.00     0.031 C 
ATOM     57  C   UNL A   1      42.624  32.648  29.755  1.00  0.00     0.029 A 
ATOM     58  C   UNL A   1      43.210  32.005  30.844  1.00  0.00     0.049 A 
ATOM     59  H   UNL A   1      42.300  32.011  32.755  1.00  0.00     0.167 HD
ATOM     60  C   UNL A   1      44.727  30.336  31.863  1.00  0.00     0.074 A 
ATOM     61  C   UNL A   1      43.835  29.651  32.795  1.00  0.00     0.031 C 
ATOM     62  C   UNL A   1      44.507  31.393  31.025  1.00  0.00     0.037 A 
BRANCH  49  63
ATOM     63  C   UNL A   1      39.411  30.816  32.831  1.00  0.00     0.058 A 
ATOM     64  C   UNL A   1      38.355  31.714  33.083  1.00  0.00     0.135 A 
ATOM     65  C   UNL A   1      39.935  30.159  33.969  1.00  0.00     0.135 A 
ATOM     66  F   UNL A   1      37.794  32.409  32.081  1.00  0.00    -0.206 F 
ATOM     67  C   UNL A   1      37.899  31.982  34.377  1.00  0.00     0.059 A 
ATOM     68  C   UNL A   1      39.456  30.365  35.255  1.00  0.00     0.059 A 
ATOM     69  F   UNL A   1      41.008  29.360  33.903  1.00  0.00    -0.206 F 
ATOM     70  C   UNL A   1      38.471  31.313  35.457  1.00  0.00     0.060 A 
BRANCH  70  71
ATOM     71  S   UNL A   1      37.990  31.745  37.139  1.00  0.00     0.124 S 
ATOM     72  O   UNL A   1      37.457  30.476  37.620  1.00  0.00    -0.237 OA
ATOM     73  O   UNL A   1      39.259  32.169  37.720  1.00  0.00    -0.237 OA
ATOM     74  O   UNL A   1      37.011  32.810  36.943  1.00  0.00    -0.744 OA
ENDBRANCH  70  71
ENDBRANCH  49  63
BRANCH  50  75
ATOM     75  C   UNL A   1      46.155  25.828  32.505  1.00  0.00     0.058 A 
ATOM     76  C   UNL A   1      47.436  25.695  33.059  1.00  0.00     0.135 A 
ATOM     77  C   UNL A   1      45.190  24.892  32.948  1.00  0.00     0.135 A 
ATOM     78  F   UNL A   1      48.399  26.574  32.744  1.00  0.00    -0.206 F 
ATOM     79  C   UNL A   1      47.747  24.688  33.984  1.00  0.00     0.059 A 
ATOM     80  C   UNL A   1      45.482  23.865  33.840  1.00  0.00     0.059 A 
ATOM     81  F   UNL A   1      43.901  24.989  32.589  1.00  0.00    -0.206 F 
ATOM     82  C   UNL A   1      46.761  23.776  34.367  1.00  0.00     0.060 A 
BRANCH  82  83
ATOM     83  S   UNL A   1      47.123  22.532  35.626  1.00  0.00     0.124 S 
ATOM     84  O   UNL A   1      46.068  22.775  36.602  1.00  0.00    -0.237 OA
ATOM     85  O   UNL A   1      47.020  21.291  34.867  1.00  0.00    -0.237 OA
ATOM     86  O   UNL A   1      48.472  22.879  36.069  1.00  0.00    -0.744 OA
ENDBRANCH  82  83
ENDBRANCH  50  75
BRANCH  62  87
ATOM     87  C   UNL A   1      45.565  31.761  30.019  1.00  0.00     0.058 A 
ATOM     88  C   UNL A   1      45.609  31.235  28.716  1.00  0.00     0.135 A 
ATOM     89  C   UNL A   1      46.435  32.824  30.305  1.00  0.00     0.135 A 
ATOM     90  F   UNL A   1      44.729  30.307  28.321  1.00  0.00    -0.206 F 
ATOM     91  C   UNL A   1      46.505  31.707  27.756  1.00  0.00     0.059 A 
ATOM     92  C   UNL A   1      47.317  33.334  29.353  1.00  0.00     0.059 A 
ATOM     93  F   UNL A   1      46.391  33.424  31.506  1.00  0.00    -0.206 F 
ATOM     94  C   UNL A   1      47.355  32.760  28.083  1.00  0.00     0.060 A 
BRANCH  94  95
ATOM     95  S   UNL A   1      48.450  33.426  26.811  1.00  0.00     0.124 S 
ATOM     96  O   UNL A   1      47.503  33.846  25.783  1.00  0.00    -0.237 OA
ATOM     97  O   UNL A   1      49.141  34.503  27.513  1.00  0.00    -0.237 OA
ATOM     98  O   UNL A   1      49.292  32.287  26.455  1.00  0.00    -0.744 OA
ENDBRANCH  94  95
ENDBRANCH  62  87
ENDBRANCH  36  37
ENDBRANCH  29  31
ENDBRANCH  28  29
ENDBRANCH  27  28
ENDBRANCH   1  27
TORSDOF 18
ENDMDL
