MODEL 1
REMARK VINA RESULT:      -9.9      0.000      0.000
REMARK SMILES C[C@H](NC(=O)NCCc1ccccc1F)C(=O)OCCOC(=O)c1ccc(-c2c3nc(c(-c4c(F)cc(S(=O)(=O)[O-])cc4F)c4ccc([nH]4)c(-c4c(F)cc(S(=O)(=O)[O-])cc4F)c4nc(c(-c5c(F)cc(S(=O)(=O)[O-])cc5F)c5ccc2[nH]5)C=C4)C=C3)cc1
REMARK SMILES IDX 19 1 18 2 16 3 17 4 2 5 1 6 3 7 4 8 5 10 6 11 7 13 8 14 9 15
REMARK SMILES IDX 10 16 14 17 11 18 13 19 15 20 12 21 20 22 21 23 22 24 23 25
REMARK SMILES IDX 24 26 25 27 89 28 26 29 88 30 27 31 28 32 29 33 82 34 30 35
REMARK SMILES IDX 87 36 81 37 83 38 31 39 86 40 80 41 79 42 32 44 66 45 45 46
REMARK SMILES IDX 65 47 46 48 49 49 64 50 84 51 47 52 48 53 63 55 85 56 50 57
REMARK SMILES IDX 33 58 34 59 43 60 35 61 36 62 42 63 44 64 37 65 38 66 39 67
REMARK SMILES IDX 40 68 41 69 67 70 68 71 77 72 69 73 70 74 76 75 78 76 71 77
REMARK SMILES IDX 72 78 73 79 74 80 75 81 51 82 52 83 61 84 53 85 54 86 60 87
REMARK SMILES IDX 62 88 55 89 56 90 57 91 58 92 59 93
REMARK H PARENT 3 9 6 12 83 43 49 54
REMARK Flexibility Score: inf
ROOT
ATOM      1  C   UNL A   1      33.781  34.225  28.832  1.00  0.00     0.274 C 
ENDROOT
BRANCH   1   2
ATOM      2  O   UNL A   1      34.706  34.140  29.929  1.00  0.00    -0.461 OA
BRANCH   2   3
ATOM      3  C   UNL A   1      34.260  34.563  31.144  1.00  0.00     0.328 C 
ATOM      4  O   UNL A   1      33.094  34.848  31.394  1.00  0.00    -0.250 OA
BRANCH   3   5
ATOM      5  C   UNL A   1      35.371  34.538  32.211  1.00  0.00     0.190 C 
ATOM      6  C   UNL A   1      34.978  35.228  33.512  1.00  0.00     0.043 C 
BRANCH   5   7
ATOM      7  N   UNL A   1      36.726  34.812  31.746  1.00  0.00    -0.325 N 
ATOM      8  C   UNL A   1      37.908  34.205  31.824  1.00  0.00     0.315 C 
ATOM      9  H   UNL A   1      36.780  35.659  31.248  1.00  0.00     0.166 HD
ATOM     10  O   UNL A   1      38.892  34.793  31.369  1.00  0.00    -0.249 OA
ATOM     11  N   UNL A   1      38.112  33.015  32.388  1.00  0.00    -0.338 N 
ATOM     12  H   UNL A   1      39.066  32.826  32.542  1.00  0.00     0.165 HD
BRANCH  11  13
ATOM     13  C   UNL A   1      37.252  31.934  32.826  1.00  0.00     0.122 C 
BRANCH  13  14
ATOM     14  C   UNL A   1      37.882  31.127  33.967  1.00  0.00     0.060 C 
BRANCH  14  15
ATOM     15  C   UNL A   1      38.986  30.222  33.480  1.00  0.00    -0.010 A 
ATOM     16  C   UNL A   1      40.328  30.622  33.531  1.00  0.00     0.007 A 
ATOM     17  C   UNL A   1      38.688  28.944  32.998  1.00  0.00     0.126 A 
ATOM     18  C   UNL A   1      41.341  29.745  33.141  1.00  0.00     0.000 A 
ATOM     19  C   UNL A   1      39.691  28.072  32.591  1.00  0.00     0.039 A 
ATOM     20  F   UNL A   1      37.413  28.533  32.931  1.00  0.00    -0.207 F 
ATOM     21  C   UNL A   1      41.025  28.470  32.672  1.00  0.00     0.003 A 
ENDBRANCH  14  15
ENDBRANCH  13  14
ENDBRANCH  11  13
ENDBRANCH   5   7
ENDBRANCH   3   5
ENDBRANCH   2   3
ENDBRANCH   1   2
BRANCH   1  22
ATOM     22  C   UNL A   1      33.746  32.902  28.062  1.00  0.00     0.275 C 
BRANCH  22  23
ATOM     23  O   UNL A   1      34.254  31.815  28.857  1.00  0.00    -0.458 OA
BRANCH  23  24
ATOM     24  C   UNL A   1      34.380  30.634  28.213  1.00  0.00     0.338 C 
ATOM     25  O   UNL A   1      33.553  30.078  27.504  1.00  0.00    -0.246 OA
BRANCH  24  26
ATOM     26  C   UNL A   1      35.748  30.136  28.370  1.00  0.00     0.060 A 
ATOM     27  C   UNL A   1      36.194  29.792  29.649  1.00  0.00     0.016 A 
ATOM     28  C   UNL A   1      36.612  30.100  27.278  1.00  0.00     0.016 A 
ATOM     29  C   UNL A   1      37.521  29.445  29.855  1.00  0.00     0.010 A 
ATOM     30  C   UNL A   1      37.937  29.718  27.480  1.00  0.00     0.010 A 
ATOM     31  C   UNL A   1      38.400  29.404  28.770  1.00  0.00    -0.014 A 
BRANCH  31  32
ATOM     32  C   UNL A   1      39.819  29.053  28.979  1.00  0.00     0.031 A 
ATOM     33  C   UNL A   1      40.774  30.105  29.452  1.00  0.00     0.074 A 
ATOM     34  C   UNL A   1      40.241  27.803  28.717  1.00  0.00     0.049 A 
ATOM     35  N   UNL A   1      42.078  30.077  29.486  1.00  0.00    -0.248 NA
ATOM     36  C   UNL A   1      40.180  31.358  29.941  1.00  0.00     0.031 C 
ATOM     37  C   UNL A   1      39.378  26.688  28.320  1.00  0.00     0.029 A 
ATOM     38  N   UNL A   1      41.501  27.267  28.728  1.00  0.00    -0.354 N 
ATOM     39  C   UNL A   1      42.467  31.325  29.952  1.00  0.00     0.074 A 
ATOM     40  C   UNL A   1      41.260  32.085  30.197  1.00  0.00     0.031 C 
ATOM     41  C   UNL A   1      40.136  25.601  28.117  1.00  0.00     0.029 A 
ATOM     42  C   UNL A   1      41.539  25.962  28.297  1.00  0.00     0.049 A 
ATOM     43  H   UNL A   1      42.298  27.765  29.016  1.00  0.00     0.167 HD
ATOM     44  C   UNL A   1      43.724  31.790  30.141  1.00  0.00     0.037 A 
ATOM     45  C   UNL A   1      42.590  25.167  28.021  1.00  0.00     0.037 A 
ATOM     46  C   UNL A   1      44.907  31.002  29.917  1.00  0.00     0.049 A 
ATOM     47  C   UNL A   1      43.976  25.716  28.183  1.00  0.00     0.074 A 
ATOM     48  C   UNL A   1      46.229  31.360  30.104  1.00  0.00     0.029 A 
ATOM     49  N   UNL A   1      44.905  29.693  29.453  1.00  0.00    -0.354 N 
ATOM     50  N   UNL A   1      44.342  26.910  28.588  1.00  0.00    -0.248 NA
ATOM     51  C   UNL A   1      45.092  24.830  27.830  1.00  0.00     0.031 C 
ATOM     52  C   UNL A   1      47.029  30.280  29.719  1.00  0.00     0.029 A 
ATOM     53  C   UNL A   1      46.205  29.235  29.324  1.00  0.00     0.049 A 
ATOM     54  H   UNL A   1      44.098  29.168  29.245  1.00  0.00     0.167 HD
ATOM     55  C   UNL A   1      45.729  26.920  28.541  1.00  0.00     0.074 A 
ATOM     56  C   UNL A   1      46.139  25.609  28.078  1.00  0.00     0.031 C 
ATOM     57  C   UNL A   1      46.584  27.925  28.852  1.00  0.00     0.037 A 
BRANCH  44  58
ATOM     58  C   UNL A   1      43.875  33.223  30.561  1.00  0.00     0.058 A 
ATOM     59  C   UNL A   1      44.077  34.221  29.593  1.00  0.00     0.135 A 
ATOM     60  C   UNL A   1      43.822  33.616  31.907  1.00  0.00     0.135 A 
ATOM     61  F   UNL A   1      44.125  33.901  28.291  1.00  0.00    -0.206 F 
ATOM     62  C   UNL A   1      44.216  35.559  29.945  1.00  0.00     0.059 A 
ATOM     63  C   UNL A   1      43.938  34.953  32.280  1.00  0.00     0.059 A 
ATOM     64  F   UNL A   1      43.605  32.705  32.868  1.00  0.00    -0.206 F 
ATOM     65  C   UNL A   1      44.141  35.917  31.292  1.00  0.00     0.060 A 
BRANCH  65  66
ATOM     66  S   UNL A   1      44.238  37.666  31.729  1.00  0.00     0.124 S 
ATOM     67  O   UNL A   1      43.416  37.721  32.933  1.00  0.00    -0.237 OA
ATOM     68  O   UNL A   1      45.672  37.858  31.926  1.00  0.00    -0.237 OA
ATOM     69  O   UNL A   1      43.684  38.336  30.556  1.00  0.00    -0.744 OA
ENDBRANCH  65  66
ENDBRANCH  44  58
BRANCH  45  70
ATOM     70  C   UNL A   1      42.334  23.790  27.530  1.00  0.00     0.058 A 
ATOM     71  C   UNL A   1      42.275  22.705  28.420  1.00  0.00     0.135 A 
ATOM     72  C   UNL A   1      42.274  23.517  26.157  1.00  0.00     0.135 A 
ATOM     73  F   UNL A   1      42.338  22.916  29.744  1.00  0.00    -0.206 F 
ATOM     74  C   UNL A   1      42.223  21.393  27.964  1.00  0.00     0.059 A 
ATOM     75  C   UNL A   1      42.201  22.213  25.677  1.00  0.00     0.059 A 
ATOM     76  F   UNL A   1      42.315  24.524  25.272  1.00  0.00    -0.206 F 
ATOM     77  C   UNL A   1      42.206  21.157  26.589  1.00  0.00     0.060 A 
BRANCH  77  78
ATOM     78  S   UNL A   1      42.230  19.445  26.013  1.00  0.00     0.124 S 
ATOM     79  O   UNL A   1      40.835  19.248  25.633  1.00  0.00    -0.237 OA
ATOM     80  O   UNL A   1      43.186  19.504  24.912  1.00  0.00    -0.237 OA
ATOM     81  O   UNL A   1      42.674  18.701  27.186  1.00  0.00    -0.744 OA
ENDBRANCH  77  78
ENDBRANCH  45  70
BRANCH  57  82
ATOM     82  C   UNL A   1      48.053  27.657  28.706  1.00  0.00     0.058 A 
ATOM     83  C   UNL A   1      48.718  27.983  27.514  1.00  0.00     0.135 A 
ATOM     84  C   UNL A   1      48.769  26.975  29.699  1.00  0.00     0.135 A 
ATOM     85  F   UNL A   1      48.072  28.635  26.535  1.00  0.00    -0.206 F 
ATOM     86  C   UNL A   1      50.040  27.612  27.299  1.00  0.00     0.059 A 
ATOM     87  C   UNL A   1      50.098  26.609  29.513  1.00  0.00     0.059 A 
ATOM     88  F   UNL A   1      48.176  26.655  30.861  1.00  0.00    -0.206 F 
ATOM     89  C   UNL A   1      50.717  26.912  28.300  1.00  0.00     0.060 A 
BRANCH  89  90
ATOM     90  S   UNL A   1      52.423  26.409  27.992  1.00  0.00     0.124 S 
ATOM     91  O   UNL A   1      52.239  25.219  27.169  1.00  0.00    -0.237 OA
ATOM     92  O   UNL A   1      52.972  27.576  27.309  1.00  0.00    -0.237 OA
ATOM     93  O   UNL A   1      52.953  26.171  29.332  1.00  0.00    -0.744 OA
ENDBRANCH  89  90
ENDBRANCH  57  82
ENDBRANCH  31  32
ENDBRANCH  24  26
ENDBRANCH  23  24
ENDBRANCH  22  23
ENDBRANCH   1  22
TORSDOF 18
ENDMDL
MODEL 2
REMARK VINA RESULT:      -9.5      3.385      5.563
REMARK SMILES C[C@H](NC(=O)NCCc1ccccc1F)C(=O)OCCOC(=O)c1ccc(-c2c3nc(c(-c4c(F)cc(S(=O)(=O)[O-])cc4F)c4ccc([nH]4)c(-c4c(F)cc(S(=O)(=O)[O-])cc4F)c4nc(c(-c5c(F)cc(S(=O)(=O)[O-])cc5F)c5ccc2[nH]5)C=C4)C=C3)cc1
REMARK SMILES IDX 19 1 18 2 16 3 17 4 2 5 1 6 3 7 4 8 5 10 6 11 7 13 8 14 9 15
REMARK SMILES IDX 10 16 14 17 11 18 13 19 15 20 12 21 20 22 21 23 22 24 23 25
REMARK SMILES IDX 24 26 25 27 89 28 26 29 88 30 27 31 28 32 29 33 82 34 30 35
REMARK SMILES IDX 87 36 81 37 83 38 31 39 86 40 80 41 79 42 32 44 66 45 45 46
REMARK SMILES IDX 65 47 46 48 49 49 64 50 84 51 47 52 48 53 63 55 85 56 50 57
REMARK SMILES IDX 33 58 34 59 43 60 35 61 36 62 42 63 44 64 37 65 38 66 39 67
REMARK SMILES IDX 40 68 41 69 67 70 68 71 77 72 69 73 70 74 76 75 78 76 71 77
REMARK SMILES IDX 72 78 73 79 74 80 75 81 51 82 52 83 61 84 53 85 54 86 60 87
REMARK SMILES IDX 62 88 55 89 56 90 57 91 58 92 59 93
REMARK H PARENT 3 9 6 12 83 43 49 54
REMARK Flexibility Score: inf
ROOT
ATOM      1  C   UNL A   1      32.440  29.256  26.015  1.00  0.00     0.274 C 
ENDROOT
BRANCH   1   2
ATOM      2  O   UNL A   1      32.452  27.823  25.909  1.00  0.00    -0.461 OA
BRANCH   2   3
ATOM      3  C   UNL A   1      31.488  27.147  26.592  1.00  0.00     0.328 C 
ATOM      4  O   UNL A   1      31.023  27.501  27.669  1.00  0.00    -0.250 OA
BRANCH   3   5
ATOM      5  C   UNL A   1      30.958  25.935  25.801  1.00  0.00     0.190 C 
ATOM      6  C   UNL A   1      30.321  26.312  24.469  1.00  0.00     0.043 C 
BRANCH   5   7
ATOM      7  N   UNL A   1      30.244  24.920  26.568  1.00  0.00    -0.325 N 
ATOM      8  C   UNL A   1      30.472  23.664  26.942  1.00  0.00     0.315 C 
ATOM      9  H   UNL A   1      29.373  25.248  26.890  1.00  0.00     0.166 HD
ATOM     10  O   UNL A   1      29.572  23.063  27.535  1.00  0.00    -0.249 OA
ATOM     11  N   UNL A   1      31.597  22.994  26.696  1.00  0.00    -0.338 N 
ATOM     12  H   UNL A   1      31.505  22.026  26.856  1.00  0.00     0.165 HD
BRANCH  11  13
ATOM     13  C   UNL A   1      32.926  23.361  26.247  1.00  0.00     0.122 C 
BRANCH  13  14
ATOM     14  C   UNL A   1      33.207  22.865  24.825  1.00  0.00     0.060 C 
BRANCH  14  15
ATOM     15  C   UNL A   1      34.615  22.347  24.672  1.00  0.00    -0.010 A 
ATOM     16  C   UNL A   1      35.634  23.159  24.155  1.00  0.00     0.007 A 
ATOM     17  C   UNL A   1      34.937  21.048  25.077  1.00  0.00     0.126 A 
ATOM     18  C   UNL A   1      36.946  22.686  24.085  1.00  0.00     0.000 A 
ATOM     19  C   UNL A   1      36.238  20.565  24.992  1.00  0.00     0.039 A 
ATOM     20  F   UNL A   1      33.983  20.244  25.570  1.00  0.00    -0.207 F 
ATOM     21  C   UNL A   1      37.249  21.391  24.503  1.00  0.00     0.003 A 
ENDBRANCH  14  15
ENDBRANCH  13  14
ENDBRANCH  11  13
ENDBRANCH   5   7
ENDBRANCH   3   5
ENDBRANCH   2   3
ENDBRANCH   1   2
BRANCH   1  22
ATOM     22  C   UNL A   1      33.806  29.768  26.480  1.00  0.00     0.275 C 
BRANCH  22  23
ATOM     23  O   UNL A   1      33.961  29.636  27.904  1.00  0.00    -0.458 OA
BRANCH  23  24
ATOM     24  C   UNL A   1      34.762  30.555  28.488  1.00  0.00     0.338 C 
ATOM     25  O   UNL A   1      34.431  31.611  29.008  1.00  0.00    -0.246 OA
BRANCH  24  26
ATOM     26  C   UNL A   1      36.134  30.044  28.541  1.00  0.00     0.060 A 
ATOM     27  C   UNL A   1      36.623  29.561  29.758  1.00  0.00     0.016 A 
ATOM     28  C   UNL A   1      36.958  30.132  27.422  1.00  0.00     0.016 A 
ATOM     29  C   UNL A   1      37.955  29.195  29.877  1.00  0.00     0.010 A 
ATOM     30  C   UNL A   1      38.289  29.732  27.534  1.00  0.00     0.010 A 
ATOM     31  C   UNL A   1      38.796  29.276  28.764  1.00  0.00    -0.014 A 
BRANCH  31  32
ATOM     32  C   UNL A   1      40.221  28.907  28.883  1.00  0.00     0.031 A 
ATOM     33  C   UNL A   1      41.219  29.947  29.287  1.00  0.00     0.074 A 
ATOM     34  C   UNL A   1      40.607  27.650  28.602  1.00  0.00     0.049 A 
ATOM     35  N   UNL A   1      42.522  29.901  29.237  1.00  0.00    -0.248 NA
ATOM     36  C   UNL A   1      40.675  31.212  29.806  1.00  0.00     0.031 C 
ATOM     37  C   UNL A   1      39.705  26.545  28.268  1.00  0.00     0.029 A 
ATOM     38  N   UNL A   1      41.858  27.095  28.535  1.00  0.00    -0.354 N 
ATOM     39  C   UNL A   1      42.957  31.146  29.670  1.00  0.00     0.074 A 
ATOM     40  C   UNL A   1      41.779  31.924  29.987  1.00  0.00     0.031 C 
ATOM     41  C   UNL A   1      40.433  25.446  28.023  1.00  0.00     0.029 A 
ATOM     42  C   UNL A   1      41.850  25.789  28.110  1.00  0.00     0.049 A 
ATOM     43  H   UNL A   1      42.679  27.584  28.768  1.00  0.00     0.167 HD
ATOM     44  C   UNL A   1      44.229  31.594  29.774  1.00  0.00     0.037 A 
ATOM     45  C   UNL A   1      42.870  24.977  27.772  1.00  0.00     0.037 A 
ATOM     46  C   UNL A   1      45.384  30.788  29.479  1.00  0.00     0.049 A 
ATOM     47  C   UNL A   1      44.271  25.507  27.840  1.00  0.00     0.074 A 
ATOM     48  C   UNL A   1      46.721  31.129  29.578  1.00  0.00     0.029 A 
ATOM     49  N   UNL A   1      45.335  29.477  29.024  1.00  0.00    -0.354 N 
ATOM     50  N   UNL A   1      44.678  26.698  28.214  1.00  0.00    -0.248 NA
ATOM     51  C   UNL A   1      45.349  24.603  27.422  1.00  0.00     0.031 C 
ATOM     52  C   UNL A   1      47.480  30.035  29.149  1.00  0.00     0.029 A 
ATOM     53  C   UNL A   1      46.617  29.000  28.814  1.00  0.00     0.049 A 
ATOM     54  H   UNL A   1      44.509  28.963  28.872  1.00  0.00     0.167 HD
ATOM     55  C   UNL A   1      46.060  26.688  28.078  1.00  0.00     0.074 A 
ATOM     56  C   UNL A   1      46.421  25.369  27.596  1.00  0.00     0.031 C 
ATOM     57  C   UNL A   1      46.947  27.682  28.327  1.00  0.00     0.037 A 
BRANCH  44  58
ATOM     58  C   UNL A   1      44.428  33.027  30.175  1.00  0.00     0.058 A 
ATOM     59  C   UNL A   1      44.449  34.034  29.196  1.00  0.00     0.135 A 
ATOM     60  C   UNL A   1      44.594  33.411  31.514  1.00  0.00     0.135 A 
ATOM     61  F   UNL A   1      44.284  33.721  27.901  1.00  0.00    -0.206 F 
ATOM     62  C   UNL A   1      44.625  35.372  29.530  1.00  0.00     0.059 A 
ATOM     63  C   UNL A   1      44.751  34.747  31.874  1.00  0.00     0.059 A 
ATOM     64  F   UNL A   1      44.555  32.491  32.490  1.00  0.00    -0.206 F 
ATOM     65  C   UNL A   1      44.771  35.721  30.874  1.00  0.00     0.060 A 
BRANCH  65  66
ATOM     66  S   UNL A   1      44.914  37.468  31.303  1.00  0.00     0.124 S 
ATOM     67  O   UNL A   1      46.199  37.505  31.991  1.00  0.00    -0.237 OA
ATOM     68  O   UNL A   1      44.872  38.115  29.995  1.00  0.00    -0.237 OA
ATOM     69  O   UNL A   1      43.742  37.704  32.143  1.00  0.00    -0.744 OA
ENDBRANCH  65  66
ENDBRANCH  44  58
BRANCH  45  70
ATOM     70  C   UNL A   1      42.564  23.601  27.306  1.00  0.00     0.058 A 
ATOM     71  C   UNL A   1      42.356  22.558  28.224  1.00  0.00     0.135 A 
ATOM     72  C   UNL A   1      42.603  23.279  25.943  1.00  0.00     0.135 A 
ATOM     73  F   UNL A   1      42.321  22.816  29.540  1.00  0.00    -0.206 F 
ATOM     74  C   UNL A   1      42.254  21.236  27.809  1.00  0.00     0.059 A 
ATOM     75  C   UNL A   1      42.482  21.965  25.503  1.00  0.00     0.059 A 
ATOM     76  F   UNL A   1      42.787  24.247  25.032  1.00  0.00    -0.206 F 
ATOM     77  C   UNL A   1      42.339  20.947  26.446  1.00  0.00     0.060 A 
BRANCH  77  78
ATOM     78  S   UNL A   1      42.295  19.216  25.932  1.00  0.00     0.124 S 
ATOM     79  O   UNL A   1      43.178  19.236  24.770  1.00  0.00    -0.237 OA
ATOM     80  O   UNL A   1      42.814  18.532  27.112  1.00  0.00    -0.237 OA
ATOM     81  O   UNL A   1      40.884  18.985  25.646  1.00  0.00    -0.744 OA
ENDBRANCH  77  78
ENDBRANCH  45  70
BRANCH  57  82
ATOM     82  C   UNL A   1      48.399  27.393  28.087  1.00  0.00     0.058 A 
ATOM     83  C   UNL A   1      48.992  27.706  26.855  1.00  0.00     0.135 A 
ATOM     84  C   UNL A   1      49.168  26.704  29.035  1.00  0.00     0.135 A 
ATOM     85  F   UNL A   1      48.294  28.365  25.916  1.00  0.00    -0.206 F 
ATOM     86  C   UNL A   1      50.292  27.316  26.556  1.00  0.00     0.059 A 
ATOM     87  C   UNL A   1      50.477  26.318  28.766  1.00  0.00     0.059 A 
ATOM     88  F   UNL A   1      48.646  26.395  30.234  1.00  0.00    -0.206 F 
ATOM     89  C   UNL A   1      51.021  26.609  27.515  1.00  0.00     0.060 A 
BRANCH  89  90
ATOM     90  S   UNL A   1      52.697  26.081  27.099  1.00  0.00     0.124 S 
ATOM     91  O   UNL A   1      53.142  27.161  26.225  1.00  0.00    -0.237 OA
ATOM     92  O   UNL A   1      53.336  26.020  28.409  1.00  0.00    -0.237 OA
ATOM     93  O   UNL A   1      52.493  24.789  26.449  1.00  0.00    -0.744 OA
ENDBRANCH  89  90
ENDBRANCH  57  82
ENDBRANCH  31  32
ENDBRANCH  24  26
ENDBRANCH  23  24
ENDBRANCH  22  23
ENDBRANCH   1  22
TORSDOF 18
ENDMDL
MODEL 3
REMARK VINA RESULT:      -9.4      3.424      5.794
REMARK SMILES C[C@H](NC(=O)NCCc1ccccc1F)C(=O)OCCOC(=O)c1ccc(-c2c3nc(c(-c4c(F)cc(S(=O)(=O)[O-])cc4F)c4ccc([nH]4)c(-c4c(F)cc(S(=O)(=O)[O-])cc4F)c4nc(c(-c5c(F)cc(S(=O)(=O)[O-])cc5F)c5ccc2[nH]5)C=C4)C=C3)cc1
REMARK SMILES IDX 19 1 18 2 16 3 17 4 2 5 1 6 3 7 4 8 5 10 6 11 7 13 8 14 9 15
REMARK SMILES IDX 10 16 14 17 11 18 13 19 15 20 12 21 20 22 21 23 22 24 23 25
REMARK SMILES IDX 24 26 25 27 89 28 26 29 88 30 27 31 28 32 29 33 82 34 30 35
REMARK SMILES IDX 87 36 81 37 83 38 31 39 86 40 80 41 79 42 32 44 66 45 45 46
REMARK SMILES IDX 65 47 46 48 49 49 64 50 84 51 47 52 48 53 63 55 85 56 50 57
REMARK SMILES IDX 33 58 34 59 43 60 35 61 36 62 42 63 44 64 37 65 38 66 39 67
REMARK SMILES IDX 40 68 41 69 67 70 68 71 77 72 69 73 70 74 76 75 78 76 71 77
REMARK SMILES IDX 72 78 73 79 74 80 75 81 51 82 52 83 61 84 53 85 54 86 60 87
REMARK SMILES IDX 62 88 55 89 56 90 57 91 58 92 59 93
REMARK H PARENT 3 9 6 12 83 43 49 54
REMARK Flexibility Score: inf
ROOT
ATOM      1  C   UNL A   1      32.411  28.500  25.811  1.00  0.00     0.274 C 
ENDROOT
BRANCH   1   2
ATOM      2  O   UNL A   1      32.100  27.096  25.842  1.00  0.00    -0.461 OA
BRANCH   2   3
ATOM      3  C   UNL A   1      31.003  26.693  25.146  1.00  0.00     0.328 C 
ATOM      4  O   UNL A   1      30.213  27.451  24.596  1.00  0.00    -0.250 OA
BRANCH   3   5
ATOM      5  C   UNL A   1      30.922  25.158  25.027  1.00  0.00     0.190 C 
ATOM      6  C   UNL A   1      30.568  24.677  23.625  1.00  0.00     0.043 C 
BRANCH   5   7
ATOM      7  N   UNL A   1      30.251  24.457  26.116  1.00  0.00    -0.325 N 
ATOM      8  C   UNL A   1      30.450  23.333  26.800  1.00  0.00     0.315 C 
ATOM      9  H   UNL A   1      29.447  24.935  26.421  1.00  0.00     0.166 HD
ATOM     10  O   UNL A   1      29.598  22.998  27.626  1.00  0.00    -0.249 OA
ATOM     11  N   UNL A   1      31.496  22.523  26.636  1.00  0.00    -0.338 N 
ATOM     12  H   UNL A   1      31.369  21.647  27.068  1.00  0.00     0.165 HD
BRANCH  11  13
ATOM     13  C   UNL A   1      32.778  22.635  25.969  1.00  0.00     0.122 C 
BRANCH  13  14
ATOM     14  C   UNL A   1      33.679  21.429  26.254  1.00  0.00     0.060 C 
BRANCH  14  15
ATOM     15  C   UNL A   1      35.100  21.661  25.805  1.00  0.00    -0.010 A 
ATOM     16  C   UNL A   1      35.774  22.850  26.117  1.00  0.00     0.007 A 
ATOM     17  C   UNL A   1      35.784  20.672  25.092  1.00  0.00     0.126 A 
ATOM     18  C   UNL A   1      37.111  23.020  25.752  1.00  0.00     0.000 A 
ATOM     19  C   UNL A   1      37.110  20.843  24.710  1.00  0.00     0.039 A 
ATOM     20  F   UNL A   1      35.166  19.526  24.772  1.00  0.00    -0.207 F 
ATOM     21  C   UNL A   1      37.780  22.017  25.050  1.00  0.00     0.003 A 
ENDBRANCH  14  15
ENDBRANCH  13  14
ENDBRANCH  11  13
ENDBRANCH   5   7
ENDBRANCH   3   5
ENDBRANCH   2   3
ENDBRANCH   1   2
BRANCH   1  22
ATOM     22  C   UNL A   1      32.661  29.022  27.228  1.00  0.00     0.275 C 
BRANCH  22  23
ATOM     23  O   UNL A   1      34.050  28.921  27.589  1.00  0.00    -0.458 OA
BRANCH  23  24
ATOM     24  C   UNL A   1      34.621  30.065  28.027  1.00  0.00     0.338 C 
ATOM     25  O   UNL A   1      34.068  31.125  28.284  1.00  0.00    -0.246 OA
BRANCH  24  26
ATOM     26  C   UNL A   1      36.042  29.831  28.293  1.00  0.00     0.060 A 
ATOM     27  C   UNL A   1      36.960  30.026  27.258  1.00  0.00     0.016 A 
ATOM     28  C   UNL A   1      36.451  29.333  29.528  1.00  0.00     0.016 A 
ATOM     29  C   UNL A   1      38.293  29.686  27.435  1.00  0.00     0.010 A 
ATOM     30  C   UNL A   1      37.797  29.024  29.716  1.00  0.00     0.010 A 
ATOM     31  C   UNL A   1      38.720  29.186  28.667  1.00  0.00    -0.014 A 
BRANCH  31  32
ATOM     32  C   UNL A   1      40.133  28.804  28.862  1.00  0.00     0.031 A 
ATOM     33  C   UNL A   1      41.114  29.831  29.335  1.00  0.00     0.074 A 
ATOM     34  C   UNL A   1      40.526  27.547  28.587  1.00  0.00     0.049 A 
ATOM     35  N   UNL A   1      42.417  29.775  29.358  1.00  0.00    -0.248 NA
ATOM     36  C   UNL A   1      40.551  31.093  29.840  1.00  0.00     0.031 C 
ATOM     37  C   UNL A   1      39.636  26.454  28.188  1.00  0.00     0.029 A 
ATOM     38  N   UNL A   1      41.774  26.984  28.583  1.00  0.00    -0.354 N 
ATOM     39  C   UNL A   1      42.837  31.011  29.831  1.00  0.00     0.074 A 
ATOM     40  C   UNL A   1      41.648  31.794  30.092  1.00  0.00     0.031 C 
ATOM     41  C   UNL A   1      40.369  25.353  27.970  1.00  0.00     0.029 A 
ATOM     42  C   UNL A   1      41.781  25.682  28.141  1.00  0.00     0.049 A 
ATOM     43  H   UNL A   1      42.584  27.463  28.868  1.00  0.00     0.167 HD
ATOM     44  C   UNL A   1      44.104  31.447  30.013  1.00  0.00     0.037 A 
ATOM     45  C   UNL A   1      42.812  24.868  27.850  1.00  0.00     0.037 A 
ATOM     46  C   UNL A   1      45.268  30.636  29.773  1.00  0.00     0.049 A 
ATOM     47  C   UNL A   1      44.211  25.385  28.005  1.00  0.00     0.074 A 
ATOM     48  C   UNL A   1      46.599  30.964  29.952  1.00  0.00     0.029 A 
ATOM     49  N   UNL A   1      45.235  29.331  29.298  1.00  0.00    -0.354 N 
ATOM     50  N   UNL A   1      44.605  26.567  28.417  1.00  0.00    -0.248 NA
ATOM     51  C   UNL A   1      45.305  24.478  27.636  1.00  0.00     0.031 C 
ATOM     52  C   UNL A   1      47.373  29.870  29.552  1.00  0.00     0.029 A 
ATOM     53  C   UNL A   1      46.524  28.847  29.155  1.00  0.00     0.049 A 
ATOM     54  H   UNL A   1      44.416  28.825  29.093  1.00  0.00     0.167 HD
ATOM     55  C   UNL A   1      45.992  26.549  28.358  1.00  0.00     0.074 A 
ATOM     56  C   UNL A   1      46.370  25.233  27.881  1.00  0.00     0.031 C 
ATOM     57  C   UNL A   1      46.871  27.533  28.670  1.00  0.00     0.037 A 
BRANCH  44  58
ATOM     58  C   UNL A   1      44.290  32.873  30.443  1.00  0.00     0.058 A 
ATOM     59  C   UNL A   1      44.358  33.192  31.809  1.00  0.00     0.135 A 
ATOM     60  C   UNL A   1      44.403  33.923  29.519  1.00  0.00     0.135 A 
ATOM     61  F   UNL A   1      44.267  32.224  32.735  1.00  0.00    -0.206 F 
ATOM     62  C   UNL A   1      44.535  34.501  32.245  1.00  0.00     0.059 A 
ATOM     63  C   UNL A   1      44.602  35.238  29.932  1.00  0.00     0.059 A 
ATOM     64  F   UNL A   1      44.371  33.669  28.201  1.00  0.00    -0.206 F 
ATOM     65  C   UNL A   1      44.660  35.518  31.298  1.00  0.00     0.060 A 
BRANCH  65  66
ATOM     66  S   UNL A   1      44.974  37.201  31.872  1.00  0.00     0.124 S 
ATOM     67  O   UNL A   1      44.747  37.075  33.307  1.00  0.00    -0.237 OA
ATOM     68  O   UNL A   1      46.359  37.416  31.462  1.00  0.00    -0.237 OA
ATOM     69  O   UNL A   1      43.988  37.993  31.144  1.00  0.00    -0.744 OA
ENDBRANCH  65  66
ENDBRANCH  44  58
BRANCH  45  70
ATOM     70  C   UNL A   1      42.523  23.500  27.351  1.00  0.00     0.058 A 
ATOM     71  C   UNL A   1      42.302  22.436  28.242  1.00  0.00     0.135 A 
ATOM     72  C   UNL A   1      42.591  23.207  25.982  1.00  0.00     0.135 A 
ATOM     73  F   UNL A   1      42.239  22.667  29.562  1.00  0.00    -0.206 F 
ATOM     74  C   UNL A   1      42.216  21.123  27.797  1.00  0.00     0.059 A 
ATOM     75  C   UNL A   1      42.487  21.901  25.512  1.00  0.00     0.059 A 
ATOM     76  F   UNL A   1      42.788  24.193  25.095  1.00  0.00    -0.206 F 
ATOM     77  C   UNL A   1      42.329  20.863  26.431  1.00  0.00     0.060 A 
BRANCH  77  78
ATOM     78  S   UNL A   1      42.305  19.143  25.880  1.00  0.00     0.124 S 
ATOM     79  O   UNL A   1      40.872  18.900  25.751  1.00  0.00    -0.237 OA
ATOM     80  O   UNL A   1      43.054  19.210  24.630  1.00  0.00    -0.237 OA
ATOM     81  O   UNL A   1      42.968  18.432  26.968  1.00  0.00    -0.744 OA
ENDBRANCH  77  78
ENDBRANCH  45  70
BRANCH  57  82
ATOM     82  C   UNL A   1      48.332  27.234  28.509  1.00  0.00     0.058 A 
ATOM     83  C   UNL A   1      49.057  26.648  29.558  1.00  0.00     0.135 A 
ATOM     84  C   UNL A   1      49.033  27.633  27.363  1.00  0.00     0.135 A 
ATOM     85  F   UNL A   1      48.428  26.250  30.675  1.00  0.00    -0.206 F 
ATOM     86  C   UNL A   1      50.437  26.497  29.489  1.00  0.00     0.059 A 
ATOM     87  C   UNL A   1      50.411  27.476  27.264  1.00  0.00     0.059 A 
ATOM     88  F   UNL A   1      48.378  28.186  26.329  1.00  0.00    -0.206 F 
ATOM     89  C   UNL A   1      51.106  26.928  28.342  1.00  0.00     0.060 A 
BRANCH  89  90
ATOM     90  S   UNL A   1      52.902  26.755  28.281  1.00  0.00     0.124 S 
ATOM     91  O   UNL A   1      53.069  25.743  27.244  1.00  0.00    -0.237 OA
ATOM     92  O   UNL A   1      53.332  28.104  27.928  1.00  0.00    -0.237 OA
ATOM     93  O   UNL A   1      53.247  26.331  29.635  1.00  0.00    -0.744 OA
ENDBRANCH  89  90
ENDBRANCH  57  82
ENDBRANCH  31  32
ENDBRANCH  24  26
ENDBRANCH  23  24
ENDBRANCH  22  23
ENDBRANCH   1  22
TORSDOF 18
ENDMDL
