MODEL 1
REMARK VINA RESULT:     -11.1      0.000      0.000
REMARK SMILES O=C(OCCOC(=O)[C@@H]1CCCN(C(=O)Nc2ccccc2)C1)c1ccc(-c2c3nc(c(-c4c(F)cc(S(=O)(=O)[O-])cc4F)c4ccc([nH]4)c(-c4c(F)cc(S(=O)(=O)[O-])cc4F)c4nc(c(-c5c(F)cc(S(=O)(=O)[O-])cc5F)c5ccc2[nH]5)C=C4)C=C3)cc1
REMARK SMILES IDX 4 1 3 2 2 3 1 4 24 5 25 6 89 7 26 8 88 9 27 10 28 11 29 12
REMARK SMILES IDX 82 13 30 14 87 15 81 16 83 17 31 18 86 19 80 20 79 21 32 23
REMARK SMILES IDX 66 24 45 25 65 26 46 27 49 28 64 29 84 30 47 31 48 32 63 34
REMARK SMILES IDX 85 35 50 36 33 37 34 38 43 39 35 40 36 41 42 42 44 43 37 44
REMARK SMILES IDX 38 45 39 46 40 47 41 48 67 49 68 50 77 51 69 52 70 53 76 54
REMARK SMILES IDX 78 55 71 56 72 57 73 58 74 59 75 60 51 61 52 62 61 63 53 64
REMARK SMILES IDX 54 65 60 66 62 67 55 68 56 69 57 70 58 71 59 72 5 73 6 74
REMARK SMILES IDX 7 75 8 76 9 77 10 78 23 79 11 80 13 81 12 82 14 83 15 84
REMARK SMILES IDX 16 85 17 87 18 88 22 89 19 90 21 91 20 92
REMARK H PARENT 83 22 49 33 16 86
REMARK Flexibility Score: inf
ROOT
ATOM      1  C   UNL A   1      32.828  28.464  26.435  1.00  0.00     0.275 C 
ENDROOT
BRANCH   1   2
ATOM      2  O   UNL A   1      33.526  28.827  27.655  1.00  0.00    -0.458 OA
BRANCH   2   3
ATOM      3  C   UNL A   1      34.380  29.837  27.956  1.00  0.00     0.338 C 
ATOM      4  O   UNL A   1      33.950  30.991  27.937  1.00  0.00    -0.246 OA
BRANCH   3   5
ATOM      5  C   UNL A   1      35.836  29.664  28.252  1.00  0.00     0.060 A 
ATOM      6  C   UNL A   1      36.356  29.372  29.507  1.00  0.00     0.016 A 
ATOM      7  C   UNL A   1      36.757  29.881  27.202  1.00  0.00     0.016 A 
ATOM      8  C   UNL A   1      37.734  29.133  29.665  1.00  0.00     0.010 A 
ATOM      9  C   UNL A   1      38.148  29.703  27.376  1.00  0.00     0.010 A 
ATOM     10  C   UNL A   1      38.655  29.271  28.605  1.00  0.00    -0.014 A 
BRANCH  10  11
ATOM     11  C   UNL A   1      40.109  29.027  28.898  1.00  0.00     0.031 A 
ATOM     12  C   UNL A   1      40.700  27.727  28.432  1.00  0.00     0.074 A 
ATOM     13  C   UNL A   1      40.939  29.949  29.437  1.00  0.00     0.049 A 
ATOM     14  N   UNL A   1      41.949  27.400  28.233  1.00  0.00    -0.248 NA
ATOM     15  C   UNL A   1      39.735  26.649  28.163  1.00  0.00     0.031 C 
ATOM     16  C   UNL A   1      40.528  31.202  30.045  1.00  0.00     0.029 A 
ATOM     17  N   UNL A   1      42.318  30.010  29.500  1.00  0.00    -0.354 N 
ATOM     18  C   UNL A   1      41.922  26.076  27.820  1.00  0.00     0.074 A 
ATOM     19  C   UNL A   1      40.531  25.677  27.749  1.00  0.00     0.031 C 
ATOM     20  C   UNL A   1      41.600  31.992  30.233  1.00  0.00     0.029 A 
ATOM     21  C   UNL A   1      42.803  31.259  29.857  1.00  0.00     0.049 A 
ATOM     22  H   UNL A   1      42.901  29.240  29.310  1.00  0.00     0.167 HD
ATOM     23  C   UNL A   1      42.960  25.237  27.587  1.00  0.00     0.037 A 
ATOM     24  C   UNL A   1      44.065  31.748  29.862  1.00  0.00     0.037 A 
ATOM     25  C   UNL A   1      44.339  25.577  27.782  1.00  0.00     0.049 A 
ATOM     26  C   UNL A   1      45.200  30.797  29.554  1.00  0.00     0.074 A 
ATOM     27  C   UNL A   1      45.448  24.753  27.707  1.00  0.00     0.029 A 
ATOM     28  N   UNL A   1      44.797  26.837  28.132  1.00  0.00    -0.354 N 
ATOM     29  N   UNL A   1      45.158  29.578  29.075  1.00  0.00    -0.248 NA
ATOM     30  C   UNL A   1      46.563  31.287  29.831  1.00  0.00     0.031 C 
ATOM     31  C   UNL A   1      46.574  25.504  28.060  1.00  0.00     0.029 A 
ATOM     32  C   UNL A   1      46.171  26.806  28.306  1.00  0.00     0.049 A 
ATOM     33  H   UNL A   1      44.231  27.635  28.243  1.00  0.00     0.167 HD
ATOM     34  C   UNL A   1      46.482  29.160  28.999  1.00  0.00     0.074 A 
ATOM     35  C   UNL A   1      47.305  30.278  29.400  1.00  0.00     0.031 C 
ATOM     36  C   UNL A   1      46.976  27.941  28.673  1.00  0.00     0.037 A 
BRANCH  23  37
ATOM     37  C   UNL A   1      42.590  23.827  27.248  1.00  0.00     0.058 A 
ATOM     38  C   UNL A   1      42.426  22.846  28.236  1.00  0.00     0.135 A 
ATOM     39  C   UNL A   1      42.513  23.436  25.903  1.00  0.00     0.135 A 
ATOM     40  F   UNL A   1      42.527  23.172  29.536  1.00  0.00    -0.206 F 
ATOM     41  C   UNL A   1      42.248  21.510  27.900  1.00  0.00     0.059 A 
ATOM     42  C   UNL A   1      42.318  22.109  25.544  1.00  0.00     0.059 A 
ATOM     43  F   UNL A   1      42.682  24.340  24.925  1.00  0.00    -0.206 F 
ATOM     44  C   UNL A   1      42.217  21.150  26.550  1.00  0.00     0.060 A 
BRANCH  44  45
ATOM     45  S   UNL A   1      42.084  19.404  26.120  1.00  0.00     0.124 S 
ATOM     46  O   UNL A   1      40.663  19.291  25.810  1.00  0.00    -0.237 OA
ATOM     47  O   UNL A   1      42.992  19.289  24.982  1.00  0.00    -0.237 OA
ATOM     48  O   UNL A   1      42.520  18.722  27.335  1.00  0.00    -0.744 OA
ENDBRANCH  44  45
ENDBRANCH  23  37
BRANCH  24  49
ATOM     49  C   UNL A   1      44.392  33.191  30.118  1.00  0.00     0.058 A 
ATOM     50  C   UNL A   1      44.615  33.628  31.440  1.00  0.00     0.135 A 
ATOM     51  C   UNL A   1      44.421  34.174  29.119  1.00  0.00     0.135 A 
ATOM     52  F   UNL A   1      44.608  32.742  32.449  1.00  0.00    -0.206 F 
ATOM     53  C   UNL A   1      44.848  34.963  31.757  1.00  0.00     0.059 A 
ATOM     54  C   UNL A   1      44.709  35.512  29.405  1.00  0.00     0.059 A 
ATOM     55  F   UNL A   1      44.178  33.846  27.841  1.00  0.00    -0.206 F 
ATOM     56  C   UNL A   1      44.918  35.896  30.728  1.00  0.00     0.060 A 
BRANCH  56  57
ATOM     57  S   UNL A   1      45.389  37.591  31.138  1.00  0.00     0.124 S 
ATOM     58  O   UNL A   1      45.837  38.095  29.845  1.00  0.00    -0.237 OA
ATOM     59  O   UNL A   1      44.132  38.140  31.638  1.00  0.00    -0.237 OA
ATOM     60  O   UNL A   1      46.431  37.413  32.144  1.00  0.00    -0.744 OA
ENDBRANCH  56  57
ENDBRANCH  24  49
BRANCH  36  61
ATOM     61  C   UNL A   1      48.465  27.754  28.747  1.00  0.00     0.058 A 
ATOM     62  C   UNL A   1      49.075  27.197  29.883  1.00  0.00     0.135 A 
ATOM     63  C   UNL A   1      49.282  28.079  27.654  1.00  0.00     0.135 A 
ATOM     64  F   UNL A   1      48.337  26.876  30.959  1.00  0.00    -0.206 F 
ATOM     65  C   UNL A   1      50.448  26.988  29.942  1.00  0.00     0.059 A 
ATOM     66  C   UNL A   1      50.655  27.852  27.681  1.00  0.00     0.059 A 
ATOM     67  F   UNL A   1      48.748  28.606  26.542  1.00  0.00    -0.206 F 
ATOM     68  C   UNL A   1      51.230  27.315  28.833  1.00  0.00     0.060 A 
BRANCH  68  69
ATOM     69  S   UNL A   1      53.003  26.984  28.898  1.00  0.00     0.124 S 
ATOM     70  O   UNL A   1      53.139  25.918  27.911  1.00  0.00    -0.237 OA
ATOM     71  O   UNL A   1      53.577  28.273  28.523  1.00  0.00    -0.237 OA
ATOM     72  O   UNL A   1      53.222  26.589  30.286  1.00  0.00    -0.744 OA
ENDBRANCH  68  69
ENDBRANCH  36  61
ENDBRANCH  10  11
ENDBRANCH   3   5
ENDBRANCH   2   3
ENDBRANCH   1   2
BRANCH   1  73
ATOM     73  C   UNL A   1      33.755  27.871  25.384  1.00  0.00     0.274 C 
BRANCH  73  74
ATOM     74  O   UNL A   1      33.908  26.485  25.678  1.00  0.00    -0.462 OA
BRANCH  74  75
ATOM     75  C   UNL A   1      34.091  25.617  24.659  1.00  0.00     0.310 C 
ATOM     76  O   UNL A   1      33.583  25.715  23.551  1.00  0.00    -0.252 OA
BRANCH  75  77
ATOM     77  C   UNL A   1      35.084  24.539  25.047  1.00  0.00     0.119 C 
ATOM     78  C   UNL A   1      35.293  23.516  23.935  1.00  0.00     0.019 C 
ATOM     79  C   UNL A   1      34.705  23.804  26.326  1.00  0.00     0.136 C 
ATOM     80  C   UNL A   1      34.078  22.604  23.795  1.00  0.00     0.023 C 
ATOM     81  N   UNL A   1      33.555  22.921  26.214  1.00  0.00    -0.324 N 
ATOM     82  C   UNL A   1      33.655  21.960  25.115  1.00  0.00     0.121 C 
BRANCH  81  83
ATOM     83  C   UNL A   1      32.538  23.075  27.136  1.00  0.00     0.321 C 
ATOM     84  O   UNL A   1      32.578  22.547  28.254  1.00  0.00    -0.248 OA
ATOM     85  N   UNL A   1      31.494  23.914  26.938  1.00  0.00    -0.308 N 
ATOM     86  H   UNL A   1      31.059  24.204  27.772  1.00  0.00     0.171 HD
BRANCH  85  87
ATOM     87  C   UNL A   1      30.913  24.449  25.792  1.00  0.00     0.042 A 
ATOM     88  C   UNL A   1      30.505  25.783  25.843  1.00  0.00     0.026 A 
ATOM     89  C   UNL A   1      30.794  23.729  24.608  1.00  0.00     0.026 A 
ATOM     90  C   UNL A   1      30.123  26.439  24.674  1.00  0.00     0.002 A 
ATOM     91  C   UNL A   1      30.457  24.401  23.438  1.00  0.00     0.002 A 
ATOM     92  C   UNL A   1      30.125  25.752  23.464  1.00  0.00     0.000 A 
ENDBRANCH  85  87
ENDBRANCH  81  83
ENDBRANCH  75  77
ENDBRANCH  74  75
ENDBRANCH  73  74
ENDBRANCH   1  73
TORSDOF 16
ENDMDL
MODEL 2
REMARK VINA RESULT:     -11.0      1.156      2.417
REMARK SMILES O=C(OCCOC(=O)[C@@H]1CCCN(C(=O)Nc2ccccc2)C1)c1ccc(-c2c3nc(c(-c4c(F)cc(S(=O)(=O)[O-])cc4F)c4ccc([nH]4)c(-c4c(F)cc(S(=O)(=O)[O-])cc4F)c4nc(c(-c5c(F)cc(S(=O)(=O)[O-])cc5F)c5ccc2[nH]5)C=C4)C=C3)cc1
REMARK SMILES IDX 4 1 3 2 2 3 1 4 24 5 25 6 89 7 26 8 88 9 27 10 28 11 29 12
REMARK SMILES IDX 82 13 30 14 87 15 81 16 83 17 31 18 86 19 80 20 79 21 32 23
REMARK SMILES IDX 66 24 45 25 65 26 46 27 49 28 64 29 84 30 47 31 48 32 63 34
REMARK SMILES IDX 85 35 50 36 33 37 34 38 43 39 35 40 36 41 42 42 44 43 37 44
REMARK SMILES IDX 38 45 39 46 40 47 41 48 67 49 68 50 77 51 69 52 70 53 76 54
REMARK SMILES IDX 78 55 71 56 72 57 73 58 74 59 75 60 51 61 52 62 61 63 53 64
REMARK SMILES IDX 54 65 60 66 62 67 55 68 56 69 57 70 58 71 59 72 5 73 6 74
REMARK SMILES IDX 7 75 8 76 9 77 10 78 23 79 11 80 13 81 12 82 14 83 15 84
REMARK SMILES IDX 16 85 17 87 18 88 22 89 19 90 21 91 20 92
REMARK H PARENT 83 22 49 33 16 86
REMARK Flexibility Score: inf
ROOT
ATOM      1  C   UNL A   1      32.219  29.464  26.858  1.00  0.00     0.275 C 
ENDROOT
BRANCH   1   2
ATOM      2  O   UNL A   1      33.493  29.292  27.532  1.00  0.00    -0.458 OA
BRANCH   2   3
ATOM      3  C   UNL A   1      34.419  30.176  27.982  1.00  0.00     0.338 C 
ATOM      4  O   UNL A   1      34.067  31.339  28.184  1.00  0.00    -0.246 OA
BRANCH   3   5
ATOM      5  C   UNL A   1      35.866  29.862  28.194  1.00  0.00     0.060 A 
ATOM      6  C   UNL A   1      36.837  29.912  27.202  1.00  0.00     0.016 A 
ATOM      7  C   UNL A   1      36.267  29.416  29.474  1.00  0.00     0.016 A 
ATOM      8  C   UNL A   1      38.190  29.693  27.522  1.00  0.00     0.010 A 
ATOM      9  C   UNL A   1      37.618  29.134  29.780  1.00  0.00     0.010 A 
ATOM     10  C   UNL A   1      38.613  29.321  28.816  1.00  0.00    -0.014 A 
BRANCH  10  11
ATOM     11  C   UNL A   1      40.079  29.076  29.035  1.00  0.00     0.031 A 
ATOM     12  C   UNL A   1      40.646  27.777  28.538  1.00  0.00     0.074 A 
ATOM     13  C   UNL A   1      40.935  29.997  29.535  1.00  0.00     0.049 A 
ATOM     14  N   UNL A   1      41.883  27.450  28.277  1.00  0.00    -0.248 NA
ATOM     15  C   UNL A   1      39.668  26.699  28.315  1.00  0.00     0.031 C 
ATOM     16  C   UNL A   1      40.556  31.248  30.166  1.00  0.00     0.029 A 
ATOM     17  N   UNL A   1      42.316  30.057  29.530  1.00  0.00    -0.354 N 
ATOM     18  C   UNL A   1      41.836  26.127  27.863  1.00  0.00     0.074 A 
ATOM     19  C   UNL A   1      40.443  25.728  27.859  1.00  0.00     0.031 C 
ATOM     20  C   UNL A   1      41.636  32.037  30.302  1.00  0.00     0.029 A 
ATOM     21  C   UNL A   1      42.818  31.305  29.865  1.00  0.00     0.049 A 
ATOM     22  H   UNL A   1      42.888  29.287  29.309  1.00  0.00     0.167 HD
ATOM     23  C   UNL A   1      42.860  25.289  27.577  1.00  0.00     0.037 A 
ATOM     24  C   UNL A   1      44.080  31.793  29.809  1.00  0.00     0.037 A 
ATOM     25  C   UNL A   1      44.248  25.627  27.704  1.00  0.00     0.049 A 
ATOM     26  C   UNL A   1      45.198  30.844  29.443  1.00  0.00     0.074 A 
ATOM     27  C   UNL A   1      45.352  24.803  27.572  1.00  0.00     0.029 A 
ATOM     28  N   UNL A   1      44.724  26.886  28.034  1.00  0.00    -0.354 N 
ATOM     29  N   UNL A   1      45.131  29.626  28.965  1.00  0.00    -0.248 NA
ATOM     30  C   UNL A   1      46.572  31.332  29.654  1.00  0.00     0.031 C 
ATOM     31  C   UNL A   1      46.494  25.554  27.871  1.00  0.00     0.029 A 
ATOM     32  C   UNL A   1      46.104  26.855  28.140  1.00  0.00     0.049 A 
ATOM     33  H   UNL A   1      44.164  27.684  28.174  1.00  0.00     0.167 HD
ATOM     34  C   UNL A   1      46.450  29.207  28.822  1.00  0.00     0.074 A 
ATOM     35  C   UNL A   1      47.292  30.324  29.185  1.00  0.00     0.031 C 
ATOM     36  C   UNL A   1      46.926  27.989  28.470  1.00  0.00     0.037 A 
BRANCH  23  37
ATOM     37  C   UNL A   1      42.474  23.879  27.253  1.00  0.00     0.058 A 
ATOM     38  C   UNL A   1      42.278  22.917  28.254  1.00  0.00     0.135 A 
ATOM     39  C   UNL A   1      42.413  23.469  25.913  1.00  0.00     0.135 A 
ATOM     40  F   UNL A   1      42.363  23.261  29.550  1.00  0.00    -0.206 F 
ATOM     41  C   UNL A   1      42.085  21.578  27.935  1.00  0.00     0.059 A 
ATOM     42  C   UNL A   1      42.203  22.139  25.571  1.00  0.00     0.059 A 
ATOM     43  F   UNL A   1      42.612  24.355  24.924  1.00  0.00    -0.206 F 
ATOM     44  C   UNL A   1      42.070  21.198  26.590  1.00  0.00     0.060 A 
BRANCH  44  45
ATOM     45  S   UNL A   1      41.917  19.447  26.185  1.00  0.00     0.124 S 
ATOM     46  O   UNL A   1      42.842  19.330  25.062  1.00  0.00    -0.237 OA
ATOM     47  O   UNL A   1      42.338  18.798  27.423  1.00  0.00    -0.237 OA
ATOM     48  O   UNL A   1      40.503  19.299  25.853  1.00  0.00    -0.744 OA
ENDBRANCH  44  45
ENDBRANCH  23  37
BRANCH  24  49
ATOM     49  C   UNL A   1      44.419  33.236  30.052  1.00  0.00     0.058 A 
ATOM     50  C   UNL A   1      44.648  33.682  31.370  1.00  0.00     0.135 A 
ATOM     51  C   UNL A   1      44.455  34.210  29.045  1.00  0.00     0.135 A 
ATOM     52  F   UNL A   1      44.636  32.805  32.386  1.00  0.00    -0.206 F 
ATOM     53  C   UNL A   1      44.893  35.018  31.675  1.00  0.00     0.059 A 
ATOM     54  C   UNL A   1      44.754  35.548  29.318  1.00  0.00     0.059 A 
ATOM     55  F   UNL A   1      44.206  33.874  27.770  1.00  0.00    -0.206 F 
ATOM     56  C   UNL A   1      44.970  35.942  30.637  1.00  0.00     0.060 A 
BRANCH  56  57
ATOM     57  S   UNL A   1      45.456  37.636  31.032  1.00  0.00     0.124 S 
ATOM     58  O   UNL A   1      44.656  37.905  32.220  1.00  0.00    -0.237 OA
ATOM     59  O   UNL A   1      46.894  37.494  31.246  1.00  0.00    -0.237 OA
ATOM     60  O   UNL A   1      45.080  38.378  29.833  1.00  0.00    -0.744 OA
ENDBRANCH  56  57
ENDBRANCH  24  49
BRANCH  36  61
ATOM     61  C   UNL A   1      48.417  27.801  28.469  1.00  0.00     0.058 A 
ATOM     62  C   UNL A   1      49.108  27.447  29.639  1.00  0.00     0.135 A 
ATOM     63  C   UNL A   1      49.153  27.919  27.281  1.00  0.00     0.135 A 
ATOM     64  F   UNL A   1      48.451  27.330  30.805  1.00  0.00    -0.206 F 
ATOM     65  C   UNL A   1      50.483  27.236  29.637  1.00  0.00     0.059 A 
ATOM     66  C   UNL A   1      50.525  27.685  27.250  1.00  0.00     0.059 A 
ATOM     67  F   UNL A   1      48.539  28.247  26.133  1.00  0.00    -0.206 F 
ATOM     68  C   UNL A   1      51.182  27.354  28.435  1.00  0.00     0.060 A 
BRANCH  68  69
ATOM     69  S   UNL A   1      52.956  27.020  28.431  1.00  0.00     0.124 S 
ATOM     70  O   UNL A   1      53.107  26.252  27.200  1.00  0.00    -0.237 OA
ATOM     71  O   UNL A   1      53.528  28.362  28.416  1.00  0.00    -0.237 OA
ATOM     72  O   UNL A   1      53.162  26.273  29.668  1.00  0.00    -0.744 OA
ENDBRANCH  68  69
ENDBRANCH  36  61
ENDBRANCH  10  11
ENDBRANCH   3   5
ENDBRANCH   2   3
ENDBRANCH   1   2
BRANCH   1  73
ATOM     73  C   UNL A   1      32.358  29.494  25.343  1.00  0.00     0.274 C 
BRANCH  73  74
ATOM     74  O   UNL A   1      31.386  28.602  24.805  1.00  0.00    -0.462 OA
BRANCH  74  75
ATOM     75  C   UNL A   1      31.771  27.359  24.439  1.00  0.00     0.310 C 
ATOM     76  O   UNL A   1      31.042  26.378  24.405  1.00  0.00    -0.252 OA
BRANCH  75  77
ATOM     77  C   UNL A   1      33.220  27.358  23.993  1.00  0.00     0.119 C 
ATOM     78  C   UNL A   1      33.373  26.987  22.521  1.00  0.00     0.019 C 
ATOM     79  C   UNL A   1      34.105  26.438  24.824  1.00  0.00     0.136 C 
ATOM     80  C   UNL A   1      33.111  25.501  22.301  1.00  0.00     0.023 C 
ATOM     81  N   UNL A   1      33.880  25.016  24.624  1.00  0.00    -0.324 N 
ATOM     82  C   UNL A   1      33.936  24.602  23.222  1.00  0.00     0.121 C 
BRANCH  81  83
ATOM     83  C   UNL A   1      33.659  24.239  25.745  1.00  0.00     0.321 C 
ATOM     84  O   UNL A   1      32.643  24.360  26.440  1.00  0.00    -0.248 OA
ATOM     85  N   UNL A   1      34.466  23.207  26.088  1.00  0.00    -0.308 N 
ATOM     86  H   UNL A   1      34.025  22.535  26.656  1.00  0.00     0.171 HD
BRANCH  85  87
ATOM     87  C   UNL A   1      35.794  22.906  25.797  1.00  0.00     0.042 A 
ATOM     88  C   UNL A   1      36.764  23.818  26.219  1.00  0.00     0.026 A 
ATOM     89  C   UNL A   1      36.174  21.721  25.176  1.00  0.00     0.026 A 
ATOM     90  C   UNL A   1      38.114  23.474  26.157  1.00  0.00     0.002 A 
ATOM     91  C   UNL A   1      37.519  21.366  25.161  1.00  0.00     0.002 A 
ATOM     92  C   UNL A   1      38.489  22.234  25.652  1.00  0.00     0.000 A 
ENDBRANCH  85  87
ENDBRANCH  81  83
ENDBRANCH  75  77
ENDBRANCH  74  75
ENDBRANCH  73  74
ENDBRANCH   1  73
TORSDOF 16
ENDMDL
MODEL 3
REMARK VINA RESULT:     -11.0      5.843     10.378
REMARK SMILES O=C(OCCOC(=O)[C@@H]1CCCN(C(=O)Nc2ccccc2)C1)c1ccc(-c2c3nc(c(-c4c(F)cc(S(=O)(=O)[O-])cc4F)c4ccc([nH]4)c(-c4c(F)cc(S(=O)(=O)[O-])cc4F)c4nc(c(-c5c(F)cc(S(=O)(=O)[O-])cc5F)c5ccc2[nH]5)C=C4)C=C3)cc1
REMARK SMILES IDX 4 1 3 2 2 3 1 4 24 5 25 6 89 7 26 8 88 9 27 10 28 11 29 12
REMARK SMILES IDX 82 13 30 14 87 15 81 16 83 17 31 18 86 19 80 20 79 21 32 23
REMARK SMILES IDX 66 24 45 25 65 26 46 27 49 28 64 29 84 30 47 31 48 32 63 34
REMARK SMILES IDX 85 35 50 36 33 37 34 38 43 39 35 40 36 41 42 42 44 43 37 44
REMARK SMILES IDX 38 45 39 46 40 47 41 48 67 49 68 50 77 51 69 52 70 53 76 54
REMARK SMILES IDX 78 55 71 56 72 57 73 58 74 59 75 60 51 61 52 62 61 63 53 64
REMARK SMILES IDX 54 65 60 66 62 67 55 68 56 69 57 70 58 71 59 72 5 73 6 74
REMARK SMILES IDX 7 75 8 76 9 77 10 78 23 79 11 80 13 81 12 82 14 83 15 84
REMARK SMILES IDX 16 85 17 87 18 88 22 89 19 90 21 91 20 92
REMARK H PARENT 83 22 49 33 16 86
REMARK Flexibility Score: inf
ROOT
ATOM      1  C   UNL A   1      40.482  22.279  27.277  1.00  0.00     0.275 C 
ENDROOT
BRANCH   1   2
ATOM      2  O   UNL A   1      41.378  23.333  26.836  1.00  0.00    -0.458 OA
BRANCH   2   3
ATOM      3  C   UNL A   1      41.210  24.669  26.669  1.00  0.00     0.338 C 
ATOM      4  O   UNL A   1      41.384  25.144  25.546  1.00  0.00    -0.246 OA
BRANCH   3   5
ATOM      5  C   UNL A   1      40.888  25.632  27.767  1.00  0.00     0.060 A 
ATOM      6  C   UNL A   1      39.687  25.661  28.464  1.00  0.00     0.016 A 
ATOM      7  C   UNL A   1      41.841  26.630  28.074  1.00  0.00     0.016 A 
ATOM      8  C   UNL A   1      39.515  26.543  29.546  1.00  0.00     0.010 A 
ATOM      9  C   UNL A   1      41.643  27.559  29.122  1.00  0.00     0.010 A 
ATOM     10  C   UNL A   1      40.492  27.493  29.912  1.00  0.00    -0.014 A 
BRANCH  10  11
ATOM     11  C   UNL A   1      40.187  28.411  31.063  1.00  0.00     0.031 A 
ATOM     12  C   UNL A   1      41.188  28.477  32.181  1.00  0.00     0.074 A 
ATOM     13  C   UNL A   1      39.139  29.265  31.093  1.00  0.00     0.049 A 
ATOM     14  N   UNL A   1      41.365  29.396  33.091  1.00  0.00    -0.248 NA
ATOM     15  C   UNL A   1      42.110  27.333  32.278  1.00  0.00     0.031 C 
ATOM     16  C   UNL A   1      38.019  29.262  30.169  1.00  0.00     0.029 A 
ATOM     17  N   UNL A   1      38.874  30.357  31.899  1.00  0.00    -0.354 N 
ATOM     18  C   UNL A   1      42.416  28.941  33.875  1.00  0.00     0.074 A 
ATOM     19  C   UNL A   1      42.868  27.690  33.302  1.00  0.00     0.031 C 
ATOM     20  C   UNL A   1      37.304  30.392  30.313  1.00  0.00     0.029 A 
ATOM     21  C   UNL A   1      37.851  31.163  31.423  1.00  0.00     0.049 A 
ATOM     22  H   UNL A   1      39.365  30.545  32.731  1.00  0.00     0.167 HD
ATOM     23  C   UNL A   1      42.920  29.475  35.013  1.00  0.00     0.037 A 
ATOM     24  C   UNL A   1      37.423  32.381  31.831  1.00  0.00     0.037 A 
ATOM     25  C   UNL A   1      42.397  30.640  35.667  1.00  0.00     0.049 A 
ATOM     26  C   UNL A   1      38.037  32.971  33.081  1.00  0.00     0.074 A 
ATOM     27  C   UNL A   1      42.752  31.171  36.894  1.00  0.00     0.029 A 
ATOM     28  N   UNL A   1      41.377  31.432  35.165  1.00  0.00    -0.354 N 
ATOM     29  N   UNL A   1      39.088  32.579  33.757  1.00  0.00    -0.248 NA
ATOM     30  C   UNL A   1      37.368  34.157  33.646  1.00  0.00     0.031 C 
ATOM     31  C   UNL A   1      41.912  32.259  37.157  1.00  0.00     0.029 A 
ATOM     32  C   UNL A   1      41.068  32.432  36.072  1.00  0.00     0.049 A 
ATOM     33  H   UNL A   1      40.936  31.303  34.294  1.00  0.00     0.167 HD
ATOM     34  C   UNL A   1      39.202  33.466  34.822  1.00  0.00     0.074 A 
ATOM     35  C   UNL A   1      38.166  34.461  34.658  1.00  0.00     0.031 C 
ATOM     36  C   UNL A   1      40.055  33.434  35.873  1.00  0.00     0.037 A 
BRANCH  23  37
ATOM     37  C   UNL A   1      43.999  28.680  35.679  1.00  0.00     0.058 A 
ATOM     38  C   UNL A   1      43.708  27.671  36.609  1.00  0.00     0.135 A 
ATOM     39  C   UNL A   1      45.343  29.019  35.463  1.00  0.00     0.135 A 
ATOM     40  F   UNL A   1      42.433  27.339  36.872  1.00  0.00    -0.206 F 
ATOM     41  C   UNL A   1      44.717  27.057  37.342  1.00  0.00     0.059 A 
ATOM     42  C   UNL A   1      46.368  28.406  36.172  1.00  0.00     0.059 A 
ATOM     43  F   UNL A   1      45.664  29.991  34.595  1.00  0.00    -0.206 F 
ATOM     44  C   UNL A   1      46.041  27.447  37.129  1.00  0.00     0.060 A 
BRANCH  44  45
ATOM     45  S   UNL A   1      47.336  26.718  38.151  1.00  0.00     0.124 S 
ATOM     46  O   UNL A   1      47.857  27.896  38.839  1.00  0.00    -0.237 OA
ATOM     47  O   UNL A   1      46.591  25.777  38.982  1.00  0.00    -0.237 OA
ATOM     48  O   UNL A   1      48.236  26.111  37.175  1.00  0.00    -0.744 OA
ENDBRANCH  44  45
ENDBRANCH  23  37
BRANCH  24  49
ATOM     49  C   UNL A   1      36.402  33.191  31.086  1.00  0.00     0.058 A 
ATOM     50  C   UNL A   1      35.063  33.193  31.525  1.00  0.00     0.135 A 
ATOM     51  C   UNL A   1      36.679  33.906  29.912  1.00  0.00     0.135 A 
ATOM     52  F   UNL A   1      34.724  32.535  32.645  1.00  0.00    -0.206 F 
ATOM     53  C   UNL A   1      34.051  33.861  30.840  1.00  0.00     0.059 A 
ATOM     54  C   UNL A   1      35.692  34.631  29.237  1.00  0.00     0.059 A 
ATOM     55  F   UNL A   1      37.921  33.920  29.405  1.00  0.00    -0.206 F 
ATOM     56  C   UNL A   1      34.381  34.600  29.708  1.00  0.00     0.060 A 
BRANCH  56  57
ATOM     57  S   UNL A   1      33.092  35.596  28.929  1.00  0.00     0.124 S 
ATOM     58  O   UNL A   1      32.375  36.113  30.089  1.00  0.00    -0.237 OA
ATOM     59  O   UNL A   1      33.877  36.570  28.175  1.00  0.00    -0.237 OA
ATOM     60  O   UNL A   1      32.366  34.626  28.116  1.00  0.00    -0.744 OA
ENDBRANCH  56  57
ENDBRANCH  24  49
BRANCH  36  61
ATOM     61  C   UNL A   1      39.899  34.495  36.925  1.00  0.00     0.058 A 
ATOM     62  C   UNL A   1      39.065  34.301  38.039  1.00  0.00     0.135 A 
ATOM     63  C   UNL A   1      40.630  35.690  36.852  1.00  0.00     0.135 A 
ATOM     64  F   UNL A   1      38.338  33.177  38.153  1.00  0.00    -0.206 F 
ATOM     65  C   UNL A   1      38.945  35.264  39.034  1.00  0.00     0.059 A 
ATOM     66  C   UNL A   1      40.546  36.656  37.850  1.00  0.00     0.059 A 
ATOM     67  F   UNL A   1      41.446  35.921  35.812  1.00  0.00    -0.206 F 
ATOM     68  C   UNL A   1      39.693  36.438  38.933  1.00  0.00     0.060 A 
BRANCH  68  69
ATOM     69  S   UNL A   1      39.575  37.656  40.260  1.00  0.00     0.124 S 
ATOM     70  O   UNL A   1      40.706  38.528  39.959  1.00  0.00    -0.237 OA
ATOM     71  O   UNL A   1      38.253  38.233  40.040  1.00  0.00    -0.237 OA
ATOM     72  O   UNL A   1      39.706  36.850  41.470  1.00  0.00    -0.744 OA
ENDBRANCH  68  69
ENDBRANCH  36  61
ENDBRANCH  10  11
ENDBRANCH   3   5
ENDBRANCH   2   3
ENDBRANCH   1   2
BRANCH   1  73
ATOM     73  C   UNL A   1      39.698  21.660  26.128  1.00  0.00     0.274 C 
BRANCH  73  74
ATOM     74  O   UNL A   1      38.314  21.882  26.385  1.00  0.00    -0.462 OA
BRANCH  74  75
ATOM     75  C   UNL A   1      37.653  22.804  25.651  1.00  0.00     0.310 C 
ATOM     76  O   UNL A   1      37.511  23.979  25.958  1.00  0.00    -0.252 OA
BRANCH  75  77
ATOM     77  C   UNL A   1      37.177  22.205  24.342  1.00  0.00     0.119 C 
ATOM     78  C   UNL A   1      36.629  23.260  23.386  1.00  0.00     0.019 C 
ATOM     79  C   UNL A   1      36.126  21.117  24.526  1.00  0.00     0.136 C 
ATOM     80  C   UNL A   1      35.273  23.774  23.857  1.00  0.00     0.023 C 
ATOM     81  N   UNL A   1      34.822  21.584  24.965  1.00  0.00    -0.324 N 
ATOM     82  C   UNL A   1      34.269  22.655  24.135  1.00  0.00     0.121 C 
BRANCH  81  83
ATOM     83  C   UNL A   1      34.264  20.976  26.073  1.00  0.00     0.321 C 
ATOM     84  O   UNL A   1      34.396  21.437  27.213  1.00  0.00    -0.248 OA
ATOM     85  N   UNL A   1      33.429  19.914  25.979  1.00  0.00    -0.308 N 
ATOM     86  H   UNL A   1      32.836  19.810  26.757  1.00  0.00     0.171 HD
BRANCH  85  87
ATOM     87  C   UNL A   1      33.243  18.939  25.003  1.00  0.00     0.042 A 
ATOM     88  C   UNL A   1      32.381  19.247  23.948  1.00  0.00     0.026 A 
ATOM     89  C   UNL A   1      33.925  17.728  25.014  1.00  0.00     0.026 A 
ATOM     90  C   UNL A   1      32.321  18.412  22.833  1.00  0.00     0.002 A 
ATOM     91  C   UNL A   1      33.897  16.924  23.879  1.00  0.00     0.002 A 
ATOM     92  C   UNL A   1      33.103  17.262  22.788  1.00  0.00     0.000 A 
ENDBRANCH  85  87
ENDBRANCH  81  83
ENDBRANCH  75  77
ENDBRANCH  74  75
ENDBRANCH  73  74
ENDBRANCH   1  73
TORSDOF 16
ENDMDL
