MODEL 1
REMARK VINA RESULT:     -11.4      0.000      0.000
REMARK SMILES CC[C@H]1CO[C@@H](C)CN1c1cccc(F)c1C(=O)OCCOC(=O)c1ccc(-c2c3nc(c(-c4c(F)cc(S(=O)(=O)[O-])cc4F)c4ccc([nH]4)c(-c4c(F)cc(S(=O)(=O)[O-])cc4F)c4nc(c(-c5c(F)cc(S(=O)(=O)[O-])cc5F)c5ccc2[nH]5)C=C4)C=C3)cc1
REMARK SMILES IDX 21 1 20 2 19 3 17 4 18 5 16 6 10 7 11 8 12 9 14 10 13 11
REMARK SMILES IDX 15 12 9 13 3 14 4 15 5 16 8 17 6 18 7 19 2 20 1 21 22 22
REMARK SMILES IDX 23 23 24 24 25 25 26 26 90 27 27 28 89 29 28 30 29 31 30 32
REMARK SMILES IDX 83 33 31 34 88 35 82 36 84 37 32 38 87 39 81 40 80 41 33 43
REMARK SMILES IDX 67 44 46 45 66 46 47 47 50 48 65 49 85 50 48 51 49 52 64 54
REMARK SMILES IDX 86 55 51 56 34 57 35 58 44 59 36 60 37 61 43 62 45 63 38 64
REMARK SMILES IDX 39 65 40 66 41 67 42 68 68 69 69 70 78 71 70 72 71 73 77 74
REMARK SMILES IDX 79 75 72 76 73 77 74 78 75 79 76 80 52 81 53 82 62 83 54 84
REMARK SMILES IDX 55 85 61 86 63 87 56 88 57 89 58 90 59 91 60 92
REMARK H PARENT 84 42 50 53
REMARK Flexibility Score: inf
ROOT
ATOM      1  C   UNL A   1      33.566  29.484  26.968  1.00  0.00     0.275 C 
ENDROOT
BRANCH   1   2
ATOM      2  C   UNL A   1      34.109  28.635  25.821  1.00  0.00     0.275 C 
BRANCH   2   3
ATOM      3  O   UNL A   1      33.885  27.241  26.139  1.00  0.00    -0.458 OA
BRANCH   3   4
ATOM      4  C   UNL A   1      33.443  26.424  25.146  1.00  0.00     0.343 C 
ATOM      5  O   UNL A   1      33.778  26.463  23.974  1.00  0.00    -0.246 OA
BRANCH   4   6
ATOM      6  C   UNL A   1      32.391  25.536  25.676  1.00  0.00     0.119 A 
ATOM      7  C   UNL A   1      32.453  24.125  25.885  1.00  0.00     0.055 A 
ATOM      8  C   UNL A   1      31.223  23.494  26.174  1.00  0.00     0.027 A 
ATOM      9  C   UNL A   1      30.007  24.191  26.232  1.00  0.00     0.005 A 
ATOM     10  C   UNL A   1      31.168  26.225  25.781  1.00  0.00     0.139 A 
ATOM     11  C   UNL A   1      29.982  25.565  26.046  1.00  0.00     0.040 A 
ATOM     12  F   UNL A   1      31.104  27.548  25.544  1.00  0.00    -0.206 F 
BRANCH   7  13
ATOM     13  N   UNL A   1      33.523  23.247  25.640  1.00  0.00    -0.363 N 
ATOM     14  C   UNL A   1      33.865  22.942  24.019  1.00  0.00     0.108 C 
ATOM     15  C   UNL A   1      35.526  23.383  23.379  1.00  0.00     0.185 C 
ATOM     16  O   UNL A   1      36.982  23.272  24.321  1.00  0.00    -0.375 OA
ATOM     17  C   UNL A   1      34.853  22.872  26.923  1.00  0.00     0.148 C 
ATOM     18  C   UNL A   1      36.948  23.099  26.181  1.00  0.00     0.134 C 
ATOM     19  C   UNL A   1      38.115  24.273  26.279  1.00  0.00     0.040 C 
BRANCH  14  20
ATOM     20  C   UNL A   1      32.739  23.193  22.995  1.00  0.00     0.024 C 
ATOM     21  C   UNL A   1      31.983  21.882  22.699  1.00  0.00     0.006 C 
ENDBRANCH  14  20
ENDBRANCH   7  13
ENDBRANCH   4   6
ENDBRANCH   3   4
ENDBRANCH   2   3
ENDBRANCH   1   2
BRANCH   1  22
ATOM     22  O   UNL A   1      34.338  29.135  28.122  1.00  0.00    -0.458 OA
BRANCH  22  23
ATOM     23  C   UNL A   1      35.162  30.116  28.521  1.00  0.00     0.338 C 
ATOM     24  O   UNL A   1      34.890  31.257  28.851  1.00  0.00    -0.246 OA
BRANCH  23  25
ATOM     25  C   UNL A   1      36.526  29.614  28.520  1.00  0.00     0.060 A 
ATOM     26  C   UNL A   1      37.443  29.110  29.949  1.00  0.00     0.016 A 
ATOM     27  C   UNL A   1      37.382  29.741  27.036  1.00  0.00     0.016 A 
ATOM     28  C   UNL A   1      39.381  28.850  29.699  1.00  0.00     0.010 A 
ATOM     29  C   UNL A   1      39.057  29.446  26.860  1.00  0.00     0.010 A 
ATOM     30  C   UNL A   1      40.112  29.013  28.121  1.00  0.00    -0.014 A 
BRANCH  30  31
ATOM     31  C   UNL A   1      41.557  28.662  27.917  1.00  0.00     0.031 A 
ATOM     32  C   UNL A   1      42.656  29.668  28.153  1.00  0.00     0.074 A 
ATOM     33  C   UNL A   1      41.906  27.405  27.555  1.00  0.00     0.049 A 
ATOM     34  N   UNL A   1      43.943  29.531  27.950  1.00  0.00    -0.248 NA
ATOM     35  C   UNL A   1      42.276  31.002  28.641  1.00  0.00     0.031 C 
ATOM     36  C   UNL A   1      40.974  26.344  27.191  1.00  0.00     0.029 A 
ATOM     37  N   UNL A   1      43.128  26.774  27.471  1.00  0.00    -0.354 N 
ATOM     38  C   UNL A   1      44.514  30.770  28.223  1.00  0.00     0.074 A 
ATOM     39  C   UNL A   1      43.433  31.650  28.608  1.00  0.00     0.031 C 
ATOM     40  C   UNL A   1      41.609  25.171  27.126  1.00  0.00     0.029 A 
ATOM     41  C   UNL A   1      43.036  25.418  27.224  1.00  0.00     0.049 A 
ATOM     42  H   UNL A   1      43.986  27.245  27.578  1.00  0.00     0.167 HD
ATOM     43  C   UNL A   1      45.816  31.133  28.157  1.00  0.00     0.037 A 
ATOM     44  C   UNL A   1      43.974  24.471  27.021  1.00  0.00     0.037 A 
ATOM     45  C   UNL A   1      46.895  30.228  27.842  1.00  0.00     0.049 A 
ATOM     46  C   UNL A   1      45.409  24.895  26.977  1.00  0.00     0.074 A 
ATOM     47  C   UNL A   1      48.251  30.505  27.777  1.00  0.00     0.029 A 
ATOM     48  N   UNL A   1      46.752  28.878  27.562  1.00  0.00    -0.354 N 
ATOM     49  N   UNL A   1      45.911  26.087  27.187  1.00  0.00    -0.248 NA
ATOM     50  C   UNL A   1      46.398  23.873  26.612  1.00  0.00     0.031 C 
ATOM     51  C   UNL A   1      48.922  29.333  27.416  1.00  0.00     0.029 A 
ATOM     52  C   UNL A   1      47.991  28.313  27.309  1.00  0.00     0.049 A 
ATOM     53  H   UNL A   1      45.895  28.392  27.545  1.00  0.00     0.167 HD
ATOM     54  C   UNL A   1      47.273  25.965  26.957  1.00  0.00     0.074 A 
ATOM     55  C   UNL A   1      47.523  24.575  26.632  1.00  0.00     0.031 C 
ATOM     56  C   UNL A   1      48.225  26.927  26.990  1.00  0.00     0.037 A 
BRANCH  43  57
ATOM     57  C   UNL A   1      46.175  32.573  28.407  1.00  0.00     0.058 A 
ATOM     58  C   UNL A   1      46.429  33.015  29.717  1.00  0.00     0.135 A 
ATOM     59  C   UNL A   1      46.162  33.534  27.385  1.00  0.00     0.135 A 
ATOM     60  F   UNL A   1      46.462  32.137  30.731  1.00  0.00    -0.206 F 
ATOM     61  C   UNL A   1      46.624  34.360  30.008  1.00  0.00     0.059 A 
ATOM     62  C   UNL A   1      46.378  34.884  27.651  1.00  0.00     0.059 A 
ATOM     63  F   UNL A   1      45.948  33.162  26.113  1.00  0.00    -0.206 F 
ATOM     64  C   UNL A   1      46.588  35.289  28.969  1.00  0.00     0.060 A 
BRANCH  64  65
ATOM     65  S   UNL A   1      46.837  37.034  29.368  1.00  0.00     0.124 S 
ATOM     66  O   UNL A   1      45.499  37.442  29.779  1.00  0.00    -0.237 OA
ATOM     67  O   UNL A   1      47.837  36.964  30.430  1.00  0.00    -0.237 OA
ATOM     68  O   UNL A   1      47.310  37.604  28.109  1.00  0.00    -0.744 OA
ENDBRANCH  64  65
ENDBRANCH  43  57
BRANCH  44  69
ATOM     69  C   UNL A   1      43.570  23.060  26.744  1.00  0.00     0.058 A 
ATOM     70  C   UNL A   1      43.086  22.231  27.771  1.00  0.00     0.135 A 
ATOM     71  C   UNL A   1      43.699  22.496  25.466  1.00  0.00     0.135 A 
ATOM     72  F   UNL A   1      42.935  22.715  29.014  1.00  0.00    -0.206 F 
ATOM     73  C   UNL A   1      42.809  20.886  27.559  1.00  0.00     0.059 A 
ATOM     74  C   UNL A   1      43.383  21.161  25.218  1.00  0.00     0.059 A 
ATOM     75  F   UNL A   1      44.128  23.248  24.442  1.00  0.00    -0.206 F 
ATOM     76  C   UNL A   1      42.965  20.357  26.279  1.00  0.00     0.060 A 
BRANCH  76  77
ATOM     77  S   UNL A   1      42.591  18.609  26.027  1.00  0.00     0.124 S 
ATOM     78  O   UNL A   1      41.168  18.659  25.704  1.00  0.00    -0.237 OA
ATOM     79  O   UNL A   1      43.480  18.260  24.924  1.00  0.00    -0.237 OA
ATOM     80  O   UNL A   1      42.924  18.005  27.312  1.00  0.00    -0.744 OA
ENDBRANCH  76  77
ENDBRANCH  44  69
BRANCH  56  81
ATOM     81  C   UNL A   1      49.633  26.512  26.685  1.00  0.00     0.058 A 
ATOM     82  C   UNL A   1      50.120  26.569  25.370  1.00  0.00     0.135 A 
ATOM     83  C   UNL A   1      50.474  25.990  27.680  1.00  0.00     0.135 A 
ATOM     84  F   UNL A   1      49.352  27.061  24.385  1.00  0.00    -0.206 F 
ATOM     85  C   UNL A   1      51.385  26.096  25.046  1.00  0.00     0.059 A 
ATOM     86  C   UNL A   1      51.754  25.535  27.382  1.00  0.00     0.059 A 
ATOM     87  F   UNL A   1      50.057  25.934  28.954  1.00  0.00    -0.206 F 
ATOM     88  C   UNL A   1      52.193  25.574  26.058  1.00  0.00     0.060 A 
BRANCH  88  89
ATOM     89  S   UNL A   1      53.831  24.961  25.615  1.00  0.00     0.124 S 
ATOM     90  O   UNL A   1      54.605  25.292  26.807  1.00  0.00    -0.237 OA
ATOM     91  O   UNL A   1      53.578  23.541  25.395  1.00  0.00    -0.237 OA
ATOM     92  O   UNL A   1      54.166  25.725  24.416  1.00  0.00    -0.744 OA
ENDBRANCH  88  89
ENDBRANCH  56  81
ENDBRANCH  30  31
ENDBRANCH  23  25
ENDBRANCH  22  23
ENDBRANCH   1  22
TORSDOF 16
ENDMDL
MODEL 2
REMARK VINA RESULT:     -11.3      6.924     12.175
REMARK SMILES CC[C@H]1CO[C@@H](C)CN1c1cccc(F)c1C(=O)OCCOC(=O)c1ccc(-c2c3nc(c(-c4c(F)cc(S(=O)(=O)[O-])cc4F)c4ccc([nH]4)c(-c4c(F)cc(S(=O)(=O)[O-])cc4F)c4nc(c(-c5c(F)cc(S(=O)(=O)[O-])cc5F)c5ccc2[nH]5)C=C4)C=C3)cc1
REMARK SMILES IDX 21 1 20 2 19 3 17 4 18 5 16 6 10 7 11 8 12 9 14 10 13 11
REMARK SMILES IDX 15 12 9 13 3 14 4 15 5 16 8 17 6 18 7 19 2 20 1 21 22 22
REMARK SMILES IDX 23 23 24 24 25 25 26 26 90 27 27 28 89 29 28 30 29 31 30 32
REMARK SMILES IDX 83 33 31 34 88 35 82 36 84 37 32 38 87 39 81 40 80 41 33 43
REMARK SMILES IDX 67 44 46 45 66 46 47 47 50 48 65 49 85 50 48 51 49 52 64 54
REMARK SMILES IDX 86 55 51 56 34 57 35 58 44 59 36 60 37 61 43 62 45 63 38 64
REMARK SMILES IDX 39 65 40 66 41 67 42 68 68 69 69 70 78 71 70 72 71 73 77 74
REMARK SMILES IDX 79 75 72 76 73 77 74 78 75 79 76 80 52 81 53 82 62 83 54 84
REMARK SMILES IDX 55 85 61 86 63 87 56 88 57 89 58 90 59 91 60 92
REMARK H PARENT 84 42 50 53
REMARK Flexibility Score: inf
ROOT
ATOM      1  C   UNL A   1      37.876  22.432  25.260  1.00  0.00     0.275 C 
ENDROOT
BRANCH   1   2
ATOM      2  C   UNL A   1      37.006  22.674  24.029  1.00  0.00     0.275 C 
BRANCH   2   3
ATOM      3  O   UNL A   1      35.647  22.907  24.469  1.00  0.00    -0.458 OA
BRANCH   3   4
ATOM      4  C   UNL A   1      34.694  23.102  23.519  1.00  0.00     0.343 C 
ATOM      5  O   UNL A   1      34.888  23.306  22.331  1.00  0.00    -0.246 OA
BRANCH   4   6
ATOM      6  C   UNL A   1      33.366  23.145  24.160  1.00  0.00     0.119 A 
ATOM      7  C   UNL A   1      32.625  24.293  24.573  1.00  0.00     0.055 A 
ATOM      8  C   UNL A   1      31.494  24.035  25.378  1.00  0.00     0.027 A 
ATOM      9  C   UNL A   1      31.123  22.741  25.772  1.00  0.00     0.005 A 
ATOM     10  C   UNL A   1      32.954  21.851  24.530  1.00  0.00     0.139 A 
ATOM     11  C   UNL A   1      31.850  21.644  25.337  1.00  0.00     0.040 A 
ATOM     12  F   UNL A   1      33.675  20.773  24.174  1.00  0.00    -0.206 F 
BRANCH   7  13
ATOM     13  N   UNL A   1      32.978  25.650  24.469  1.00  0.00    -0.363 N 
ATOM     14  C   UNL A   1      32.240  26.506  23.219  1.00  0.00     0.108 C 
ATOM     15  C   UNL A   1      31.195  27.951  23.648  1.00  0.00     0.185 C 
ATOM     16  O   UNL A   1      31.525  29.018  24.980  1.00  0.00    -0.375 OA
ATOM     17  C   UNL A   1      33.736  26.623  25.896  1.00  0.00     0.148 C 
ATOM     18  C   UNL A   1      32.719  28.561  26.342  1.00  0.00     0.134 C 
ATOM     19  C   UNL A   1      31.601  29.079  27.451  1.00  0.00     0.040 C 
BRANCH  14  20
ATOM     20  C   UNL A   1      31.686  25.694  22.031  1.00  0.00     0.024 C 
ATOM     21  C   UNL A   1      32.686  25.714  20.856  1.00  0.00     0.006 C 
ENDBRANCH  14  20
ENDBRANCH   7  13
ENDBRANCH   4   6
ENDBRANCH   3   4
ENDBRANCH   2   3
ENDBRANCH   1   2
BRANCH   1  22
ATOM     22  O   UNL A   1      38.204  23.727  25.776  1.00  0.00    -0.458 OA
BRANCH  22  23
ATOM     23  C   UNL A   1      39.428  23.780  26.326  1.00  0.00     0.338 C 
ATOM     24  O   UNL A   1      40.363  23.012  26.186  1.00  0.00    -0.246 OA
BRANCH  23  25
ATOM     25  C   UNL A   1      39.515  24.963  27.166  1.00  0.00     0.060 A 
ATOM     26  C   UNL A   1      40.566  26.359  26.878  1.00  0.00     0.016 A 
ATOM     27  C   UNL A   1      38.698  24.884  28.675  1.00  0.00     0.016 A 
ATOM     28  C   UNL A   1      40.765  27.627  28.376  1.00  0.00     0.010 A 
ATOM     29  C   UNL A   1      38.861  26.045  29.921  1.00  0.00     0.010 A 
ATOM     30  C   UNL A   1      39.863  27.416  29.856  1.00  0.00    -0.014 A 
BRANCH  30  31
ATOM     31  C   UNL A   1      39.907  28.469  30.925  1.00  0.00     0.031 A 
ATOM     32  C   UNL A   1      40.969  28.466  31.996  1.00  0.00     0.074 A 
ATOM     33  C   UNL A   1      39.007  29.481  30.919  1.00  0.00     0.049 A 
ATOM     34  N   UNL A   1      41.092  29.267  33.024  1.00  0.00    -0.248 NA
ATOM     35  C   UNL A   1      42.001  27.421  31.938  1.00  0.00     0.031 C 
ATOM     36  C   UNL A   1      37.860  29.582  30.023  1.00  0.00     0.029 A 
ATOM     37  N   UNL A   1      38.921  30.645  31.651  1.00  0.00    -0.354 N 
ATOM     38  C   UNL A   1      42.168  28.790  33.764  1.00  0.00     0.074 A 
ATOM     39  C   UNL A   1      42.668  27.625  33.067  1.00  0.00     0.031 C 
ATOM     40  C   UNL A   1      37.317  30.800  30.101  1.00  0.00     0.029 A 
ATOM     41  C   UNL A   1      37.930  31.503  31.214  1.00  0.00     0.049 A 
ATOM     42  H   UNL A   1      39.511  30.846  32.412  1.00  0.00     0.167 HD
ATOM     43  C   UNL A   1      42.687  29.280  34.915  1.00  0.00     0.037 A 
ATOM     44  C   UNL A   1      37.493  32.690  31.679  1.00  0.00     0.037 A 
ATOM     45  C   UNL A   1      42.227  30.484  35.563  1.00  0.00     0.049 A 
ATOM     46  C   UNL A   1      38.100  33.222  32.941  1.00  0.00     0.074 A 
ATOM     47  C   UNL A   1      42.711  31.069  36.722  1.00  0.00     0.029 A 
ATOM     48  N   UNL A   1      41.199  31.296  35.108  1.00  0.00    -0.354 N 
ATOM     49  N   UNL A   1      39.083  32.717  33.645  1.00  0.00    -0.248 NA
ATOM     50  C   UNL A   1      37.510  34.442  33.505  1.00  0.00     0.031 C 
ATOM     51  C   UNL A   1      41.950  32.210  36.989  1.00  0.00     0.029 A 
ATOM     52  C   UNL A   1      41.026  32.367  35.969  1.00  0.00     0.049 A 
ATOM     53  H   UNL A   1      40.671  31.135  34.293  1.00  0.00     0.167 HD
ATOM     54  C   UNL A   1      39.214  33.544  34.751  1.00  0.00     0.074 A 
ATOM     55  C   UNL A   1      38.239  34.605  34.601  1.00  0.00     0.031 C 
ATOM     56  C   UNL A   1      40.053  33.418  35.806  1.00  0.00     0.037 A 
BRANCH  43  57
ATOM     57  C   UNL A   1      43.802  28.521  35.582  1.00  0.00     0.058 A 
ATOM     58  C   UNL A   1      43.507  27.567  36.570  1.00  0.00     0.135 A 
ATOM     59  C   UNL A   1      45.153  28.807  35.332  1.00  0.00     0.135 A 
ATOM     60  F   UNL A   1      42.232  27.249  36.844  1.00  0.00    -0.206 F 
ATOM     61  C   UNL A   1      44.509  26.948  37.309  1.00  0.00     0.059 A 
ATOM     62  C   UNL A   1      46.174  28.181  36.043  1.00  0.00     0.059 A 
ATOM     63  F   UNL A   1      45.490  29.693  34.382  1.00  0.00    -0.206 F 
ATOM     64  C   UNL A   1      45.841  27.268  37.044  1.00  0.00     0.060 A 
BRANCH  64  65
ATOM     65  S   UNL A   1      47.128  26.458  38.019  1.00  0.00     0.124 S 
ATOM     66  O   UNL A   1      48.125  27.516  38.139  1.00  0.00    -0.237 OA
ATOM     67  O   UNL A   1      46.413  26.115  39.244  1.00  0.00    -0.237 OA
ATOM     68  O   UNL A   1      47.515  25.320  37.189  1.00  0.00    -0.744 OA
ENDBRANCH  64  65
ENDBRANCH  43  57
BRANCH  44  69
ATOM     69  C   UNL A   1      36.362  33.392  31.004  1.00  0.00     0.058 A 
ATOM     70  C   UNL A   1      36.558  34.085  29.796  1.00  0.00     0.135 A 
ATOM     71  C   UNL A   1      35.077  33.428  31.567  1.00  0.00     0.135 A 
ATOM     72  F   UNL A   1      37.762  34.083  29.205  1.00  0.00    -0.206 F 
ATOM     73  C   UNL A   1      35.547  34.835  29.208  1.00  0.00     0.059 A 
ATOM     74  C   UNL A   1      34.034  34.135  30.972  1.00  0.00     0.059 A 
ATOM     75  F   UNL A   1      34.826  32.761  32.704  1.00  0.00    -0.206 F 
ATOM     76  C   UNL A   1      34.288  34.859  29.805  1.00  0.00     0.060 A 
BRANCH  76  77
ATOM     77  S   UNL A   1      32.988  35.835  29.019  1.00  0.00     0.124 S 
ATOM     78  O   UNL A   1      33.767  36.876  28.356  1.00  0.00    -0.237 OA
ATOM     79  O   UNL A   1      32.358  34.856  28.139  1.00  0.00    -0.237 OA
ATOM     80  O   UNL A   1      32.173  36.278  30.145  1.00  0.00    -0.744 OA
ENDBRANCH  76  77
ENDBRANCH  44  69
BRANCH  56  81
ATOM     81  C   UNL A   1      39.972  34.463  36.878  1.00  0.00     0.058 A 
ATOM     82  C   UNL A   1      39.055  34.328  37.931  1.00  0.00     0.135 A 
ATOM     83  C   UNL A   1      40.749  35.631  36.822  1.00  0.00     0.135 A 
ATOM     84  F   UNL A   1      38.292  33.228  38.027  1.00  0.00    -0.206 F 
ATOM     85  C   UNL A   1      38.891  35.329  38.880  1.00  0.00     0.059 A 
ATOM     86  C   UNL A   1      40.618  36.635  37.776  1.00  0.00     0.059 A 
ATOM     87  F   UNL A   1      41.651  35.795  35.842  1.00  0.00    -0.206 F 
ATOM     88  C   UNL A   1      39.672  36.482  38.790  1.00  0.00     0.060 A 
BRANCH  88  89
ATOM     89  S   UNL A   1      39.440  37.773  40.029  1.00  0.00     0.124 S 
ATOM     90  O   UNL A   1      38.209  38.409  39.571  1.00  0.00    -0.237 OA
ATOM     91  O   UNL A   1      39.334  36.999  41.262  1.00  0.00    -0.237 OA
ATOM     92  O   UNL A   1      40.650  38.582  39.907  1.00  0.00    -0.744 OA
ENDBRANCH  88  89
ENDBRANCH  56  81
ENDBRANCH  30  31
ENDBRANCH  23  25
ENDBRANCH  22  23
ENDBRANCH   1  22
TORSDOF 16
ENDMDL
MODEL 3
REMARK VINA RESULT:     -11.3      1.086      8.406
REMARK SMILES CC[C@H]1CO[C@@H](C)CN1c1cccc(F)c1C(=O)OCCOC(=O)c1ccc(-c2c3nc(c(-c4c(F)cc(S(=O)(=O)[O-])cc4F)c4ccc([nH]4)c(-c4c(F)cc(S(=O)(=O)[O-])cc4F)c4nc(c(-c5c(F)cc(S(=O)(=O)[O-])cc5F)c5ccc2[nH]5)C=C4)C=C3)cc1
REMARK SMILES IDX 21 1 20 2 19 3 17 4 18 5 16 6 10 7 11 8 12 9 14 10 13 11
REMARK SMILES IDX 15 12 9 13 3 14 4 15 5 16 8 17 6 18 7 19 2 20 1 21 22 22
REMARK SMILES IDX 23 23 24 24 25 25 26 26 90 27 27 28 89 29 28 30 29 31 30 32
REMARK SMILES IDX 83 33 31 34 88 35 82 36 84 37 32 38 87 39 81 40 80 41 33 43
REMARK SMILES IDX 67 44 46 45 66 46 47 47 50 48 65 49 85 50 48 51 49 52 64 54
REMARK SMILES IDX 86 55 51 56 34 57 35 58 44 59 36 60 37 61 43 62 45 63 38 64
REMARK SMILES IDX 39 65 40 66 41 67 42 68 68 69 69 70 78 71 70 72 71 73 77 74
REMARK SMILES IDX 79 75 72 76 73 77 74 78 75 79 76 80 52 81 53 82 62 83 54 84
REMARK SMILES IDX 55 85 61 86 63 87 56 88 57 89 58 90 59 91 60 92
REMARK H PARENT 84 42 50 53
REMARK Flexibility Score: inf
ROOT
ATOM      1  C   UNL A   1      34.050  30.032  27.405  1.00  0.00     0.275 C 
ENDROOT
BRANCH   1   2
ATOM      2  C   UNL A   1      33.706  28.731  26.685  1.00  0.00     0.275 C 
BRANCH   2   3
ATOM      3  O   UNL A   1      32.364  28.842  26.157  1.00  0.00    -0.458 OA
BRANCH   3   4
ATOM      4  C   UNL A   1      31.557  27.750  26.230  1.00  0.00     0.343 C 
ATOM      5  O   UNL A   1      31.077  27.272  27.245  1.00  0.00    -0.246 OA
BRANCH   4   6
ATOM      6  C   UNL A   1      31.433  27.143  24.891  1.00  0.00     0.119 A 
ATOM      7  C   UNL A   1      32.035  25.942  24.410  1.00  0.00     0.055 A 
ATOM      8  C   UNL A   1      31.942  25.725  23.018  1.00  0.00     0.027 A 
ATOM      9  C   UNL A   1      31.322  26.634  22.148  1.00  0.00     0.005 A 
ATOM     10  C   UNL A   1      30.777  28.022  24.009  1.00  0.00     0.139 A 
ATOM     11  C   UNL A   1      30.726  27.782  22.649  1.00  0.00     0.040 A 
ATOM     12  F   UNL A   1      30.244  29.173  24.458  1.00  0.00    -0.206 F 
BRANCH   7  13
ATOM     13  N   UNL A   1      32.885  25.052  25.090  1.00  0.00    -0.363 N 
ATOM     14  C   UNL A   1      32.236  23.536  25.434  1.00  0.00     0.108 C 
ATOM     15  C   UNL A   1      33.062  22.054  24.738  1.00  0.00     0.185 C 
ATOM     16  O   UNL A   1      34.780  21.923  24.516  1.00  0.00    -0.375 OA
ATOM     17  C   UNL A   1      34.760  25.253  25.126  1.00  0.00     0.148 C 
ATOM     18  C   UNL A   1      35.902  23.417  24.567  1.00  0.00     0.134 C 
ATOM     19  C   UNL A   1      36.648  22.863  23.194  1.00  0.00     0.040 C 
BRANCH  14  20
ATOM     20  C   UNL A   1      30.699  23.410  25.465  1.00  0.00     0.024 C 
ATOM     21  C   UNL A   1      30.222  23.013  26.877  1.00  0.00     0.006 C 
ENDBRANCH  14  20
ENDBRANCH   7  13
ENDBRANCH   4   6
ENDBRANCH   3   4
ENDBRANCH   2   3
ENDBRANCH   1   2
BRANCH   1  22
ATOM     22  O   UNL A   1      34.630  29.652  28.658  1.00  0.00    -0.458 OA
BRANCH  22  23
ATOM     23  C   UNL A   1      35.501  30.558  29.131  1.00  0.00     0.338 C 
ATOM     24  O   UNL A   1      35.281  31.671  29.575  1.00  0.00    -0.246 OA
BRANCH  23  25
ATOM     25  C   UNL A   1      36.843  30.005  29.053  1.00  0.00     0.060 A 
ATOM     26  C   UNL A   1      37.873  29.596  30.435  1.00  0.00     0.016 A 
ATOM     27  C   UNL A   1      37.560  29.966  27.493  1.00  0.00     0.016 A 
ATOM     28  C   UNL A   1      39.771  29.240  30.036  1.00  0.00     0.010 A 
ATOM     29  C   UNL A   1      39.202  29.593  27.195  1.00  0.00     0.010 A 
ATOM     30  C   UNL A   1      40.356  29.233  28.390  1.00  0.00    -0.014 A 
BRANCH  30  31
ATOM     31  C   UNL A   1      41.764  28.810  28.090  1.00  0.00     0.031 A 
ATOM     32  C   UNL A   1      42.089  27.411  27.630  1.00  0.00     0.074 A 
ATOM     33  C   UNL A   1      42.777  29.704  28.185  1.00  0.00     0.049 A 
ATOM     34  N   UNL A   1      43.264  26.880  27.402  1.00  0.00    -0.248 NA
ATOM     35  C   UNL A   1      40.972  26.474  27.433  1.00  0.00     0.031 C 
ATOM     36  C   UNL A   1      42.657  31.060  28.708  1.00  0.00     0.029 A 
ATOM     37  N   UNL A   1      44.102  29.641  27.812  1.00  0.00    -0.354 N 
ATOM     38  C   UNL A   1      43.035  25.542  27.099  1.00  0.00     0.074 A 
ATOM     39  C   UNL A   1      41.606  25.338  27.171  1.00  0.00     0.031 C 
ATOM     40  C   UNL A   1      43.764  31.759  28.442  1.00  0.00     0.029 A 
ATOM     41  C   UNL A   1      44.768  30.846  27.928  1.00  0.00     0.049 A 
ATOM     42  H   UNL A   1      44.533  28.816  27.492  1.00  0.00     0.167 HD
ATOM     43  C   UNL A   1      43.936  24.579  26.791  1.00  0.00     0.037 A 
ATOM     44  C   UNL A   1      46.055  31.190  27.722  1.00  0.00     0.037 A 
ATOM     45  C   UNL A   1      45.353  24.809  26.651  1.00  0.00     0.049 A 
ATOM     46  C   UNL A   1      47.026  30.110  27.359  1.00  0.00     0.074 A 
ATOM     47  C   UNL A   1      46.339  23.895  26.316  1.00  0.00     0.029 A 
ATOM     48  N   UNL A   1      45.986  26.033  26.815  1.00  0.00    -0.354 N 
ATOM     49  N   UNL A   1      46.785  28.843  27.131  1.00  0.00    -0.248 NA
ATOM     50  C   UNL A   1      48.444  30.484  27.281  1.00  0.00     0.031 C 
ATOM     51  C   UNL A   1      47.570  24.556  26.319  1.00  0.00     0.029 A 
ATOM     52  C   UNL A   1      47.347  25.893  26.603  1.00  0.00     0.049 A 
ATOM     53  H   UNL A   1      45.533  26.875  27.047  1.00  0.00     0.167 HD
ATOM     54  C   UNL A   1      48.023  28.260  26.907  1.00  0.00     0.074 A 
ATOM     55  C   UNL A   1      49.007  29.320  26.984  1.00  0.00     0.031 C 
ATOM     56  C   UNL A   1      48.316  26.958  26.680  1.00  0.00     0.037 A 
BRANCH  43  57
ATOM     57  C   UNL A   1      43.444  23.170  26.597  1.00  0.00     0.058 A 
ATOM     58  C   UNL A   1      43.116  22.382  27.714  1.00  0.00     0.135 A 
ATOM     59  C   UNL A   1      43.402  22.561  25.333  1.00  0.00     0.135 A 
ATOM     60  F   UNL A   1      43.132  22.916  28.945  1.00  0.00    -0.206 F 
ATOM     61  C   UNL A   1      42.795  21.036  27.588  1.00  0.00     0.059 A 
ATOM     62  C   UNL A   1      43.060  21.219  25.182  1.00  0.00     0.059 A 
ATOM     63  F   UNL A   1      43.684  23.274  24.232  1.00  0.00    -0.206 F 
ATOM     64  C   UNL A   1      42.777  20.460  26.318  1.00  0.00     0.060 A 
BRANCH  64  65
ATOM     65  S   UNL A   1      42.365  18.707  26.175  1.00  0.00     0.124 S 
ATOM     66  O   UNL A   1      42.604  18.230  27.533  1.00  0.00    -0.237 OA
ATOM     67  O   UNL A   1      40.968  18.756  25.753  1.00  0.00    -0.237 OA
ATOM     68  O   UNL A   1      43.300  18.221  25.164  1.00  0.00    -0.744 OA
ENDBRANCH  64  65
ENDBRANCH  43  57
BRANCH  44  69
ATOM     69  C   UNL A   1      46.505  32.595  27.958  1.00  0.00     0.058 A 
ATOM     70  C   UNL A   1      47.073  32.976  29.186  1.00  0.00     0.135 A 
ATOM     71  C   UNL A   1      46.335  33.593  26.986  1.00  0.00     0.135 A 
ATOM     72  F   UNL A   1      47.266  32.066  30.152  1.00  0.00    -0.206 F 
ATOM     73  C   UNL A   1      47.397  34.299  29.465  1.00  0.00     0.059 A 
ATOM     74  C   UNL A   1      46.695  34.919  27.226  1.00  0.00     0.059 A 
ATOM     75  F   UNL A   1      45.824  33.280  25.787  1.00  0.00    -0.206 F 
ATOM     76  C   UNL A   1      47.200  35.265  28.481  1.00  0.00     0.060 A 
BRANCH  76  77
ATOM     77  S   UNL A   1      47.634  36.975  28.865  1.00  0.00     0.124 S 
ATOM     78  O   UNL A   1      47.640  36.953  30.325  1.00  0.00    -0.237 OA
ATOM     79  O   UNL A   1      48.939  37.113  28.227  1.00  0.00    -0.237 OA
ATOM     80  O   UNL A   1      46.555  37.742  28.251  1.00  0.00    -0.744 OA
ENDBRANCH  76  77
ENDBRANCH  44  69
BRANCH  56  81
ATOM     81  C   UNL A   1      49.758  26.601  26.480  1.00  0.00     0.058 A 
ATOM     82  C   UNL A   1      50.325  26.633  25.197  1.00  0.00     0.135 A 
ATOM     83  C   UNL A   1      50.557  26.158  27.546  1.00  0.00     0.135 A 
ATOM     84  F   UNL A   1      49.600  27.052  24.148  1.00  0.00    -0.206 F 
ATOM     85  C   UNL A   1      51.629  26.211  24.971  1.00  0.00     0.059 A 
ATOM     86  C   UNL A   1      51.873  25.754  27.346  1.00  0.00     0.059 A 
ATOM     87  F   UNL A   1      50.062  26.127  28.793  1.00  0.00    -0.206 F 
ATOM     88  C   UNL A   1      52.393  25.767  26.052  1.00  0.00     0.060 A 
BRANCH  88  89
ATOM     89  S   UNL A   1      54.083  25.218  25.736  1.00  0.00     0.124 S 
ATOM     90  O   UNL A   1      54.323  25.748  24.398  1.00  0.00    -0.237 OA
ATOM     91  O   UNL A   1      54.822  25.863  26.817  1.00  0.00    -0.237 OA
ATOM     92  O   UNL A   1      53.991  23.764  25.830  1.00  0.00    -0.744 OA
ENDBRANCH  88  89
ENDBRANCH  56  81
ENDBRANCH  30  31
ENDBRANCH  23  25
ENDBRANCH  22  23
ENDBRANCH   1  22
TORSDOF 16
ENDMDL
