MODEL 1
REMARK VINA RESULT:     -12.1      0.000      0.000
REMARK SMILES O=C(OCCOC(=O)c1ccc(-c2c3nc(c(-c4c(F)cc(S(=O)(=O)[O-])cc4F)c4ccc([nH]4)c(-c4c(F)cc(S(=O)(=O)[O-])cc4F)c4nc(c(-c5c(F)cc(S(=O)(=O)[O-])cc5F)c5ccc2[nH]5)C=C4)C=C3)cc1)C1=Cc2cc(Cl)cc(-c3ccc(Cl)cc3)c2O[C@@H]1C(F)(F)F
REMARK SMILES IDX 5 1 4 2 3 3 2 4 1 5 75 6 76 7 92 8 77 9 91 10 78 11 90 12
REMARK SMILES IDX 79 13 82 14 80 15 81 16 93 17 94 18 95 19 96 20 83 21 84 22
REMARK SMILES IDX 89 23 85 24 88 25 86 26 87 27 6 28 7 29 8 30 9 31 10 32
REMARK SMILES IDX 74 33 11 34 73 35 12 36 13 37 14 38 67 39 15 40 72 41 66 42
REMARK SMILES IDX 68 43 16 44 71 45 65 46 64 47 17 49 51 50 30 51 50 52 31 53
REMARK SMILES IDX 34 54 49 55 69 56 32 57 33 58 48 60 70 61 35 62 18 63 19 64
REMARK SMILES IDX 28 65 20 66 21 67 27 68 29 69 22 70 23 71 24 72 25 73 26 74
REMARK SMILES IDX 52 75 53 76 62 77 54 78 55 79 61 80 63 81 56 82 57 83 58 84
REMARK SMILES IDX 59 85 60 86 36 87 37 88 46 89 38 90 39 91 45 92 47 93 40 94
REMARK SMILES IDX 41 95 42 96 43 97 44 98
REMARK H PARENT 68 48 34 59
REMARK Flexibility Score: inf
ROOT
ATOM      1  C   UNL A   1      33.285  29.079  24.940  1.00  0.00     0.275 C 
ENDROOT
BRANCH   1   2
ATOM      2  C   UNL A   1      33.665  28.607  23.511  1.00  0.00     0.275 C 
BRANCH   2   3
ATOM      3  O   UNL A   1      34.028  27.202  23.425  1.00  0.00    -0.459 OA
BRANCH   3   4
ATOM      4  C   UNL A   1      33.278  26.408  22.603  1.00  0.00     0.338 C 
ATOM      5  O   UNL A   1      33.447  26.340  21.398  1.00  0.00    -0.246 OA
BRANCH   4   6
ATOM      6  C   UNL A   1      32.279  25.600  23.354  1.00  0.00     0.087 C 
ATOM      7  C   UNL A   1      31.694  24.521  22.802  1.00  0.00     0.027 C 
ATOM      8  C   UNL A   1      32.337  25.607  24.839  1.00  0.00     0.316 C 
ATOM      9  C   UNL A   1      32.107  23.262  23.490  1.00  0.00     0.019 A 
ATOM     10  O   UNL A   1      33.169  24.503  25.283  1.00  0.00    -0.475 OA
ATOM     11  C   UNL A   1      31.823  22.015  22.936  1.00  0.00     0.032 A 
ATOM     12  C   UNL A   1      33.057  23.349  24.537  1.00  0.00     0.135 A 
ATOM     13  C   UNL A   1      32.513  20.888  23.384  1.00  0.00     0.042 A 
ATOM     14  C   UNL A   1      33.945  22.277  24.777  1.00  0.00     0.026 A 
ATOM     15  Cl  UNL A   1      32.153  19.338  22.730  1.00  0.00    -0.084 Cl
ATOM     16  C   UNL A   1      33.592  21.020  24.257  1.00  0.00     0.033 A 
BRANCH   8  17
ATOM     17  C   UNL A   1      30.929  25.761  25.456  1.00  0.00     0.430 C 
ATOM     18  F   UNL A   1      30.069  26.249  24.523  1.00  0.00    -0.167 F 
ATOM     19  F   UNL A   1      30.394  24.603  25.904  1.00  0.00    -0.167 F 
ATOM     20  F   UNL A   1      30.929  26.634  26.489  1.00  0.00    -0.167 F 
ENDBRANCH   8  17
BRANCH  14  21
ATOM     21  C   UNL A   1      35.369  22.452  25.160  1.00  0.00    -0.015 A 
ATOM     22  C   UNL A   1      36.233  21.338  24.993  1.00  0.00     0.010 A 
ATOM     23  C   UNL A   1      35.913  23.609  25.728  1.00  0.00     0.010 A 
ATOM     24  C   UNL A   1      37.572  21.367  25.390  1.00  0.00     0.021 A 
ATOM     25  C   UNL A   1      37.266  23.645  26.120  1.00  0.00     0.021 A 
ATOM     26  C   UNL A   1      38.083  22.524  25.961  1.00  0.00     0.041 A 
ATOM     27  Cl  UNL A   1      39.725  22.560  26.476  1.00  0.00    -0.084 Cl
ENDBRANCH  14  21
ENDBRANCH   4   6
ENDBRANCH   3   4
ENDBRANCH   2   3
ENDBRANCH   1   2
BRANCH   1  28
ATOM     28  O   UNL A   1      34.345  28.951  25.892  1.00  0.00    -0.458 OA
BRANCH  28  29
ATOM     29  C   UNL A   1      34.157  29.697  27.010  1.00  0.00     0.338 C 
ATOM     30  O   UNL A   1      33.108  30.122  27.416  1.00  0.00    -0.246 OA
BRANCH  29  31
ATOM     31  C   UNL A   1      35.422  29.677  27.791  1.00  0.00     0.060 A 
ATOM     32  C   UNL A   1      36.566  30.086  27.107  1.00  0.00     0.016 A 
ATOM     33  C   UNL A   1      35.497  29.329  29.147  1.00  0.00     0.016 A 
ATOM     34  C   UNL A   1      37.800  30.076  27.747  1.00  0.00     0.010 A 
ATOM     35  C   UNL A   1      36.739  29.352  29.800  1.00  0.00     0.010 A 
ATOM     36  C   UNL A   1      37.906  29.671  29.086  1.00  0.00    -0.014 A 
BRANCH  36  37
ATOM     37  C   UNL A   1      39.271  29.414  29.617  1.00  0.00     0.031 A 
ATOM     38  C   UNL A   1      39.712  30.147  30.858  1.00  0.00     0.074 A 
ATOM     39  C   UNL A   1      40.034  28.424  29.113  1.00  0.00     0.049 A 
ATOM     40  N   UNL A   1      40.717  29.892  31.656  1.00  0.00    -0.248 NA
ATOM     41  C   UNL A   1      38.911  31.315  31.258  1.00  0.00     0.031 C 
ATOM     42  C   UNL A   1      39.730  27.651  27.908  1.00  0.00     0.029 A 
ATOM     43  N   UNL A   1      41.204  27.874  29.576  1.00  0.00    -0.354 N 
ATOM     44  C   UNL A   1      40.635  30.833  32.675  1.00  0.00     0.074 A 
ATOM     45  C   UNL A   1      39.544  31.721  32.347  1.00  0.00     0.031 C 
ATOM     46  C   UNL A   1      40.679  26.712  27.740  1.00  0.00     0.029 A 
ATOM     47  C   UNL A   1      41.653  26.812  28.825  1.00  0.00     0.049 A 
ATOM     48  H   UNL A   1      41.679  28.209  30.371  1.00  0.00     0.167 HD
ATOM     49  C   UNL A   1      41.368  30.926  33.809  1.00  0.00     0.037 A 
ATOM     50  C   UNL A   1      42.716  26.001  29.006  1.00  0.00     0.037 A 
ATOM     51  C   UNL A   1      42.474  30.063  34.125  1.00  0.00     0.049 A 
ATOM     52  C   UNL A   1      43.562  26.164  30.247  1.00  0.00     0.074 A 
ATOM     53  C   UNL A   1      43.293  30.084  35.239  1.00  0.00     0.029 A 
ATOM     54  N   UNL A   1      42.922  29.029  33.316  1.00  0.00    -0.354 N 
ATOM     55  N   UNL A   1      43.420  27.010  31.242  1.00  0.00    -0.248 NA
ATOM     56  C   UNL A   1      44.696  25.242  30.404  1.00  0.00     0.031 C 
ATOM     57  C   UNL A   1      44.267  29.093  35.081  1.00  0.00     0.029 A 
ATOM     58  C   UNL A   1      44.020  28.417  33.896  1.00  0.00     0.049 A 
ATOM     59  H   UNL A   1      42.519  28.770  32.456  1.00  0.00     0.167 HD
ATOM     60  C   UNL A   1      44.428  26.701  32.152  1.00  0.00     0.074 A 
ATOM     61  C   UNL A   1      45.155  25.577  31.602  1.00  0.00     0.031 C 
ATOM     62  C   UNL A   1      44.729  27.294  33.336  1.00  0.00     0.037 A 
BRANCH  49  63
ATOM     63  C   UNL A   1      40.979  31.999  34.788  1.00  0.00     0.058 A 
ATOM     64  C   UNL A   1      41.554  33.280  34.729  1.00  0.00     0.135 A 
ATOM     65  C   UNL A   1      40.032  31.752  35.792  1.00  0.00     0.135 A 
ATOM     66  F   UNL A   1      42.484  33.564  33.803  1.00  0.00    -0.206 F 
ATOM     67  C   UNL A   1      41.227  34.267  35.652  1.00  0.00     0.059 A 
ATOM     68  C   UNL A   1      39.668  32.734  36.709  1.00  0.00     0.059 A 
ATOM     69  F   UNL A   1      39.457  30.544  35.897  1.00  0.00    -0.206 F 
ATOM     70  C   UNL A   1      40.283  33.983  36.640  1.00  0.00     0.060 A 
BRANCH  70  71
ATOM     71  S   UNL A   1      39.877  35.274  37.834  1.00  0.00     0.124 S 
ATOM     72  O   UNL A   1      41.085  35.305  38.653  1.00  0.00    -0.237 OA
ATOM     73  O   UNL A   1      39.664  36.435  36.977  1.00  0.00    -0.237 OA
ATOM     74  O   UNL A   1      38.683  34.760  38.499  1.00  0.00    -0.744 OA
ENDBRANCH  70  71
ENDBRANCH  49  63
BRANCH  50  75
ATOM     75  C   UNL A   1      43.048  24.953  27.999  1.00  0.00     0.058 A 
ATOM     76  C   UNL A   1      42.666  23.614  28.171  1.00  0.00     0.135 A 
ATOM     77  C   UNL A   1      43.807  25.270  26.860  1.00  0.00     0.135 A 
ATOM     78  F   UNL A   1      41.947  23.254  29.245  1.00  0.00    -0.206 F 
ATOM     79  C   UNL A   1      43.055  22.621  27.275  1.00  0.00     0.059 A 
ATOM     80  C   UNL A   1      44.183  24.301  25.936  1.00  0.00     0.059 A 
ATOM     81  F   UNL A   1      44.191  26.536  26.639  1.00  0.00    -0.206 F 
ATOM     82  C   UNL A   1      43.817  22.975  26.161  1.00  0.00     0.060 A 
BRANCH  82  83
ATOM     83  S   UNL A   1      44.313  21.683  24.999  1.00  0.00     0.124 S 
ATOM     84  O   UNL A   1      43.351  20.630  25.301  1.00  0.00    -0.237 OA
ATOM     85  O   UNL A   1      44.147  22.350  23.710  1.00  0.00    -0.237 OA
ATOM     86  O   UNL A   1      45.695  21.403  25.378  1.00  0.00    -0.744 OA
ENDBRANCH  82  83
ENDBRANCH  50  75
BRANCH  62  87
ATOM     87  C   UNL A   1      45.872  26.720  34.132  1.00  0.00     0.058 A 
ATOM     88  C   UNL A   1      45.680  25.692  35.070  1.00  0.00     0.135 A 
ATOM     89  C   UNL A   1      47.183  27.180  33.927  1.00  0.00     0.135 A 
ATOM     90  F   UNL A   1      44.448  25.213  35.306  1.00  0.00    -0.206 F 
ATOM     91  C   UNL A   1      46.740  25.172  35.806  1.00  0.00     0.059 A 
ATOM     92  C   UNL A   1      48.264  26.649  34.627  1.00  0.00     0.059 A 
ATOM     93  F   UNL A   1      47.429  28.148  33.029  1.00  0.00    -0.206 F 
ATOM     94  C   UNL A   1      48.028  25.659  35.579  1.00  0.00     0.060 A 
BRANCH  94  95
ATOM     95  S   UNL A   1      49.396  24.971  36.536  1.00  0.00     0.124 S 
ATOM     96  O   UNL A   1      50.530  25.234  35.657  1.00  0.00    -0.237 OA
ATOM     97  O   UNL A   1      49.348  25.761  37.762  1.00  0.00    -0.237 OA
ATOM     98  O   UNL A   1      49.031  23.566  36.688  1.00  0.00    -0.744 OA
ENDBRANCH  94  95
ENDBRANCH  62  87
ENDBRANCH  36  37
ENDBRANCH  29  31
ENDBRANCH  28  29
ENDBRANCH   1  28
TORSDOF 16
ENDMDL
MODEL 2
REMARK VINA RESULT:     -12.0      4.643      9.868
REMARK SMILES O=C(OCCOC(=O)c1ccc(-c2c3nc(c(-c4c(F)cc(S(=O)(=O)[O-])cc4F)c4ccc([nH]4)c(-c4c(F)cc(S(=O)(=O)[O-])cc4F)c4nc(c(-c5c(F)cc(S(=O)(=O)[O-])cc5F)c5ccc2[nH]5)C=C4)C=C3)cc1)C1=Cc2cc(Cl)cc(-c3ccc(Cl)cc3)c2O[C@@H]1C(F)(F)F
REMARK SMILES IDX 5 1 4 2 3 3 2 4 1 5 75 6 76 7 92 8 77 9 91 10 78 11 90 12
REMARK SMILES IDX 79 13 82 14 80 15 81 16 93 17 94 18 95 19 96 20 83 21 84 22
REMARK SMILES IDX 89 23 85 24 88 25 86 26 87 27 6 28 7 29 8 30 9 31 10 32
REMARK SMILES IDX 74 33 11 34 73 35 12 36 13 37 14 38 67 39 15 40 72 41 66 42
REMARK SMILES IDX 68 43 16 44 71 45 65 46 64 47 17 49 51 50 30 51 50 52 31 53
REMARK SMILES IDX 34 54 49 55 69 56 32 57 33 58 48 60 70 61 35 62 18 63 19 64
REMARK SMILES IDX 28 65 20 66 21 67 27 68 29 69 22 70 23 71 24 72 25 73 26 74
REMARK SMILES IDX 52 75 53 76 62 77 54 78 55 79 61 80 63 81 56 82 57 83 58 84
REMARK SMILES IDX 59 85 60 86 36 87 37 88 46 89 38 90 39 91 45 92 47 93 40 94
REMARK SMILES IDX 41 95 42 96 43 97 44 98
REMARK H PARENT 68 48 34 59
REMARK Flexibility Score: inf
ROOT
ATOM      1  C   UNL A   1      36.847  21.604  25.616  1.00  0.00     0.275 C 
ENDROOT
BRANCH   1   2
ATOM      2  C   UNL A   1      35.410  21.514  26.196  1.00  0.00     0.275 C 
BRANCH   2   3
ATOM      3  O   UNL A   1      34.947  22.737  26.833  1.00  0.00    -0.459 OA
BRANCH   3   4
ATOM      4  C   UNL A   1      33.627  23.060  26.688  1.00  0.00     0.338 C 
ATOM      5  O   UNL A   1      32.856  23.173  27.627  1.00  0.00    -0.246 OA
BRANCH   4   6
ATOM      6  C   UNL A   1      33.258  23.313  25.269  1.00  0.00     0.087 C 
ATOM      7  C   UNL A   1      31.973  23.325  24.871  1.00  0.00     0.027 C 
ATOM      8  C   UNL A   1      34.198  24.094  24.424  1.00  0.00     0.316 C 
ATOM      9  C   UNL A   1      31.548  24.688  24.434  1.00  0.00     0.019 A 
ATOM     10  O   UNL A   1      33.834  25.498  24.491  1.00  0.00    -0.475 OA
ATOM     11  C   UNL A   1      30.203  24.986  24.219  1.00  0.00     0.032 A 
ATOM     12  C   UNL A   1      32.478  25.750  24.546  1.00  0.00     0.135 A 
ATOM     13  C   UNL A   1      29.792  26.319  24.171  1.00  0.00     0.042 A 
ATOM     14  C   UNL A   1      32.025  27.065  24.785  1.00  0.00     0.026 A 
ATOM     15  Cl  UNL A   1      28.141  26.703  23.877  1.00  0.00    -0.084 Cl
ATOM     16  C   UNL A   1      30.678  27.344  24.496  1.00  0.00     0.033 A 
BRANCH   8  17
ATOM     17  C   UNL A   1      34.376  23.446  23.033  1.00  0.00     0.430 C 
ATOM     18  F   UNL A   1      33.815  22.208  23.027  1.00  0.00    -0.167 F 
ATOM     19  F   UNL A   1      33.796  24.136  22.025  1.00  0.00    -0.167 F 
ATOM     20  F   UNL A   1      35.681  23.290  22.717  1.00  0.00    -0.167 F 
ENDBRANCH   8  17
BRANCH  14  21
ATOM     21  C   UNL A   1      32.718  28.030  25.676  1.00  0.00    -0.015 A 
ATOM     22  C   UNL A   1      32.018  29.214  26.028  1.00  0.00     0.010 A 
ATOM     23  C   UNL A   1      34.028  27.893  26.147  1.00  0.00     0.010 A 
ATOM     24  C   UNL A   1      32.601  30.224  26.798  1.00  0.00     0.021 A 
ATOM     25  C   UNL A   1      34.615  28.905  26.932  1.00  0.00     0.021 A 
ATOM     26  C   UNL A   1      33.906  30.067  27.243  1.00  0.00     0.041 A 
ATOM     27  Cl  UNL A   1      34.641  31.316  28.171  1.00  0.00    -0.084 Cl
ENDBRANCH  14  21
ENDBRANCH   4   6
ENDBRANCH   3   4
ENDBRANCH   2   3
ENDBRANCH   1   2
BRANCH   1  28
ATOM     28  O   UNL A   1      37.468  22.878  25.807  1.00  0.00    -0.458 OA
BRANCH  28  29
ATOM     29  C   UNL A   1      38.768  22.791  26.190  1.00  0.00     0.338 C 
ATOM     30  O   UNL A   1      39.558  21.951  25.846  1.00  0.00    -0.246 OA
BRANCH  29  31
ATOM     31  C   UNL A   1      39.124  24.053  26.890  1.00  0.00     0.060 A 
ATOM     32  C   UNL A   1      39.766  25.018  26.115  1.00  0.00     0.016 A 
ATOM     33  C   UNL A   1      38.804  24.320  28.228  1.00  0.00     0.016 A 
ATOM     34  C   UNL A   1      40.161  26.221  26.690  1.00  0.00     0.010 A 
ATOM     35  C   UNL A   1      39.174  25.548  28.797  1.00  0.00     0.010 A 
ATOM     36  C   UNL A   1      39.906  26.482  28.045  1.00  0.00    -0.014 A 
BRANCH  36  37
ATOM     37  C   UNL A   1      40.596  27.647  28.659  1.00  0.00     0.031 A 
ATOM     38  C   UNL A   1      42.099  27.726  28.566  1.00  0.00     0.074 A 
ATOM     39  C   UNL A   1      39.895  28.697  29.131  1.00  0.00     0.049 A 
ATOM     40  N   UNL A   1      42.887  28.750  28.765  1.00  0.00    -0.248 NA
ATOM     41  C   UNL A   1      42.806  26.491  28.190  1.00  0.00     0.031 C 
ATOM     42  C   UNL A   1      38.441  28.741  29.291  1.00  0.00     0.029 A 
ATOM     43  N   UNL A   1      40.312  29.943  29.529  1.00  0.00    -0.354 N 
ATOM     44  C   UNL A   1      44.171  28.296  28.488  1.00  0.00     0.074 A 
ATOM     45  C   UNL A   1      44.069  26.884  28.200  1.00  0.00     0.031 C 
ATOM     46  C   UNL A   1      38.086  29.961  29.732  1.00  0.00     0.029 A 
ATOM     47  C   UNL A   1      39.283  30.786  29.882  1.00  0.00     0.049 A 
ATOM     48  H   UNL A   1      41.260  30.209  29.561  1.00  0.00     0.167 HD
ATOM     49  C   UNL A   1      45.327  28.996  28.430  1.00  0.00     0.037 A 
ATOM     50  C   UNL A   1      39.305  32.081  30.260  1.00  0.00     0.037 A 
ATOM     51  C   UNL A   1      45.439  30.394  28.744  1.00  0.00     0.049 A 
ATOM     52  C   UNL A   1      40.619  32.828  30.251  1.00  0.00     0.074 A 
ATOM     53  C   UNL A   1      46.567  31.193  28.734  1.00  0.00     0.029 A 
ATOM     54  N   UNL A   1      44.380  31.199  29.139  1.00  0.00    -0.354 N 
ATOM     55  N   UNL A   1      41.812  32.401  29.908  1.00  0.00    -0.248 NA
ATOM     56  C   UNL A   1      40.582  34.241  30.653  1.00  0.00     0.031 C 
ATOM     57  C   UNL A   1      46.199  32.472  29.168  1.00  0.00     0.029 A 
ATOM     58  C   UNL A   1      44.831  32.483  29.395  1.00  0.00     0.049 A 
ATOM     59  H   UNL A   1      43.446  30.901  29.225  1.00  0.00     0.167 HD
ATOM     60  C   UNL A   1      42.659  33.500  30.026  1.00  0.00     0.074 A 
ATOM     61  C   UNL A   1      41.837  34.615  30.447  1.00  0.00     0.031 C 
ATOM     62  C   UNL A   1      43.997  33.583  29.809  1.00  0.00     0.037 A 
BRANCH  49  63
ATOM     63  C   UNL A   1      46.558  28.247  27.999  1.00  0.00     0.058 A 
ATOM     64  C   UNL A   1      46.946  28.200  26.649  1.00  0.00     0.135 A 
ATOM     65  C   UNL A   1      47.354  27.568  28.933  1.00  0.00     0.135 A 
ATOM     66  F   UNL A   1      46.207  28.812  25.710  1.00  0.00    -0.206 F 
ATOM     67  C   UNL A   1      48.061  27.480  26.236  1.00  0.00     0.059 A 
ATOM     68  C   UNL A   1      48.492  26.864  28.546  1.00  0.00     0.059 A 
ATOM     69  F   UNL A   1      47.025  27.574  30.234  1.00  0.00    -0.206 F 
ATOM     70  C   UNL A   1      48.827  26.814  27.194  1.00  0.00     0.060 A 
BRANCH  70  71
ATOM     71  S   UNL A   1      50.267  25.877  26.640  1.00  0.00     0.124 S 
ATOM     72  O   UNL A   1      51.361  26.662  27.205  1.00  0.00    -0.237 OA
ATOM     73  O   UNL A   1      50.043  24.571  27.249  1.00  0.00    -0.237 OA
ATOM     74  O   UNL A   1      50.158  25.915  25.184  1.00  0.00    -0.744 OA
ENDBRANCH  70  71
ENDBRANCH  49  63
BRANCH  50  75
ATOM     75  C   UNL A   1      38.049  32.769  30.674  1.00  0.00     0.058 A 
ATOM     76  C   UNL A   1      37.631  32.805  32.013  1.00  0.00     0.135 A 
ATOM     77  C   UNL A   1      37.209  33.362  29.717  1.00  0.00     0.135 A 
ATOM     78  F   UNL A   1      38.391  32.246  32.968  1.00  0.00    -0.206 F 
ATOM     79  C   UNL A   1      36.413  33.369  32.386  1.00  0.00     0.059 A 
ATOM     80  C   UNL A   1      36.001  33.957  30.068  1.00  0.00     0.059 A 
ATOM     81  F   UNL A   1      37.563  33.367  28.423  1.00  0.00    -0.206 F 
ATOM     82  C   UNL A   1      35.603  33.940  31.403  1.00  0.00     0.060 A 
BRANCH  82  83
ATOM     83  S   UNL A   1      34.027  34.674  31.893  1.00  0.00     0.124 S 
ATOM     84  O   UNL A   1      34.458  35.948  32.457  1.00  0.00    -0.237 OA
ATOM     85  O   UNL A   1      33.313  34.746  30.621  1.00  0.00    -0.237 OA
ATOM     86  O   UNL A   1      33.491  33.711  32.851  1.00  0.00    -0.744 OA
ENDBRANCH  82  83
ENDBRANCH  50  75
BRANCH  62  87
ATOM     87  C   UNL A   1      44.651  34.928  29.991  1.00  0.00     0.058 A 
ATOM     88  C   UNL A   1      44.742  35.856  28.941  1.00  0.00     0.135 A 
ATOM     89  C   UNL A   1      45.161  35.306  31.244  1.00  0.00     0.135 A 
ATOM     90  F   UNL A   1      44.270  35.548  27.723  1.00  0.00    -0.206 F 
ATOM     91  C   UNL A   1      45.354  37.094  29.117  1.00  0.00     0.059 A 
ATOM     92  C   UNL A   1      45.745  36.553  31.450  1.00  0.00     0.059 A 
ATOM     93  F   UNL A   1      45.085  34.466  32.288  1.00  0.00    -0.206 F 
ATOM     94  C   UNL A   1      45.855  37.432  30.374  1.00  0.00     0.060 A 
BRANCH  94  95
ATOM     95  S   UNL A   1      46.639  39.043  30.589  1.00  0.00     0.124 S 
ATOM     96  O   UNL A   1      46.909  39.050  32.023  1.00  0.00    -0.237 OA
ATOM     97  O   UNL A   1      47.811  38.939  29.725  1.00  0.00    -0.237 OA
ATOM     98  O   UNL A   1      45.617  39.982  30.138  1.00  0.00    -0.744 OA
ENDBRANCH  94  95
ENDBRANCH  62  87
ENDBRANCH  36  37
ENDBRANCH  29  31
ENDBRANCH  28  29
ENDBRANCH   1  28
TORSDOF 16
ENDMDL
MODEL 3
REMARK VINA RESULT:     -12.0      6.368     11.492
REMARK SMILES O=C(OCCOC(=O)c1ccc(-c2c3nc(c(-c4c(F)cc(S(=O)(=O)[O-])cc4F)c4ccc([nH]4)c(-c4c(F)cc(S(=O)(=O)[O-])cc4F)c4nc(c(-c5c(F)cc(S(=O)(=O)[O-])cc5F)c5ccc2[nH]5)C=C4)C=C3)cc1)C1=Cc2cc(Cl)cc(-c3ccc(Cl)cc3)c2O[C@@H]1C(F)(F)F
REMARK SMILES IDX 5 1 4 2 3 3 2 4 1 5 75 6 76 7 92 8 77 9 91 10 78 11 90 12
REMARK SMILES IDX 79 13 82 14 80 15 81 16 93 17 94 18 95 19 96 20 83 21 84 22
REMARK SMILES IDX 89 23 85 24 88 25 86 26 87 27 6 28 7 29 8 30 9 31 10 32
REMARK SMILES IDX 74 33 11 34 73 35 12 36 13 37 14 38 67 39 15 40 72 41 66 42
REMARK SMILES IDX 68 43 16 44 71 45 65 46 64 47 17 49 51 50 30 51 50 52 31 53
REMARK SMILES IDX 34 54 49 55 69 56 32 57 33 58 48 60 70 61 35 62 18 63 19 64
REMARK SMILES IDX 28 65 20 66 21 67 27 68 29 69 22 70 23 71 24 72 25 73 26 74
REMARK SMILES IDX 52 75 53 76 62 77 54 78 55 79 61 80 63 81 56 82 57 83 58 84
REMARK SMILES IDX 59 85 60 86 36 87 37 88 46 89 38 90 39 91 45 92 47 93 40 94
REMARK SMILES IDX 41 95 42 96 43 97 44 98
REMARK H PARENT 68 48 34 59
REMARK Flexibility Score: inf
ROOT
ATOM      1  C   UNL A   1      34.666  31.034  27.662  1.00  0.00     0.275 C 
ENDROOT
BRANCH   1   2
ATOM      2  C   UNL A   1      34.215  32.445  28.124  1.00  0.00     0.275 C 
BRANCH   2   3
ATOM      3  O   UNL A   1      34.350  32.676  29.553  1.00  0.00    -0.459 OA
BRANCH   3   4
ATOM      4  C   UNL A   1      35.400  33.447  29.968  1.00  0.00     0.338 C 
ATOM      5  O   UNL A   1      36.105  34.087  29.207  1.00  0.00    -0.246 OA
BRANCH   4   6
ATOM      6  C   UNL A   1      35.541  33.459  31.449  1.00  0.00     0.087 C 
ATOM      7  C   UNL A   1      35.779  32.329  32.139  1.00  0.00     0.027 C 
ATOM      8  C   UNL A   1      35.986  34.716  32.106  1.00  0.00     0.316 C 
ATOM      9  C   UNL A   1      37.134  32.345  32.766  1.00  0.00     0.019 A 
ATOM     10  O   UNL A   1      37.433  34.693  32.234  1.00  0.00    -0.475 OA
ATOM     11  C   UNL A   1      37.686  31.187  33.314  1.00  0.00     0.032 A 
ATOM     12  C   UNL A   1      37.976  33.457  32.520  1.00  0.00     0.135 A 
ATOM     13  C   UNL A   1      39.058  31.127  33.559  1.00  0.00     0.042 A 
ATOM     14  C   UNL A   1      39.378  33.291  32.495  1.00  0.00     0.026 A 
ATOM     15  Cl  UNL A   1      39.749  29.717  34.262  1.00  0.00    -0.084 Cl
ATOM     16  C   UNL A   1      39.901  32.143  33.113  1.00  0.00     0.033 A 
BRANCH   8  17
ATOM     17  C   UNL A   1      35.142  35.023  33.363  1.00  0.00     0.430 C 
ATOM     18  F   UNL A   1      33.987  34.306  33.328  1.00  0.00    -0.167 F 
ATOM     19  F   UNL A   1      35.753  34.712  34.528  1.00  0.00    -0.167 F 
ATOM     20  F   UNL A   1      34.795  36.329  33.425  1.00  0.00    -0.167 F 
ENDBRANCH   8  17
BRANCH  14  21
ATOM     21  C   UNL A   1      40.277  33.991  31.541  1.00  0.00    -0.015 A 
ATOM     22  C   UNL A   1      39.786  34.221  30.229  1.00  0.00     0.010 A 
ATOM     23  C   UNL A   1      41.590  34.386  31.816  1.00  0.00     0.010 A 
ATOM     24  C   UNL A   1      40.573  34.802  29.231  1.00  0.00     0.021 A 
ATOM     25  C   UNL A   1      42.382  34.981  30.814  1.00  0.00     0.021 A 
ATOM     26  C   UNL A   1      41.875  35.175  29.527  1.00  0.00     0.041 A 
ATOM     27  Cl  UNL A   1      42.860  35.867  28.297  1.00  0.00    -0.084 Cl
ENDBRANCH  14  21
ENDBRANCH   4   6
ENDBRANCH   3   4
ENDBRANCH   2   3
ENDBRANCH   1   2
BRANCH   1  28
ATOM     28  O   UNL A   1      36.078  30.826  27.736  1.00  0.00    -0.458 OA
BRANCH  28  29
ATOM     29  C   UNL A   1      36.463  30.131  28.837  1.00  0.00     0.338 C 
ATOM     30  O   UNL A   1      35.747  29.500  29.569  1.00  0.00    -0.246 OA
BRANCH  29  31
ATOM     31  C   UNL A   1      37.948  30.058  28.836  1.00  0.00     0.060 A 
ATOM     32  C   UNL A   1      38.532  29.571  27.667  1.00  0.00     0.016 A 
ATOM     33  C   UNL A   1      38.752  30.493  29.898  1.00  0.00     0.016 A 
ATOM     34  C   UNL A   1      39.914  29.441  27.582  1.00  0.00     0.010 A 
ATOM     35  C   UNL A   1      40.148  30.393  29.796  1.00  0.00     0.010 A 
ATOM     36  C   UNL A   1      40.733  29.813  28.659  1.00  0.00    -0.014 A 
BRANCH  36  37
ATOM     37  C   UNL A   1      42.158  29.390  28.613  1.00  0.00     0.031 A 
ATOM     38  C   UNL A   1      42.471  27.947  28.309  1.00  0.00     0.074 A 
ATOM     39  C   UNL A   1      43.151  30.299  28.664  1.00  0.00     0.049 A 
ATOM     40  N   UNL A   1      43.605  27.407  27.942  1.00  0.00    -0.248 NA
ATOM     41  C   UNL A   1      41.361  26.988  28.424  1.00  0.00     0.031 C 
ATOM     42  C   UNL A   1      42.984  31.720  28.967  1.00  0.00     0.029 A 
ATOM     43  N   UNL A   1      44.497  30.165  28.424  1.00  0.00    -0.354 N 
ATOM     44  C   UNL A   1      43.329  26.060  27.734  1.00  0.00     0.074 A 
ATOM     45  C   UNL A   1      41.949  25.847  28.105  1.00  0.00     0.031 C 
ATOM     46  C   UNL A   1      44.179  32.331  28.873  1.00  0.00     0.029 A 
ATOM     47  C   UNL A   1      45.194  31.350  28.498  1.00  0.00     0.049 A 
ATOM     48  H   UNL A   1      44.924  29.302  28.218  1.00  0.00     0.167 HD
ATOM     49  C   UNL A   1      44.134  25.095  27.234  1.00  0.00     0.037 A 
ATOM     50  C   UNL A   1      46.498  31.612  28.269  1.00  0.00     0.037 A 
ATOM     51  C   UNL A   1      45.515  25.295  26.891  1.00  0.00     0.049 A 
ATOM     52  C   UNL A   1      47.395  30.502  27.773  1.00  0.00     0.074 A 
ATOM     53  C   UNL A   1      46.422  24.378  26.393  1.00  0.00     0.029 A 
ATOM     54  N   UNL A   1      46.192  26.499  27.024  1.00  0.00    -0.354 N 
ATOM     55  N   UNL A   1      47.096  29.252  27.504  1.00  0.00    -0.248 NA
ATOM     56  C   UNL A   1      48.801  30.848  27.520  1.00  0.00     0.031 C 
ATOM     57  C   UNL A   1      47.662  25.015  26.269  1.00  0.00     0.029 A 
ATOM     58  C   UNL A   1      47.512  26.344  26.636  1.00  0.00     0.049 A 
ATOM     59  H   UNL A   1      45.793  27.339  27.346  1.00  0.00     0.167 HD
ATOM     60  C   UNL A   1      48.269  28.674  27.025  1.00  0.00     0.074 A 
ATOM     61  C   UNL A   1      49.273  29.716  27.017  1.00  0.00     0.031 C 
ATOM     62  C   UNL A   1      48.499  27.395  26.629  1.00  0.00     0.037 A 
BRANCH  49  63
ATOM     63  C   UNL A   1      43.521  23.737  27.023  1.00  0.00     0.058 A 
ATOM     64  C   UNL A   1      43.408  22.818  28.080  1.00  0.00     0.135 A 
ATOM     65  C   UNL A   1      43.047  23.347  25.762  1.00  0.00     0.135 A 
ATOM     66  F   UNL A   1      43.868  23.131  29.302  1.00  0.00    -0.206 F 
ATOM     67  C   UNL A   1      42.877  21.548  27.887  1.00  0.00     0.059 A 
ATOM     68  C   UNL A   1      42.485  22.091  25.552  1.00  0.00     0.059 A 
ATOM     69  F   UNL A   1      43.137  24.184  24.717  1.00  0.00    -0.206 F 
ATOM     70  C   UNL A   1      42.419  21.194  26.617  1.00  0.00     0.060 A 
BRANCH  70  71
ATOM     71  S   UNL A   1      41.739  19.538  26.382  1.00  0.00     0.124 S 
ATOM     72  O   UNL A   1      42.103  18.892  27.640  1.00  0.00    -0.237 OA
ATOM     73  O   UNL A   1      40.318  19.808  26.196  1.00  0.00    -0.237 OA
ATOM     74  O   UNL A   1      42.442  19.046  25.200  1.00  0.00    -0.744 OA
ENDBRANCH  70  71
ENDBRANCH  49  63
BRANCH  50  75
ATOM     75  C   UNL A   1      47.044  32.981  28.494  1.00  0.00     0.058 A 
ATOM     76  C   UNL A   1      47.530  33.387  29.746  1.00  0.00     0.135 A 
ATOM     77  C   UNL A   1      47.038  33.932  27.461  1.00  0.00     0.135 A 
ATOM     78  F   UNL A   1      47.551  32.521  30.771  1.00  0.00    -0.206 F 
ATOM     79  C   UNL A   1      47.955  34.693  29.979  1.00  0.00     0.059 A 
ATOM     80  C   UNL A   1      47.485  35.235  27.660  1.00  0.00     0.059 A 
ATOM     81  F   UNL A   1      46.594  33.596  26.240  1.00  0.00    -0.206 F 
ATOM     82  C   UNL A   1      47.925  35.611  28.928  1.00  0.00     0.060 A 
BRANCH  82  83
ATOM     83  S   UNL A   1      48.484  37.302  29.234  1.00  0.00     0.124 S 
ATOM     84  O   UNL A   1      49.816  37.078  29.781  1.00  0.00    -0.237 OA
ATOM     85  O   UNL A   1      48.432  37.888  27.897  1.00  0.00    -0.237 OA
ATOM     86  O   UNL A   1      47.493  37.818  30.176  1.00  0.00    -0.744 OA
ENDBRANCH  82  83
ENDBRANCH  50  75
BRANCH  62  87
ATOM     87  C   UNL A   1      49.878  27.059  26.125  1.00  0.00     0.058 A 
ATOM     88  C   UNL A   1      50.891  26.604  26.985  1.00  0.00     0.135 A 
ATOM     89  C   UNL A   1      50.180  27.160  24.757  1.00  0.00     0.135 A 
ATOM     90  F   UNL A   1      50.658  26.488  28.303  1.00  0.00    -0.206 F 
ATOM     91  C   UNL A   1      52.164  26.303  26.513  1.00  0.00     0.059 A 
ATOM     92  C   UNL A   1      51.437  26.830  24.258  1.00  0.00     0.059 A 
ATOM     93  F   UNL A   1      49.245  27.572  23.886  1.00  0.00    -0.206 F 
ATOM     94  C   UNL A   1      52.428  26.421  25.148  1.00  0.00     0.060 A 
BRANCH  94  95
ATOM     95  S   UNL A   1      54.082  26.019  24.547  1.00  0.00     0.124 S 
ATOM     96  O   UNL A   1      54.917  26.849  25.409  1.00  0.00    -0.237 OA
ATOM     97  O   UNL A   1      54.161  24.581  24.783  1.00  0.00    -0.237 OA
ATOM     98  O   UNL A   1      54.040  26.416  23.143  1.00  0.00    -0.744 OA
ENDBRANCH  94  95
ENDBRANCH  62  87
ENDBRANCH  36  37
ENDBRANCH  29  31
ENDBRANCH  28  29
ENDBRANCH   1  28
TORSDOF 16
ENDMDL
