MODEL 1
REMARK VINA RESULT:     -11.2      0.000      0.000
REMARK SMILES COc1ccc(-c2cccc(/C=C\C(=O)OCCOC(=O)c3ccc(-c4c5nc(c(-c6c(F)cc(S(=O)(=O)[O-])cc6F)c6ccc([nH]6)c(-c6c(F)cc(S(=O)(=O)[O-])cc6F)c6nc(c(-c7c(F)cc(S(=O)(=O)[O-])cc7F)c7ccc4[nH]7)C=C6)C=C5)cc3)c2)c(Cl)c1OC
REMARK SMILES IDX 17 1 16 2 14 3 15 4 13 5 12 6 11 7 7 8 8 9 88 10 9 11 10 12
REMARK SMILES IDX 6 13 3 14 4 15 91 16 5 17 89 18 90 19 2 20 1 21 92 22 93 23
REMARK SMILES IDX 18 24 19 25 20 26 21 27 22 28 23 29 87 30 24 31 86 32 25 33
REMARK SMILES IDX 26 34 27 35 80 36 28 37 85 38 79 39 81 40 29 41 84 42 78 43
REMARK SMILES IDX 77 44 30 46 64 47 43 48 63 49 44 50 47 51 62 52 82 53 45 54
REMARK SMILES IDX 46 55 61 57 83 58 48 59 31 60 32 61 41 62 33 63 34 64 40 65
REMARK SMILES IDX 42 66 35 67 36 68 37 69 38 70 39 71 65 72 66 73 75 74 67 75
REMARK SMILES IDX 68 76 74 77 76 78 69 79 70 80 71 81 72 82 73 83 49 84 50 85
REMARK SMILES IDX 59 86 51 87 52 88 58 89 60 90 53 91 54 92 55 93 56 94 57 95
REMARK H PARENT 81 45 47 56
REMARK Flexibility Score: inf
ROOT
ATOM      1  C   UNL A   1      34.881  33.438  30.851  1.00  0.00     0.275 C 
ENDROOT
BRANCH   1   2
ATOM      2  O   UNL A   1      34.081  32.776  29.856  1.00  0.00    -0.459 OA
BRANCH   2   3
ATOM      3  C   UNL A   1      34.439  32.907  28.567  1.00  0.00     0.330 C 
ATOM      4  O   UNL A   1      34.096  33.812  27.822  1.00  0.00    -0.247 OA
BRANCH   3   5
ATOM      5  C   UNL A   1      35.452  31.907  28.146  1.00  0.00     0.094 C 
ATOM      6  C   UNL A   1      35.368  30.678  27.610  1.00  0.00     0.015 C 
BRANCH   6   7
ATOM      7  C   UNL A   1      34.192  29.956  27.117  1.00  0.00    -0.025 A 
ATOM      8  C   UNL A   1      33.316  28.238  25.630  1.00  0.00    -0.016 A 
ATOM      9  C   UNL A   1      32.013  28.659  25.918  1.00  0.00     0.009 A 
ATOM     10  C   UNL A   1      34.400  28.925  26.199  1.00  0.00     0.017 A 
ATOM     11  C   UNL A   1      31.797  29.631  26.887  1.00  0.00     0.001 A 
ATOM     12  C   UNL A   1      32.886  30.213  27.533  1.00  0.00     0.008 A 
BRANCH   8  13
ATOM     13  C   UNL A   1      33.547  27.038  24.818  1.00  0.00     0.004 A 
ATOM     14  C   UNL A   1      34.012  24.719  23.344  1.00  0.00     0.162 A 
ATOM     15  C   UNL A   1      34.184  24.710  24.730  1.00  0.00     0.051 A 
ATOM     16  C   UNL A   1      33.640  25.892  22.646  1.00  0.00     0.180 A 
ATOM     17  C   UNL A   1      33.937  25.860  25.464  1.00  0.00     0.014 A 
ATOM     18  C   UNL A   1      33.413  27.060  23.398  1.00  0.00     0.094 A 
ATOM     19  Cl  UNL A   1      33.021  28.596  22.669  1.00  0.00    -0.079 Cl
BRANCH  14  20
ATOM     20  O   UNL A   1      34.281  23.586  22.606  1.00  0.00    -0.493 OA
ATOM     21  C   UNL A   1      33.209  22.647  22.625  1.00  0.00     0.278 C 
ENDBRANCH  14  20
BRANCH  16  22
ATOM     22  O   UNL A   1      33.565  25.698  21.290  1.00  0.00    -0.491 OA
ATOM     23  C   UNL A   1      32.332  25.718  20.596  1.00  0.00     0.278 C 
ENDBRANCH  16  22
ENDBRANCH   8  13
ENDBRANCH   6   7
ENDBRANCH   3   5
ENDBRANCH   2   3
ENDBRANCH   1   2
BRANCH   1  24
ATOM     24  C   UNL A   1      35.503  32.412  31.808  1.00  0.00     0.275 C 
BRANCH  24  25
ATOM     25  O   UNL A   1      36.768  31.941  31.310  1.00  0.00    -0.458 OA
BRANCH  25  26
ATOM     26  C   UNL A   1      37.088  30.658  31.600  1.00  0.00     0.338 C 
ATOM     27  O   UNL A   1      36.399  29.839  32.186  1.00  0.00    -0.246 OA
BRANCH  26  28
ATOM     28  C   UNL A   1      38.366  30.333  30.946  1.00  0.00     0.060 A 
ATOM     29  C   UNL A   1      39.443  29.947  31.749  1.00  0.00     0.016 A 
ATOM     30  C   UNL A   1      38.505  30.402  29.558  1.00  0.00     0.016 A 
ATOM     31  C   UNL A   1      40.656  29.594  31.168  1.00  0.00     0.010 A 
ATOM     32  C   UNL A   1      39.726  30.056  28.976  1.00  0.00     0.010 A 
ATOM     33  C   UNL A   1      40.807  29.646  29.777  1.00  0.00    -0.014 A 
BRANCH  33  34
ATOM     34  C   UNL A   1      42.115  29.316  29.169  1.00  0.00     0.031 A 
ATOM     35  C   UNL A   1      42.355  27.931  28.644  1.00  0.00     0.074 A 
ATOM     36  C   UNL A   1      43.067  30.262  29.077  1.00  0.00     0.049 A 
ATOM     37  N   UNL A   1      43.440  27.422  28.122  1.00  0.00    -0.248 NA
ATOM     38  C   UNL A   1      41.223  26.993  28.717  1.00  0.00     0.031 C 
ATOM     39  C   UNL A   1      42.923  31.649  29.524  1.00  0.00     0.029 A 
ATOM     40  N   UNL A   1      44.345  30.202  28.580  1.00  0.00    -0.354 N 
ATOM     41  C   UNL A   1      43.128  26.104  27.815  1.00  0.00     0.074 A 
ATOM     42  C   UNL A   1      41.762  25.882  28.235  1.00  0.00     0.031 C 
ATOM     43  C   UNL A   1      44.069  32.308  29.282  1.00  0.00     0.029 A 
ATOM     44  C   UNL A   1      45.040  31.382  28.706  1.00  0.00     0.049 A 
ATOM     45  H   UNL A   1      44.727  29.392  28.172  1.00  0.00     0.167 HD
ATOM     46  C   UNL A   1      43.913  25.168  27.229  1.00  0.00     0.037 A 
ATOM     47  C   UNL A   1      46.323  31.671  28.414  1.00  0.00     0.037 A 
ATOM     48  C   UNL A   1      45.274  25.407  26.817  1.00  0.00     0.049 A 
ATOM     49  C   UNL A   1      47.195  30.595  27.823  1.00  0.00     0.074 A 
ATOM     50  C   UNL A   1      46.152  24.534  26.203  1.00  0.00     0.029 A 
ATOM     51  N   UNL A   1      45.954  26.605  26.986  1.00  0.00    -0.354 N 
ATOM     52  N   UNL A   1      46.884  29.355  27.522  1.00  0.00    -0.248 NA
ATOM     53  C   UNL A   1      48.590  30.952  27.533  1.00  0.00     0.031 C 
ATOM     54  C   UNL A   1      47.381  25.184  26.053  1.00  0.00     0.029 A 
ATOM     55  C   UNL A   1      47.251  26.485  26.513  1.00  0.00     0.049 A 
ATOM     56  H   UNL A   1      45.573  27.421  27.383  1.00  0.00     0.167 HD
ATOM     57  C   UNL A   1      48.037  28.794  26.980  1.00  0.00     0.074 A 
ATOM     58  C   UNL A   1      49.045  29.835  26.983  1.00  0.00     0.031 C 
ATOM     59  C   UNL A   1      48.240  27.535  26.519  1.00  0.00     0.037 A 
BRANCH  46  60
ATOM     60  C   UNL A   1      43.333  23.795  27.029  1.00  0.00     0.058 A 
ATOM     61  C   UNL A   1      43.251  22.863  28.075  1.00  0.00     0.135 A 
ATOM     62  C   UNL A   1      42.821  23.417  25.776  1.00  0.00     0.135 A 
ATOM     63  F   UNL A   1      43.741  23.162  29.289  1.00  0.00    -0.206 F 
ATOM     64  C   UNL A   1      42.706  21.597  27.882  1.00  0.00     0.059 A 
ATOM     65  C   UNL A   1      42.244  22.167  25.568  1.00  0.00     0.059 A 
ATOM     66  F   UNL A   1      42.876  24.267  24.739  1.00  0.00    -0.206 F 
ATOM     67  C   UNL A   1      42.204  21.260  26.624  1.00  0.00     0.060 A 
BRANCH  67  68
ATOM     68  S   UNL A   1      41.495  19.616  26.390  1.00  0.00     0.124 S 
ATOM     69  O   UNL A   1      42.278  19.116  25.264  1.00  0.00    -0.237 OA
ATOM     70  O   UNL A   1      41.760  18.977  27.677  1.00  0.00    -0.237 OA
ATOM     71  O   UNL A   1      40.090  19.887  26.106  1.00  0.00    -0.744 OA
ENDBRANCH  67  68
ENDBRANCH  46  60
BRANCH  47  72
ATOM     72  C   UNL A   1      46.862  33.032  28.688  1.00  0.00     0.058 A 
ATOM     73  C   UNL A   1      47.496  33.332  29.903  1.00  0.00     0.135 A 
ATOM     74  C   UNL A   1      46.751  34.062  27.740  1.00  0.00     0.135 A 
ATOM     75  F   UNL A   1      47.618  32.387  30.848  1.00  0.00    -0.206 F 
ATOM     76  C   UNL A   1      47.988  34.605  30.175  1.00  0.00     0.059 A 
ATOM     77  C   UNL A   1      47.262  35.335  27.975  1.00  0.00     0.059 A 
ATOM     78  F   UNL A   1      46.161  33.827  26.557  1.00  0.00    -0.206 F 
ATOM     79  C   UNL A   1      47.868  35.600  29.202  1.00  0.00     0.060 A 
BRANCH  79  80
ATOM     80  S   UNL A   1      48.545  37.238  29.550  1.00  0.00     0.124 S 
ATOM     81  O   UNL A   1      49.697  36.910  30.381  1.00  0.00    -0.237 OA
ATOM     82  O   UNL A   1      48.843  37.737  28.211  1.00  0.00    -0.237 OA
ATOM     83  O   UNL A   1      47.447  37.916  30.233  1.00  0.00    -0.744 OA
ENDBRANCH  79  80
ENDBRANCH  47  72
BRANCH  59  84
ATOM     84  C   UNL A   1      49.594  27.219  25.939  1.00  0.00     0.058 A 
ATOM     85  C   UNL A   1      50.642  26.725  26.730  1.00  0.00     0.135 A 
ATOM     86  C   UNL A   1      49.824  27.363  24.561  1.00  0.00     0.135 A 
ATOM     87  F   UNL A   1      50.478  26.575  28.054  1.00  0.00    -0.206 F 
ATOM     88  C   UNL A   1      51.880  26.409  26.179  1.00  0.00     0.059 A 
ATOM     89  C   UNL A   1      51.044  27.022  23.984  1.00  0.00     0.059 A 
ATOM     90  F   UNL A   1      48.853  27.822  23.756  1.00  0.00    -0.206 F 
ATOM     91  C   UNL A   1      52.070  26.557  24.805  1.00  0.00     0.060 A 
BRANCH  91  92
ATOM     92  S   UNL A   1      53.670  26.108  24.098  1.00  0.00     0.124 S 
ATOM     93  O   UNL A   1      53.947  24.847  24.777  1.00  0.00    -0.237 OA
ATOM     94  O   UNL A   1      53.364  26.009  22.675  1.00  0.00    -0.237 OA
ATOM     95  O   UNL A   1      54.533  27.226  24.473  1.00  0.00    -0.744 OA
ENDBRANCH  91  92
ENDBRANCH  59  84
ENDBRANCH  33  34
ENDBRANCH  26  28
ENDBRANCH  25  26
ENDBRANCH  24  25
ENDBRANCH   1  24
TORSDOF 18
ENDMDL
MODEL 2
REMARK VINA RESULT:     -11.0      6.343     12.204
REMARK SMILES COc1ccc(-c2cccc(/C=C\C(=O)OCCOC(=O)c3ccc(-c4c5nc(c(-c6c(F)cc(S(=O)(=O)[O-])cc6F)c6ccc([nH]6)c(-c6c(F)cc(S(=O)(=O)[O-])cc6F)c6nc(c(-c7c(F)cc(S(=O)(=O)[O-])cc7F)c7ccc4[nH]7)C=C6)C=C5)cc3)c2)c(Cl)c1OC
REMARK SMILES IDX 17 1 16 2 14 3 15 4 13 5 12 6 11 7 7 8 8 9 88 10 9 11 10 12
REMARK SMILES IDX 6 13 3 14 4 15 91 16 5 17 89 18 90 19 2 20 1 21 92 22 93 23
REMARK SMILES IDX 18 24 19 25 20 26 21 27 22 28 23 29 87 30 24 31 86 32 25 33
REMARK SMILES IDX 26 34 27 35 80 36 28 37 85 38 79 39 81 40 29 41 84 42 78 43
REMARK SMILES IDX 77 44 30 46 64 47 43 48 63 49 44 50 47 51 62 52 82 53 45 54
REMARK SMILES IDX 46 55 61 57 83 58 48 59 31 60 32 61 41 62 33 63 34 64 40 65
REMARK SMILES IDX 42 66 35 67 36 68 37 69 38 70 39 71 65 72 66 73 75 74 67 75
REMARK SMILES IDX 68 76 74 77 76 78 69 79 70 80 71 81 72 82 73 83 49 84 50 85
REMARK SMILES IDX 59 86 51 87 52 88 58 89 60 90 53 91 54 92 55 93 56 94 57 95
REMARK H PARENT 81 45 47 56
REMARK Flexibility Score: inf
ROOT
ATOM      1  C   UNL A   1      42.112  22.660  26.675  1.00  0.00     0.275 C 
ENDROOT
BRANCH   1   2
ATOM      2  O   UNL A   1      41.310  21.801  25.847  1.00  0.00    -0.459 OA
BRANCH   2   3
ATOM      3  C   UNL A   1      39.994  21.719  26.109  1.00  0.00     0.330 C 
ATOM      4  O   UNL A   1      39.304  20.720  25.977  1.00  0.00    -0.247 OA
BRANCH   3   5
ATOM      5  C   UNL A   1      39.456  22.947  26.744  1.00  0.00     0.094 C 
ATOM      6  C   UNL A   1      38.382  23.718  26.499  1.00  0.00     0.015 C 
BRANCH   6   7
ATOM      7  C   UNL A   1      37.271  23.499  25.570  1.00  0.00    -0.025 A 
ATOM      8  C   UNL A   1      34.870  23.219  25.276  1.00  0.00    -0.016 A 
ATOM      9  C   UNL A   1      35.081  22.854  23.941  1.00  0.00     0.009 A 
ATOM     10  C   UNL A   1      35.977  23.494  26.094  1.00  0.00     0.017 A 
ATOM     11  C   UNL A   1      36.356  22.930  23.394  1.00  0.00     0.001 A 
ATOM     12  C   UNL A   1      37.425  23.329  24.194  1.00  0.00     0.008 A 
BRANCH   8  13
ATOM     13  C   UNL A   1      33.508  23.404  25.789  1.00  0.00     0.004 A 
ATOM     14  C   UNL A   1      30.908  23.672  26.756  1.00  0.00     0.162 A 
ATOM     15  C   UNL A   1      31.431  22.400  26.505  1.00  0.00     0.051 A 
ATOM     16  C   UNL A   1      31.650  24.848  26.497  1.00  0.00     0.180 A 
ATOM     17  C   UNL A   1      32.730  22.268  26.039  1.00  0.00     0.014 A 
ATOM     18  C   UNL A   1      32.960  24.703  26.003  1.00  0.00     0.094 A 
ATOM     19  Cl  UNL A   1      33.966  26.061  25.570  1.00  0.00    -0.079 Cl
BRANCH  14  20
ATOM     20  O   UNL A   1      29.609  23.810  27.195  1.00  0.00    -0.493 OA
ATOM     21  C   UNL A   1      29.034  22.576  27.620  1.00  0.00     0.278 C 
ENDBRANCH  14  20
BRANCH  16  22
ATOM     22  O   UNL A   1      30.942  25.989  26.773  1.00  0.00    -0.491 OA
ATOM     23  C   UNL A   1      30.750  27.006  25.807  1.00  0.00     0.278 C 
ENDBRANCH  16  22
ENDBRANCH   8  13
ENDBRANCH   6   7
ENDBRANCH   3   5
ENDBRANCH   2   3
ENDBRANCH   1   2
BRANCH   1  24
ATOM     24  C   UNL A   1      43.141  23.417  25.825  1.00  0.00     0.275 C 
BRANCH  24  25
ATOM     25  O   UNL A   1      43.367  24.740  26.344  1.00  0.00    -0.458 OA
BRANCH  25  26
ATOM     26  C   UNL A   1      42.425  25.669  26.051  1.00  0.00     0.338 C 
ATOM     27  O   UNL A   1      41.818  25.800  25.000  1.00  0.00    -0.246 OA
BRANCH  26  28
ATOM     28  C   UNL A   1      42.114  26.425  27.275  1.00  0.00     0.060 A 
ATOM     29  C   UNL A   1      42.776  27.636  27.492  1.00  0.00     0.016 A 
ATOM     30  C   UNL A   1      41.180  25.953  28.198  1.00  0.00     0.016 A 
ATOM     31  C   UNL A   1      42.483  28.401  28.616  1.00  0.00     0.010 A 
ATOM     32  C   UNL A   1      40.892  26.716  29.332  1.00  0.00     0.010 A 
ATOM     33  C   UNL A   1      41.539  27.946  29.544  1.00  0.00    -0.014 A 
BRANCH  33  34
ATOM     34  C   UNL A   1      41.267  28.741  30.763  1.00  0.00     0.031 A 
ATOM     35  C   UNL A   1      40.144  29.736  30.758  1.00  0.00     0.074 A 
ATOM     36  C   UNL A   1      42.016  28.553  31.865  1.00  0.00     0.049 A 
ATOM     37  N   UNL A   1      39.771  30.564  31.698  1.00  0.00    -0.248 NA
ATOM     38  C   UNL A   1      39.333  29.808  29.533  1.00  0.00     0.031 C 
ATOM     39  C   UNL A   1      43.109  27.586  31.986  1.00  0.00     0.029 A 
ATOM     40  N   UNL A   1      41.975  29.166  33.091  1.00  0.00    -0.354 N 
ATOM     41  C   UNL A   1      38.691  31.265  31.176  1.00  0.00     0.074 A 
ATOM     42  C   UNL A   1      38.486  30.785  29.826  1.00  0.00     0.031 C 
ATOM     43  C   UNL A   1      43.636  27.672  33.219  1.00  0.00     0.029 A 
ATOM     44  C   UNL A   1      42.949  28.728  33.957  1.00  0.00     0.049 A 
ATOM     45  H   UNL A   1      41.312  29.853  33.329  1.00  0.00     0.167 HD
ATOM     46  C   UNL A   1      37.936  32.217  31.775  1.00  0.00     0.037 A 
ATOM     47  C   UNL A   1      43.266  29.153  35.197  1.00  0.00     0.037 A 
ATOM     48  C   UNL A   1      38.156  32.684  33.121  1.00  0.00     0.049 A 
ATOM     49  C   UNL A   1      42.454  30.259  35.816  1.00  0.00     0.074 A 
ATOM     50  C   UNL A   1      37.443  33.635  33.828  1.00  0.00     0.029 A 
ATOM     51  N   UNL A   1      39.169  32.239  33.959  1.00  0.00    -0.354 N 
ATOM     52  N   UNL A   1      41.423  30.904  35.319  1.00  0.00    -0.248 NA
ATOM     53  C   UNL A   1      42.844  30.698  37.163  1.00  0.00     0.031 C 
ATOM     54  C   UNL A   1      38.059  33.807  35.072  1.00  0.00     0.029 A 
ATOM     55  C   UNL A   1      39.117  32.916  35.167  1.00  0.00     0.049 A 
ATOM     56  H   UNL A   1      39.828  31.544  33.731  1.00  0.00     0.167 HD
ATOM     57  C   UNL A   1      41.025  31.803  36.303  1.00  0.00     0.074 A 
ATOM     58  C   UNL A   1      41.917  31.609  37.428  1.00  0.00     0.031 C 
ATOM     59  C   UNL A   1      40.012  32.704  36.279  1.00  0.00     0.037 A 
BRANCH  46  60
ATOM     60  C   UNL A   1      36.829  32.840  30.970  1.00  0.00     0.058 A 
ATOM     61  C   UNL A   1      35.481  32.511  31.182  1.00  0.00     0.135 A 
ATOM     62  C   UNL A   1      37.119  33.806  29.992  1.00  0.00     0.135 A 
ATOM     63  F   UNL A   1      35.145  31.580  32.090  1.00  0.00    -0.206 F 
ATOM     64  C   UNL A   1      34.462  33.097  30.437  1.00  0.00     0.059 A 
ATOM     65  C   UNL A   1      36.114  34.428  29.256  1.00  0.00     0.059 A 
ATOM     66  F   UNL A   1      38.390  34.156  29.745  1.00  0.00    -0.206 F 
ATOM     67  C   UNL A   1      34.790  34.056  29.477  1.00  0.00     0.060 A 
BRANCH  67  68
ATOM     68  S   UNL A   1      33.456  34.813  28.523  1.00  0.00     0.124 S 
ATOM     69  O   UNL A   1      33.080  33.721  27.630  1.00  0.00    -0.237 OA
ATOM     70  O   UNL A   1      32.483  35.146  29.560  1.00  0.00    -0.237 OA
ATOM     71  O   UNL A   1      34.099  35.954  27.882  1.00  0.00    -0.744 OA
ENDBRANCH  67  68
ENDBRANCH  46  60
BRANCH  47  72
ATOM     72  C   UNL A   1      44.412  28.541  35.924  1.00  0.00     0.058 A 
ATOM     73  C   UNL A   1      45.710  29.057  35.802  1.00  0.00     0.135 A 
ATOM     74  C   UNL A   1      44.230  27.424  36.756  1.00  0.00     0.135 A 
ATOM     75  F   UNL A   1      45.941  30.116  35.012  1.00  0.00    -0.206 F 
ATOM     76  C   UNL A   1      46.790  28.481  36.466  1.00  0.00     0.059 A 
ATOM     77  C   UNL A   1      45.288  26.849  37.454  1.00  0.00     0.059 A 
ATOM     78  F   UNL A   1      43.007  26.895  36.915  1.00  0.00    -0.206 F 
ATOM     79  C   UNL A   1      46.567  27.378  37.293  1.00  0.00     0.060 A 
BRANCH  79  80
ATOM     80  S   UNL A   1      47.969  26.663  38.179  1.00  0.00     0.124 S 
ATOM     81  O   UNL A   1      47.509  25.298  38.406  1.00  0.00    -0.237 OA
ATOM     82  O   UNL A   1      49.053  26.820  37.214  1.00  0.00    -0.237 OA
ATOM     83  O   UNL A   1      48.076  27.500  39.371  1.00  0.00    -0.744 OA
ENDBRANCH  79  80
ENDBRANCH  47  72
BRANCH  59  84
ATOM     84  C   UNL A   1      39.783  33.524  37.521  1.00  0.00     0.058 A 
ATOM     85  C   UNL A   1      40.487  34.714  37.764  1.00  0.00     0.135 A 
ATOM     86  C   UNL A   1      38.806  33.138  38.454  1.00  0.00     0.135 A 
ATOM     87  F   UNL A   1      41.437  35.125  36.910  1.00  0.00    -0.206 F 
ATOM     88  C   UNL A   1      40.247  35.479  38.902  1.00  0.00     0.059 A 
ATOM     89  C   UNL A   1      38.527  33.905  39.581  1.00  0.00     0.059 A 
ATOM     90  F   UNL A   1      38.096  32.015  38.265  1.00  0.00    -0.206 F 
ATOM     91  C   UNL A   1      39.263  35.069  39.802  1.00  0.00     0.060 A 
BRANCH  91  92
ATOM     92  S   UNL A   1      38.938  36.091  41.254  1.00  0.00     0.124 S 
ATOM     93  O   UNL A   1      38.554  37.358  40.641  1.00  0.00    -0.237 OA
ATOM     94  O   UNL A   1      37.865  35.356  41.917  1.00  0.00    -0.237 OA
ATOM     95  O   UNL A   1      40.216  36.097  41.960  1.00  0.00    -0.744 OA
ENDBRANCH  91  92
ENDBRANCH  59  84
ENDBRANCH  33  34
ENDBRANCH  26  28
ENDBRANCH  25  26
ENDBRANCH  24  25
ENDBRANCH   1  24
TORSDOF 18
ENDMDL
MODEL 3
REMARK VINA RESULT:     -11.0      4.137     11.469
REMARK SMILES COc1ccc(-c2cccc(/C=C\C(=O)OCCOC(=O)c3ccc(-c4c5nc(c(-c6c(F)cc(S(=O)(=O)[O-])cc6F)c6ccc([nH]6)c(-c6c(F)cc(S(=O)(=O)[O-])cc6F)c6nc(c(-c7c(F)cc(S(=O)(=O)[O-])cc7F)c7ccc4[nH]7)C=C6)C=C5)cc3)c2)c(Cl)c1OC
REMARK SMILES IDX 17 1 16 2 14 3 15 4 13 5 12 6 11 7 7 8 8 9 88 10 9 11 10 12
REMARK SMILES IDX 6 13 3 14 4 15 91 16 5 17 89 18 90 19 2 20 1 21 92 22 93 23
REMARK SMILES IDX 18 24 19 25 20 26 21 27 22 28 23 29 87 30 24 31 86 32 25 33
REMARK SMILES IDX 26 34 27 35 80 36 28 37 85 38 79 39 81 40 29 41 84 42 78 43
REMARK SMILES IDX 77 44 30 46 64 47 43 48 63 49 44 50 47 51 62 52 82 53 45 54
REMARK SMILES IDX 46 55 61 57 83 58 48 59 31 60 32 61 41 62 33 63 34 64 40 65
REMARK SMILES IDX 42 66 35 67 36 68 37 69 38 70 39 71 65 72 66 73 75 74 67 75
REMARK SMILES IDX 68 76 74 77 76 78 69 79 70 80 71 81 72 82 73 83 49 84 50 85
REMARK SMILES IDX 59 86 51 87 52 88 58 89 60 90 53 91 54 92 55 93 56 94 57 95
REMARK H PARENT 81 45 47 56
REMARK Flexibility Score: inf
ROOT
ATOM      1  C   UNL A   1      41.337  19.925  26.154  1.00  0.00     0.275 C 
ENDROOT
BRANCH   1   2
ATOM      2  O   UNL A   1      42.422  19.516  25.303  1.00  0.00    -0.459 OA
BRANCH   2   3
ATOM      3  C   UNL A   1      43.333  18.666  25.807  1.00  0.00     0.330 C 
ATOM      4  O   UNL A   1      43.095  17.726  26.550  1.00  0.00    -0.247 OA
BRANCH   3   5
ATOM      5  C   UNL A   1      44.689  18.875  25.242  1.00  0.00     0.094 C 
ATOM      6  C   UNL A   1      45.376  19.968  24.869  1.00  0.00     0.015 C 
BRANCH   6   7
ATOM      7  C   UNL A   1      45.037  21.383  25.043  1.00  0.00    -0.025 A 
ATOM      8  C   UNL A   1      45.059  23.330  26.506  1.00  0.00    -0.016 A 
ATOM      9  C   UNL A   1      44.241  24.015  25.599  1.00  0.00     0.009 A 
ATOM     10  C   UNL A   1      45.411  21.998  26.240  1.00  0.00     0.017 A 
ATOM     11  C   UNL A   1      43.929  23.437  24.375  1.00  0.00     0.001 A 
ATOM     12  C   UNL A   1      44.398  22.158  24.077  1.00  0.00     0.008 A 
BRANCH   8  13
ATOM     13  C   UNL A   1      45.615  24.023  27.673  1.00  0.00     0.004 A 
ATOM     14  C   UNL A   1      46.745  25.348  29.849  1.00  0.00     0.162 A 
ATOM     15  C   UNL A   1      47.456  25.244  28.650  1.00  0.00     0.051 A 
ATOM     16  C   UNL A   1      45.467  24.764  30.012  1.00  0.00     0.180 A 
ATOM     17  C   UNL A   1      46.886  24.598  27.564  1.00  0.00     0.014 A 
ATOM     18  C   UNL A   1      44.907  24.092  28.910  1.00  0.00     0.094 A 
ATOM     19  Cl  UNL A   1      43.374  23.261  28.984  1.00  0.00    -0.079 Cl
BRANCH  14  20
ATOM     20  O   UNL A   1      47.317  25.967  30.940  1.00  0.00    -0.493 OA
ATOM     21  C   UNL A   1      48.702  25.661  31.086  1.00  0.00     0.278 C 
ENDBRANCH  14  20
BRANCH  16  22
ATOM     22  O   UNL A   1      44.961  24.947  31.273  1.00  0.00    -0.491 OA
ATOM     23  C   UNL A   1      44.419  23.878  32.026  1.00  0.00     0.278 C 
ENDBRANCH  16  22
ENDBRANCH   8  13
ENDBRANCH   6   7
ENDBRANCH   3   5
ENDBRANCH   2   3
ENDBRANCH   1   2
BRANCH   1  24
ATOM     24  C   UNL A   1      41.254  21.456  26.218  1.00  0.00     0.275 C 
BRANCH  24  25
ATOM     25  O   UNL A   1      40.136  21.879  27.018  1.00  0.00    -0.458 OA
BRANCH  25  26
ATOM     26  C   UNL A   1      39.378  22.880  26.510  1.00  0.00     0.338 C 
ATOM     27  O   UNL A   1      38.341  22.771  25.875  1.00  0.00    -0.246 OA
BRANCH  26  28
ATOM     28  C   UNL A   1      39.916  24.166  26.983  1.00  0.00     0.060 A 
ATOM     29  C   UNL A   1      40.256  25.132  26.034  1.00  0.00     0.016 A 
ATOM     30  C   UNL A   1      40.082  24.421  28.346  1.00  0.00     0.016 A 
ATOM     31  C   UNL A   1      40.731  26.375  26.441  1.00  0.00     0.010 A 
ATOM     32  C   UNL A   1      40.568  25.665  28.754  1.00  0.00     0.010 A 
ATOM     33  C   UNL A   1      40.891  26.650  27.803  1.00  0.00    -0.014 A 
BRANCH  33  34
ATOM     34  C   UNL A   1      41.443  27.956  28.228  1.00  0.00     0.031 A 
ATOM     35  C   UNL A   1      42.917  28.207  28.111  1.00  0.00     0.074 A 
ATOM     36  C   UNL A   1      40.617  28.910  28.696  1.00  0.00     0.049 A 
ATOM     37  N   UNL A   1      43.607  29.257  28.470  1.00  0.00    -0.248 NA
ATOM     38  C   UNL A   1      43.723  27.131  27.510  1.00  0.00     0.031 C 
ATOM     39  C   UNL A   1      39.163  28.781  28.816  1.00  0.00     0.029 A 
ATOM     40  N   UNL A   1      40.880  30.173  29.160  1.00  0.00    -0.354 N 
ATOM     41  C   UNL A   1      44.928  28.967  28.151  1.00  0.00     0.074 A 
ATOM     42  C   UNL A   1      44.947  27.631  27.596  1.00  0.00     0.031 C 
ATOM     43  C   UNL A   1      38.663  29.920  29.323  1.00  0.00     0.029 A 
ATOM     44  C   UNL A   1      39.762  30.840  29.604  1.00  0.00     0.049 A 
ATOM     45  H   UNL A   1      41.783  30.566  29.174  1.00  0.00     0.167 HD
ATOM     46  C   UNL A   1      46.022  29.751  28.304  1.00  0.00     0.037 A 
ATOM     47  C   UNL A   1      39.646  32.046  30.195  1.00  0.00     0.037 A 
ATOM     48  C   UNL A   1      45.984  31.080  28.860  1.00  0.00     0.049 A 
ATOM     49  C   UNL A   1      40.885  32.871  30.414  1.00  0.00     0.074 A 
ATOM     50  C   UNL A   1      47.031  31.964  29.048  1.00  0.00     0.029 A 
ATOM     51  N   UNL A   1      44.839  31.712  29.325  1.00  0.00    -0.354 N 
ATOM     52  N   UNL A   1      42.129  32.594  30.093  1.00  0.00    -0.248 NA
ATOM     53  C   UNL A   1      40.712  34.172  31.073  1.00  0.00     0.031 C 
ATOM     54  C   UNL A   1      46.530  33.108  29.679  1.00  0.00     0.029 A 
ATOM     55  C   UNL A   1      45.159  32.965  29.826  1.00  0.00     0.049 A 
ATOM     56  H   UNL A   1      43.933  31.329  29.304  1.00  0.00     0.167 HD
ATOM     57  C   UNL A   1      42.879  33.697  30.486  1.00  0.00     0.074 A 
ATOM     58  C   UNL A   1      41.948  34.651  31.055  1.00  0.00     0.031 C 
ATOM     59  C   UNL A   1      44.216  33.904  30.383  1.00  0.00     0.037 A 
BRANCH  46  60
ATOM     60  C   UNL A   1      47.353  29.181  27.896  1.00  0.00     0.058 A 
ATOM     61  C   UNL A   1      47.726  29.054  26.549  1.00  0.00     0.135 A 
ATOM     62  C   UNL A   1      48.284  28.784  28.871  1.00  0.00     0.135 A 
ATOM     63  F   UNL A   1      46.869  29.399  25.573  1.00  0.00    -0.206 F 
ATOM     64  C   UNL A   1      48.962  28.532  26.181  1.00  0.00     0.059 A 
ATOM     65  C   UNL A   1      49.538  28.288  28.526  1.00  0.00     0.059 A 
ATOM     66  F   UNL A   1      47.979  28.880  30.174  1.00  0.00    -0.206 F 
ATOM     67  C   UNL A   1      49.862  28.153  27.178  1.00  0.00     0.060 A 
BRANCH  67  68
ATOM     68  S   UNL A   1      51.464  27.483  26.685  1.00  0.00     0.124 S 
ATOM     69  O   UNL A   1      52.303  28.678  26.719  1.00  0.00    -0.237 OA
ATOM     70  O   UNL A   1      51.725  26.498  27.731  1.00  0.00    -0.237 OA
ATOM     71  O   UNL A   1      51.211  26.931  25.359  1.00  0.00    -0.744 OA
ENDBRANCH  67  68
ENDBRANCH  46  60
BRANCH  47  72
ATOM     72  C   UNL A   1      38.309  32.534  30.634  1.00  0.00     0.058 A 
ATOM     73  C   UNL A   1      37.510  33.321  29.791  1.00  0.00     0.135 A 
ATOM     74  C   UNL A   1      37.805  32.224  31.907  1.00  0.00     0.135 A 
ATOM     75  F   UNL A   1      37.949  33.655  28.568  1.00  0.00    -0.206 F 
ATOM     76  C   UNL A   1      36.266  33.796  30.199  1.00  0.00     0.059 A 
ATOM     77  C   UNL A   1      36.552  32.661  32.327  1.00  0.00     0.059 A 
ATOM     78  F   UNL A   1      38.525  31.467  32.750  1.00  0.00    -0.206 F 
ATOM     79  C   UNL A   1      35.795  33.457  31.469  1.00  0.00     0.060 A 
BRANCH  79  80
ATOM     80  S   UNL A   1      34.164  34.046  31.972  1.00  0.00     0.124 S 
ATOM     81  O   UNL A   1      34.506  35.230  32.752  1.00  0.00    -0.237 OA
ATOM     82  O   UNL A   1      33.517  34.291  30.687  1.00  0.00    -0.237 OA
ATOM     83  O   UNL A   1      33.621  32.925  32.734  1.00  0.00    -0.744 OA
ENDBRANCH  79  80
ENDBRANCH  47  72
BRANCH  59  84
ATOM     84  C   UNL A   1      44.751  35.229  30.857  1.00  0.00     0.058 A 
ATOM     85  C   UNL A   1      45.247  35.406  32.157  1.00  0.00     0.135 A 
ATOM     86  C   UNL A   1      44.817  36.321  29.976  1.00  0.00     0.135 A 
ATOM     87  F   UNL A   1      45.202  34.398  33.042  1.00  0.00    -0.206 F 
ATOM     88  C   UNL A   1      45.767  36.627  32.576  1.00  0.00     0.059 A 
ATOM     89  C   UNL A   1      45.363  37.542  30.363  1.00  0.00     0.059 A 
ATOM     90  F   UNL A   1      44.366  36.204  28.717  1.00  0.00    -0.206 F 
ATOM     91  C   UNL A   1      45.824  37.688  31.671  1.00  0.00     0.060 A 
BRANCH  91  92
ATOM     92  S   UNL A   1      46.534  39.255  32.217  1.00  0.00     0.124 S 
ATOM     93  O   UNL A   1      47.049  38.900  33.535  1.00  0.00    -0.237 OA
ATOM     94  O   UNL A   1      47.540  39.515  31.191  1.00  0.00    -0.237 OA
ATOM     95  O   UNL A   1      45.393  40.166  32.213  1.00  0.00    -0.744 OA
ENDBRANCH  91  92
ENDBRANCH  59  84
ENDBRANCH  33  34
ENDBRANCH  26  28
ENDBRANCH  25  26
ENDBRANCH  24  25
ENDBRANCH   1  24
TORSDOF 18
ENDMDL
