MODEL 1
REMARK VINA RESULT:     -11.9      0.000      0.000
REMARK SMILES O=C(OCCOC(=O)c1ccccc1C[N@H+]1CCCC[C@@H]1CCn1cccn1)c1ccc(-c2c3nc(c(-c4c(F)cc(S(=O)(=O)[O-])cc4F)c4ccc([nH]4)c(-c4c(F)cc(S(=O)(=O)[O-])cc4F)c4nc(c(-c5c(F)cc(S(=O)(=O)[O-])cc5F)c5ccc2[nH]5)C=C4)C=C3)cc1
REMARK SMILES IDX 5 1 4 2 3 3 2 4 1 5 29 6 30 7 94 8 31 9 93 10 32 11 33 12
REMARK SMILES IDX 34 13 87 14 35 15 92 16 86 17 88 18 36 19 91 20 85 21 84 22
REMARK SMILES IDX 37 24 71 25 50 26 70 27 51 28 54 29 69 30 89 31 52 32 53 33
REMARK SMILES IDX 68 35 90 36 55 37 38 38 39 39 48 40 40 41 41 42 47 43 49 44
REMARK SMILES IDX 42 45 43 46 44 47 45 48 46 49 72 50 73 51 82 52 74 53 75 54
REMARK SMILES IDX 81 55 83 56 76 57 77 58 78 59 79 60 80 61 56 62 57 63 66 64
REMARK SMILES IDX 58 65 59 66 65 67 67 68 60 69 61 70 62 71 63 72 64 73 6 74
REMARK SMILES IDX 7 75 8 76 9 77 10 78 14 79 11 80 13 81 12 82 15 83 16 84
REMARK SMILES IDX 17 85 21 86 18 88 20 89 19 90 22 91 23 92 24 93 25 94 28 95
REMARK SMILES IDX 26 96 27 97
REMARK H PARENT 88 23 54 34 16 87
REMARK Flexibility Score: inf
ROOT
ATOM      1  C   UNL A   1      36.270  23.355  24.050  1.00  0.00     0.275 C 
ENDROOT
BRANCH   1   2
ATOM      2  C   UNL A   1      37.209  22.220  24.452  1.00  0.00     0.275 C 
BRANCH   2   3
ATOM      3  O   UNL A   1      37.622  22.165  25.832  1.00  0.00    -0.458 OA
BRANCH   3   4
ATOM      4  C   UNL A   1      38.934  22.209  26.152  1.00  0.00     0.338 C 
ATOM      5  O   UNL A   1      39.760  21.444  25.675  1.00  0.00    -0.246 OA
BRANCH   4   6
ATOM      6  C   UNL A   1      39.338  23.429  26.899  1.00  0.00     0.060 A 
ATOM      7  C   UNL A   1      38.620  24.628  26.879  1.00  0.00     0.016 A 
ATOM      8  C   UNL A   1      40.534  23.346  27.629  1.00  0.00     0.016 A 
ATOM      9  C   UNL A   1      39.153  25.764  27.470  1.00  0.00     0.010 A 
ATOM     10  C   UNL A   1      41.054  24.469  28.242  1.00  0.00     0.010 A 
ATOM     11  C   UNL A   1      40.401  25.689  28.093  1.00  0.00    -0.014 A 
BRANCH  11  12
ATOM     12  C   UNL A   1      40.982  26.897  28.662  1.00  0.00     0.031 A 
ATOM     13  C   UNL A   1      42.196  27.368  27.947  1.00  0.00     0.074 A 
ATOM     14  C   UNL A   1      40.362  27.590  29.642  1.00  0.00     0.049 A 
ATOM     15  N   UNL A   1      43.418  27.361  28.368  1.00  0.00    -0.248 NA
ATOM     16  C   UNL A   1      42.067  27.709  26.520  1.00  0.00     0.031 C 
ATOM     17  C   UNL A   1      39.037  27.326  30.213  1.00  0.00     0.029 A 
ATOM     18  N   UNL A   1      40.725  28.746  30.266  1.00  0.00    -0.354 N 
ATOM     19  C   UNL A   1      44.157  27.990  27.368  1.00  0.00     0.074 A 
ATOM     20  C   UNL A   1      43.339  27.937  26.187  1.00  0.00     0.031 C 
ATOM     21  C   UNL A   1      38.615  28.411  30.899  1.00  0.00     0.029 A 
ATOM     22  C   UNL A   1      39.685  29.390  30.938  1.00  0.00     0.049 A 
ATOM     23  H   UNL A   1      41.645  29.096  30.246  1.00  0.00     0.167 HD
ATOM     24  C   UNL A   1      45.215  28.789  27.692  1.00  0.00     0.037 A 
ATOM     25  C   UNL A   1      39.692  30.656  31.441  1.00  0.00     0.037 A 
ATOM     26  C   UNL A   1      45.671  28.504  29.036  1.00  0.00     0.049 A 
ATOM     27  C   UNL A   1      41.116  31.049  31.599  1.00  0.00     0.074 A 
ATOM     28  C   UNL A   1      46.094  27.374  29.711  1.00  0.00     0.029 A 
ATOM     29  N   UNL A   1      45.373  29.425  30.012  1.00  0.00    -0.354 N 
ATOM     30  N   UNL A   1      41.928  30.483  32.451  1.00  0.00    -0.248 NA
ATOM     31  C   UNL A   1      41.758  31.716  30.477  1.00  0.00     0.031 C 
ATOM     32  C   UNL A   1      45.566  27.511  31.030  1.00  0.00     0.029 A 
ATOM     33  C   UNL A   1      44.929  28.748  31.114  1.00  0.00     0.049 A 
ATOM     34  H   UNL A   1      45.463  30.402  29.930  1.00  0.00     0.167 HD
ATOM     35  C   UNL A   1      43.116  30.325  31.752  1.00  0.00     0.074 A 
ATOM     36  C   UNL A   1      42.975  31.174  30.570  1.00  0.00     0.031 C 
ATOM     37  C   UNL A   1      43.968  29.295  32.043  1.00  0.00     0.037 A 
BRANCH  24  38
ATOM     38  C   UNL A   1      45.511  30.126  27.021  1.00  0.00     0.058 A 
ATOM     39  C   UNL A   1      46.861  30.463  26.776  1.00  0.00     0.135 A 
ATOM     40  C   UNL A   1      44.601  31.203  26.923  1.00  0.00     0.135 A 
ATOM     41  F   UNL A   1      47.817  29.520  26.794  1.00  0.00    -0.206 F 
ATOM     42  C   UNL A   1      47.289  31.780  26.613  1.00  0.00     0.059 A 
ATOM     43  C   UNL A   1      45.001  32.518  26.715  1.00  0.00     0.059 A 
ATOM     44  F   UNL A   1      43.283  31.065  27.094  1.00  0.00    -0.206 F 
ATOM     45  C   UNL A   1      46.350  32.804  26.614  1.00  0.00     0.060 A 
BRANCH  45  46
ATOM     46  S   UNL A   1      46.903  34.514  26.520  1.00  0.00     0.124 S 
ATOM     47  O   UNL A   1      45.649  35.231  26.720  1.00  0.00    -0.237 OA
ATOM     48  O   UNL A   1      47.862  34.577  27.618  1.00  0.00    -0.237 OA
ATOM     49  O   UNL A   1      47.481  34.603  25.183  1.00  0.00    -0.744 OA
ENDBRANCH  45  46
ENDBRANCH  24  38
BRANCH  25  50
ATOM     50  C   UNL A   1      38.583  31.656  31.443  1.00  0.00     0.058 A 
ATOM     51  C   UNL A   1      37.927  32.035  30.254  1.00  0.00     0.135 A 
ATOM     52  C   UNL A   1      37.949  32.049  32.640  1.00  0.00     0.135 A 
ATOM     53  F   UNL A   1      38.442  31.693  29.064  1.00  0.00    -0.206 F 
ATOM     54  C   UNL A   1      36.696  32.708  30.254  1.00  0.00     0.059 A 
ATOM     55  C   UNL A   1      36.731  32.729  32.665  1.00  0.00     0.059 A 
ATOM     56  F   UNL A   1      38.449  31.701  33.835  1.00  0.00    -0.206 F 
ATOM     57  C   UNL A   1      36.094  33.033  31.469  1.00  0.00     0.060 A 
BRANCH  57  58
ATOM     58  S   UNL A   1      34.427  33.739  31.489  1.00  0.00     0.124 S 
ATOM     59  O   UNL A   1      33.754  32.900  32.474  1.00  0.00    -0.237 OA
ATOM     60  O   UNL A   1      34.678  35.119  31.891  1.00  0.00    -0.237 OA
ATOM     61  O   UNL A   1      33.971  33.569  30.111  1.00  0.00    -0.744 OA
ENDBRANCH  57  58
ENDBRANCH  25  50
BRANCH  37  62
ATOM     62  C   UNL A   1      43.775  28.549  33.336  1.00  0.00     0.058 A 
ATOM     63  C   UNL A   1      44.280  28.951  34.585  1.00  0.00     0.135 A 
ATOM     64  C   UNL A   1      42.919  27.438  33.320  1.00  0.00     0.135 A 
ATOM     65  F   UNL A   1      45.016  30.067  34.706  1.00  0.00    -0.206 F 
ATOM     66  C   UNL A   1      43.989  28.247  35.756  1.00  0.00     0.059 A 
ATOM     67  C   UNL A   1      42.588  26.741  34.477  1.00  0.00     0.059 A 
ATOM     68  F   UNL A   1      42.351  27.043  32.168  1.00  0.00    -0.206 F 
ATOM     69  C   UNL A   1      43.142  27.140  35.690  1.00  0.00     0.060 A 
BRANCH  69  70
ATOM     70  S   UNL A   1      42.727  26.253  37.206  1.00  0.00     0.124 S 
ATOM     71  O   UNL A   1      41.346  26.663  37.433  1.00  0.00    -0.237 OA
ATOM     72  O   UNL A   1      42.920  24.858  36.821  1.00  0.00    -0.237 OA
ATOM     73  O   UNL A   1      43.694  26.761  38.176  1.00  0.00    -0.744 OA
ENDBRANCH  69  70
ENDBRANCH  37  62
ENDBRANCH  11  12
ENDBRANCH   4   6
ENDBRANCH   3   4
ENDBRANCH   2   3
ENDBRANCH   1   2
BRANCH   1  74
ATOM     74  O   UNL A   1      35.140  22.844  23.331  1.00  0.00    -0.458 OA
BRANCH  74  75
ATOM     75  C   UNL A   1      34.107  23.713  23.159  1.00  0.00     0.338 C 
ATOM     76  O   UNL A   1      33.871  24.417  22.201  1.00  0.00    -0.246 OA
BRANCH  75  77
ATOM     77  C   UNL A   1      33.268  23.639  24.369  1.00  0.00     0.068 A 
ATOM     78  C   UNL A   1      32.575  22.446  24.615  1.00  0.00     0.016 A 
ATOM     79  C   UNL A   1      33.137  24.741  25.226  1.00  0.00     0.021 A 
ATOM     80  C   UNL A   1      31.798  22.310  25.764  1.00  0.00     0.001 A 
ATOM     81  C   UNL A   1      32.380  24.561  26.390  1.00  0.00     0.010 A 
ATOM     82  C   UNL A   1      31.709  23.368  26.659  1.00  0.00     0.001 A 
BRANCH  79  83
ATOM     83  C   UNL A   1      33.675  26.117  24.879  1.00  0.00     0.300 C 
BRANCH  83  84
ATOM     84  N   UNL A   1      33.004  27.260  25.552  1.00  0.00    -0.329 N 
ATOM     85  C   UNL A   1      34.010  28.056  26.288  1.00  0.00     0.262 C 
ATOM     86  C   UNL A   1      32.126  28.093  24.685  1.00  0.00     0.186 C 
ATOM     87  H   UNL A   1      32.338  26.856  26.211  1.00  0.00     0.348 HD
ATOM     88  C   UNL A   1      33.420  29.199  27.101  1.00  0.00     0.062 C 
ATOM     89  C   UNL A   1      31.502  29.236  25.523  1.00  0.00     0.065 C 
ATOM     90  C   UNL A   1      32.563  30.082  26.217  1.00  0.00     0.012 C 
BRANCH  86  91
ATOM     91  C   UNL A   1      30.986  27.249  24.044  1.00  0.00     0.088 C 
BRANCH  91  92
ATOM     92  C   UNL A   1      30.653  27.560  22.577  1.00  0.00     0.150 C 
BRANCH  92  93
ATOM     93  N   UNL A   1      29.663  28.601  22.375  1.00  0.00    -0.273 N 
ATOM     94  C   UNL A   1      28.427  28.692  22.951  1.00  0.00     0.108 A 
ATOM     95  N   UNL A   1      29.968  29.674  21.619  1.00  0.00    -0.182 NA
ATOM     96  C   UNL A   1      27.857  29.844  22.463  1.00  0.00     0.042 A 
ATOM     97  C   UNL A   1      28.867  30.430  21.680  1.00  0.00     0.135 A 
ENDBRANCH  92  93
ENDBRANCH  91  92
ENDBRANCH  86  91
ENDBRANCH  83  84
ENDBRANCH  79  83
ENDBRANCH  75  77
ENDBRANCH  74  75
ENDBRANCH   1  74
TORSDOF 19
ENDMDL
MODEL 2
REMARK VINA RESULT:     -11.8      3.087      9.358
REMARK SMILES O=C(OCCOC(=O)c1ccccc1C[N@H+]1CCCC[C@@H]1CCn1cccn1)c1ccc(-c2c3nc(c(-c4c(F)cc(S(=O)(=O)[O-])cc4F)c4ccc([nH]4)c(-c4c(F)cc(S(=O)(=O)[O-])cc4F)c4nc(c(-c5c(F)cc(S(=O)(=O)[O-])cc5F)c5ccc2[nH]5)C=C4)C=C3)cc1
REMARK SMILES IDX 5 1 4 2 3 3 2 4 1 5 29 6 30 7 94 8 31 9 93 10 32 11 33 12
REMARK SMILES IDX 34 13 87 14 35 15 92 16 86 17 88 18 36 19 91 20 85 21 84 22
REMARK SMILES IDX 37 24 71 25 50 26 70 27 51 28 54 29 69 30 89 31 52 32 53 33
REMARK SMILES IDX 68 35 90 36 55 37 38 38 39 39 48 40 40 41 41 42 47 43 49 44
REMARK SMILES IDX 42 45 43 46 44 47 45 48 46 49 72 50 73 51 82 52 74 53 75 54
REMARK SMILES IDX 81 55 83 56 76 57 77 58 78 59 79 60 80 61 56 62 57 63 66 64
REMARK SMILES IDX 58 65 59 66 65 67 67 68 60 69 61 70 62 71 63 72 64 73 6 74
REMARK SMILES IDX 7 75 8 76 9 77 10 78 14 79 11 80 13 81 12 82 15 83 16 84
REMARK SMILES IDX 17 85 21 86 18 88 20 89 19 90 22 91 23 92 24 93 25 94 28 95
REMARK SMILES IDX 26 96 27 97
REMARK H PARENT 88 23 54 34 16 87
REMARK Flexibility Score: inf
ROOT
ATOM      1  C   UNL A   1      31.913  28.830  26.891  1.00  0.00     0.275 C 
ENDROOT
BRANCH   1   2
ATOM      2  C   UNL A   1      32.794  30.070  26.762  1.00  0.00     0.275 C 
BRANCH   2   3
ATOM      3  O   UNL A   1      33.374  30.595  27.973  1.00  0.00    -0.458 OA
BRANCH   3   4
ATOM      4  C   UNL A   1      34.302  31.575  27.914  1.00  0.00     0.338 C 
ATOM      5  O   UNL A   1      34.019  32.763  27.994  1.00  0.00    -0.246 OA
BRANCH   4   6
ATOM      6  C   UNL A   1      35.703  31.096  28.032  1.00  0.00     0.060 A 
ATOM      7  C   UNL A   1      36.113  29.798  27.708  1.00  0.00     0.016 A 
ATOM      8  C   UNL A   1      36.637  32.015  28.534  1.00  0.00     0.016 A 
ATOM      9  C   UNL A   1      37.404  29.386  28.003  1.00  0.00     0.010 A 
ATOM     10  C   UNL A   1      37.932  31.615  28.803  1.00  0.00     0.010 A 
ATOM     11  C   UNL A   1      38.285  30.282  28.610  1.00  0.00    -0.014 A 
BRANCH  11  12
ATOM     12  C   UNL A   1      39.622  29.828  28.969  1.00  0.00     0.031 A 
ATOM     13  C   UNL A   1      39.875  29.821  30.432  1.00  0.00     0.074 A 
ATOM     14  C   UNL A   1      40.468  29.314  28.051  1.00  0.00     0.049 A 
ATOM     15  N   UNL A   1      40.662  30.595  31.106  1.00  0.00    -0.248 NA
ATOM     16  C   UNL A   1      39.007  28.985  31.279  1.00  0.00     0.031 C 
ATOM     17  C   UNL A   1      40.188  29.051  26.635  1.00  0.00     0.029 A 
ATOM     18  N   UNL A   1      41.726  28.809  28.199  1.00  0.00    -0.354 N 
ATOM     19  C   UNL A   1      40.613  30.122  32.416  1.00  0.00     0.074 A 
ATOM     20  C   UNL A   1      39.415  29.333  32.501  1.00  0.00     0.031 C 
ATOM     21  C   UNL A   1      41.132  28.226  26.132  1.00  0.00     0.029 A 
ATOM     22  C   UNL A   1      42.156  28.012  27.137  1.00  0.00     0.049 A 
ATOM     23  H   UNL A   1      42.284  28.993  28.988  1.00  0.00     0.167 HD
ATOM     24  C   UNL A   1      41.730  30.145  33.199  1.00  0.00     0.037 A 
ATOM     25  C   UNL A   1      43.247  27.197  27.112  1.00  0.00     0.037 A 
ATOM     26  C   UNL A   1      42.703  31.074  32.666  1.00  0.00     0.049 A 
ATOM     27  C   UNL A   1      44.160  27.666  28.187  1.00  0.00     0.074 A 
ATOM     28  C   UNL A   1      42.700  32.415  32.330  1.00  0.00     0.029 A 
ATOM     29  N   UNL A   1      43.808  30.542  32.044  1.00  0.00    -0.354 N 
ATOM     30  N   UNL A   1      44.764  28.823  28.163  1.00  0.00    -0.248 NA
ATOM     31  C   UNL A   1      44.008  27.072  29.505  1.00  0.00     0.031 C 
ATOM     32  C   UNL A   1      43.503  32.505  31.153  1.00  0.00     0.029 A 
ATOM     33  C   UNL A   1      44.021  31.238  30.887  1.00  0.00     0.049 A 
ATOM     34  H   UNL A   1      44.351  29.791  32.375  1.00  0.00     0.167 HD
ATOM     35  C   UNL A   1      44.655  29.304  29.460  1.00  0.00     0.074 A 
ATOM     36  C   UNL A   1      44.249  28.148  30.258  1.00  0.00     0.031 C 
ATOM     37  C   UNL A   1      44.610  30.648  29.707  1.00  0.00     0.037 A 
BRANCH  24  38
ATOM     38  C   UNL A   1      42.146  29.007  34.126  1.00  0.00     0.058 A 
ATOM     39  C   UNL A   1      42.239  27.706  33.583  1.00  0.00     0.135 A 
ATOM     40  C   UNL A   1      42.124  29.063  35.538  1.00  0.00     0.135 A 
ATOM     41  F   UNL A   1      42.314  27.522  32.255  1.00  0.00    -0.206 F 
ATOM     42  C   UNL A   1      42.150  26.556  34.367  1.00  0.00     0.059 A 
ATOM     43  C   UNL A   1      42.081  27.930  36.341  1.00  0.00     0.059 A 
ATOM     44  F   UNL A   1      42.068  30.209  36.224  1.00  0.00    -0.206 F 
ATOM     45  C   UNL A   1      42.041  26.682  35.746  1.00  0.00     0.060 A 
BRANCH  45  46
ATOM     46  S   UNL A   1      41.810  25.211  36.755  1.00  0.00     0.124 S 
ATOM     47  O   UNL A   1      43.180  24.926  37.164  1.00  0.00    -0.237 OA
ATOM     48  O   UNL A   1      40.917  25.704  37.799  1.00  0.00    -0.237 OA
ATOM     49  O   UNL A   1      41.213  24.259  35.825  1.00  0.00    -0.744 OA
ENDBRANCH  45  46
ENDBRANCH  24  38
BRANCH  25  50
ATOM     50  C   UNL A   1      43.381  25.849  26.484  1.00  0.00     0.058 A 
ATOM     51  C   UNL A   1      44.313  25.602  25.456  1.00  0.00     0.135 A 
ATOM     52  C   UNL A   1      42.801  24.704  27.069  1.00  0.00     0.135 A 
ATOM     53  F   UNL A   1      44.931  26.626  24.848  1.00  0.00    -0.206 F 
ATOM     54  C   UNL A   1      44.688  24.305  25.074  1.00  0.00     0.059 A 
ATOM     55  C   UNL A   1      43.150  23.405  26.699  1.00  0.00     0.059 A 
ATOM     56  F   UNL A   1      41.941  24.809  28.093  1.00  0.00    -0.206 F 
ATOM     57  C   UNL A   1      44.114  23.210  25.718  1.00  0.00     0.060 A 
BRANCH  57  58
ATOM     58  S   UNL A   1      44.715  21.539  25.365  1.00  0.00     0.124 S 
ATOM     59  O   UNL A   1      46.087  21.599  25.857  1.00  0.00    -0.237 OA
ATOM     60  O   UNL A   1      43.797  20.708  26.135  1.00  0.00    -0.237 OA
ATOM     61  O   UNL A   1      44.580  21.431  23.913  1.00  0.00    -0.744 OA
ENDBRANCH  57  58
ENDBRANCH  25  50
BRANCH  37  62
ATOM     62  C   UNL A   1      45.019  31.593  28.609  1.00  0.00     0.058 A 
ATOM     63  C   UNL A   1      44.224  31.937  27.500  1.00  0.00     0.135 A 
ATOM     64  C   UNL A   1      46.230  32.283  28.767  1.00  0.00     0.135 A 
ATOM     65  F   UNL A   1      43.003  31.406  27.335  1.00  0.00    -0.206 F 
ATOM     66  C   UNL A   1      44.642  32.885  26.564  1.00  0.00     0.059 A 
ATOM     67  C   UNL A   1      46.651  33.254  27.865  1.00  0.00     0.059 A 
ATOM     68  F   UNL A   1      47.003  32.048  29.840  1.00  0.00    -0.206 F 
ATOM     69  C   UNL A   1      45.861  33.538  26.755  1.00  0.00     0.060 A 
BRANCH  69  70
ATOM     70  S   UNL A   1      46.385  34.796  25.572  1.00  0.00     0.124 S 
ATOM     71  O   UNL A   1      47.777  34.433  25.334  1.00  0.00    -0.237 OA
ATOM     72  O   UNL A   1      45.473  34.580  24.453  1.00  0.00    -0.237 OA
ATOM     73  O   UNL A   1      46.183  36.050  26.295  1.00  0.00    -0.744 OA
ENDBRANCH  69  70
ENDBRANCH  37  62
ENDBRANCH  11  12
ENDBRANCH   4   6
ENDBRANCH   3   4
ENDBRANCH   2   3
ENDBRANCH   1   2
BRANCH   1  74
ATOM     74  O   UNL A   1      32.629  27.656  26.484  1.00  0.00    -0.458 OA
BRANCH  74  75
ATOM     75  C   UNL A   1      31.863  26.582  26.152  1.00  0.00     0.338 C 
ATOM     76  O   UNL A   1      31.031  26.017  26.828  1.00  0.00    -0.246 OA
BRANCH  75  77
ATOM     77  C   UNL A   1      32.205  26.213  24.766  1.00  0.00     0.068 A 
ATOM     78  C   UNL A   1      31.506  26.845  23.728  1.00  0.00     0.016 A 
ATOM     79  C   UNL A   1      33.171  25.234  24.495  1.00  0.00     0.021 A 
ATOM     80  C   UNL A   1      31.816  26.561  22.399  1.00  0.00     0.001 A 
ATOM     81  C   UNL A   1      33.487  24.998  23.152  1.00  0.00     0.010 A 
ATOM     82  C   UNL A   1      32.816  25.642  22.111  1.00  0.00     0.001 A 
BRANCH  79  83
ATOM     83  C   UNL A   1      33.780  24.363  25.579  1.00  0.00     0.300 C 
BRANCH  83  84
ATOM     84  N   UNL A   1      34.950  23.545  25.166  1.00  0.00    -0.329 N 
ATOM     85  C   UNL A   1      36.171  24.070  25.815  1.00  0.00     0.262 C 
ATOM     86  C   UNL A   1      34.795  22.072  25.326  1.00  0.00     0.186 C 
ATOM     87  H   UNL A   1      35.030  23.646  24.154  1.00  0.00     0.348 HD
ATOM     88  C   UNL A   1      37.451  23.368  25.384  1.00  0.00     0.062 C 
ATOM     89  C   UNL A   1      36.088  21.360  24.857  1.00  0.00     0.065 C 
ATOM     90  C   UNL A   1      37.322  21.872  25.589  1.00  0.00     0.012 C 
BRANCH  86  91
ATOM     91  C   UNL A   1      33.587  21.531  24.508  1.00  0.00     0.088 C 
BRANCH  91  92
ATOM     92  C   UNL A   1      32.940  20.238  25.025  1.00  0.00     0.150 C 
BRANCH  92  93
ATOM     93  N   UNL A   1      33.147  19.067  24.195  1.00  0.00    -0.273 N 
ATOM     94  C   UNL A   1      34.072  18.077  24.376  1.00  0.00     0.108 A 
ATOM     95  N   UNL A   1      32.309  18.819  23.170  1.00  0.00    -0.182 NA
ATOM     96  C   UNL A   1      33.887  17.183  23.348  1.00  0.00     0.042 A 
ATOM     97  C   UNL A   1      32.760  17.668  22.661  1.00  0.00     0.135 A 
ENDBRANCH  92  93
ENDBRANCH  91  92
ENDBRANCH  86  91
ENDBRANCH  83  84
ENDBRANCH  79  83
ENDBRANCH  75  77
ENDBRANCH  74  75
ENDBRANCH   1  74
TORSDOF 19
ENDMDL
MODEL 3
REMARK VINA RESULT:     -11.6      2.918      9.213
REMARK SMILES O=C(OCCOC(=O)c1ccccc1C[N@H+]1CCCC[C@@H]1CCn1cccn1)c1ccc(-c2c3nc(c(-c4c(F)cc(S(=O)(=O)[O-])cc4F)c4ccc([nH]4)c(-c4c(F)cc(S(=O)(=O)[O-])cc4F)c4nc(c(-c5c(F)cc(S(=O)(=O)[O-])cc5F)c5ccc2[nH]5)C=C4)C=C3)cc1
REMARK SMILES IDX 5 1 4 2 3 3 2 4 1 5 29 6 30 7 94 8 31 9 93 10 32 11 33 12
REMARK SMILES IDX 34 13 87 14 35 15 92 16 86 17 88 18 36 19 91 20 85 21 84 22
REMARK SMILES IDX 37 24 71 25 50 26 70 27 51 28 54 29 69 30 89 31 52 32 53 33
REMARK SMILES IDX 68 35 90 36 55 37 38 38 39 39 48 40 40 41 41 42 47 43 49 44
REMARK SMILES IDX 42 45 43 46 44 47 45 48 46 49 72 50 73 51 82 52 74 53 75 54
REMARK SMILES IDX 81 55 83 56 76 57 77 58 78 59 79 60 80 61 56 62 57 63 66 64
REMARK SMILES IDX 58 65 59 66 65 67 67 68 60 69 61 70 62 71 63 72 64 73 6 74
REMARK SMILES IDX 7 75 8 76 9 77 10 78 14 79 11 80 13 81 12 82 15 83 16 84
REMARK SMILES IDX 17 85 21 86 18 88 20 89 19 90 22 91 23 92 24 93 25 94 28 95
REMARK SMILES IDX 26 96 27 97
REMARK H PARENT 88 23 54 34 16 87
REMARK Flexibility Score: inf
ROOT
ATOM      1  C   UNL A   1      31.913  29.589  25.755  1.00  0.00     0.275 C 
ENDROOT
BRANCH   1   2
ATOM      2  C   UNL A   1      32.486  30.366  26.939  1.00  0.00     0.275 C 
BRANCH   2   3
ATOM      3  O   UNL A   1      33.921  30.479  27.019  1.00  0.00    -0.458 OA
BRANCH   3   4
ATOM      4  C   UNL A   1      34.485  31.421  27.807  1.00  0.00     0.338 C 
ATOM      5  O   UNL A   1      33.871  32.391  28.227  1.00  0.00    -0.246 OA
BRANCH   4   6
ATOM      6  C   UNL A   1      35.815  31.041  28.352  1.00  0.00     0.060 A 
ATOM      7  C   UNL A   1      36.833  31.959  28.631  1.00  0.00     0.016 A 
ATOM      8  C   UNL A   1      36.038  29.671  28.555  1.00  0.00     0.016 A 
ATOM      9  C   UNL A   1      38.097  31.505  28.981  1.00  0.00     0.010 A 
ATOM     10  C   UNL A   1      37.288  29.217  28.931  1.00  0.00     0.010 A 
ATOM     11  C   UNL A   1      38.330  30.131  29.065  1.00  0.00    -0.014 A 
BRANCH  11  12
ATOM     12  C   UNL A   1      39.672  29.659  29.377  1.00  0.00     0.031 A 
ATOM     13  C   UNL A   1      39.934  29.528  30.833  1.00  0.00     0.074 A 
ATOM     14  C   UNL A   1      40.517  29.231  28.413  1.00  0.00     0.049 A 
ATOM     15  N   UNL A   1      40.719  30.247  31.567  1.00  0.00    -0.248 NA
ATOM     16  C   UNL A   1      39.077  28.615  31.609  1.00  0.00     0.031 C 
ATOM     17  C   UNL A   1      40.230  29.089  26.982  1.00  0.00     0.029 A 
ATOM     18  N   UNL A   1      41.779  28.726  28.511  1.00  0.00    -0.354 N 
ATOM     19  C   UNL A   1      40.681  29.664  32.831  1.00  0.00     0.074 A 
ATOM     20  C   UNL A   1      39.489  28.861  32.854  1.00  0.00     0.031 C 
ATOM     21  C   UNL A   1      41.178  28.317  26.405  1.00  0.00     0.029 A 
ATOM     22  C   UNL A   1      42.209  28.027  27.382  1.00  0.00     0.049 A 
ATOM     23  H   UNL A   1      42.340  28.846  29.311  1.00  0.00     0.167 HD
ATOM     24  C   UNL A   1      41.803  29.628  33.607  1.00  0.00     0.037 A 
ATOM     25  C   UNL A   1      43.306  27.226  27.282  1.00  0.00     0.037 A 
ATOM     26  C   UNL A   1      42.766  30.608  33.151  1.00  0.00     0.049 A 
ATOM     27  C   UNL A   1      44.222  27.608  28.389  1.00  0.00     0.074 A 
ATOM     28  C   UNL A   1      42.751  31.972  32.931  1.00  0.00     0.029 A 
ATOM     29  N   UNL A   1      43.871  30.140  32.480  1.00  0.00    -0.354 N 
ATOM     30  N   UNL A   1      44.817  28.768  28.460  1.00  0.00    -0.248 NA
ATOM     31  C   UNL A   1      44.082  26.901  29.652  1.00  0.00     0.031 C 
ATOM     32  C   UNL A   1      43.546  32.169  31.762  1.00  0.00     0.029 A 
ATOM     33  C   UNL A   1      44.072  30.934  31.385  1.00  0.00     0.049 A 
ATOM     34  H   UNL A   1      44.422  29.367  32.743  1.00  0.00     0.167 HD
ATOM     35  C   UNL A   1      44.712  29.134  29.794  1.00  0.00     0.074 A 
ATOM     36  C   UNL A   1      44.320  27.911  30.493  1.00  0.00     0.031 C 
ATOM     37  C   UNL A   1      44.658  30.452  30.156  1.00  0.00     0.037 A 
BRANCH  24  38
ATOM     38  C   UNL A   1      42.232  28.418  34.431  1.00  0.00     0.058 A 
ATOM     39  C   UNL A   1      42.512  28.612  35.802  1.00  0.00     0.135 A 
ATOM     40  C   UNL A   1      42.700  27.197  33.894  1.00  0.00     0.135 A 
ATOM     41  F   UNL A   1      42.081  29.711  36.440  1.00  0.00    -0.206 F 
ATOM     42  C   UNL A   1      43.327  27.747  36.532  1.00  0.00     0.059 A 
ATOM     43  C   UNL A   1      43.474  26.298  34.617  1.00  0.00     0.059 A 
ATOM     44  F   UNL A   1      42.500  26.832  32.624  1.00  0.00    -0.206 F 
ATOM     45  C   UNL A   1      43.827  26.606  35.918  1.00  0.00     0.060 A 
BRANCH  45  46
ATOM     46  S   UNL A   1      44.970  25.545  36.815  1.00  0.00     0.124 S 
ATOM     47  O   UNL A   1      45.912  26.523  37.346  1.00  0.00    -0.237 OA
ATOM     48  O   UNL A   1      44.086  24.910  37.787  1.00  0.00    -0.237 OA
ATOM     49  O   UNL A   1      45.489  24.661  35.776  1.00  0.00    -0.744 OA
ENDBRANCH  45  46
ENDBRANCH  24  38
BRANCH  25  50
ATOM     50  C   UNL A   1      43.446  25.937  26.540  1.00  0.00     0.058 A 
ATOM     51  C   UNL A   1      44.398  25.776  25.513  1.00  0.00     0.135 A 
ATOM     52  C   UNL A   1      42.849  24.749  27.010  1.00  0.00     0.135 A 
ATOM     53  F   UNL A   1      45.034  26.845  25.011  1.00  0.00    -0.206 F 
ATOM     54  C   UNL A   1      44.774  24.516  25.026  1.00  0.00     0.059 A 
ATOM     55  C   UNL A   1      43.199  23.485  26.533  1.00  0.00     0.059 A 
ATOM     56  F   UNL A   1      41.969  24.769  28.021  1.00  0.00    -0.206 F 
ATOM     57  C   UNL A   1      44.182  23.371  25.559  1.00  0.00     0.060 A 
BRANCH  57  58
ATOM     58  S   UNL A   1      44.783  21.734  25.071  1.00  0.00     0.124 S 
ATOM     59  O   UNL A   1      43.845  20.851  25.755  1.00  0.00    -0.237 OA
ATOM     60  O   UNL A   1      44.669  21.782  23.617  1.00  0.00    -0.237 OA
ATOM     61  O   UNL A   1      46.151  21.708  25.585  1.00  0.00    -0.744 OA
ENDBRANCH  57  58
ENDBRANCH  25  50
BRANCH  37  62
ATOM     62  C   UNL A   1      45.053  31.491  29.141  1.00  0.00     0.058 A 
ATOM     63  C   UNL A   1      46.374  31.885  28.860  1.00  0.00     0.135 A 
ATOM     64  C   UNL A   1      44.041  32.013  28.322  1.00  0.00     0.135 A 
ATOM     65  F   UNL A   1      47.410  31.349  29.522  1.00  0.00    -0.206 F 
ATOM     66  C   UNL A   1      46.666  32.798  27.844  1.00  0.00     0.059 A 
ATOM     67  C   UNL A   1      44.312  32.898  27.284  1.00  0.00     0.059 A 
ATOM     68  F   UNL A   1      42.767  31.625  28.497  1.00  0.00    -0.206 F 
ATOM     69  C   UNL A   1      45.626  33.302  27.062  1.00  0.00     0.060 A 
BRANCH  69  70
ATOM     70  S   UNL A   1      46.002  34.448  25.720  1.00  0.00     0.124 S 
ATOM     71  O   UNL A   1      45.647  35.735  26.307  1.00  0.00    -0.237 OA
ATOM     72  O   UNL A   1      47.428  34.222  25.500  1.00  0.00    -0.237 OA
ATOM     73  O   UNL A   1      45.135  33.998  24.633  1.00  0.00    -0.744 OA
ENDBRANCH  69  70
ENDBRANCH  37  62
ENDBRANCH  11  12
ENDBRANCH   4   6
ENDBRANCH   3   4
ENDBRANCH   2   3
ENDBRANCH   1   2
BRANCH   1  74
ATOM     74  O   UNL A   1      32.744  28.464  25.440  1.00  0.00    -0.458 OA
BRANCH  74  75
ATOM     75  C   UNL A   1      32.124  27.253  25.442  1.00  0.00     0.338 C 
ATOM     76  O   UNL A   1      31.518  26.723  26.348  1.00  0.00    -0.246 OA
BRANCH  75  77
ATOM     77  C   UNL A   1      32.293  26.672  24.097  1.00  0.00     0.068 A 
ATOM     78  C   UNL A   1      31.335  26.986  23.122  1.00  0.00     0.016 A 
ATOM     79  C   UNL A   1      33.357  25.805  23.812  1.00  0.00     0.021 A 
ATOM     80  C   UNL A   1      31.469  26.494  21.825  1.00  0.00     0.001 A 
ATOM     81  C   UNL A   1      33.484  25.358  22.492  1.00  0.00     0.010 A 
ATOM     82  C   UNL A   1      32.552  25.686  21.507  1.00  0.00     0.001 A 
BRANCH  79  83
ATOM     83  C   UNL A   1      34.276  25.256  24.888  1.00  0.00     0.300 C 
BRANCH  83  84
ATOM     84  N   UNL A   1      34.116  23.811  25.197  1.00  0.00    -0.329 N 
ATOM     85  C   UNL A   1      32.722  23.550  25.620  1.00  0.00     0.262 C 
ATOM     86  C   UNL A   1      34.589  22.870  24.144  1.00  0.00     0.186 C 
ATOM     87  H   UNL A   1      34.751  23.609  25.970  1.00  0.00     0.348 HD
ATOM     88  C   UNL A   1      32.468  22.115  26.059  1.00  0.00     0.062 C 
ATOM     89  C   UNL A   1      34.357  21.411  24.609  1.00  0.00     0.065 C 
ATOM     90  C   UNL A   1      32.901  21.151  24.973  1.00  0.00     0.012 C 
BRANCH  86  91
ATOM     91  C   UNL A   1      36.100  23.073  23.831  1.00  0.00     0.088 C 
BRANCH  91  92
ATOM     92  C   UNL A   1      37.061  22.025  24.410  1.00  0.00     0.150 C 
BRANCH  92  93
ATOM     93  N   UNL A   1      37.973  22.515  25.426  1.00  0.00    -0.273 N 
ATOM     94  C   UNL A   1      39.029  21.848  25.981  1.00  0.00     0.108 A 
ATOM     95  N   UNL A   1      37.882  23.791  25.846  1.00  0.00    -0.182 NA
ATOM     96  C   UNL A   1      39.597  22.711  26.889  1.00  0.00     0.042 A 
ATOM     97  C   UNL A   1      38.875  23.907  26.732  1.00  0.00     0.135 A 
ENDBRANCH  92  93
ENDBRANCH  91  92
ENDBRANCH  86  91
ENDBRANCH  83  84
ENDBRANCH  79  83
ENDBRANCH  75  77
ENDBRANCH  74  75
ENDBRANCH   1  74
TORSDOF 19
ENDMDL
