MODEL 1
REMARK VINA RESULT:     -13.4      0.000      0.000
REMARK SMILES Cc1cc([N+](=O)[O-])ccc1NC(=O)[C@@H]1[C@@H](C(=O)OCCOC(=O)c2ccc(-c3c4nc(c(-c5c(F)cc(S(=O)(=O)[O-])cc5F)c5ccc([nH]5)c(-c5c(F)cc(S(=O)(=O)[O-])cc5F)c5nc(c(-c6c(F)cc(S(=O)(=O)[O-])cc6F)c6ccc3[nH]6)C=C5)C=C4)cc2)[C@H]2C=C[C@@H]1C2
REMARK SMILES IDX 19 1 18 2 16 3 17 4 15 5 14 6 93 7 90 8 92 9 94 10 91 11
REMARK SMILES IDX 12 12 11 13 13 15 10 16 1 17 2 18 3 19 4 20 9 21 8 22 5 23
REMARK SMILES IDX 6 24 7 25 20 26 21 27 22 28 23 29 24 30 25 31 89 32 26 33
REMARK SMILES IDX 88 34 27 35 28 36 29 37 82 38 30 39 87 40 81 41 83 42 31 43
REMARK SMILES IDX 86 44 80 45 79 46 32 48 66 49 45 50 65 51 46 52 49 53 64 54
REMARK SMILES IDX 84 55 47 56 48 57 63 59 85 60 50 61 33 62 34 63 43 64 35 65
REMARK SMILES IDX 36 66 42 67 44 68 37 69 38 70 39 71 40 72 41 73 67 74 68 75
REMARK SMILES IDX 77 76 69 77 70 78 76 79 78 80 71 81 72 82 73 83 74 84 75 85
REMARK SMILES IDX 51 86 52 87 61 88 53 89 54 90 60 91 62 92 55 93 56 94 57 95
REMARK SMILES IDX 58 96 59 97
REMARK H PARENT 11 14 83 47 49 58
REMARK Flexibility Score: inf
ROOT
ATOM      1  C   UNL A   1      32.999  27.792  26.447  1.00  0.00     0.274 C 
ENDROOT
BRANCH   1   2
ATOM      2  O   UNL A   1      33.747  26.786  25.721  1.00  0.00    -0.462 OA
BRANCH   2   3
ATOM      3  C   UNL A   1      33.141  25.557  25.735  1.00  0.00     0.310 C 
ATOM      4  O   UNL A   1      32.402  25.208  26.649  1.00  0.00    -0.252 OA
BRANCH   3   5
ATOM      5  C   UNL A   1      33.624  24.629  24.623  1.00  0.00     0.119 C 
ATOM      6  C   UNL A   1      33.111  23.132  24.549  1.00  0.00     0.100 C 
ATOM      7  C   UNL A   1      34.450  22.335  24.472  1.00  0.00     0.025 C 
ATOM      8  C   UNL A   1      35.164  24.416  24.800  1.00  0.00     0.027 C 
ATOM      9  C   UNL A   1      35.043  22.360  25.854  1.00  0.00    -0.027 C 
ATOM     10  C   UNL A   1      35.400  23.314  23.777  1.00  0.00     0.017 C 
ATOM     11  C   UNL A   1      35.469  23.612  26.057  1.00  0.00    -0.027 C 
BRANCH   6  12
ATOM     12  C   UNL A   1      32.283  22.768  23.326  1.00  0.00     0.228 C 
ATOM     13  N   UNL A   1      31.449  23.657  22.693  1.00  0.00    -0.326 N 
ATOM     14  H   UNL A   1      30.995  23.240  21.925  1.00  0.00     0.169 HD
ATOM     15  O   UNL A   1      32.290  21.608  22.895  1.00  0.00    -0.274 OA
BRANCH  13  16
ATOM     16  C   UNL A   1      31.065  25.015  22.848  1.00  0.00     0.044 A 
ATOM     17  C   UNL A   1      32.616  25.741  20.889  1.00  0.00     0.047 C 
ATOM     18  C   UNL A   1      31.642  26.006  22.009  1.00  0.00    -0.021 A 
ATOM     19  C   UNL A   1      31.296  27.371  22.181  1.00  0.00     0.091 A 
ATOM     20  C   UNL A   1      30.384  27.760  23.162  1.00  0.00     0.269 A 
ATOM     21  C   UNL A   1      30.143  25.450  23.809  1.00  0.00     0.033 A 
ATOM     22  C   UNL A   1      29.785  26.799  23.963  1.00  0.00     0.088 A 
BRANCH  20  23
ATOM     23  N   UNL A   1      30.080  29.179  23.366  1.00  0.00     0.062 N 
ATOM     24  O   UNL A   1      30.534  29.724  24.384  1.00  0.00    -0.258 OA
ATOM     25  O   UNL A   1      29.389  29.754  22.514  1.00  0.00    -0.258 OA
ENDBRANCH  20  23
ENDBRANCH  13  16
ENDBRANCH   6  12
ENDBRANCH   3   5
ENDBRANCH   2   3
ENDBRANCH   1   2
BRANCH   1  26
ATOM     26  C   UNL A   1      33.764  29.118  26.614  1.00  0.00     0.275 C 
BRANCH  26  27
ATOM     27  O   UNL A   1      34.876  29.091  27.529  1.00  0.00    -0.458 OA
BRANCH  27  28
ATOM     28  C   UNL A   1      35.460  30.302  27.757  1.00  0.00     0.338 C 
ATOM     29  O   UNL A   1      34.849  31.344  27.863  1.00  0.00    -0.246 OA
BRANCH  28  30
ATOM     30  C   UNL A   1      36.856  30.008  28.186  1.00  0.00     0.060 A 
ATOM     31  C   UNL A   1      37.041  29.292  29.373  1.00  0.00     0.016 A 
ATOM     32  C   UNL A   1      37.888  30.112  27.245  1.00  0.00     0.016 A 
ATOM     33  C   UNL A   1      38.201  28.534  29.542  1.00  0.00     0.010 A 
ATOM     34  C   UNL A   1      39.023  29.344  27.405  1.00  0.00     0.010 A 
ATOM     35  C   UNL A   1      39.159  28.519  28.527  1.00  0.00    -0.014 A 
BRANCH  35  36
ATOM     36  C   UNL A   1      40.434  27.825  28.645  1.00  0.00     0.031 A 
ATOM     37  C   UNL A   1      40.648  26.415  28.240  1.00  0.00     0.074 A 
ATOM     38  C   UNL A   1      41.429  28.583  29.146  1.00  0.00     0.049 A 
ATOM     39  N   UNL A   1      41.488  25.622  28.822  1.00  0.00    -0.248 NA
ATOM     40  C   UNL A   1      39.911  25.759  27.162  1.00  0.00     0.031 C 
ATOM     41  C   UNL A   1      42.852  28.312  29.167  1.00  0.00     0.029 A 
ATOM     42  N   UNL A   1      41.280  29.721  29.950  1.00  0.00    -0.354 N 
ATOM     43  C   UNL A   1      41.596  24.481  28.048  1.00  0.00     0.074 A 
ATOM     44  C   UNL A   1      40.507  24.559  27.103  1.00  0.00     0.031 C 
ATOM     45  C   UNL A   1      43.404  29.043  30.152  1.00  0.00     0.029 A 
ATOM     46  C   UNL A   1      42.308  29.666  30.888  1.00  0.00     0.049 A 
ATOM     47  H   UNL A   1      40.588  30.416  29.869  1.00  0.00     0.167 HD
ATOM     48  C   UNL A   1      42.702  23.684  28.141  1.00  0.00     0.037 A 
ATOM     49  C   UNL A   1      42.108  29.575  32.234  1.00  0.00     0.037 A 
ATOM     50  C   UNL A   1      43.675  24.298  29.029  1.00  0.00     0.049 A 
ATOM     51  C   UNL A   1      42.867  28.407  32.811  1.00  0.00     0.074 A 
ATOM     52  C   UNL A   1      44.677  25.211  28.741  1.00  0.00     0.029 A 
ATOM     53  N   UNL A   1      43.512  24.289  30.404  1.00  0.00    -0.354 N 
ATOM     54  N   UNL A   1      43.054  27.279  32.183  1.00  0.00    -0.248 NA
ATOM     55  C   UNL A   1      43.528  28.455  34.109  1.00  0.00     0.031 C 
ATOM     56  C   UNL A   1      45.089  25.798  29.952  1.00  0.00     0.029 A 
ATOM     57  C   UNL A   1      44.361  25.215  30.975  1.00  0.00     0.049 A 
ATOM     58  H   UNL A   1      42.885  23.710  30.897  1.00  0.00     0.167 HD
ATOM     59  C   UNL A   1      43.942  26.513  32.905  1.00  0.00     0.074 A 
ATOM     60  C   UNL A   1      44.174  27.275  34.118  1.00  0.00     0.031 C 
ATOM     61  C   UNL A   1      44.479  25.357  32.411  1.00  0.00     0.037 A 
BRANCH  48  62
ATOM     62  C   UNL A   1      43.081  22.596  27.153  1.00  0.00     0.058 A 
ATOM     63  C   UNL A   1      42.432  21.338  27.183  1.00  0.00     0.135 A 
ATOM     64  C   UNL A   1      44.083  22.721  26.173  1.00  0.00     0.135 A 
ATOM     65  F   UNL A   1      41.396  21.095  27.996  1.00  0.00    -0.206 F 
ATOM     66  C   UNL A   1      42.826  20.255  26.398  1.00  0.00     0.059 A 
ATOM     67  C   UNL A   1      44.511  21.640  25.385  1.00  0.00     0.059 A 
ATOM     68  F   UNL A   1      44.673  23.904  25.942  1.00  0.00    -0.206 F 
ATOM     69  C   UNL A   1      43.893  20.401  25.525  1.00  0.00     0.060 A 
BRANCH  69  70
ATOM     70  S   UNL A   1      44.449  18.945  24.616  1.00  0.00     0.124 S 
ATOM     71  O   UNL A   1      43.417  17.968  24.947  1.00  0.00    -0.237 OA
ATOM     72  O   UNL A   1      44.451  19.422  23.238  1.00  0.00    -0.237 OA
ATOM     73  O   UNL A   1      45.765  18.671  25.185  1.00  0.00    -0.744 OA
ENDBRANCH  69  70
ENDBRANCH  48  62
BRANCH  49  74
ATOM     74  C   UNL A   1      40.773  30.032  32.716  1.00  0.00     0.058 A 
ATOM     75  C   UNL A   1      40.518  31.410  32.869  1.00  0.00     0.135 A 
ATOM     76  C   UNL A   1      39.664  29.180  32.655  1.00  0.00     0.135 A 
ATOM     77  F   UNL A   1      41.543  32.276  32.919  1.00  0.00    -0.206 F 
ATOM     78  C   UNL A   1      39.222  31.930  32.861  1.00  0.00     0.059 A 
ATOM     79  C   UNL A   1      38.366  29.686  32.636  1.00  0.00     0.059 A 
ATOM     80  F   UNL A   1      39.824  27.865  32.457  1.00  0.00    -0.206 F 
ATOM     81  C   UNL A   1      38.150  31.057  32.703  1.00  0.00     0.060 A 
BRANCH  81  82
ATOM     82  S   UNL A   1      36.494  31.729  32.414  1.00  0.00     0.124 S 
ATOM     83  O   UNL A   1      36.281  32.530  33.613  1.00  0.00    -0.237 OA
ATOM     84  O   UNL A   1      36.696  32.468  31.172  1.00  0.00    -0.237 OA
ATOM     85  O   UNL A   1      35.665  30.532  32.304  1.00  0.00    -0.744 OA
ENDBRANCH  81  82
ENDBRANCH  49  74
BRANCH  61  86
ATOM     86  C   UNL A   1      45.334  24.339  33.140  1.00  0.00     0.058 A 
ATOM     87  C   UNL A   1      46.646  24.576  33.573  1.00  0.00     0.135 A 
ATOM     88  C   UNL A   1      44.776  23.099  33.560  1.00  0.00     0.135 A 
ATOM     89  F   UNL A   1      47.255  25.747  33.345  1.00  0.00    -0.206 F 
ATOM     90  C   UNL A   1      47.372  23.636  34.310  1.00  0.00     0.059 A 
ATOM     91  C   UNL A   1      45.461  22.175  34.340  1.00  0.00     0.059 A 
ATOM     92  F   UNL A   1      43.523  22.739  33.247  1.00  0.00    -0.206 F 
ATOM     93  C   UNL A   1      46.771  22.440  34.692  1.00  0.00     0.060 A 
BRANCH  93  94
ATOM     94  S   UNL A   1      47.672  21.263  35.712  1.00  0.00     0.124 S 
ATOM     95  O   UNL A   1      48.077  22.101  36.835  1.00  0.00    -0.237 OA
ATOM     96  O   UNL A   1      46.657  20.256  36.010  1.00  0.00    -0.237 OA
ATOM     97  O   UNL A   1      48.748  20.814  34.835  1.00  0.00    -0.744 OA
ENDBRANCH  93  94
ENDBRANCH  61  86
ENDBRANCH  35  36
ENDBRANCH  28  30
ENDBRANCH  27  28
ENDBRANCH  26  27
ENDBRANCH   1  26
TORSDOF 17
ENDMDL
MODEL 2
REMARK VINA RESULT:     -13.3      1.913      3.598
REMARK SMILES Cc1cc([N+](=O)[O-])ccc1NC(=O)[C@@H]1[C@@H](C(=O)OCCOC(=O)c2ccc(-c3c4nc(c(-c5c(F)cc(S(=O)(=O)[O-])cc5F)c5ccc([nH]5)c(-c5c(F)cc(S(=O)(=O)[O-])cc5F)c5nc(c(-c6c(F)cc(S(=O)(=O)[O-])cc6F)c6ccc3[nH]6)C=C5)C=C4)cc2)[C@H]2C=C[C@@H]1C2
REMARK SMILES IDX 19 1 18 2 16 3 17 4 15 5 14 6 93 7 90 8 92 9 94 10 91 11
REMARK SMILES IDX 12 12 11 13 13 15 10 16 1 17 2 18 3 19 4 20 9 21 8 22 5 23
REMARK SMILES IDX 6 24 7 25 20 26 21 27 22 28 23 29 24 30 25 31 89 32 26 33
REMARK SMILES IDX 88 34 27 35 28 36 29 37 82 38 30 39 87 40 81 41 83 42 31 43
REMARK SMILES IDX 86 44 80 45 79 46 32 48 66 49 45 50 65 51 46 52 49 53 64 54
REMARK SMILES IDX 84 55 47 56 48 57 63 59 85 60 50 61 33 62 34 63 43 64 35 65
REMARK SMILES IDX 36 66 42 67 44 68 37 69 38 70 39 71 40 72 41 73 67 74 68 75
REMARK SMILES IDX 77 76 69 77 70 78 76 79 78 80 71 81 72 82 73 83 74 84 75 85
REMARK SMILES IDX 51 86 52 87 61 88 53 89 54 90 60 91 62 92 55 93 56 94 57 95
REMARK SMILES IDX 58 96 59 97
REMARK H PARENT 11 14 83 47 49 58
REMARK Flexibility Score: inf
ROOT
ATOM      1  C   UNL A   1      33.486  27.292  26.432  1.00  0.00     0.274 C 
ENDROOT
BRANCH   1   2
ATOM      2  O   UNL A   1      34.208  26.211  25.793  1.00  0.00    -0.462 OA
BRANCH   2   3
ATOM      3  C   UNL A   1      33.496  25.041  25.757  1.00  0.00     0.310 C 
ATOM      4  O   UNL A   1      32.758  24.702  26.674  1.00  0.00    -0.252 OA
BRANCH   3   5
ATOM      5  C   UNL A   1      33.859  24.145  24.574  1.00  0.00     0.119 C 
ATOM      6  C   UNL A   1      33.462  22.612  24.579  1.00  0.00     0.100 C 
ATOM      7  C   UNL A   1      34.828  21.924  24.275  1.00  0.00     0.025 C 
ATOM      8  C   UNL A   1      35.418  24.058  24.490  1.00  0.00     0.027 C 
ATOM      9  C   UNL A   1      35.640  22.006  25.537  1.00  0.00    -0.027 C 
ATOM     10  C   UNL A   1      35.567  22.970  23.435  1.00  0.00     0.017 C 
ATOM     11  C   UNL A   1      35.992  23.291  25.673  1.00  0.00    -0.027 C 
BRANCH   6  12
ATOM     12  C   UNL A   1      32.472  22.174  23.510  1.00  0.00     0.228 C 
ATOM     13  N   UNL A   1      32.156  20.859  23.274  1.00  0.00    -0.326 N 
ATOM     14  H   UNL A   1      31.501  20.772  22.543  1.00  0.00     0.169 HD
ATOM     15  O   UNL A   1      31.960  23.013  22.758  1.00  0.00    -0.274 OA
BRANCH  13  16
ATOM     16  C   UNL A   1      32.517  19.591  23.801  1.00  0.00     0.044 A 
ATOM     17  C   UNL A   1      32.244  18.474  21.467  1.00  0.00     0.047 C 
ATOM     18  C   UNL A   1      32.531  18.456  22.948  1.00  0.00    -0.021 A 
ATOM     19  C   UNL A   1      32.852  17.177  23.472  1.00  0.00     0.091 A 
ATOM     20  C   UNL A   1      33.167  17.015  24.821  1.00  0.00     0.269 A 
ATOM     21  C   UNL A   1      32.855  19.384  25.145  1.00  0.00     0.033 A 
ATOM     22  C   UNL A   1      33.194  18.121  25.657  1.00  0.00     0.088 A 
BRANCH  20  23
ATOM     23  N   UNL A   1      33.441  15.680  25.360  1.00  0.00     0.062 N 
ATOM     24  O   UNL A   1      34.623  15.303  25.386  1.00  0.00    -0.258 OA
ATOM     25  O   UNL A   1      32.482  15.006  25.757  1.00  0.00    -0.258 OA
ENDBRANCH  20  23
ENDBRANCH  13  16
ENDBRANCH   6  12
ENDBRANCH   3   5
ENDBRANCH   2   3
ENDBRANCH   1   2
BRANCH   1  26
ATOM     26  C   UNL A   1      34.260  28.623  26.436  1.00  0.00     0.275 C 
BRANCH  26  27
ATOM     27  O   UNL A   1      34.732  29.073  27.721  1.00  0.00    -0.458 OA
BRANCH  27  28
ATOM     28  C   UNL A   1      35.363  30.280  27.710  1.00  0.00     0.338 C 
ATOM     29  O   UNL A   1      34.791  31.348  27.650  1.00  0.00    -0.246 OA
BRANCH  28  30
ATOM     30  C   UNL A   1      36.765  30.013  28.135  1.00  0.00     0.060 A 
ATOM     31  C   UNL A   1      36.967  29.330  29.339  1.00  0.00     0.016 A 
ATOM     32  C   UNL A   1      37.789  30.103  27.184  1.00  0.00     0.016 A 
ATOM     33  C   UNL A   1      38.136  28.589  29.519  1.00  0.00     0.010 A 
ATOM     34  C   UNL A   1      38.934  29.351  27.355  1.00  0.00     0.010 A 
ATOM     35  C   UNL A   1      39.087  28.557  28.497  1.00  0.00    -0.014 A 
BRANCH  35  36
ATOM     36  C   UNL A   1      40.370  27.881  28.623  1.00  0.00     0.031 A 
ATOM     37  C   UNL A   1      40.607  26.475  28.213  1.00  0.00     0.074 A 
ATOM     38  C   UNL A   1      41.350  28.650  29.136  1.00  0.00     0.049 A 
ATOM     39  N   UNL A   1      41.453  25.691  28.799  1.00  0.00    -0.248 NA
ATOM     40  C   UNL A   1      39.888  25.815  27.126  1.00  0.00     0.031 C 
ATOM     41  C   UNL A   1      42.777  28.397  29.168  1.00  0.00     0.029 A 
ATOM     42  N   UNL A   1      41.179  29.781  29.944  1.00  0.00    -0.354 N 
ATOM     43  C   UNL A   1      41.582  24.555  28.020  1.00  0.00     0.074 A 
ATOM     44  C   UNL A   1      40.501  24.623  27.066  1.00  0.00     0.031 C 
ATOM     45  C   UNL A   1      43.310  29.131  30.161  1.00  0.00     0.029 A 
ATOM     46  C   UNL A   1      42.199  29.736  30.891  1.00  0.00     0.049 A 
ATOM     47  H   UNL A   1      40.478  30.468  29.860  1.00  0.00     0.167 HD
ATOM     48  C   UNL A   1      42.699  23.773  28.120  1.00  0.00     0.037 A 
ATOM     49  C   UNL A   1      41.988  29.636  32.235  1.00  0.00     0.037 A 
ATOM     50  C   UNL A   1      43.656  24.396  29.018  1.00  0.00     0.049 A 
ATOM     51  C   UNL A   1      42.758  28.475  32.813  1.00  0.00     0.074 A 
ATOM     52  C   UNL A   1      44.647  25.324  28.744  1.00  0.00     0.029 A 
ATOM     53  N   UNL A   1      43.480  24.378  30.392  1.00  0.00    -0.354 N 
ATOM     54  N   UNL A   1      42.966  27.353  32.181  1.00  0.00    -0.248 NA
ATOM     55  C   UNL A   1      43.408  28.526  34.117  1.00  0.00     0.031 C 
ATOM     56  C   UNL A   1      45.041  25.911  29.961  1.00  0.00     0.029 A 
ATOM     57  C   UNL A   1      44.312  25.312  30.974  1.00  0.00     0.049 A 
ATOM     58  H   UNL A   1      42.858  23.789  30.877  1.00  0.00     0.167 HD
ATOM     59  C   UNL A   1      43.858  26.595  32.907  1.00  0.00     0.074 A 
ATOM     60  C   UNL A   1      44.069  27.354  34.126  1.00  0.00     0.031 C 
ATOM     61  C   UNL A   1      44.416  25.450  32.413  1.00  0.00     0.037 A 
BRANCH  48  62
ATOM     62  C   UNL A   1      43.101  22.695  27.130  1.00  0.00     0.058 A 
ATOM     63  C   UNL A   1      42.476  21.425  27.155  1.00  0.00     0.135 A 
ATOM     64  C   UNL A   1      44.103  22.842  26.153  1.00  0.00     0.135 A 
ATOM     65  F   UNL A   1      41.443  21.160  27.964  1.00  0.00    -0.206 F 
ATOM     66  C   UNL A   1      42.893  20.352  26.368  1.00  0.00     0.059 A 
ATOM     67  C   UNL A   1      44.554  21.771  25.363  1.00  0.00     0.059 A 
ATOM     68  F   UNL A   1      44.671  24.037  25.926  1.00  0.00    -0.206 F 
ATOM     69  C   UNL A   1      43.959  20.520  25.499  1.00  0.00     0.060 A 
BRANCH  69  70
ATOM     70  S   UNL A   1      44.546  19.078  24.587  1.00  0.00     0.124 S 
ATOM     71  O   UNL A   1      43.557  18.066  24.950  1.00  0.00    -0.237 OA
ATOM     72  O   UNL A   1      44.497  19.542  23.205  1.00  0.00    -0.237 OA
ATOM     73  O   UNL A   1      45.884  18.856  25.126  1.00  0.00    -0.744 OA
ENDBRANCH  69  70
ENDBRANCH  48  62
BRANCH  49  74
ATOM     74  C   UNL A   1      40.644  30.072  32.707  1.00  0.00     0.058 A 
ATOM     75  C   UNL A   1      40.367  31.446  32.858  1.00  0.00     0.135 A 
ATOM     76  C   UNL A   1      39.548  29.204  32.637  1.00  0.00     0.135 A 
ATOM     77  F   UNL A   1      41.378  32.328  32.916  1.00  0.00    -0.206 F 
ATOM     78  C   UNL A   1      39.063  31.946  32.841  1.00  0.00     0.059 A 
ATOM     79  C   UNL A   1      38.242  29.690  32.609  1.00  0.00     0.059 A 
ATOM     80  F   UNL A   1      39.730  27.891  32.441  1.00  0.00    -0.206 F 
ATOM     81  C   UNL A   1      38.006  31.057  32.675  1.00  0.00     0.060 A 
BRANCH  81  82
ATOM     82  S   UNL A   1      36.341  31.703  32.374  1.00  0.00     0.124 S 
ATOM     83  O   UNL A   1      35.588  30.484  32.108  1.00  0.00    -0.237 OA
ATOM     84  O   UNL A   1      36.059  32.371  33.641  1.00  0.00    -0.237 OA
ATOM     85  O   UNL A   1      36.529  32.587  31.228  1.00  0.00    -0.744 OA
ENDBRANCH  81  82
ENDBRANCH  49  74
BRANCH  61  86
ATOM     86  C   UNL A   1      45.278  24.440  33.144  1.00  0.00     0.058 A 
ATOM     87  C   UNL A   1      46.589  24.686  33.574  1.00  0.00     0.135 A 
ATOM     88  C   UNL A   1      44.728  23.199  33.570  1.00  0.00     0.135 A 
ATOM     89  F   UNL A   1      47.191  25.860  33.340  1.00  0.00    -0.206 F 
ATOM     90  C   UNL A   1      47.322  23.754  34.314  1.00  0.00     0.059 A 
ATOM     91  C   UNL A   1      45.420  22.282  34.353  1.00  0.00     0.059 A 
ATOM     92  F   UNL A   1      43.476  22.829  33.261  1.00  0.00    -0.206 F 
ATOM     93  C   UNL A   1      46.729  22.556  34.702  1.00  0.00     0.060 A 
BRANCH  93  94
ATOM     94  S   UNL A   1      47.638  21.389  35.725  1.00  0.00     0.124 S 
ATOM     95  O   UNL A   1      46.957  21.533  37.007  1.00  0.00    -0.237 OA
ATOM     96  O   UNL A   1      47.421  20.121  35.035  1.00  0.00    -0.237 OA
ATOM     97  O   UNL A   1      49.007  21.892  35.674  1.00  0.00    -0.744 OA
ENDBRANCH  93  94
ENDBRANCH  61  86
ENDBRANCH  35  36
ENDBRANCH  28  30
ENDBRANCH  27  28
ENDBRANCH  26  27
ENDBRANCH   1  26
TORSDOF 17
ENDMDL
MODEL 3
REMARK VINA RESULT:     -13.1      1.414      3.224
REMARK SMILES Cc1cc([N+](=O)[O-])ccc1NC(=O)[C@@H]1[C@@H](C(=O)OCCOC(=O)c2ccc(-c3c4nc(c(-c5c(F)cc(S(=O)(=O)[O-])cc5F)c5ccc([nH]5)c(-c5c(F)cc(S(=O)(=O)[O-])cc5F)c5nc(c(-c6c(F)cc(S(=O)(=O)[O-])cc6F)c6ccc3[nH]6)C=C5)C=C4)cc2)[C@H]2C=C[C@@H]1C2
REMARK SMILES IDX 19 1 18 2 16 3 17 4 15 5 14 6 93 7 90 8 92 9 94 10 91 11
REMARK SMILES IDX 12 12 11 13 13 15 10 16 1 17 2 18 3 19 4 20 9 21 8 22 5 23
REMARK SMILES IDX 6 24 7 25 20 26 21 27 22 28 23 29 24 30 25 31 89 32 26 33
REMARK SMILES IDX 88 34 27 35 28 36 29 37 82 38 30 39 87 40 81 41 83 42 31 43
REMARK SMILES IDX 86 44 80 45 79 46 32 48 66 49 45 50 65 51 46 52 49 53 64 54
REMARK SMILES IDX 84 55 47 56 48 57 63 59 85 60 50 61 33 62 34 63 43 64 35 65
REMARK SMILES IDX 36 66 42 67 44 68 37 69 38 70 39 71 40 72 41 73 67 74 68 75
REMARK SMILES IDX 77 76 69 77 70 78 76 79 78 80 71 81 72 82 73 83 74 84 75 85
REMARK SMILES IDX 51 86 52 87 61 88 53 89 54 90 60 91 62 92 55 93 56 94 57 95
REMARK SMILES IDX 58 96 59 97
REMARK H PARENT 11 14 83 47 49 58
REMARK Flexibility Score: inf
ROOT
ATOM      1  C   UNL A   1      33.563  29.165  26.573  1.00  0.00     0.274 C 
ENDROOT
BRANCH   1   2
ATOM      2  O   UNL A   1      32.138  28.905  26.598  1.00  0.00    -0.462 OA
BRANCH   2   3
ATOM      3  C   UNL A   1      31.502  29.304  25.452  1.00  0.00     0.310 C 
ATOM      4  O   UNL A   1      31.071  30.442  25.311  1.00  0.00    -0.252 OA
BRANCH   3   5
ATOM      5  C   UNL A   1      31.228  28.158  24.479  1.00  0.00     0.119 C 
ATOM      6  C   UNL A   1      32.088  26.830  24.544  1.00  0.00     0.100 C 
ATOM      7  C   UNL A   1      32.569  26.683  23.068  1.00  0.00     0.025 C 
ATOM      8  C   UNL A   1      31.549  28.660  23.033  1.00  0.00     0.027 C 
ATOM      9  C   UNL A   1      33.651  27.706  22.866  1.00  0.00    -0.027 C 
ATOM     10  C   UNL A   1      31.445  27.349  22.267  1.00  0.00     0.017 C 
ATOM     11  C   UNL A   1      33.042  28.898  22.850  1.00  0.00    -0.027 C 
BRANCH   6  12
ATOM     12  C   UNL A   1      31.332  25.562  24.915  1.00  0.00     0.228 C 
ATOM     13  N   UNL A   1      31.951  24.355  25.129  1.00  0.00    -0.326 N 
ATOM     14  H   UNL A   1      31.300  23.652  25.356  1.00  0.00     0.169 HD
ATOM     15  O   UNL A   1      30.096  25.572  24.972  1.00  0.00    -0.274 OA
BRANCH  13  16
ATOM     16  C   UNL A   1      33.277  23.849  25.113  1.00  0.00     0.044 A 
ATOM     17  C   UNL A   1      32.910  22.789  22.765  1.00  0.00     0.047 C 
ATOM     18  C   UNL A   1      33.721  23.082  24.003  1.00  0.00    -0.021 A 
ATOM     19  C   UNL A   1      35.030  22.537  23.994  1.00  0.00     0.091 A 
ATOM     20  C   UNL A   1      35.902  22.751  25.061  1.00  0.00     0.269 A 
ATOM     21  C   UNL A   1      34.192  24.051  26.154  1.00  0.00     0.033 A 
ATOM     22  C   UNL A   1      35.496  23.530  26.134  1.00  0.00     0.088 A 
BRANCH  20  23
ATOM     23  N   UNL A   1      37.232  22.135  25.063  1.00  0.00     0.062 N 
ATOM     24  O   UNL A   1      38.107  22.659  25.771  1.00  0.00    -0.258 OA
ATOM     25  O   UNL A   1      37.409  21.131  24.361  1.00  0.00    -0.258 OA
ENDBRANCH  20  23
ENDBRANCH  13  16
ENDBRANCH   6  12
ENDBRANCH   3   5
ENDBRANCH   2   3
ENDBRANCH   1   2
BRANCH   1  26
ATOM     26  C   UNL A   1      33.961  30.452  27.319  1.00  0.00     0.275 C 
BRANCH  26  27
ATOM     27  O   UNL A   1      34.829  30.276  28.456  1.00  0.00    -0.458 OA
BRANCH  27  28
ATOM     28  C   UNL A   1      36.018  30.939  28.377  1.00  0.00     0.338 C 
ATOM     29  O   UNL A   1      36.172  32.101  28.691  1.00  0.00    -0.246 OA
BRANCH  28  30
ATOM     30  C   UNL A   1      37.059  29.890  28.194  1.00  0.00     0.060 A 
ATOM     31  C   UNL A   1      38.019  30.085  27.196  1.00  0.00     0.016 A 
ATOM     32  C   UNL A   1      37.277  28.967  29.225  1.00  0.00     0.016 A 
ATOM     33  C   UNL A   1      39.271  29.483  27.322  1.00  0.00     0.010 A 
ATOM     34  C   UNL A   1      38.523  28.391  29.359  1.00  0.00     0.010 A 
ATOM     35  C   UNL A   1      39.534  28.685  28.437  1.00  0.00    -0.014 A 
BRANCH  35  36
ATOM     36  C   UNL A   1      40.779  27.951  28.616  1.00  0.00     0.031 A 
ATOM     37  C   UNL A   1      40.994  26.560  28.150  1.00  0.00     0.074 A 
ATOM     38  C   UNL A   1      41.748  28.654  29.236  1.00  0.00     0.049 A 
ATOM     39  N   UNL A   1      41.766  25.714  28.751  1.00  0.00    -0.248 NA
ATOM     40  C   UNL A   1      40.330  25.984  26.983  1.00  0.00     0.031 C 
ATOM     41  C   UNL A   1      43.159  28.343  29.353  1.00  0.00     0.029 A 
ATOM     42  N   UNL A   1      41.561  29.749  30.088  1.00  0.00    -0.354 N 
ATOM     43  C   UNL A   1      41.909  24.614  27.925  1.00  0.00     0.074 A 
ATOM     44  C   UNL A   1      40.902  24.772  26.903  1.00  0.00     0.031 C 
ATOM     45  C   UNL A   1      43.646  29.005  30.418  1.00  0.00     0.029 A 
ATOM     46  C   UNL A   1      42.509  29.617  31.099  1.00  0.00     0.049 A 
ATOM     47  H   UNL A   1      40.894  30.467  29.991  1.00  0.00     0.167 HD
ATOM     48  C   UNL A   1      42.986  23.784  28.061  1.00  0.00     0.037 A 
ATOM     49  C   UNL A   1      42.199  29.458  32.418  1.00  0.00     0.037 A 
ATOM     50  C   UNL A   1      43.898  24.322  29.055  1.00  0.00     0.049 A 
ATOM     51  C   UNL A   1      42.883  28.240  32.987  1.00  0.00     0.074 A 
ATOM     52  C   UNL A   1      44.940  25.222  28.899  1.00  0.00     0.029 A 
ATOM     53  N   UNL A   1      43.625  24.242  30.410  1.00  0.00    -0.354 N 
ATOM     54  N   UNL A   1      43.094  27.143  32.313  1.00  0.00    -0.248 NA
ATOM     55  C   UNL A   1      43.439  28.200  34.333  1.00  0.00     0.031 C 
ATOM     56  C   UNL A   1      45.268  25.731  30.170  1.00  0.00     0.029 A 
ATOM     57  C   UNL A   1      44.447  25.113  31.097  1.00  0.00     0.049 A 
ATOM     58  H   UNL A   1      42.948  23.655  30.819  1.00  0.00     0.167 HD
ATOM     59  C   UNL A   1      43.903  26.315  33.059  1.00  0.00     0.074 A 
ATOM     60  C   UNL A   1      44.054  27.004  34.327  1.00  0.00     0.031 C 
ATOM     61  C   UNL A   1      44.452  25.174  32.545  1.00  0.00     0.037 A 
BRANCH  48  62
ATOM     62  C   UNL A   1      43.418  22.740  27.046  1.00  0.00     0.058 A 
ATOM     63  C   UNL A   1      42.719  21.515  26.931  1.00  0.00     0.135 A 
ATOM     64  C   UNL A   1      44.518  22.878  26.179  1.00  0.00     0.135 A 
ATOM     65  F   UNL A   1      41.597  21.271  27.621  1.00  0.00    -0.206 F 
ATOM     66  C   UNL A   1      43.146  20.464  26.119  1.00  0.00     0.059 A 
ATOM     67  C   UNL A   1      44.979  21.827  25.368  1.00  0.00     0.059 A 
ATOM     68  F   UNL A   1      45.175  24.044  26.083  1.00  0.00    -0.206 F 
ATOM     69  C   UNL A   1      44.300  20.613  25.367  1.00  0.00     0.060 A 
BRANCH  69  70
ATOM     70  S   UNL A   1      44.886  19.190  24.424  1.00  0.00     0.124 S 
ATOM     71  O   UNL A   1      44.508  19.552  23.061  1.00  0.00    -0.237 OA
ATOM     72  O   UNL A   1      46.317  19.198  24.706  1.00  0.00    -0.237 OA
ATOM     73  O   UNL A   1      44.142  18.072  24.997  1.00  0.00    -0.744 OA
ENDBRANCH  69  70
ENDBRANCH  48  62
BRANCH  49  74
ATOM     74  C   UNL A   1      40.841  29.924  32.818  1.00  0.00     0.058 A 
ATOM     75  C   UNL A   1      40.616  31.293  33.068  1.00  0.00     0.135 A 
ATOM     76  C   UNL A   1      39.716  29.124  32.585  1.00  0.00     0.135 A 
ATOM     77  F   UNL A   1      41.658  32.112  33.283  1.00  0.00    -0.206 F 
ATOM     78  C   UNL A   1      39.343  31.862  32.990  1.00  0.00     0.059 A 
ATOM     79  C   UNL A   1      38.441  29.680  32.496  1.00  0.00     0.059 A 
ATOM     80  F   UNL A   1      39.853  27.825  32.289  1.00  0.00    -0.206 F 
ATOM     81  C   UNL A   1      38.263  31.048  32.663  1.00  0.00     0.060 A 
BRANCH  81  82
ATOM     82  S   UNL A   1      36.662  31.805  32.288  1.00  0.00     0.124 S 
ATOM     83  O   UNL A   1      35.922  30.681  31.727  1.00  0.00    -0.237 OA
ATOM     84  O   UNL A   1      36.242  32.257  33.611  1.00  0.00    -0.237 OA
ATOM     85  O   UNL A   1      37.006  32.863  31.344  1.00  0.00    -0.744 OA
ENDBRANCH  81  82
ENDBRANCH  49  74
BRANCH  61  86
ATOM     86  C   UNL A   1      45.222  24.095  33.280  1.00  0.00     0.058 A 
ATOM     87  C   UNL A   1      46.538  24.241  33.743  1.00  0.00     0.135 A 
ATOM     88  C   UNL A   1      44.575  22.891  33.675  1.00  0.00     0.135 A 
ATOM     89  F   UNL A   1      47.227  25.371  33.540  1.00  0.00    -0.206 F 
ATOM     90  C   UNL A   1      47.184  23.248  34.485  1.00  0.00     0.059 A 
ATOM     91  C   UNL A   1      45.181  21.917  34.459  1.00  0.00     0.059 A 
ATOM     92  F   UNL A   1      43.308  22.617  33.332  1.00  0.00    -0.206 F 
ATOM     93  C   UNL A   1      46.498  22.091  34.842  1.00  0.00     0.060 A 
BRANCH  93  94
ATOM     94  S   UNL A   1      47.297  20.848  35.868  1.00  0.00     0.124 S 
ATOM     95  O   UNL A   1      46.497  19.665  35.568  1.00  0.00    -0.237 OA
ATOM     96  O   UNL A   1      48.662  20.835  35.350  1.00  0.00    -0.237 OA
ATOM     97  O   UNL A   1      47.154  21.384  37.217  1.00  0.00    -0.744 OA
ENDBRANCH  93  94
ENDBRANCH  61  86
ENDBRANCH  35  36
ENDBRANCH  28  30
ENDBRANCH  27  28
ENDBRANCH  26  27
ENDBRANCH   1  26
TORSDOF 17
ENDMDL
