MODEL 1
REMARK VINA RESULT:     -15.1      0.000      0.000
REMARK SMILES Cc1cccc(C(=O)Nc2ccc(C(=O)NNC(=O)c3ccccc3C(=O)OCCOC(=O)c3ccc(-c4c5nc(c(-c6c(F)cc(S(=O)(=O)[O-])cc6F)c6ccc([nH]6)c(-c6c(F)cc(S(=O)(=O)[O-])cc6F)c6nc(c(-c7c(F)cc(S(=O)(=O)[O-])cc7F)c7ccc4[nH]7)C=C6)C=C5)cc3)cc2)c1
REMARK SMILES IDX 29 1 28 2 26 3 27 4 25 5 20 6 21 7 22 8 24 9 23 10 18 11
REMARK SMILES IDX 17 12 19 14 16 15 14 16 15 17 13 19 10 20 11 21 101 22 12 23
REMARK SMILES IDX 100 24 9 25 7 26 8 27 6 29 1 30 2 31 3 32 102 33 4 34 5 35
REMARK SMILES IDX 30 36 31 37 32 38 33 39 34 40 35 41 99 42 36 43 98 44 37 45
REMARK SMILES IDX 38 46 39 47 92 48 40 49 97 50 91 51 93 52 41 53 96 54 90 55
REMARK SMILES IDX 89 56 42 58 76 59 55 60 75 61 56 62 59 63 74 64 94 65 57 66
REMARK SMILES IDX 58 67 73 69 95 70 60 71 43 72 44 73 53 74 45 75 46 76 52 77
REMARK SMILES IDX 54 78 47 79 48 80 49 81 50 82 51 83 77 84 78 85 87 86 79 87
REMARK SMILES IDX 80 88 86 89 88 90 81 91 82 92 83 93 84 94 85 95 61 96 62 97
REMARK SMILES IDX 71 98 63 99 64 100 70 101 72 102 65 103 66 104 67 105 68 106
REMARK SMILES IDX 69 107
REMARK H PARENT 17 13 16 18 9 28 93 57 59 68
REMARK Flexibility Score: inf
ROOT
ATOM      1  C   UNL A   1      31.830  28.372  27.491  1.00  0.00     0.275 C 
ENDROOT
BRANCH   1   2
ATOM      2  O   UNL A   1      32.870  27.130  27.129  1.00  0.00    -0.458 OA
BRANCH   2   3
ATOM      3  C   UNL A   1      33.333  26.480  26.015  1.00  0.00     0.339 C 
ATOM      4  O   UNL A   1      33.958  25.430  26.096  1.00  0.00    -0.246 OA
BRANCH   3   5
ATOM      5  C   UNL A   1      33.005  27.090  24.573  1.00  0.00     0.072 A 
ATOM      6  C   UNL A   1      31.800  26.885  23.838  1.00  0.00     0.056 A 
ATOM      7  C   UNL A   1      31.400  27.751  22.770  1.00  0.00     0.015 A 
ATOM      8  C   UNL A   1      32.130  28.876  22.440  1.00  0.00     0.001 A 
ATOM      9  C   UNL A   1      33.791  28.135  24.061  1.00  0.00     0.016 A 
ATOM     10  C   UNL A   1      33.336  29.058  23.085  1.00  0.00     0.001 A 
BRANCH   6  11
ATOM     11  C   UNL A   1      30.779  25.846  24.089  1.00  0.00     0.270 C 
ATOM     12  N   UNL A   1      31.225  24.588  24.369  1.00  0.00    -0.263 N 
ATOM     13  H   UNL A   1      32.050  24.217  23.981  1.00  0.00     0.191 HD
ATOM     14  O   UNL A   1      29.580  26.118  24.067  1.00  0.00    -0.267 OA
BRANCH  12  15
ATOM     15  N   UNL A   1      30.410  23.864  25.257  1.00  0.00    -0.263 N 
ATOM     16  C   UNL A   1      30.985  23.216  26.327  1.00  0.00     0.269 C 
ATOM     17  O   UNL A   1      30.476  23.222  27.441  1.00  0.00    -0.267 OA
ATOM     18  H   UNL A   1      29.437  23.822  25.115  1.00  0.00     0.191 HD
BRANCH  16  19
ATOM     19  C   UNL A   1      32.252  22.477  26.079  1.00  0.00     0.041 A 
ATOM     20  C   UNL A   1      34.595  21.051  25.576  1.00  0.00     0.041 A 
ATOM     21  C   UNL A   1      34.325  21.500  26.869  1.00  0.00     0.027 A 
ATOM     22  C   UNL A   1      33.739  21.390  24.522  1.00  0.00     0.027 A 
ATOM     23  C   UNL A   1      33.160  22.223  27.117  1.00  0.00     0.016 A 
ATOM     24  C   UNL A   1      32.550  22.072  24.777  1.00  0.00     0.016 A 
BRANCH  20  25
ATOM     25  N   UNL A   1      35.717  20.274  25.276  1.00  0.00    -0.322 N 
ATOM     26  C   UNL A   1      37.031  20.623  25.057  1.00  0.00     0.255 C 
ATOM     27  O   UNL A   1      37.743  19.822  24.443  1.00  0.00    -0.269 OA
ATOM     28  H   UNL A   1      35.536  19.308  25.210  1.00  0.00     0.170 HD
BRANCH  26  29
ATOM     29  C   UNL A   1      37.665  21.851  25.641  1.00  0.00     0.040 A 
ATOM     30  C   UNL A   1      40.663  23.042  27.675  1.00  0.00     0.044 C 
ATOM     31  C   UNL A   1      39.412  23.061  26.850  1.00  0.00    -0.050 A 
ATOM     32  C   UNL A   1      38.776  24.270  26.571  1.00  0.00     0.003 A 
ATOM     33  C   UNL A   1      38.894  21.870  26.316  1.00  0.00     0.017 A 
ATOM     34  C   UNL A   1      37.595  24.282  25.836  1.00  0.00     0.001 A 
ATOM     35  C   UNL A   1      37.032  23.081  25.398  1.00  0.00     0.014 A 
ENDBRANCH  26  29
ENDBRANCH  20  25
ENDBRANCH  16  19
ENDBRANCH  12  15
ENDBRANCH   6  11
ENDBRANCH   3   5
ENDBRANCH   2   3
ENDBRANCH   1   2
BRANCH   1  36
ATOM     36  C   UNL A   1      31.975  30.207  26.887  1.00  0.00     0.275 C 
BRANCH  36  37
ATOM     37  O   UNL A   1      33.435  31.356  27.126  1.00  0.00    -0.458 OA
BRANCH  37  38
ATOM     38  C   UNL A   1      35.069  31.443  27.625  1.00  0.00     0.338 C 
ATOM     39  O   UNL A   1      35.438  32.624  27.742  1.00  0.00    -0.246 OA
BRANCH  38  40
ATOM     40  C   UNL A   1      36.494  30.214  27.661  1.00  0.00     0.060 A 
ATOM     41  C   UNL A   1      36.385  29.141  28.569  1.00  0.00     0.016 A 
ATOM     42  C   UNL A   1      37.960  30.406  27.506  1.00  0.00     0.016 A 
ATOM     43  C   UNL A   1      37.513  28.799  29.536  1.00  0.00     0.010 A 
ATOM     44  C   UNL A   1      39.077  29.974  28.322  1.00  0.00     0.010 A 
ATOM     45  C   UNL A   1      38.819  29.397  29.531  1.00  0.00    -0.014 A 
BRANCH  45  46
ATOM     46  C   UNL A   1      39.656  29.929  30.741  1.00  0.00     0.031 A 
ATOM     47  C   UNL A   1      39.262  31.045  31.648  1.00  0.00     0.074 A 
ATOM     48  C   UNL A   1      40.666  29.269  31.410  1.00  0.00     0.049 A 
ATOM     49  N   UNL A   1      40.022  32.060  31.923  1.00  0.00    -0.248 NA
ATOM     50  C   UNL A   1      38.166  30.883  32.593  1.00  0.00     0.031 C 
ATOM     51  C   UNL A   1      41.623  29.734  32.436  1.00  0.00     0.029 A 
ATOM     52  N   UNL A   1      41.207  28.023  31.196  1.00  0.00    -0.354 N 
ATOM     53  C   UNL A   1      39.746  32.443  33.243  1.00  0.00     0.074 A 
ATOM     54  C   UNL A   1      38.491  31.777  33.540  1.00  0.00     0.031 C 
ATOM     55  C   UNL A   1      42.797  29.086  32.286  1.00  0.00     0.029 A 
ATOM     56  C   UNL A   1      42.616  28.102  31.253  1.00  0.00     0.049 A 
ATOM     57  H   UNL A   1      40.691  27.202  31.028  1.00  0.00     0.167 HD
ATOM     58  C   UNL A   1      40.696  33.083  34.022  1.00  0.00     0.037 A 
ATOM     59  C   UNL A   1      43.271  27.937  30.063  1.00  0.00     0.037 A 
ATOM     60  C   UNL A   1      42.047  33.010  33.409  1.00  0.00     0.049 A 
ATOM     61  C   UNL A   1      43.507  29.383  29.484  1.00  0.00     0.074 A 
ATOM     62  C   UNL A   1      43.301  32.532  33.772  1.00  0.00     0.029 A 
ATOM     63  N   UNL A   1      42.173  33.323  32.078  1.00  0.00    -0.354 N 
ATOM     64  N   UNL A   1      43.812  30.430  30.225  1.00  0.00    -0.248 NA
ATOM     65  C   UNL A   1      43.284  29.794  28.086  1.00  0.00     0.031 C 
ATOM     66  C   UNL A   1      44.110  32.446  32.589  1.00  0.00     0.029 A 
ATOM     67  C   UNL A   1      43.346  32.875  31.519  1.00  0.00     0.049 A 
ATOM     68  H   UNL A   1      41.489  33.818  31.572  1.00  0.00     0.167 HD
ATOM     69  C   UNL A   1      43.542  31.594  29.511  1.00  0.00     0.074 A 
ATOM     70  C   UNL A   1      43.284  31.137  28.161  1.00  0.00     0.031 C 
ATOM     71  C   UNL A   1      43.407  32.847  30.062  1.00  0.00     0.037 A 
BRANCH  58  72
ATOM     72  C   UNL A   1      40.530  33.691  35.427  1.00  0.00     0.058 A 
ATOM     73  C   UNL A   1      39.950  34.981  35.583  1.00  0.00     0.135 A 
ATOM     74  C   UNL A   1      40.809  33.058  36.655  1.00  0.00     0.135 A 
ATOM     75  F   UNL A   1      39.523  35.693  34.530  1.00  0.00    -0.206 F 
ATOM     76  C   UNL A   1      39.723  35.593  36.823  1.00  0.00     0.059 A 
ATOM     77  C   UNL A   1      40.599  33.654  37.909  1.00  0.00     0.059 A 
ATOM     78  F   UNL A   1      41.248  31.803  36.729  1.00  0.00    -0.206 F 
ATOM     79  C   UNL A   1      40.057  34.924  37.988  1.00  0.00     0.060 A 
BRANCH  79  80
ATOM     80  S   UNL A   1      39.724  35.698  39.582  1.00  0.00     0.124 S 
ATOM     81  O   UNL A   1      38.932  34.675  40.259  1.00  0.00    -0.237 OA
ATOM     82  O   UNL A   1      41.067  35.913  40.110  1.00  0.00    -0.237 OA
ATOM     83  O   UNL A   1      38.994  36.913  39.227  1.00  0.00    -0.744 OA
ENDBRANCH  79  80
ENDBRANCH  58  72
BRANCH  59  84
ATOM     84  C   UNL A   1      42.609  26.694  29.402  1.00  0.00     0.058 A 
ATOM     85  C   UNL A   1      41.983  26.808  28.162  1.00  0.00     0.135 A 
ATOM     86  C   UNL A   1      43.356  25.569  29.362  1.00  0.00     0.135 A 
ATOM     87  F   UNL A   1      40.993  27.708  28.016  1.00  0.00    -0.206 F 
ATOM     88  C   UNL A   1      42.411  26.045  26.934  1.00  0.00     0.059 A 
ATOM     89  C   UNL A   1      43.936  25.121  28.065  1.00  0.00     0.059 A 
ATOM     90  F   UNL A   1      43.961  25.194  30.491  1.00  0.00    -0.206 F 
ATOM     91  C   UNL A   1      43.578  25.082  26.722  1.00  0.00     0.060 A 
BRANCH  91  92
ATOM     92  S   UNL A   1      43.846  23.111  25.415  1.00  0.00     0.124 S 
ATOM     93  O   UNL A   1      44.605  23.340  24.177  1.00  0.00    -0.237 OA
ATOM     94  O   UNL A   1      44.585  22.112  26.169  1.00  0.00    -0.237 OA
ATOM     95  O   UNL A   1      42.566  22.571  24.972  1.00  0.00    -0.744 OA
ENDBRANCH  91  92
ENDBRANCH  59  84
BRANCH  71  96
ATOM     96  C   UNL A   1      43.212  34.152  29.269  1.00  0.00     0.058 A 
ATOM     97  C   UNL A   1      44.307  34.912  28.822  1.00  0.00     0.135 A 
ATOM     98  C   UNL A   1      41.952  34.789  29.092  1.00  0.00     0.135 A 
ATOM     99  F   UNL A   1      45.560  34.450  28.957  1.00  0.00    -0.206 F 
ATOM    100  C   UNL A   1      44.167  36.189  28.254  1.00  0.00     0.059 A 
ATOM    101  C   UNL A   1      41.793  36.079  28.583  1.00  0.00     0.059 A 
ATOM    102  F   UNL A   1      40.794  34.180  29.379  1.00  0.00    -0.206 F 
ATOM    103  C   UNL A   1      42.908  36.775  28.159  1.00  0.00     0.060 A 
BRANCH 103 104
ATOM    104  S   UNL A   1      42.733  38.464  27.547  1.00  0.00     0.124 S 
ATOM    105  O   UNL A   1      42.621  39.238  28.780  1.00  0.00    -0.237 OA
ATOM    106  O   UNL A   1      43.976  38.639  26.803  1.00  0.00    -0.237 OA
ATOM    107  O   UNL A   1      41.519  38.410  26.741  1.00  0.00    -0.744 OA
ENDBRANCH 103 104
ENDBRANCH  71  96
ENDBRANCH  45  46
ENDBRANCH  38  40
ENDBRANCH  37  38
ENDBRANCH  36  37
ENDBRANCH   1  36
TORSDOF 19
ENDMDL
MODEL 2
REMARK VINA RESULT:     -15.1      5.230     10.645
REMARK SMILES Cc1cccc(C(=O)Nc2ccc(C(=O)NNC(=O)c3ccccc3C(=O)OCCOC(=O)c3ccc(-c4c5nc(c(-c6c(F)cc(S(=O)(=O)[O-])cc6F)c6ccc([nH]6)c(-c6c(F)cc(S(=O)(=O)[O-])cc6F)c6nc(c(-c7c(F)cc(S(=O)(=O)[O-])cc7F)c7ccc4[nH]7)C=C6)C=C5)cc3)cc2)c1
REMARK SMILES IDX 29 1 28 2 26 3 27 4 25 5 20 6 21 7 22 8 24 9 23 10 18 11
REMARK SMILES IDX 17 12 19 14 16 15 14 16 15 17 13 19 10 20 11 21 101 22 12 23
REMARK SMILES IDX 100 24 9 25 7 26 8 27 6 29 1 30 2 31 3 32 102 33 4 34 5 35
REMARK SMILES IDX 30 36 31 37 32 38 33 39 34 40 35 41 99 42 36 43 98 44 37 45
REMARK SMILES IDX 38 46 39 47 92 48 40 49 97 50 91 51 93 52 41 53 96 54 90 55
REMARK SMILES IDX 89 56 42 58 76 59 55 60 75 61 56 62 59 63 74 64 94 65 57 66
REMARK SMILES IDX 58 67 73 69 95 70 60 71 43 72 44 73 53 74 45 75 46 76 52 77
REMARK SMILES IDX 54 78 47 79 48 80 49 81 50 82 51 83 77 84 78 85 87 86 79 87
REMARK SMILES IDX 80 88 86 89 88 90 81 91 82 92 83 93 84 94 85 95 61 96 62 97
REMARK SMILES IDX 71 98 63 99 64 100 70 101 72 102 65 103 66 104 67 105 68 106
REMARK SMILES IDX 69 107
REMARK H PARENT 17 13 16 18 9 28 93 57 59 68
REMARK Flexibility Score: inf
ROOT
ATOM      1  C   UNL A   1      42.947  30.066  36.058  1.00  0.00     0.275 C 
ENDROOT
BRANCH   1   2
ATOM      2  O   UNL A   1      41.881  31.283  35.687  1.00  0.00    -0.458 OA
BRANCH   2   3
ATOM      3  C   UNL A   1      41.899  32.497  35.049  1.00  0.00     0.339 C 
ATOM      4  O   UNL A   1      42.271  33.515  35.616  1.00  0.00    -0.246 OA
BRANCH   3   5
ATOM      5  C   UNL A   1      41.465  32.565  33.512  1.00  0.00     0.072 A 
ATOM      6  C   UNL A   1      40.504  33.461  32.958  1.00  0.00     0.056 A 
ATOM      7  C   UNL A   1      40.447  33.751  31.556  1.00  0.00     0.015 A 
ATOM      8  C   UNL A   1      41.370  33.226  30.673  1.00  0.00     0.001 A 
ATOM      9  C   UNL A   1      42.245  31.923  32.536  1.00  0.00     0.016 A 
ATOM     10  C   UNL A   1      42.265  32.300  31.168  1.00  0.00     0.001 A 
BRANCH   6  11
ATOM     11  C   UNL A   1      39.507  34.258  33.704  1.00  0.00     0.270 C 
ATOM     12  N   UNL A   1      38.304  33.669  33.960  1.00  0.00    -0.263 N 
ATOM     13  H   UNL A   1      37.884  33.025  33.345  1.00  0.00     0.191 HD
ATOM     14  O   UNL A   1      39.769  35.394  34.094  1.00  0.00    -0.267 OA
BRANCH  12  15
ATOM     15  N   UNL A   1      37.711  34.058  35.174  1.00  0.00    -0.263 N 
ATOM     16  C   UNL A   1      36.363  33.859  35.362  1.00  0.00     0.269 C 
ATOM     17  O   UNL A   1      35.907  33.451  36.424  1.00  0.00    -0.267 OA
ATOM     18  H   UNL A   1      38.256  34.470  35.883  1.00  0.00     0.191 HD
BRANCH  16  19
ATOM     19  C   UNL A   1      35.458  34.180  34.226  1.00  0.00     0.041 A 
ATOM     20  C   UNL A   1      33.790  34.736  32.061  1.00  0.00     0.041 A 
ATOM     21  C   UNL A   1      34.313  35.786  32.817  1.00  0.00     0.027 A 
ATOM     22  C   UNL A   1      34.029  33.411  32.441  1.00  0.00     0.027 A 
ATOM     23  C   UNL A   1      35.136  35.507  33.906  1.00  0.00     0.016 A 
ATOM     24  C   UNL A   1      34.891  33.131  33.501  1.00  0.00     0.016 A 
BRANCH  20  25
ATOM     25  N   UNL A   1      33.005  34.954  30.927  1.00  0.00    -0.322 N 
ATOM     26  C   UNL A   1      33.296  34.841  29.585  1.00  0.00     0.255 C 
ATOM     27  O   UNL A   1      32.573  35.444  28.787  1.00  0.00    -0.269 OA
ATOM     28  H   UNL A   1      32.082  35.238  31.120  1.00  0.00     0.170 HD
BRANCH  26  29
ATOM     29  C   UNL A   1      34.351  33.919  29.047  1.00  0.00     0.040 A 
ATOM     30  C   UNL A   1      38.125  33.415  28.846  1.00  0.00     0.044 C 
ATOM     31  C   UNL A   1      36.654  33.170  28.710  1.00  0.00    -0.050 A 
ATOM     32  C   UNL A   1      36.193  32.023  28.065  1.00  0.00     0.003 A 
ATOM     33  C   UNL A   1      35.728  34.069  29.263  1.00  0.00     0.017 A 
ATOM     34  C   UNL A   1      34.827  31.815  27.906  1.00  0.00     0.001 A 
ATOM     35  C   UNL A   1      33.915  32.767  28.370  1.00  0.00     0.014 A 
ENDBRANCH  26  29
ENDBRANCH  20  25
ENDBRANCH  16  19
ENDBRANCH  12  15
ENDBRANCH   6  11
ENDBRANCH   3   5
ENDBRANCH   2   3
ENDBRANCH   1   2
BRANCH   1  36
ATOM     36  C   UNL A   1      43.553  28.666  34.864  1.00  0.00     0.275 C 
BRANCH  36  37
ATOM     37  O   UNL A   1      43.609  26.829  35.225  1.00  0.00    -0.458 OA
BRANCH  37  38
ATOM     38  C   UNL A   1      44.123  25.310  34.630  1.00  0.00     0.338 C 
ATOM     39  O   UNL A   1      44.124  24.453  35.531  1.00  0.00    -0.246 OA
BRANCH  38  40
ATOM     40  C   UNL A   1      45.026  24.750  33.075  1.00  0.00     0.060 A 
ATOM     41  C   UNL A   1      46.380  25.125  32.958  1.00  0.00     0.016 A 
ATOM     42  C   UNL A   1      44.566  24.617  31.668  1.00  0.00     0.016 A 
ATOM     43  C   UNL A   1      46.913  25.797  31.698  1.00  0.00     0.010 A 
ATOM     44  C   UNL A   1      45.119  25.116  30.425  1.00  0.00     0.010 A 
ATOM     45  C   UNL A   1      46.174  25.980  30.479  1.00  0.00    -0.014 A 
BRANCH  45  46
ATOM     46  C   UNL A   1      46.065  27.256  29.582  1.00  0.00     0.031 A 
ATOM     47  C   UNL A   1      46.220  28.664  30.049  1.00  0.00     0.074 A 
ATOM     48  C   UNL A   1      46.189  27.324  28.210  1.00  0.00     0.049 A 
ATOM     49  N   UNL A   1      45.360  29.606  29.812  1.00  0.00    -0.248 NA
ATOM     50  C   UNL A   1      47.521  29.173  30.460  1.00  0.00     0.031 C 
ATOM     51  C   UNL A   1      45.937  28.428  27.260  1.00  0.00     0.029 A 
ATOM     52  N   UNL A   1      46.412  26.328  27.288  1.00  0.00    -0.354 N 
ATOM     53  C   UNL A   1      46.077  30.803  29.679  1.00  0.00     0.074 A 
ATOM     54  C   UNL A   1      47.378  30.489  30.240  1.00  0.00     0.031 C 
ATOM     55  C   UNL A   1      45.485  27.926  26.092  1.00  0.00     0.029 A 
ATOM     56  C   UNL A   1      45.539  26.492  26.191  1.00  0.00     0.049 A 
ATOM     57  H   UNL A   1      47.079  25.610  27.379  1.00  0.00     0.167 HD
ATOM     58  C   UNL A   1      45.593  31.853  28.916  1.00  0.00     0.037 A 
ATOM     59  C   UNL A   1      44.545  25.559  26.074  1.00  0.00     0.037 A 
ATOM     60  C   UNL A   1      44.453  31.431  28.063  1.00  0.00     0.049 A 
ATOM     61  C   UNL A   1      43.282  26.167  26.794  1.00  0.00     0.074 A 
ATOM     62  C   UNL A   1      44.154  31.417  26.705  1.00  0.00     0.029 A 
ATOM     63  N   UNL A   1      43.443  30.704  28.642  1.00  0.00    -0.354 N 
ATOM     64  N   UNL A   1      42.950  27.441  26.745  1.00  0.00    -0.248 NA
ATOM     65  C   UNL A   1      42.394  25.444  27.722  1.00  0.00     0.031 C 
ATOM     66  C   UNL A   1      43.026  30.552  26.501  1.00  0.00     0.029 A 
ATOM     67  C   UNL A   1      42.648  30.049  27.733  1.00  0.00     0.049 A 
ATOM     68  H   UNL A   1      43.303  30.655  29.616  1.00  0.00     0.167 HD
ATOM     69  C   UNL A   1      42.074  27.730  27.786  1.00  0.00     0.074 A 
ATOM     70  C   UNL A   1      41.706  26.434  28.318  1.00  0.00     0.031 C 
ATOM     71  C   UNL A   1      41.790  28.992  28.255  1.00  0.00     0.037 A 
BRANCH  58  72
ATOM     72  C   UNL A   1      46.169  33.273  28.767  1.00  0.00     0.058 A 
ATOM     73  C   UNL A   1      47.289  33.504  27.921  1.00  0.00     0.135 A 
ATOM     74  C   UNL A   1      45.641  34.458  29.320  1.00  0.00     0.135 A 
ATOM     75  F   UNL A   1      47.862  32.511  27.225  1.00  0.00    -0.206 F 
ATOM     76  C   UNL A   1      47.852  34.767  27.692  1.00  0.00     0.059 A 
ATOM     77  C   UNL A   1      46.192  35.732  29.114  1.00  0.00     0.059 A 
ATOM     78  F   UNL A   1      44.525  34.472  30.047  1.00  0.00    -0.206 F 
ATOM     79  C   UNL A   1      47.301  35.882  28.300  1.00  0.00     0.060 A 
BRANCH  79  80
ATOM     80  S   UNL A   1      48.003  37.510  27.971  1.00  0.00     0.124 S 
ATOM     81  O   UNL A   1      49.436  37.232  27.979  1.00  0.00    -0.237 OA
ATOM     82  O   UNL A   1      47.427  37.839  26.670  1.00  0.00    -0.237 OA
ATOM     83  O   UNL A   1      47.523  38.322  29.085  1.00  0.00    -0.744 OA
ENDBRANCH  79  80
ENDBRANCH  58  72
BRANCH  59  84
ATOM     84  C   UNL A   1      45.248  24.187  26.282  1.00  0.00     0.058 A 
ATOM     85  C   UNL A   1      44.621  23.181  27.015  1.00  0.00     0.135 A 
ATOM     86  C   UNL A   1      45.761  23.605  25.177  1.00  0.00     0.135 A 
ATOM     87  F   UNL A   1      44.237  23.443  28.278  1.00  0.00    -0.206 F 
ATOM     88  C   UNL A   1      44.257  21.833  26.447  1.00  0.00     0.059 A 
ATOM     89  C   UNL A   1      45.079  22.416  24.591  1.00  0.00     0.059 A 
ATOM     90  F   UNL A   1      46.512  24.364  24.376  1.00  0.00    -0.206 F 
ATOM     91  C   UNL A   1      44.405  21.283  25.030  1.00  0.00     0.060 A 
BRANCH  91  92
ATOM     92  S   UNL A   1      44.903  19.121  24.166  1.00  0.00     0.124 S 
ATOM     93  O   UNL A   1      44.592  18.987  22.735  1.00  0.00    -0.237 OA
ATOM     94  O   UNL A   1      46.325  18.848  24.303  1.00  0.00    -0.237 OA
ATOM     95  O   UNL A   1      44.119  18.078  24.816  1.00  0.00    -0.744 OA
ENDBRANCH  91  92
ENDBRANCH  59  84
BRANCH  71  96
ATOM     96  C   UNL A   1      40.745  29.326  29.336  1.00  0.00     0.058 A 
ATOM     97  C   UNL A   1      40.991  29.078  30.698  1.00  0.00     0.135 A 
ATOM     98  C   UNL A   1      39.408  29.718  29.048  1.00  0.00     0.135 A 
ATOM     99  F   UNL A   1      42.200  28.667  31.110  1.00  0.00    -0.206 F 
ATOM    100  C   UNL A   1      40.000  29.203  31.686  1.00  0.00     0.059 A 
ATOM    101  C   UNL A   1      38.393  29.794  30.004  1.00  0.00     0.059 A 
ATOM    102  F   UNL A   1      39.014  30.079  27.820  1.00  0.00    -0.206 F 
ATOM    103  C   UNL A   1      38.698  29.541  31.327  1.00  0.00     0.060 A 
BRANCH 103 104
ATOM    104  S   UNL A   1      37.392  29.581  32.572  1.00  0.00     0.124 S 
ATOM    105  O   UNL A   1      37.807  30.685  33.432  1.00  0.00    -0.237 OA
ATOM    106  O   UNL A   1      36.210  29.827  31.753  1.00  0.00    -0.237 OA
ATOM    107  O   UNL A   1      37.468  28.259  33.187  1.00  0.00    -0.744 OA
ENDBRANCH 103 104
ENDBRANCH  71  96
ENDBRANCH  45  46
ENDBRANCH  38  40
ENDBRANCH  37  38
ENDBRANCH  36  37
ENDBRANCH   1  36
TORSDOF 19
ENDMDL
MODEL 3
REMARK VINA RESULT:     -14.9      3.116      9.504
REMARK SMILES Cc1cccc(C(=O)Nc2ccc(C(=O)NNC(=O)c3ccccc3C(=O)OCCOC(=O)c3ccc(-c4c5nc(c(-c6c(F)cc(S(=O)(=O)[O-])cc6F)c6ccc([nH]6)c(-c6c(F)cc(S(=O)(=O)[O-])cc6F)c6nc(c(-c7c(F)cc(S(=O)(=O)[O-])cc7F)c7ccc4[nH]7)C=C6)C=C5)cc3)cc2)c1
REMARK SMILES IDX 29 1 28 2 26 3 27 4 25 5 20 6 21 7 22 8 24 9 23 10 18 11
REMARK SMILES IDX 17 12 19 14 16 15 14 16 15 17 13 19 10 20 11 21 101 22 12 23
REMARK SMILES IDX 100 24 9 25 7 26 8 27 6 29 1 30 2 31 3 32 102 33 4 34 5 35
REMARK SMILES IDX 30 36 31 37 32 38 33 39 34 40 35 41 99 42 36 43 98 44 37 45
REMARK SMILES IDX 38 46 39 47 92 48 40 49 97 50 91 51 93 52 41 53 96 54 90 55
REMARK SMILES IDX 89 56 42 58 76 59 55 60 75 61 56 62 59 63 74 64 94 65 57 66
REMARK SMILES IDX 58 67 73 69 95 70 60 71 43 72 44 73 53 74 45 75 46 76 52 77
REMARK SMILES IDX 54 78 47 79 48 80 49 81 50 82 51 83 77 84 78 85 87 86 79 87
REMARK SMILES IDX 80 88 86 89 88 90 81 91 82 92 83 93 84 94 85 95 61 96 62 97
REMARK SMILES IDX 71 98 63 99 64 100 70 101 72 102 65 103 66 104 67 105 68 106
REMARK SMILES IDX 69 107
REMARK H PARENT 17 13 16 18 9 28 93 57 59 68
REMARK Flexibility Score: inf
ROOT
ATOM      1  C   UNL A   1      44.249  24.737  28.224  1.00  0.00     0.275 C 
ENDROOT
BRANCH   1   2
ATOM      2  O   UNL A   1      43.328  24.516  26.861  1.00  0.00    -0.458 OA
BRANCH   2   3
ATOM      3  C   UNL A   1      43.031  25.196  25.708  1.00  0.00     0.339 C 
ATOM      4  O   UNL A   1      43.480  24.850  24.624  1.00  0.00    -0.246 OA
BRANCH   3   5
ATOM      5  C   UNL A   1      42.035  26.445  25.786  1.00  0.00     0.072 A 
ATOM      6  C   UNL A   1      40.825  26.498  26.539  1.00  0.00     0.056 A 
ATOM      7  C   UNL A   1      40.197  27.736  26.890  1.00  0.00     0.015 A 
ATOM      8  C   UNL A   1      40.770  28.952  26.573  1.00  0.00     0.001 A 
ATOM      9  C   UNL A   1      42.458  27.706  25.335  1.00  0.00     0.016 A 
ATOM     10  C   UNL A   1      41.901  28.931  25.782  1.00  0.00     0.001 A 
BRANCH   6  11
ATOM     11  C   UNL A   1      40.095  25.350  27.119  1.00  0.00     0.270 C 
ATOM     12  N   UNL A   1      39.537  24.462  26.248  1.00  0.00    -0.263 N 
ATOM     13  H   UNL A   1      39.179  24.729  25.371  1.00  0.00     0.191 HD
ATOM     14  O   UNL A   1      40.019  25.199  28.337  1.00  0.00    -0.267 OA
BRANCH  12  15
ATOM     15  N   UNL A   1      39.515  23.133  26.706  1.00  0.00    -0.263 N 
ATOM     16  C   UNL A   1      38.785  22.192  26.015  1.00  0.00     0.269 C 
ATOM     17  O   UNL A   1      39.209  21.061  25.811  1.00  0.00    -0.267 OA
ATOM     18  H   UNL A   1      40.016  22.877  27.513  1.00  0.00     0.191 HD
BRANCH  16  19
ATOM     19  C   UNL A   1      37.435  22.590  25.536  1.00  0.00     0.041 A 
ATOM     20  C   UNL A   1      34.875  23.304  24.687  1.00  0.00     0.041 A 
ATOM     21  C   UNL A   1      35.836  22.934  23.746  1.00  0.00     0.027 A 
ATOM     22  C   UNL A   1      35.219  23.402  26.040  1.00  0.00     0.027 A 
ATOM     23  C   UNL A   1      37.118  22.590  24.170  1.00  0.00     0.016 A 
ATOM     24  C   UNL A   1      36.487  23.011  26.470  1.00  0.00     0.016 A 
BRANCH  20  25
ATOM     25  N   UNL A   1      33.559  23.606  24.329  1.00  0.00    -0.322 N 
ATOM     26  C   UNL A   1      32.568  22.828  23.772  1.00  0.00     0.255 C 
ATOM     27  O   UNL A   1      31.635  23.406  23.206  1.00  0.00    -0.269 OA
ATOM     28  H   UNL A   1      33.294  24.537  24.507  1.00  0.00     0.170 HD
BRANCH  26  29
ATOM     29  C   UNL A   1      32.498  21.338  23.940  1.00  0.00     0.040 A 
ATOM     30  C   UNL A   1      32.154  18.078  21.993  1.00  0.00     0.044 C 
ATOM     31  C   UNL A   1      32.352  19.038  23.126  1.00  0.00    -0.050 A 
ATOM     32  C   UNL A   1      32.499  18.561  24.429  1.00  0.00     0.003 A 
ATOM     33  C   UNL A   1      32.431  20.419  22.884  1.00  0.00     0.017 A 
ATOM     34  C   UNL A   1      32.644  19.455  25.484  1.00  0.00     0.001 A 
ATOM     35  C   UNL A   1      32.618  20.832  25.245  1.00  0.00     0.014 A 
ENDBRANCH  26  29
ENDBRANCH  20  25
ENDBRANCH  16  19
ENDBRANCH  12  15
ENDBRANCH   6  11
ENDBRANCH   3   5
ENDBRANCH   2   3
ENDBRANCH   1   2
BRANCH   1  36
ATOM     36  C   UNL A   1      44.157  26.242  29.441  1.00  0.00     0.275 C 
BRANCH  36  37
ATOM     37  O   UNL A   1      43.821  26.177  31.283  1.00  0.00    -0.458 OA
BRANCH  37  38
ATOM     38  C   UNL A   1      44.339  26.743  32.812  1.00  0.00     0.338 C 
ATOM     39  O   UNL A   1      45.255  26.035  33.264  1.00  0.00    -0.246 OA
BRANCH  38  40
ATOM     40  C   UNL A   1      43.604  27.913  34.091  1.00  0.00     0.060 A 
ATOM     41  C   UNL A   1      42.420  27.492  34.730  1.00  0.00     0.016 A 
ATOM     42  C   UNL A   1      43.530  29.397  34.136  1.00  0.00     0.016 A 
ATOM     43  C   UNL A   1      41.196  28.397  34.813  1.00  0.00     0.010 A 
ATOM     44  C   UNL A   1      42.415  30.296  34.356  1.00  0.00     0.010 A 
ATOM     45  C   UNL A   1      41.155  29.775  34.410  1.00  0.00    -0.014 A 
BRANCH  45  46
ATOM     46  C   UNL A   1      40.068  30.516  33.564  1.00  0.00     0.031 A 
ATOM     47  C   UNL A   1      39.443  30.004  32.311  1.00  0.00     0.074 A 
ATOM     48  C   UNL A   1      39.238  31.535  33.982  1.00  0.00     0.049 A 
ATOM     49  N   UNL A   1      39.375  30.680  31.205  1.00  0.00    -0.248 NA
ATOM     50  C   UNL A   1      38.521  28.878  32.346  1.00  0.00     0.031 C 
ATOM     51  C   UNL A   1      38.310  32.409  33.233  1.00  0.00     0.029 A 
ATOM     52  N   UNL A   1      39.153  32.169  35.200  1.00  0.00    -0.354 N 
ATOM     53  C   UNL A   1      38.182  30.316  30.565  1.00  0.00     0.074 A 
ATOM     54  C   UNL A   1      37.785  29.096  31.245  1.00  0.00     0.031 C 
ATOM     55  C   UNL A   1      38.276  33.630  33.806  1.00  0.00     0.029 A 
ATOM     56  C   UNL A   1      39.071  33.565  35.003  1.00  0.00     0.049 A 
ATOM     57  H   UNL A   1      39.151  31.719  36.075  1.00  0.00     0.167 HD
ATOM     58  C   UNL A   1      37.535  31.182  29.699  1.00  0.00     0.037 A 
ATOM     59  C   UNL A   1      40.173  34.286  35.373  1.00  0.00     0.037 A 
ATOM     60  C   UNL A   1      38.073  32.563  29.801  1.00  0.00     0.049 A 
ATOM     61  C   UNL A   1      41.050  34.450  34.075  1.00  0.00     0.074 A 
ATOM     62  C   UNL A   1      37.574  33.827  30.091  1.00  0.00     0.029 A 
ATOM     63  N   UNL A   1      39.436  32.730  29.778  1.00  0.00    -0.354 N 
ATOM     64  N   UNL A   1      40.550  34.648  32.871  1.00  0.00    -0.248 NA
ATOM     65  C   UNL A   1      42.510  34.267  33.997  1.00  0.00     0.031 C 
ATOM     66  C   UNL A   1      38.683  34.696  30.371  1.00  0.00     0.029 A 
ATOM     67  C   UNL A   1      39.845  33.956  30.246  1.00  0.00     0.049 A 
ATOM     68  H   UNL A   1      40.059  32.039  29.458  1.00  0.00     0.167 HD
ATOM     69  C   UNL A   1      41.512  34.334  31.916  1.00  0.00     0.074 A 
ATOM     70  C   UNL A   1      42.734  34.172  32.674  1.00  0.00     0.031 C 
ATOM     71  C   UNL A   1      41.256  34.089  30.586  1.00  0.00     0.037 A 
BRANCH  58  72
ATOM     72  C   UNL A   1      36.305  30.909  28.814  1.00  0.00     0.058 A 
ATOM     73  C   UNL A   1      36.270  29.760  27.976  1.00  0.00     0.135 A 
ATOM     74  C   UNL A   1      35.101  31.642  28.797  1.00  0.00     0.135 A 
ATOM     75  F   UNL A   1      37.284  28.884  27.939  1.00  0.00    -0.206 F 
ATOM     76  C   UNL A   1      35.177  29.411  27.170  1.00  0.00     0.059 A 
ATOM     77  C   UNL A   1      33.997  31.318  27.993  1.00  0.00     0.059 A 
ATOM     78  F   UNL A   1      34.888  32.685  29.598  1.00  0.00    -0.206 F 
ATOM     79  C   UNL A   1      34.041  30.201  27.178  1.00  0.00     0.060 A 
BRANCH  79  80
ATOM     80  S   UNL A   1      32.623  29.725  26.172  1.00  0.00     0.124 S 
ATOM     81  O   UNL A   1      33.256  29.328  24.918  1.00  0.00    -0.237 OA
ATOM     82  O   UNL A   1      32.035  28.642  26.955  1.00  0.00    -0.237 OA
ATOM     83  O   UNL A   1      31.825  30.946  26.104  1.00  0.00    -0.744 OA
ENDBRANCH  79  80
ENDBRANCH  58  72
BRANCH  59  84
ATOM     84  C   UNL A   1      40.564  33.741  36.778  1.00  0.00     0.058 A 
ATOM     85  C   UNL A   1      41.871  33.334  37.034  1.00  0.00     0.135 A 
ATOM     86  C   UNL A   1      40.169  34.482  37.836  1.00  0.00     0.135 A 
ATOM     87  F   UNL A   1      42.419  32.384  36.253  1.00  0.00    -0.206 F 
ATOM     88  C   UNL A   1      42.754  33.961  38.083  1.00  0.00     0.059 A 
ATOM     89  C   UNL A   1      41.180  35.272  38.595  1.00  0.00     0.059 A 
ATOM     90  F   UNL A   1      38.898  34.888  37.862  1.00  0.00    -0.206 F 
ATOM     91  C   UNL A   1      42.499  35.144  39.014  1.00  0.00     0.060 A 
BRANCH  91  92
ATOM     92  S   UNL A   1      43.149  35.624  41.253  1.00  0.00     0.124 S 
ATOM     93  O   UNL A   1      42.483  36.813  41.804  1.00  0.00    -0.237 OA
ATOM     94  O   UNL A   1      42.791  34.516  42.123  1.00  0.00    -0.237 OA
ATOM     95  O   UNL A   1      44.574  35.915  41.358  1.00  0.00    -0.744 OA
ENDBRANCH  91  92
ENDBRANCH  59  84
BRANCH  71  96
ATOM     96  C   UNL A   1      42.325  33.843  29.505  1.00  0.00     0.058 A 
ATOM     97  C   UNL A   1      42.578  34.787  28.494  1.00  0.00     0.135 A 
ATOM     98  C   UNL A   1      42.990  32.600  29.319  1.00  0.00     0.135 A 
ATOM     99  F   UNL A   1      41.988  35.992  28.521  1.00  0.00    -0.206 F 
ATOM    100  C   UNL A   1      43.414  34.522  27.397  1.00  0.00     0.059 A 
ATOM    101  C   UNL A   1      43.779  32.294  28.209  1.00  0.00     0.059 A 
ATOM    102  F   UNL A   1      42.936  31.615  30.225  1.00  0.00    -0.206 F 
ATOM    103  C   UNL A   1      43.993  33.264  27.250  1.00  0.00     0.060 A 
BRANCH 103 104
ATOM    104  S   UNL A   1      44.965  32.875  25.780  1.00  0.00     0.124 S 
ATOM    105  O   UNL A   1      46.049  33.852  25.848  1.00  0.00    -0.237 OA
ATOM    106  O   UNL A   1      45.346  31.490  26.036  1.00  0.00    -0.237 OA
ATOM    107  O   UNL A   1      44.021  33.077  24.685  1.00  0.00    -0.744 OA
ENDBRANCH 103 104
ENDBRANCH  71  96
ENDBRANCH  45  46
ENDBRANCH  38  40
ENDBRANCH  37  38
ENDBRANCH  36  37
ENDBRANCH   1  36
TORSDOF 19
ENDMDL
