MODEL 1
REMARK VINA RESULT:     -12.5      0.000      0.000
REMARK SMILES O=C(OCCOC(=O)c1ccc(C[N@H+]2CC[N@H+]3CCCC[C@@H]3C2)c(F)c1)c1ccc(-c2c3nc(c(-c4c(F)cc(S(=O)(=O)[O-])cc4F)c4ccc([nH]4)c(-c4c(F)cc(S(=O)(=O)[O-])cc4F)c4nc(c(-c5c(F)cc(S(=O)(=O)[O-])cc5F)c5ccc2[nH]5)C=C4)C=C3)cc1
REMARK SMILES IDX 4 1 3 2 2 3 1 4 27 5 28 6 92 7 29 8 91 9 30 10 31 11 32 12
REMARK SMILES IDX 85 13 33 14 90 15 84 16 86 17 34 18 89 19 83 20 82 21 35 23
REMARK SMILES IDX 69 24 48 25 68 26 49 27 52 28 67 29 87 30 50 31 51 32 66 34
REMARK SMILES IDX 88 35 53 36 36 37 37 38 46 39 38 40 39 41 45 42 47 43 40 44
REMARK SMILES IDX 41 45 42 46 43 47 44 48 70 49 71 50 80 51 72 52 73 53 79 54
REMARK SMILES IDX 81 55 74 56 75 57 76 58 77 59 78 60 54 61 55 62 64 63 56 64
REMARK SMILES IDX 57 65 63 66 65 67 58 68 59 69 60 70 61 71 62 72 5 73 6 74
REMARK SMILES IDX 7 75 8 76 9 77 10 78 26 79 11 80 24 81 12 82 25 83 13 84
REMARK SMILES IDX 14 85 15 86 23 87 16 89 22 90 17 91 21 92 18 93 20 95 19 96
REMARK H PARENT 86 22 52 33 14 88 17 94
REMARK Flexibility Score: inf
ROOT
ATOM      1  C   UNL A   1      40.317  22.632  27.089  1.00  0.00     0.275 C 
ENDROOT
BRANCH   1   2
ATOM      2  O   UNL A   1      41.142  23.632  26.475  1.00  0.00    -0.458 OA
BRANCH   2   3
ATOM      3  C   UNL A   1      40.956  24.976  26.440  1.00  0.00     0.338 C 
ATOM      4  O   UNL A   1      40.914  25.532  25.342  1.00  0.00    -0.246 OA
BRANCH   3   5
ATOM      5  C   UNL A   1      40.852  25.838  27.668  1.00  0.00     0.060 A 
ATOM      6  C   UNL A   1      41.840  26.705  28.122  1.00  0.00     0.016 A 
ATOM      7  C   UNL A   1      39.638  25.834  28.381  1.00  0.00     0.016 A 
ATOM      8  C   UNL A   1      41.659  27.540  29.199  1.00  0.00     0.010 A 
ATOM      9  C   UNL A   1      39.417  26.740  29.433  1.00  0.00     0.010 A 
ATOM     10  C   UNL A   1      40.428  27.636  29.804  1.00  0.00    -0.014 A 
BRANCH  10  11
ATOM     11  C   UNL A   1      40.402  28.606  30.911  1.00  0.00     0.031 A 
ATOM     12  C   UNL A   1      39.037  29.528  30.791  1.00  0.00     0.074 A 
ATOM     13  C   UNL A   1      41.421  28.641  32.072  1.00  0.00     0.049 A 
ATOM     14  N   UNL A   1      38.566  30.287  31.757  1.00  0.00    -0.248 NA
ATOM     15  C   UNL A   1      38.303  29.714  29.525  1.00  0.00     0.031 C 
ATOM     16  C   UNL A   1      42.490  28.228  32.728  1.00  0.00     0.029 A 
ATOM     17  N   UNL A   1      41.762  29.483  33.678  1.00  0.00    -0.354 N 
ATOM     18  C   UNL A   1      37.728  31.198  31.195  1.00  0.00     0.074 A 
ATOM     19  C   UNL A   1      37.522  30.757  29.824  1.00  0.00     0.031 C 
ATOM     20  C   UNL A   1      43.345  28.277  33.740  1.00  0.00     0.029 A 
ATOM     21  C   UNL A   1      42.800  29.253  34.468  1.00  0.00     0.049 A 
ATOM     22  H   UNL A   1      41.115  30.164  33.974  1.00  0.00     0.167 HD
ATOM     23  C   UNL A   1      37.307  32.350  31.762  1.00  0.00     0.037 A 
ATOM     24  C   UNL A   1      43.154  29.722  35.639  1.00  0.00     0.037 A 
ATOM     25  C   UNL A   1      37.734  32.916  33.039  1.00  0.00     0.049 A 
ATOM     26  C   UNL A   1      42.276  30.804  36.106  1.00  0.00     0.074 A 
ATOM     27  C   UNL A   1      37.262  34.091  33.604  1.00  0.00     0.029 A 
ATOM     28  N   UNL A   1      38.722  32.447  33.919  1.00  0.00    -0.354 N 
ATOM     29  N   UNL A   1      41.213  31.302  35.514  1.00  0.00    -0.248 NA
ATOM     30  C   UNL A   1      42.639  31.402  37.373  1.00  0.00     0.031 C 
ATOM     31  C   UNL A   1      38.026  34.392  34.731  1.00  0.00     0.029 A 
ATOM     32  C   UNL A   1      38.929  33.364  34.959  1.00  0.00     0.049 A 
ATOM     33  H   UNL A   1      39.202  31.593  33.820  1.00  0.00     0.167 HD
ATOM     34  C   UNL A   1      40.800  32.337  36.317  1.00  0.00     0.074 A 
ATOM     35  C   UNL A   1      41.665  32.291  37.492  1.00  0.00     0.031 C 
ATOM     36  C   UNL A   1      39.847  33.273  36.088  1.00  0.00     0.037 A 
BRANCH  23  37
ATOM     37  C   UNL A   1      36.298  33.098  30.954  1.00  0.00     0.058 A 
ATOM     38  C   UNL A   1      36.655  33.899  29.861  1.00  0.00     0.135 A 
ATOM     39  C   UNL A   1      34.951  33.055  31.345  1.00  0.00     0.135 A 
ATOM     40  F   UNL A   1      37.927  33.942  29.433  1.00  0.00    -0.206 F 
ATOM     41  C   UNL A   1      35.710  34.684  29.215  1.00  0.00     0.059 A 
ATOM     42  C   UNL A   1      33.987  33.797  30.691  1.00  0.00     0.059 A 
ATOM     43  F   UNL A   1      34.565  32.265  32.360  1.00  0.00    -0.206 F 
ATOM     44  C   UNL A   1      34.382  34.633  29.649  1.00  0.00     0.060 A 
BRANCH  44  45
ATOM     45  S   UNL A   1      33.167  35.695  28.853  1.00  0.00     0.124 S 
ATOM     46  O   UNL A   1      32.466  34.751  27.993  1.00  0.00    -0.237 OA
ATOM     47  O   UNL A   1      32.417  36.204  29.996  1.00  0.00    -0.237 OA
ATOM     48  O   UNL A   1      33.989  36.685  28.160  1.00  0.00    -0.744 OA
ENDBRANCH  44  45
ENDBRANCH  23  37
BRANCH  24  49
ATOM     49  C   UNL A   1      44.197  28.998  36.361  1.00  0.00     0.058 A 
ATOM     50  C   UNL A   1      45.553  29.360  36.291  1.00  0.00     0.135 A 
ATOM     51  C   UNL A   1      43.858  27.811  37.013  1.00  0.00     0.135 A 
ATOM     52  F   UNL A   1      45.946  30.427  35.577  1.00  0.00    -0.206 F 
ATOM     53  C   UNL A   1      46.532  28.594  36.893  1.00  0.00     0.059 A 
ATOM     54  C   UNL A   1      44.813  27.054  37.668  1.00  0.00     0.059 A 
ATOM     55  F   UNL A   1      42.586  27.381  37.008  1.00  0.00    -0.206 F 
ATOM     56  C   UNL A   1      46.146  27.464  37.610  1.00  0.00     0.060 A 
BRANCH  56  57
ATOM     57  S   UNL A   1      47.416  26.580  38.523  1.00  0.00     0.124 S 
ATOM     58  O   UNL A   1      47.017  26.833  39.904  1.00  0.00    -0.237 OA
ATOM     59  O   UNL A   1      47.224  25.214  38.044  1.00  0.00    -0.237 OA
ATOM     60  O   UNL A   1      48.651  27.227  38.093  1.00  0.00    -0.744 OA
ENDBRANCH  56  57
ENDBRANCH  24  49
BRANCH  36  61
ATOM     61  C   UNL A   1      39.773  34.342  37.150  1.00  0.00     0.058 A 
ATOM     62  C   UNL A   1      40.496  35.533  37.006  1.00  0.00     0.135 A 
ATOM     63  C   UNL A   1      38.958  34.199  38.291  1.00  0.00     0.135 A 
ATOM     64  F   UNL A   1      41.290  35.720  35.940  1.00  0.00    -0.206 F 
ATOM     65  C   UNL A   1      40.410  36.549  37.949  1.00  0.00     0.059 A 
ATOM     66  C   UNL A   1      38.819  35.224  39.220  1.00  0.00     0.059 A 
ATOM     67  F   UNL A   1      38.229  33.085  38.468  1.00  0.00    -0.206 F 
ATOM     68  C   UNL A   1      39.557  36.392  39.043  1.00  0.00     0.060 A 
BRANCH  68  69
ATOM     69  S   UNL A   1      39.407  37.759  40.211  1.00  0.00     0.124 S 
ATOM     70  O   UNL A   1      38.291  38.511  39.648  1.00  0.00    -0.237 OA
ATOM     71  O   UNL A   1      39.137  37.060  41.463  1.00  0.00    -0.237 OA
ATOM     72  O   UNL A   1      40.710  38.416  40.135  1.00  0.00    -0.744 OA
ENDBRANCH  68  69
ENDBRANCH  36  61
ENDBRANCH  10  11
ENDBRANCH   3   5
ENDBRANCH   2   3
ENDBRANCH   1   2
BRANCH   1  73
ATOM     73  C   UNL A   1      39.693  21.627  26.087  1.00  0.00     0.275 C 
BRANCH  73  74
ATOM     74  O   UNL A   1      38.269  21.784  25.827  1.00  0.00    -0.458 OA
BRANCH  74  75
ATOM     75  C   UNL A   1      37.637  20.808  25.116  1.00  0.00     0.338 C 
ATOM     76  O   UNL A   1      38.072  19.691  24.900  1.00  0.00    -0.246 OA
BRANCH  75  77
ATOM     77  C   UNL A   1      36.255  21.238  24.744  1.00  0.00     0.063 A 
ATOM     78  C   UNL A   1      35.154  20.421  24.982  1.00  0.00     0.016 A 
ATOM     79  C   UNL A   1      36.034  22.496  24.177  1.00  0.00     0.055 A 
ATOM     80  C   UNL A   1      33.862  20.841  24.596  1.00  0.00     0.013 A 
ATOM     81  C   UNL A   1      34.758  22.862  23.714  1.00  0.00     0.132 A 
ATOM     82  C   UNL A   1      33.642  22.036  23.879  1.00  0.00     0.042 A 
ATOM     83  F   UNL A   1      34.623  24.047  23.101  1.00  0.00    -0.206 F 
BRANCH  82  84
ATOM     84  C   UNL A   1      32.261  22.462  23.354  1.00  0.00     0.302 C 
BRANCH  84  85
ATOM     85  N   UNL A   1      31.250  23.091  24.230  1.00  0.00    -0.322 N 
ATOM     86  C   UNL A   1      31.582  23.305  25.674  1.00  0.00     0.324 C 
ATOM     87  C   UNL A   1      30.506  24.209  23.636  1.00  0.00     0.328 C 
ATOM     88  H   UNL A   1      30.599  22.308  24.282  1.00  0.00     0.348 HD
ATOM     89  C   UNL A   1      31.890  24.712  26.319  1.00  0.00     0.324 C 
ATOM     90  C   UNL A   1      31.496  25.432  23.716  1.00  0.00     0.239 C 
ATOM     91  N   UNL A   1      31.250  25.818  25.650  1.00  0.00    -0.323 N 
ATOM     92  C   UNL A   1      31.574  26.988  22.256  1.00  0.00     0.071 C 
ATOM     93  C   UNL A   1      31.465  27.568  26.608  1.00  0.00     0.262 C 
ATOM     94  H   UNL A   1      30.241  25.951  25.697  1.00  0.00     0.348 HD
ATOM     95  C   UNL A   1      31.579  28.898  23.183  1.00  0.00     0.012 C 
ATOM     96  C   UNL A   1      31.595  29.322  25.258  1.00  0.00     0.062 C 
ENDBRANCH  84  85
ENDBRANCH  82  84
ENDBRANCH  75  77
ENDBRANCH  74  75
ENDBRANCH  73  74
ENDBRANCH   1  73
TORSDOF 16
ENDMDL
MODEL 2
REMARK VINA RESULT:     -12.4      6.899     12.590
REMARK SMILES O=C(OCCOC(=O)c1ccc(C[N@H+]2CC[N@H+]3CCCC[C@@H]3C2)c(F)c1)c1ccc(-c2c3nc(c(-c4c(F)cc(S(=O)(=O)[O-])cc4F)c4ccc([nH]4)c(-c4c(F)cc(S(=O)(=O)[O-])cc4F)c4nc(c(-c5c(F)cc(S(=O)(=O)[O-])cc5F)c5ccc2[nH]5)C=C4)C=C3)cc1
REMARK SMILES IDX 4 1 3 2 2 3 1 4 27 5 28 6 92 7 29 8 91 9 30 10 31 11 32 12
REMARK SMILES IDX 85 13 33 14 90 15 84 16 86 17 34 18 89 19 83 20 82 21 35 23
REMARK SMILES IDX 69 24 48 25 68 26 49 27 52 28 67 29 87 30 50 31 51 32 66 34
REMARK SMILES IDX 88 35 53 36 36 37 37 38 46 39 38 40 39 41 45 42 47 43 40 44
REMARK SMILES IDX 41 45 42 46 43 47 44 48 70 49 71 50 80 51 72 52 73 53 79 54
REMARK SMILES IDX 81 55 74 56 75 57 76 58 77 59 78 60 54 61 55 62 64 63 56 64
REMARK SMILES IDX 57 65 63 66 65 67 58 68 59 69 60 70 61 71 62 72 5 73 6 74
REMARK SMILES IDX 7 75 8 76 9 77 10 78 26 79 11 80 24 81 12 82 25 83 13 84
REMARK SMILES IDX 14 85 15 86 23 87 16 89 22 90 17 91 21 92 18 93 20 95 19 96
REMARK H PARENT 86 22 52 33 14 88 17 94
REMARK Flexibility Score: inf
ROOT
ATOM      1  C   UNL A   1      35.431  32.207  28.286  1.00  0.00     0.275 C 
ENDROOT
BRANCH   1   2
ATOM      2  O   UNL A   1      35.815  31.683  29.566  1.00  0.00    -0.458 OA
BRANCH   2   3
ATOM      3  C   UNL A   1      36.479  30.532  29.841  1.00  0.00     0.338 C 
ATOM      4  O   UNL A   1      35.923  29.691  30.548  1.00  0.00    -0.246 OA
BRANCH   3   5
ATOM      5  C   UNL A   1      37.881  30.244  29.379  1.00  0.00     0.060 A 
ATOM      6  C   UNL A   1      39.023  30.371  30.163  1.00  0.00     0.016 A 
ATOM      7  C   UNL A   1      38.060  29.735  28.079  1.00  0.00     0.016 A 
ATOM      8  C   UNL A   1      40.273  30.006  29.721  1.00  0.00     0.010 A 
ATOM      9  C   UNL A   1      39.321  29.287  27.649  1.00  0.00     0.010 A 
ATOM     10  C   UNL A   1      40.424  29.379  28.507  1.00  0.00    -0.014 A 
BRANCH  10  11
ATOM     11  C   UNL A   1      41.821  29.022  28.211  1.00  0.00     0.031 A 
ATOM     12  C   UNL A   1      41.866  27.504  27.563  1.00  0.00     0.074 A 
ATOM     13  C   UNL A   1      43.022  29.984  28.353  1.00  0.00     0.049 A 
ATOM     14  N   UNL A   1      42.903  26.994  26.935  1.00  0.00    -0.248 NA
ATOM     15  C   UNL A   1      40.795  26.510  27.772  1.00  0.00     0.031 C 
ATOM     16  C   UNL A   1      43.594  31.134  28.657  1.00  0.00     0.029 A 
ATOM     17  N   UNL A   1      44.832  30.104  28.014  1.00  0.00    -0.354 N 
ATOM     18  C   UNL A   1      42.759  25.643  26.926  1.00  0.00     0.074 A 
ATOM     19  C   UNL A   1      41.400  25.386  27.376  1.00  0.00     0.031 C 
ATOM     20  C   UNL A   1      44.643  31.940  28.761  1.00  0.00     0.029 A 
ATOM     21  C   UNL A   1      45.603  31.146  28.283  1.00  0.00     0.049 A 
ATOM     22  H   UNL A   1      45.263  29.323  27.596  1.00  0.00     0.167 HD
ATOM     23  C   UNL A   1      43.735  24.738  26.694  1.00  0.00     0.037 A 
ATOM     24  C   UNL A   1      46.870  31.403  28.067  1.00  0.00     0.037 A 
ATOM     25  C   UNL A   1      45.160  25.000  26.507  1.00  0.00     0.049 A 
ATOM     26  C   UNL A   1      47.596  30.249  27.518  1.00  0.00     0.074 A 
ATOM     27  C   UNL A   1      46.133  24.048  26.244  1.00  0.00     0.029 A 
ATOM     28  N   UNL A   1      45.846  26.222  26.606  1.00  0.00    -0.354 N 
ATOM     29  N   UNL A   1      47.124  29.060  27.213  1.00  0.00    -0.248 NA
ATOM     30  C   UNL A   1      49.012  30.447  27.300  1.00  0.00     0.031 C 
ATOM     31  C   UNL A   1      47.389  24.653  26.304  1.00  0.00     0.029 A 
ATOM     32  C   UNL A   1      47.230  26.017  26.505  1.00  0.00     0.049 A 
ATOM     33  H   UNL A   1      45.417  27.098  26.728  1.00  0.00     0.167 HD
ATOM     34  C   UNL A   1      48.215  28.326  26.815  1.00  0.00     0.074 A 
ATOM     35  C   UNL A   1      49.334  29.262  26.805  1.00  0.00     0.031 C 
ATOM     36  C   UNL A   1      48.304  27.001  26.544  1.00  0.00     0.037 A 
BRANCH  23  37
ATOM     37  C   UNL A   1      43.259  23.323  26.635  1.00  0.00     0.058 A 
ATOM     38  C   UNL A   1      43.029  22.560  27.788  1.00  0.00     0.135 A 
ATOM     39  C   UNL A   1      43.104  22.712  25.382  1.00  0.00     0.135 A 
ATOM     40  F   UNL A   1      43.133  23.115  29.006  1.00  0.00    -0.206 F 
ATOM     41  C   UNL A   1      42.716  21.211  27.697  1.00  0.00     0.059 A 
ATOM     42  C   UNL A   1      42.753  21.381  25.268  1.00  0.00     0.059 A 
ATOM     43  F   UNL A   1      43.273  23.423  24.256  1.00  0.00    -0.206 F 
ATOM     44  C   UNL A   1      42.593  20.632  26.430  1.00  0.00     0.060 A 
BRANCH  44  45
ATOM     45  S   UNL A   1      42.247  18.870  26.312  1.00  0.00     0.124 S 
ATOM     46  O   UNL A   1      42.403  18.444  27.697  1.00  0.00    -0.237 OA
ATOM     47  O   UNL A   1      40.885  18.866  25.788  1.00  0.00    -0.237 OA
ATOM     48  O   UNL A   1      43.269  18.387  25.387  1.00  0.00    -0.744 OA
ENDBRANCH  44  45
ENDBRANCH  23  37
BRANCH  24  49
ATOM     49  C   UNL A   1      47.304  32.790  28.206  1.00  0.00     0.058 A 
ATOM     50  C   UNL A   1      47.825  33.300  29.408  1.00  0.00     0.135 A 
ATOM     51  C   UNL A   1      47.044  33.680  27.163  1.00  0.00     0.135 A 
ATOM     52  F   UNL A   1      47.984  32.509  30.482  1.00  0.00    -0.206 F 
ATOM     53  C   UNL A   1      48.125  34.641  29.548  1.00  0.00     0.059 A 
ATOM     54  C   UNL A   1      47.384  35.018  27.261  1.00  0.00     0.059 A 
ATOM     55  F   UNL A   1      46.449  33.246  26.041  1.00  0.00    -0.206 F 
ATOM     56  C   UNL A   1      47.935  35.483  28.455  1.00  0.00     0.060 A 
BRANCH  56  57
ATOM     57  S   UNL A   1      48.489  37.185  28.606  1.00  0.00     0.124 S 
ATOM     58  O   UNL A   1      48.477  37.371  30.053  1.00  0.00    -0.237 OA
ATOM     59  O   UNL A   1      49.807  37.121  27.982  1.00  0.00    -0.237 OA
ATOM     60  O   UNL A   1      47.480  37.934  27.864  1.00  0.00    -0.744 OA
ENDBRANCH  56  57
ENDBRANCH  24  49
BRANCH  36  61
ATOM     61  C   UNL A   1      49.710  26.528  26.271  1.00  0.00     0.058 A 
ATOM     62  C   UNL A   1      50.475  25.956  27.296  1.00  0.00     0.135 A 
ATOM     63  C   UNL A   1      50.284  26.609  24.987  1.00  0.00     0.135 A 
ATOM     64  F   UNL A   1      49.978  25.856  28.538  1.00  0.00    -0.206 F 
ATOM     65  C   UNL A   1      51.755  25.473  27.058  1.00  0.00     0.059 A 
ATOM     66  C   UNL A   1      51.544  26.087  24.717  1.00  0.00     0.059 A 
ATOM     67  F   UNL A   1      49.586  27.131  23.964  1.00  0.00    -0.206 F 
ATOM     68  C   UNL A   1      52.275  25.528  25.763  1.00  0.00     0.060 A 
BRANCH  68  69
ATOM     69  S   UNL A   1      53.909  24.824  25.469  1.00  0.00     0.124 S 
ATOM     70  O   UNL A   1      54.395  25.648  24.367  1.00  0.00    -0.237 OA
ATOM     71  O   UNL A   1      54.566  25.032  26.756  1.00  0.00    -0.237 OA
ATOM     72  O   UNL A   1      53.625  23.431  25.135  1.00  0.00    -0.744 OA
ENDBRANCH  68  69
ENDBRANCH  36  61
ENDBRANCH  10  11
ENDBRANCH   3   5
ENDBRANCH   2   3
ENDBRANCH   1   2
BRANCH   1  73
ATOM     73  C   UNL A   1      33.946  31.951  27.920  1.00  0.00     0.275 C 
BRANCH  73  74
ATOM     74  O   UNL A   1      33.582  30.566  27.660  1.00  0.00    -0.458 OA
BRANCH  74  75
ATOM     75  C   UNL A   1      32.507  30.327  26.855  1.00  0.00     0.338 C 
ATOM     76  O   UNL A   1      31.693  31.158  26.492  1.00  0.00    -0.246 OA
BRANCH  75  77
ATOM     77  C   UNL A   1      32.530  28.922  26.349  1.00  0.00     0.063 A 
ATOM     78  C   UNL A   1      33.602  28.437  25.606  1.00  0.00     0.016 A 
ATOM     79  C   UNL A   1      31.482  28.046  26.644  1.00  0.00     0.055 A 
ATOM     80  C   UNL A   1      33.586  27.112  25.116  1.00  0.00     0.013 A 
ATOM     81  C   UNL A   1      31.435  26.762  26.073  1.00  0.00     0.132 A 
ATOM     82  C   UNL A   1      32.466  26.268  25.268  1.00  0.00     0.042 A 
ATOM     83  F   UNL A   1      30.362  25.997  26.324  1.00  0.00    -0.206 F 
BRANCH  82  84
ATOM     84  C   UNL A   1      32.380  24.862  24.653  1.00  0.00     0.302 C 
BRANCH  84  85
ATOM     85  N   UNL A   1      32.464  23.638  25.480  1.00  0.00    -0.322 N 
ATOM     86  C   UNL A   1      32.049  22.332  24.876  1.00  0.00     0.324 C 
ATOM     87  C   UNL A   1      33.657  23.529  26.329  1.00  0.00     0.328 C 
ATOM     88  H   UNL A   1      31.683  23.835  26.104  1.00  0.00     0.348 HD
ATOM     89  C   UNL A   1      33.049  21.186  24.457  1.00  0.00     0.324 C 
ATOM     90  C   UNL A   1      34.803  23.077  25.348  1.00  0.00     0.239 C 
ATOM     91  N   UNL A   1      34.273  21.166  25.218  1.00  0.00    -0.323 N 
ATOM     92  C   UNL A   1      36.844  23.670  25.560  1.00  0.00     0.071 C 
ATOM     93  C   UNL A   1      35.432  19.574  24.831  1.00  0.00     0.262 C 
ATOM     94  H   UNL A   1      34.279  20.893  26.200  1.00  0.00     0.348 HD
ATOM     95  C   UNL A   1      38.141  21.998  25.385  1.00  0.00     0.012 C 
ATOM     96  C   UNL A   1      37.605  19.991  24.971  1.00  0.00     0.062 C 
ENDBRANCH  84  85
ENDBRANCH  82  84
ENDBRANCH  75  77
ENDBRANCH  74  75
ENDBRANCH  73  74
ENDBRANCH   1  73
TORSDOF 16
ENDMDL
MODEL 3
REMARK VINA RESULT:     -12.2      6.906     12.587
REMARK SMILES O=C(OCCOC(=O)c1ccc(C[N@H+]2CC[N@H+]3CCCC[C@@H]3C2)c(F)c1)c1ccc(-c2c3nc(c(-c4c(F)cc(S(=O)(=O)[O-])cc4F)c4ccc([nH]4)c(-c4c(F)cc(S(=O)(=O)[O-])cc4F)c4nc(c(-c5c(F)cc(S(=O)(=O)[O-])cc5F)c5ccc2[nH]5)C=C4)C=C3)cc1
REMARK SMILES IDX 4 1 3 2 2 3 1 4 27 5 28 6 92 7 29 8 91 9 30 10 31 11 32 12
REMARK SMILES IDX 85 13 33 14 90 15 84 16 86 17 34 18 89 19 83 20 82 21 35 23
REMARK SMILES IDX 69 24 48 25 68 26 49 27 52 28 67 29 87 30 50 31 51 32 66 34
REMARK SMILES IDX 88 35 53 36 36 37 37 38 46 39 38 40 39 41 45 42 47 43 40 44
REMARK SMILES IDX 41 45 42 46 43 47 44 48 70 49 71 50 80 51 72 52 73 53 79 54
REMARK SMILES IDX 81 55 74 56 75 57 76 58 77 59 78 60 54 61 55 62 64 63 56 64
REMARK SMILES IDX 57 65 63 66 65 67 58 68 59 69 60 70 61 71 62 72 5 73 6 74
REMARK SMILES IDX 7 75 8 76 9 77 10 78 26 79 11 80 24 81 12 82 25 83 13 84
REMARK SMILES IDX 14 85 15 86 23 87 16 89 22 90 17 91 21 92 18 93 20 95 19 96
REMARK H PARENT 86 22 52 33 14 88 17 94
REMARK Flexibility Score: inf
ROOT
ATOM      1  C   UNL A   1      35.057  32.059  29.058  1.00  0.00     0.275 C 
ENDROOT
BRANCH   1   2
ATOM      2  O   UNL A   1      35.477  30.694  29.199  1.00  0.00    -0.458 OA
BRANCH   2   3
ATOM      3  C   UNL A   1      36.454  30.189  29.993  1.00  0.00     0.338 C 
ATOM      4  O   UNL A   1      36.184  29.942  31.168  1.00  0.00    -0.246 OA
BRANCH   3   5
ATOM      5  C   UNL A   1      37.869  29.963  29.536  1.00  0.00     0.060 A 
ATOM      6  C   UNL A   1      38.977  29.883  30.374  1.00  0.00     0.016 A 
ATOM      7  C   UNL A   1      38.096  29.738  28.165  1.00  0.00     0.016 A 
ATOM      8  C   UNL A   1      40.237  29.583  29.914  1.00  0.00     0.010 A 
ATOM      9  C   UNL A   1      39.366  29.353  27.700  1.00  0.00     0.010 A 
ATOM     10  C   UNL A   1      40.430  29.225  28.602  1.00  0.00    -0.014 A 
BRANCH  10  11
ATOM     11  C   UNL A   1      41.831  28.896  28.292  1.00  0.00     0.031 A 
ATOM     12  C   UNL A   1      41.898  27.385  27.630  1.00  0.00     0.074 A 
ATOM     13  C   UNL A   1      43.015  29.879  28.433  1.00  0.00     0.049 A 
ATOM     14  N   UNL A   1      42.940  26.899  26.990  1.00  0.00    -0.248 NA
ATOM     15  C   UNL A   1      40.848  26.369  27.838  1.00  0.00     0.031 C 
ATOM     16  C   UNL A   1      43.569  31.037  28.743  1.00  0.00     0.029 A 
ATOM     17  N   UNL A   1      44.820  30.034  28.082  1.00  0.00    -0.354 N 
ATOM     18  C   UNL A   1      42.820  25.546  26.970  1.00  0.00     0.074 A 
ATOM     19  C   UNL A   1      41.470  25.260  27.428  1.00  0.00     0.031 C 
ATOM     20  C   UNL A   1      44.603  31.860  28.847  1.00  0.00     0.029 A 
ATOM     21  C   UNL A   1      45.574  31.088  28.355  1.00  0.00     0.049 A 
ATOM     22  H   UNL A   1      45.262  29.265  27.654  1.00  0.00     0.167 HD
ATOM     23  C   UNL A   1      43.811  24.661  26.722  1.00  0.00     0.037 A 
ATOM     24  C   UNL A   1      46.834  31.370  28.131  1.00  0.00     0.037 A 
ATOM     25  C   UNL A   1      45.229  24.951  26.527  1.00  0.00     0.049 A 
ATOM     26  C   UNL A   1      47.577  30.234  27.566  1.00  0.00     0.074 A 
ATOM     27  C   UNL A   1      46.217  24.019  26.249  1.00  0.00     0.029 A 
ATOM     28  N   UNL A   1      45.894  26.183  26.632  1.00  0.00    -0.354 N 
ATOM     29  N   UNL A   1      47.124  29.039  27.255  1.00  0.00    -0.248 NA
ATOM     30  C   UNL A   1      48.988  30.459  27.340  1.00  0.00     0.031 C 
ATOM     31  C   UNL A   1      47.462  24.646  26.304  1.00  0.00     0.029 A 
ATOM     32  C   UNL A   1      47.280  26.005  26.519  1.00  0.00     0.049 A 
ATOM     33  H   UNL A   1      45.449  27.051  26.765  1.00  0.00     0.167 HD
ATOM     34  C   UNL A   1      48.225  28.329  26.842  1.00  0.00     0.074 A 
ATOM     35  C   UNL A   1      49.327  29.285  26.831  1.00  0.00     0.031 C 
ATOM     36  C   UNL A   1      48.336  27.008  26.559  1.00  0.00     0.037 A 
BRANCH  23  37
ATOM     37  C   UNL A   1      43.360  23.239  26.655  1.00  0.00     0.058 A 
ATOM     38  C   UNL A   1      43.132  22.468  27.804  1.00  0.00     0.135 A 
ATOM     39  C   UNL A   1      43.228  22.629  25.398  1.00  0.00     0.135 A 
ATOM     40  F   UNL A   1      43.214  23.021  29.024  1.00  0.00    -0.206 F 
ATOM     41  C   UNL A   1      42.843  21.114  27.705  1.00  0.00     0.059 A 
ATOM     42  C   UNL A   1      42.902  21.292  25.277  1.00  0.00     0.059 A 
ATOM     43  F   UNL A   1      43.397  23.346  24.276  1.00  0.00    -0.206 F 
ATOM     44  C   UNL A   1      42.743  20.536  26.436  1.00  0.00     0.060 A 
BRANCH  44  45
ATOM     45  S   UNL A   1      42.429  18.769  26.309  1.00  0.00     0.124 S 
ATOM     46  O   UNL A   1      42.498  18.355  27.705  1.00  0.00    -0.237 OA
ATOM     47  O   UNL A   1      41.106  18.742  25.696  1.00  0.00    -0.237 OA
ATOM     48  O   UNL A   1      43.517  18.294  25.458  1.00  0.00    -0.744 OA
ENDBRANCH  44  45
ENDBRANCH  23  37
BRANCH  24  49
ATOM     49  C   UNL A   1      47.244  32.764  28.279  1.00  0.00     0.058 A 
ATOM     50  C   UNL A   1      47.141  33.696  27.232  1.00  0.00     0.135 A 
ATOM     51  C   UNL A   1      47.910  33.144  29.446  1.00  0.00     0.135 A 
ATOM     52  F   UNL A   1      46.616  33.346  26.047  1.00  0.00    -0.206 F 
ATOM     53  C   UNL A   1      47.638  34.977  27.362  1.00  0.00     0.059 A 
ATOM     54  C   UNL A   1      48.369  34.437  29.619  1.00  0.00     0.059 A 
ATOM     55  F   UNL A   1      48.120  32.248  30.423  1.00  0.00    -0.206 F 
ATOM     56  C   UNL A   1      48.216  35.348  28.574  1.00  0.00     0.060 A 
BRANCH  56  57
ATOM     57  S   UNL A   1      48.702  37.066  28.777  1.00  0.00     0.124 S 
ATOM     58  O   UNL A   1      50.115  37.017  28.418  1.00  0.00    -0.237 OA
ATOM     59  O   UNL A   1      47.823  37.733  27.821  1.00  0.00    -0.237 OA
ATOM     60  O   UNL A   1      48.415  37.332  30.183  1.00  0.00    -0.744 OA
ENDBRANCH  56  57
ENDBRANCH  24  49
BRANCH  36  61
ATOM     61  C   UNL A   1      49.749  26.563  26.271  1.00  0.00     0.058 A 
ATOM     62  C   UNL A   1      50.271  26.663  24.974  1.00  0.00     0.135 A 
ATOM     63  C   UNL A   1      50.595  26.074  27.286  1.00  0.00     0.135 A 
ATOM     64  F   UNL A   1      49.509  27.121  23.969  1.00  0.00    -0.206 F 
ATOM     65  C   UNL A   1      51.582  26.302  24.694  1.00  0.00     0.059 A 
ATOM     66  C   UNL A   1      51.924  25.755  27.036  1.00  0.00     0.059 A 
ATOM     67  F   UNL A   1      50.150  25.977  28.550  1.00  0.00    -0.206 F 
ATOM     68  C   UNL A   1      52.406  25.864  25.733  1.00  0.00     0.060 A 
BRANCH  68  69
ATOM     69  S   UNL A   1      54.125  25.475  25.353  1.00  0.00     0.124 S 
ATOM     70  O   UNL A   1      54.207  25.832  23.941  1.00  0.00    -0.237 OA
ATOM     71  O   UNL A   1      54.845  26.350  26.273  1.00  0.00    -0.237 OA
ATOM     72  O   UNL A   1      54.224  24.048  25.648  1.00  0.00    -0.744 OA
ENDBRANCH  68  69
ENDBRANCH  36  61
ENDBRANCH  10  11
ENDBRANCH   3   5
ENDBRANCH   2   3
ENDBRANCH   1   2
BRANCH   1  73
ATOM     73  C   UNL A   1      33.952  32.272  27.991  1.00  0.00     0.275 C 
BRANCH  73  74
ATOM     74  O   UNL A   1      33.403  31.065  27.390  1.00  0.00    -0.458 OA
BRANCH  74  75
ATOM     75  C   UNL A   1      32.151  31.129  26.855  1.00  0.00     0.338 C 
ATOM     76  O   UNL A   1      31.481  32.139  26.733  1.00  0.00    -0.246 OA
BRANCH  75  77
ATOM     77  C   UNL A   1      31.748  29.802  26.297  1.00  0.00     0.063 A 
ATOM     78  C   UNL A   1      31.819  28.643  27.063  1.00  0.00     0.016 A 
ATOM     79  C   UNL A   1      31.255  29.703  24.993  1.00  0.00     0.055 A 
ATOM     80  C   UNL A   1      31.459  27.398  26.502  1.00  0.00     0.013 A 
ATOM     81  C   UNL A   1      30.989  28.448  24.418  1.00  0.00     0.132 A 
ATOM     82  C   UNL A   1      31.112  27.258  25.141  1.00  0.00     0.042 A 
ATOM     83  F   UNL A   1      30.598  28.410  23.136  1.00  0.00    -0.206 F 
BRANCH  82  84
ATOM     84  C   UNL A   1      30.821  25.900  24.481  1.00  0.00     0.302 C 
BRANCH  84  85
ATOM     85  N   UNL A   1      31.692  25.339  23.426  1.00  0.00    -0.322 N 
ATOM     86  C   UNL A   1      33.099  25.839  23.312  1.00  0.00     0.324 C 
ATOM     87  C   UNL A   1      31.575  23.891  23.213  1.00  0.00     0.328 C 
ATOM     88  H   UNL A   1      31.249  25.785  22.624  1.00  0.00     0.348 HD
ATOM     89  C   UNL A   1      34.375  25.010  23.728  1.00  0.00     0.324 C 
ATOM     90  C   UNL A   1      32.400  23.248  24.390  1.00  0.00     0.239 C 
ATOM     91  N   UNL A   1      34.206  23.582  23.631  1.00  0.00    -0.323 N 
ATOM     92  C   UNL A   1      31.891  21.393  25.316  1.00  0.00     0.071 C 
ATOM     93  C   UNL A   1      35.899  22.550  23.943  1.00  0.00     0.262 C 
ATOM     94  H   UNL A   1      34.128  23.119  22.726  1.00  0.00     0.348 HD
ATOM     95  C   UNL A   1      33.594  20.137  25.487  1.00  0.00     0.012 C 
ATOM     96  C   UNL A   1      35.588  20.590  24.930  1.00  0.00     0.062 C 
ENDBRANCH  84  85
ENDBRANCH  82  84
ENDBRANCH  75  77
ENDBRANCH  74  75
ENDBRANCH  73  74
ENDBRANCH   1  73
TORSDOF 16
ENDMDL
