MODEL 1
REMARK VINA RESULT:     -10.9      0.000      0.000
REMARK SMILES Cc1c(/C=C2/SC(=S)N(CCC(=O)OCCOC(=O)c3ccc(-c4c5nc(c(-c6c(F)cc(S(=O)(=O)[O-])cc6F)c6ccc([nH]6)c(-c6c(F)cc(S(=O)(=O)[O-])cc6F)c6nc(c(-c7c(F)cc(S(=O)(=O)[O-])cc7F)c7ccc4[nH]7)C=C6)C=C5)cc3)C2=O)c(N2C[C@@H](C)C[C@H](C)C2)n(C)c(=O)c1C#N
REMARK SMILES IDX 15 1 14 2 12 3 13 4 11 5 10 6 9 7 4 8 5 9 6 10 86 11 7 12
REMARK SMILES IDX 87 13 8 14 3 15 1 16 2 17 101 18 88 19 99 20 97 21 100 22
REMARK SMILES IDX 98 23 102 24 103 25 89 26 90 27 96 28 91 29 94 30 92 31
REMARK SMILES IDX 93 32 95 33 16 34 17 35 18 36 19 37 20 38 21 39 85 40 22 41
REMARK SMILES IDX 84 42 23 43 24 44 25 45 78 46 26 47 83 48 77 49 79 50 27 51
REMARK SMILES IDX 82 52 76 53 75 54 28 56 62 57 41 58 61 59 42 60 45 61 60 62
REMARK SMILES IDX 80 63 43 64 44 65 59 67 81 68 46 69 29 70 30 71 39 72 31 73
REMARK SMILES IDX 32 74 38 75 40 76 33 77 34 78 35 79 36 80 37 81 63 82 64 83
REMARK SMILES IDX 73 84 65 85 66 86 72 87 74 88 67 89 68 90 69 91 70 92 71 93
REMARK SMILES IDX 47 94 48 95 57 96 49 97 50 98 56 99 58 100 51 101 52 102
REMARK SMILES IDX 53 103 54 104 55 105
REMARK H PARENT 79 55 45 66
REMARK Flexibility Score: inf
ROOT
ATOM      1  C   UNL A   1      35.286  23.191  24.832  1.00  0.00     0.274 C 
ENDROOT
BRANCH   1   2
ATOM      2  O   UNL A   1      34.860  23.498  26.172  1.00  0.00    -0.462 OA
BRANCH   2   3
ATOM      3  C   UNL A   1      34.036  22.632  26.788  1.00  0.00     0.307 C 
ATOM      4  O   UNL A   1      34.267  21.438  26.929  1.00  0.00    -0.252 OA
BRANCH   3   5
ATOM      5  C   UNL A   1      32.767  23.280  27.300  1.00  0.00     0.144 C 
BRANCH   5   6
ATOM      6  C   UNL A   1      31.492  23.110  26.463  1.00  0.00     0.139 C 
BRANCH   6   7
ATOM      7  N   UNL A   1      31.557  23.765  25.144  1.00  0.00    -0.292 N 
ATOM      8  C   UNL A   1      31.863  26.896  23.361  1.00  0.00     0.033 C 
ATOM      9  C   UNL A   1      31.606  25.617  23.688  1.00  0.00     0.081 C 
ATOM     10  S   UNL A   1      31.807  24.280  22.623  1.00  0.00    -0.054 SA
ATOM     11  C   UNL A   1      31.218  25.102  25.023  1.00  0.00     0.266 C 
ATOM     12  C   UNL A   1      31.824  23.118  23.956  1.00  0.00     0.148 C 
ATOM     13  O   UNL A   1      30.593  25.781  25.820  1.00  0.00    -0.268 OA
ATOM     14  S   UNL A   1      32.138  21.499  23.708  1.00  0.00    -0.052 S 
BRANCH   8  15
ATOM     15  C   UNL A   1      32.000  28.034  24.294  1.00  0.00     0.021 A 
ATOM     16  C   UNL A   1      34.134  26.913  25.167  1.00  0.00     0.047 C 
ATOM     17  C   UNL A   1      33.153  28.067  25.232  1.00  0.00    -0.017 A 
ATOM     18  C   UNL A   1      33.334  29.103  26.076  1.00  0.00     0.121 A 
ATOM     19  C   UNL A   1      31.134  29.097  24.258  1.00  0.00     0.118 A 
ATOM     20  C   UNL A   1      32.334  30.188  26.124  1.00  0.00     0.270 A 
ATOM     21  N   UNL A   1      31.296  30.126  25.207  1.00  0.00    -0.296 N 
ATOM     22  O   UNL A   1      32.456  31.082  26.960  1.00  0.00    -0.268 OA
ATOM     23  C   UNL A   1      30.286  31.170  25.333  1.00  0.00     0.155 C 
BRANCH  18  24
ATOM     24  C   UNL A   1      34.412  29.193  27.000  1.00  0.00     0.105 C 
ATOM     25  N   UNL A   1      35.331  29.274  27.709  1.00  0.00    -0.192 NA
ENDBRANCH  18  24
BRANCH  19  26
ATOM     26  N   UNL A   1      30.138  29.247  23.273  1.00  0.00    -0.357 N 
ATOM     27  C   UNL A   1      29.292  28.153  22.774  1.00  0.00     0.121 C 
ATOM     28  C   UNL A   1      30.143  30.440  22.415  1.00  0.00     0.121 C 
ATOM     29  C   UNL A   1      27.845  28.619  22.524  1.00  0.00     0.006 C 
ATOM     30  C   UNL A   1      28.720  31.002  22.300  1.00  0.00     0.006 C 
ATOM     31  C   UNL A   1      27.057  28.724  23.832  1.00  0.00     0.009 C 
ATOM     32  C   UNL A   1      27.795  29.928  21.715  1.00  0.00     0.010 C 
ATOM     33  C   UNL A   1      28.703  32.298  21.488  1.00  0.00     0.009 C 
ENDBRANCH  19  26
ENDBRANCH   8  15
ENDBRANCH   6   7
ENDBRANCH   5   6
ENDBRANCH   3   5
ENDBRANCH   2   3
ENDBRANCH   1   2
BRANCH   1  34
ATOM     34  C   UNL A   1      36.814  23.057  24.800  1.00  0.00     0.275 C 
BRANCH  34  35
ATOM     35  O   UNL A   1      37.351  23.675  25.973  1.00  0.00    -0.458 OA
BRANCH  35  36
ATOM     36  C   UNL A   1      38.552  23.204  26.368  1.00  0.00     0.338 C 
ATOM     37  O   UNL A   1      39.061  22.116  26.186  1.00  0.00    -0.246 OA
BRANCH  36  38
ATOM     38  C   UNL A   1      39.287  24.367  26.837  1.00  0.00     0.060 A 
ATOM     39  C   UNL A   1      39.300  24.636  28.210  1.00  0.00     0.016 A 
ATOM     40  C   UNL A   1      39.987  25.138  25.917  1.00  0.00     0.016 A 
ATOM     41  C   UNL A   1      40.011  25.727  28.675  1.00  0.00     0.010 A 
ATOM     42  C   UNL A   1      40.704  26.225  26.383  1.00  0.00     0.010 A 
ATOM     43  C   UNL A   1      40.690  26.529  27.755  1.00  0.00    -0.014 A 
BRANCH  43  44
ATOM     44  C   UNL A   1      41.292  27.788  28.201  1.00  0.00     0.031 A 
ATOM     45  C   UNL A   1      42.783  27.898  28.157  1.00  0.00     0.074 A 
ATOM     46  C   UNL A   1      40.497  28.774  28.647  1.00  0.00     0.049 A 
ATOM     47  N   UNL A   1      43.546  28.853  28.603  1.00  0.00    -0.248 NA
ATOM     48  C   UNL A   1      43.516  26.774  27.541  1.00  0.00     0.031 C 
ATOM     49  C   UNL A   1      39.033  28.727  28.680  1.00  0.00     0.029 A 
ATOM     50  N   UNL A   1      40.808  29.996  29.172  1.00  0.00    -0.354 N 
ATOM     51  C   UNL A   1      44.844  28.448  28.331  1.00  0.00     0.074 A 
ATOM     52  C   UNL A   1      44.777  27.146  27.713  1.00  0.00     0.031 C 
ATOM     53  C   UNL A   1      38.574  29.870  29.215  1.00  0.00     0.029 A 
ATOM     54  C   UNL A   1      39.710  30.702  29.599  1.00  0.00     0.049 A 
ATOM     55  H   UNL A   1      41.730  30.338  29.237  1.00  0.00     0.167 HD
ATOM     56  C   UNL A   1      45.985  29.126  28.573  1.00  0.00     0.037 A 
ATOM     57  C   UNL A   1      39.650  31.874  30.255  1.00  0.00     0.037 A 
ATOM     58  C   UNL A   1      46.006  30.428  29.181  1.00  0.00     0.049 A 
ATOM     59  C   UNL A   1      40.946  32.576  30.567  1.00  0.00     0.074 A 
ATOM     60  C   UNL A   1      47.099  31.227  29.457  1.00  0.00     0.029 A 
ATOM     61  N   UNL A   1      44.879  31.118  29.606  1.00  0.00    -0.354 N 
ATOM     62  N   UNL A   1      42.173  32.203  30.279  1.00  0.00    -0.248 NA
ATOM     63  C   UNL A   1      40.859  33.852  31.286  1.00  0.00     0.031 C 
ATOM     64  C   UNL A   1      46.638  32.373  30.107  1.00  0.00     0.029 A 
ATOM     65  C   UNL A   1      45.252  32.323  30.170  1.00  0.00     0.049 A 
ATOM     66  H   UNL A   1      43.953  30.797  29.518  1.00  0.00     0.167 HD
ATOM     67  C   UNL A   1      43.000  33.214  30.753  1.00  0.00     0.074 A 
ATOM     68  C   UNL A   1      42.133  34.219  31.334  1.00  0.00     0.031 C 
ATOM     69  C   UNL A   1      44.352  33.308  30.715  1.00  0.00     0.037 A 
BRANCH  56  70
ATOM     70  C   UNL A   1      47.292  28.498  28.191  1.00  0.00     0.058 A 
ATOM     71  C   UNL A   1      47.983  27.651  29.072  1.00  0.00     0.135 A 
ATOM     72  C   UNL A   1      47.796  28.649  26.890  1.00  0.00     0.135 A 
ATOM     73  F   UNL A   1      47.562  27.499  30.337  1.00  0.00    -0.206 F 
ATOM     74  C   UNL A   1      49.116  26.956  28.666  1.00  0.00     0.059 A 
ATOM     75  C   UNL A   1      48.913  27.943  26.455  1.00  0.00     0.059 A 
ATOM     76  F   UNL A   1      47.182  29.464  26.018  1.00  0.00    -0.206 F 
ATOM     77  C   UNL A   1      49.560  27.091  27.349  1.00  0.00     0.060 A 
BRANCH  77  78
ATOM     78  S   UNL A   1      50.972  26.102  26.816  1.00  0.00     0.124 S 
ATOM     79  O   UNL A   1      52.088  26.852  27.384  1.00  0.00    -0.237 OA
ATOM     80  O   UNL A   1      50.693  24.811  27.436  1.00  0.00    -0.237 OA
ATOM     81  O   UNL A   1      50.879  26.130  25.360  1.00  0.00    -0.744 OA
ENDBRANCH  77  78
ENDBRANCH  56  70
BRANCH  57  82
ATOM     82  C   UNL A   1      38.337  32.438  30.667  1.00  0.00     0.058 A 
ATOM     83  C   UNL A   1      37.629  33.309  29.829  1.00  0.00     0.135 A 
ATOM     84  C   UNL A   1      37.766  32.125  31.912  1.00  0.00     0.135 A 
ATOM     85  F   UNL A   1      38.127  33.638  28.628  1.00  0.00    -0.206 F 
ATOM     86  C   UNL A   1      36.422  33.880  30.222  1.00  0.00     0.059 A 
ATOM     87  C   UNL A   1      36.544  32.655  32.314  1.00  0.00     0.059 A 
ATOM     88  F   UNL A   1      38.390  31.279  32.747  1.00  0.00    -0.206 F 
ATOM     89  C   UNL A   1      35.890  33.549  31.468  1.00  0.00     0.060 A 
BRANCH  89  90
ATOM     90  S   UNL A   1      34.331  34.308  31.970  1.00  0.00     0.124 S 
ATOM     91  O   UNL A   1      34.795  35.532  32.614  1.00  0.00    -0.237 OA
ATOM     92  O   UNL A   1      33.650  34.479  30.690  1.00  0.00    -0.237 OA
ATOM     93  O   UNL A   1      33.741  33.313  32.860  1.00  0.00    -0.744 OA
ENDBRANCH  89  90
ENDBRANCH  57  82
BRANCH  69  94
ATOM     94  C   UNL A   1      44.980  34.549  31.279  1.00  0.00     0.058 A 
ATOM     95  C   UNL A   1      45.463  34.593  32.594  1.00  0.00     0.135 A 
ATOM     96  C   UNL A   1      45.208  35.661  30.451  1.00  0.00     0.135 A 
ATOM     97  F   UNL A   1      45.266  33.556  33.424  1.00  0.00    -0.206 F 
ATOM     98  C   UNL A   1      46.147  35.704  33.073  1.00  0.00     0.059 A 
ATOM     99  C   UNL A   1      45.921  36.767  30.899  1.00  0.00     0.059 A 
ATOM    100  F   UNL A   1      44.778  35.659  29.180  1.00  0.00    -0.206 F 
ATOM    101  C   UNL A   1      46.382  36.779  32.214  1.00  0.00     0.060 A 
BRANCH 101 102
ATOM    102  S   UNL A   1      47.332  38.180  32.836  1.00  0.00     0.124 S 
ATOM    103  O   UNL A   1      48.612  37.554  33.148  1.00  0.00    -0.237 OA
ATOM    104  O   UNL A   1      47.330  39.085  31.691  1.00  0.00    -0.237 OA
ATOM    105  O   UNL A   1      46.559  38.634  33.989  1.00  0.00    -0.744 OA
ENDBRANCH 101 102
ENDBRANCH  69  94
ENDBRANCH  43  44
ENDBRANCH  36  38
ENDBRANCH  35  36
ENDBRANCH  34  35
ENDBRANCH   1  34
TORSDOF 19
ENDMDL
MODEL 2
REMARK VINA RESULT:     -10.8      0.529      7.829
REMARK SMILES Cc1c(/C=C2/SC(=S)N(CCC(=O)OCCOC(=O)c3ccc(-c4c5nc(c(-c6c(F)cc(S(=O)(=O)[O-])cc6F)c6ccc([nH]6)c(-c6c(F)cc(S(=O)(=O)[O-])cc6F)c6nc(c(-c7c(F)cc(S(=O)(=O)[O-])cc7F)c7ccc4[nH]7)C=C6)C=C5)cc3)C2=O)c(N2C[C@@H](C)C[C@H](C)C2)n(C)c(=O)c1C#N
REMARK SMILES IDX 15 1 14 2 12 3 13 4 11 5 10 6 9 7 4 8 5 9 6 10 86 11 7 12
REMARK SMILES IDX 87 13 8 14 3 15 1 16 2 17 101 18 88 19 99 20 97 21 100 22
REMARK SMILES IDX 98 23 102 24 103 25 89 26 90 27 96 28 91 29 94 30 92 31
REMARK SMILES IDX 93 32 95 33 16 34 17 35 18 36 19 37 20 38 21 39 85 40 22 41
REMARK SMILES IDX 84 42 23 43 24 44 25 45 78 46 26 47 83 48 77 49 79 50 27 51
REMARK SMILES IDX 82 52 76 53 75 54 28 56 62 57 41 58 61 59 42 60 45 61 60 62
REMARK SMILES IDX 80 63 43 64 44 65 59 67 81 68 46 69 29 70 30 71 39 72 31 73
REMARK SMILES IDX 32 74 38 75 40 76 33 77 34 78 35 79 36 80 37 81 63 82 64 83
REMARK SMILES IDX 73 84 65 85 66 86 72 87 74 88 67 89 68 90 69 91 70 92 71 93
REMARK SMILES IDX 47 94 48 95 57 96 49 97 50 98 56 99 58 100 51 101 52 102
REMARK SMILES IDX 53 103 54 104 55 105
REMARK H PARENT 79 55 45 66
REMARK Flexibility Score: inf
ROOT
ATOM      1  C   UNL A   1      35.490  22.657  25.012  1.00  0.00     0.274 C 
ENDROOT
BRANCH   1   2
ATOM      2  O   UNL A   1      35.039  23.245  26.246  1.00  0.00    -0.462 OA
BRANCH   2   3
ATOM      3  C   UNL A   1      34.191  22.536  27.013  1.00  0.00     0.307 C 
ATOM      4  O   UNL A   1      34.373  21.374  27.353  1.00  0.00    -0.252 OA
BRANCH   3   5
ATOM      5  C   UNL A   1      32.963  23.320  27.423  1.00  0.00     0.144 C 
BRANCH   5   6
ATOM      6  C   UNL A   1      31.668  23.082  26.635  1.00  0.00     0.139 C 
BRANCH   6   7
ATOM      7  N   UNL A   1      31.671  23.690  25.293  1.00  0.00    -0.292 N 
ATOM      8  C   UNL A   1      31.836  26.763  23.392  1.00  0.00     0.033 C 
ATOM      9  C   UNL A   1      31.623  25.490  23.772  1.00  0.00     0.081 C 
ATOM     10  S   UNL A   1      31.820  24.121  22.748  1.00  0.00    -0.054 SA
ATOM     11  C   UNL A   1      31.294  25.014  25.138  1.00  0.00     0.266 C 
ATOM     12  C   UNL A   1      31.913  23.008  24.119  1.00  0.00     0.148 C 
ATOM     13  O   UNL A   1      30.680  25.706  25.932  1.00  0.00    -0.268 OA
ATOM     14  S   UNL A   1      32.258  21.389  23.917  1.00  0.00    -0.052 S 
BRANCH   8  15
ATOM     15  C   UNL A   1      31.976  27.936  24.280  1.00  0.00     0.021 A 
ATOM     16  C   UNL A   1      34.125  26.858  25.173  1.00  0.00     0.047 C 
ATOM     17  C   UNL A   1      33.139  28.010  25.204  1.00  0.00    -0.017 A 
ATOM     18  C   UNL A   1      33.323  29.078  26.005  1.00  0.00     0.121 A 
ATOM     19  C   UNL A   1      31.105  28.993  24.212  1.00  0.00     0.118 A 
ATOM     20  C   UNL A   1      32.318  30.160  26.022  1.00  0.00     0.270 A 
ATOM     21  N   UNL A   1      31.272  30.058  25.119  1.00  0.00    -0.296 N 
ATOM     22  O   UNL A   1      32.444  31.086  26.822  1.00  0.00    -0.268 OA
ATOM     23  C   UNL A   1      30.259  31.101  25.215  1.00  0.00     0.155 C 
BRANCH  18  24
ATOM     24  C   UNL A   1      34.410  29.208  26.915  1.00  0.00     0.105 C 
ATOM     25  N   UNL A   1      35.258  29.321  27.704  1.00  0.00    -0.192 NA
ENDBRANCH  18  24
BRANCH  19  26
ATOM     26  N   UNL A   1      30.100  29.101  23.232  1.00  0.00    -0.357 N 
ATOM     27  C   UNL A   1      29.145  28.032  22.899  1.00  0.00     0.121 C 
ATOM     28  C   UNL A   1      30.185  30.164  22.220  1.00  0.00     0.121 C 
ATOM     29  C   UNL A   1      27.739  28.591  22.611  1.00  0.00     0.006 C 
ATOM     30  C   UNL A   1      28.816  30.833  22.053  1.00  0.00     0.006 C 
ATOM     31  C   UNL A   1      27.001  28.942  23.906  1.00  0.00     0.009 C 
ATOM     32  C   UNL A   1      27.783  29.780  21.634  1.00  0.00     0.010 C 
ATOM     33  C   UNL A   1      28.891  32.005  21.073  1.00  0.00     0.009 C 
ENDBRANCH  19  26
ENDBRANCH   8  15
ENDBRANCH   6   7
ENDBRANCH   5   6
ENDBRANCH   3   5
ENDBRANCH   2   3
ENDBRANCH   1   2
BRANCH   1  34
ATOM     34  C   UNL A   1      37.000  22.400  25.091  1.00  0.00     0.275 C 
BRANCH  34  35
ATOM     35  O   UNL A   1      37.553  23.235  26.112  1.00  0.00    -0.458 OA
BRANCH  35  36
ATOM     36  C   UNL A   1      38.824  22.947  26.461  1.00  0.00     0.338 C 
ATOM     37  O   UNL A   1      39.489  21.957  26.232  1.00  0.00    -0.246 OA
BRANCH  36  38
ATOM     38  C   UNL A   1      39.384  24.198  26.945  1.00  0.00     0.060 A 
ATOM     39  C   UNL A   1      39.943  25.081  26.014  1.00  0.00     0.016 A 
ATOM     40  C   UNL A   1      39.304  24.493  28.301  1.00  0.00     0.016 A 
ATOM     41  C   UNL A   1      40.462  26.283  26.454  1.00  0.00     0.010 A 
ATOM     42  C   UNL A   1      39.817  25.700  28.740  1.00  0.00     0.010 A 
ATOM     43  C   UNL A   1      40.417  26.576  27.820  1.00  0.00    -0.014 A 
BRANCH  43  44
ATOM     44  C   UNL A   1      41.124  27.753  28.330  1.00  0.00     0.031 A 
ATOM     45  C   UNL A   1      40.300  28.867  28.892  1.00  0.00     0.074 A 
ATOM     46  C   UNL A   1      42.464  27.798  28.255  1.00  0.00     0.049 A 
ATOM     47  N   UNL A   1      40.682  30.046  29.292  1.00  0.00    -0.248 NA
ATOM     48  C   UNL A   1      38.848  28.629  29.008  1.00  0.00     0.031 C 
ATOM     49  C   UNL A   1      43.316  26.722  27.743  1.00  0.00     0.029 A 
ATOM     50  N   UNL A   1      43.339  28.791  28.591  1.00  0.00    -0.354 N 
ATOM     51  C   UNL A   1      39.524  30.693  29.698  1.00  0.00     0.074 A 
ATOM     52  C   UNL A   1      38.418  29.795  29.469  1.00  0.00     0.031 C 
ATOM     53  C   UNL A   1      44.597  27.124  27.787  1.00  0.00     0.029 A 
ATOM     54  C   UNL A   1      44.645  28.494  28.286  1.00  0.00     0.049 A 
ATOM     55  H   UNL A   1      43.061  29.637  29.012  1.00  0.00     0.167 HD
ATOM     56  C   UNL A   1      39.415  31.928  30.229  1.00  0.00     0.037 A 
ATOM     57  C   UNL A   1      45.741  29.268  28.376  1.00  0.00     0.037 A 
ATOM     58  C   UNL A   1      40.548  32.785  30.451  1.00  0.00     0.049 A 
ATOM     59  C   UNL A   1      45.576  30.666  28.913  1.00  0.00     0.074 A 
ATOM     60  C   UNL A   1      40.567  34.051  31.003  1.00  0.00     0.029 A 
ATOM     61  N   UNL A   1      41.858  32.459  30.130  1.00  0.00    -0.354 N 
ATOM     62  N   UNL A   1      44.481  31.264  29.327  1.00  0.00    -0.248 NA
ATOM     63  C   UNL A   1      46.783  31.496  29.001  1.00  0.00     0.031 C 
ATOM     64  C   UNL A   1      41.882  34.517  30.959  1.00  0.00     0.029 A 
ATOM     65  C   UNL A   1      42.693  33.513  30.446  1.00  0.00     0.049 A 
ATOM     66  H   UNL A   1      42.149  31.606  29.736  1.00  0.00     0.167 HD
ATOM     67  C   UNL A   1      44.874  32.526  29.754  1.00  0.00     0.074 A 
ATOM     68  C   UNL A   1      46.308  32.601  29.559  1.00  0.00     0.031 C 
ATOM     69  C   UNL A   1      44.123  33.536  30.259  1.00  0.00     0.037 A 
BRANCH  56  70
ATOM     70  C   UNL A   1      38.055  32.434  30.605  1.00  0.00     0.058 A 
ATOM     71  C   UNL A   1      37.537  32.252  31.896  1.00  0.00     0.135 A 
ATOM     72  C   UNL A   1      37.315  33.210  29.700  1.00  0.00     0.135 A 
ATOM     73  F   UNL A   1      38.189  31.490  32.788  1.00  0.00    -0.206 F 
ATOM     74  C   UNL A   1      36.342  32.846  32.286  1.00  0.00     0.059 A 
ATOM     75  C   UNL A   1      36.130  33.835  30.077  1.00  0.00     0.059 A 
ATOM     76  F   UNL A   1      37.758  33.395  28.447  1.00  0.00    -0.206 F 
ATOM     77  C   UNL A   1      35.657  33.654  31.375  1.00  0.00     0.060 A 
BRANCH  77  78
ATOM     78  S   UNL A   1      34.162  34.496  31.934  1.00  0.00     0.124 S 
ATOM     79  O   UNL A   1      34.712  35.715  32.520  1.00  0.00    -0.237 OA
ATOM     80  O   UNL A   1      33.424  34.668  30.688  1.00  0.00    -0.237 OA
ATOM     81  O   UNL A   1      33.575  33.557  32.884  1.00  0.00    -0.744 OA
ENDBRANCH  77  78
ENDBRANCH  56  70
BRANCH  57  82
ATOM     82  C   UNL A   1      47.065  28.751  27.940  1.00  0.00     0.058 A 
ATOM     83  C   UNL A   1      47.479  28.854  26.605  1.00  0.00     0.135 A 
ATOM     84  C   UNL A   1      47.944  28.136  28.848  1.00  0.00     0.135 A 
ATOM     85  F   UNL A   1      46.680  29.436  25.698  1.00  0.00    -0.206 F 
ATOM     86  C   UNL A   1      48.695  28.333  26.176  1.00  0.00     0.059 A 
ATOM     87  C   UNL A   1      49.180  27.638  28.450  1.00  0.00     0.059 A 
ATOM     88  F   UNL A   1      47.609  28.029  30.143  1.00  0.00    -0.206 F 
ATOM     89  C   UNL A   1      49.538  27.723  27.106  1.00  0.00     0.060 A 
BRANCH  89  90
ATOM     90  S   UNL A   1      51.106  27.040  26.531  1.00  0.00     0.124 S 
ATOM     91  O   UNL A   1      51.873  28.252  26.263  1.00  0.00    -0.237 OA
ATOM     92  O   UNL A   1      51.537  26.255  27.684  1.00  0.00    -0.237 OA
ATOM     93  O   UNL A   1      50.727  26.263  25.356  1.00  0.00    -0.744 OA
ENDBRANCH  89  90
ENDBRANCH  57  82
BRANCH  69  94
ATOM     94  C   UNL A   1      44.832  34.791  30.675  1.00  0.00     0.058 A 
ATOM     95  C   UNL A   1      45.016  35.859  29.785  1.00  0.00     0.135 A 
ATOM     96  C   UNL A   1      45.222  34.969  32.014  1.00  0.00     0.135 A 
ATOM     97  F   UNL A   1      44.663  35.734  28.496  1.00  0.00    -0.206 F 
ATOM     98  C   UNL A   1      45.569  37.061  30.207  1.00  0.00     0.059 A 
ATOM     99  C   UNL A   1      45.743  36.176  32.464  1.00  0.00     0.059 A 
ATOM    100  F   UNL A   1      45.051  33.981  32.906  1.00  0.00    -0.206 F 
ATOM    101  C   UNL A   1      45.916  37.214  31.551  1.00  0.00     0.060 A 
BRANCH 101 102
ATOM    102  S   UNL A   1      46.568  38.806  32.092  1.00  0.00     0.124 S 
ATOM    103  O   UNL A   1      47.608  38.396  33.029  1.00  0.00    -0.237 OA
ATOM    104  O   UNL A   1      47.036  39.389  30.839  1.00  0.00    -0.237 OA
ATOM    105  O   UNL A   1      45.409  39.465  32.690  1.00  0.00    -0.744 OA
ENDBRANCH 101 102
ENDBRANCH  69  94
ENDBRANCH  43  44
ENDBRANCH  36  38
ENDBRANCH  35  36
ENDBRANCH  34  35
ENDBRANCH   1  34
TORSDOF 19
ENDMDL
MODEL 3
REMARK VINA RESULT:     -10.7      5.657     12.457
REMARK SMILES Cc1c(/C=C2/SC(=S)N(CCC(=O)OCCOC(=O)c3ccc(-c4c5nc(c(-c6c(F)cc(S(=O)(=O)[O-])cc6F)c6ccc([nH]6)c(-c6c(F)cc(S(=O)(=O)[O-])cc6F)c6nc(c(-c7c(F)cc(S(=O)(=O)[O-])cc7F)c7ccc4[nH]7)C=C6)C=C5)cc3)C2=O)c(N2C[C@@H](C)C[C@H](C)C2)n(C)c(=O)c1C#N
REMARK SMILES IDX 15 1 14 2 12 3 13 4 11 5 10 6 9 7 4 8 5 9 6 10 86 11 7 12
REMARK SMILES IDX 87 13 8 14 3 15 1 16 2 17 101 18 88 19 99 20 97 21 100 22
REMARK SMILES IDX 98 23 102 24 103 25 89 26 90 27 96 28 91 29 94 30 92 31
REMARK SMILES IDX 93 32 95 33 16 34 17 35 18 36 19 37 20 38 21 39 85 40 22 41
REMARK SMILES IDX 84 42 23 43 24 44 25 45 78 46 26 47 83 48 77 49 79 50 27 51
REMARK SMILES IDX 82 52 76 53 75 54 28 56 62 57 41 58 61 59 42 60 45 61 60 62
REMARK SMILES IDX 80 63 43 64 44 65 59 67 81 68 46 69 29 70 30 71 39 72 31 73
REMARK SMILES IDX 32 74 38 75 40 76 33 77 34 78 35 79 36 80 37 81 63 82 64 83
REMARK SMILES IDX 73 84 65 85 66 86 72 87 74 88 67 89 68 90 69 91 70 92 71 93
REMARK SMILES IDX 47 94 48 95 57 96 49 97 50 98 56 99 58 100 51 101 52 102
REMARK SMILES IDX 53 103 54 104 55 105
REMARK H PARENT 79 55 45 66
REMARK Flexibility Score: inf
ROOT
ATOM      1  C   UNL A   1      44.641  38.394  30.458  1.00  0.00     0.274 C 
ENDROOT
BRANCH   1   2
ATOM      2  O   UNL A   1      44.595  39.605  31.234  1.00  0.00    -0.462 OA
BRANCH   2   3
ATOM      3  C   UNL A   1      43.938  39.582  32.407  1.00  0.00     0.307 C 
ATOM      4  O   UNL A   1      42.791  39.977  32.565  1.00  0.00    -0.252 OA
BRANCH   3   5
ATOM      5  C   UNL A   1      44.764  39.012  33.540  1.00  0.00     0.144 C 
BRANCH   5   6
ATOM      6  C   UNL A   1      44.019  38.515  34.786  1.00  0.00     0.139 C 
BRANCH   6   7
ATOM      7  N   UNL A   1      43.986  37.047  34.910  1.00  0.00    -0.292 N 
ATOM      8  C   UNL A   1      42.712  33.950  33.545  1.00  0.00     0.033 C 
ATOM      9  C   UNL A   1      43.232  34.882  34.363  1.00  0.00     0.081 C 
ATOM     10  S   UNL A   1      44.469  34.582  35.521  1.00  0.00    -0.054 SA
ATOM     11  C   UNL A   1      42.935  36.335  34.357  1.00  0.00     0.266 C 
ATOM     12  C   UNL A   1      44.876  36.298  35.652  1.00  0.00     0.148 C 
ATOM     13  O   UNL A   1      41.853  36.770  34.001  1.00  0.00    -0.268 OA
ATOM     14  S   UNL A   1      46.172  36.830  36.555  1.00  0.00    -0.052 S 
BRANCH   8  15
ATOM     15  C   UNL A   1      41.883  34.193  32.346  1.00  0.00     0.021 A 
ATOM     16  C   UNL A   1      44.047  34.798  31.113  1.00  0.00     0.047 C 
ATOM     17  C   UNL A   1      42.540  34.630  31.087  1.00  0.00    -0.017 A 
ATOM     18  C   UNL A   1      41.825  34.830  29.962  1.00  0.00     0.121 A 
ATOM     19  C   UNL A   1      40.534  33.945  32.348  1.00  0.00     0.118 A 
ATOM     20  C   UNL A   1      40.356  34.683  29.996  1.00  0.00     0.270 A 
ATOM     21  N   UNL A   1      39.796  34.242  31.185  1.00  0.00    -0.296 N 
ATOM     22  O   UNL A   1      39.701  34.957  28.991  1.00  0.00    -0.268 OA
ATOM     23  C   UNL A   1      38.341  34.183  31.207  1.00  0.00     0.155 C 
BRANCH  18  24
ATOM     24  C   UNL A   1      42.392  35.253  28.727  1.00  0.00     0.105 C 
ATOM     25  N   UNL A   1      42.910  35.603  27.746  1.00  0.00    -0.192 NA
ENDBRANCH  18  24
BRANCH  19  26
ATOM     26  N   UNL A   1      39.863  33.340  33.428  1.00  0.00    -0.357 N 
ATOM     27  C   UNL A   1      39.470  34.039  34.660  1.00  0.00     0.121 C 
ATOM     28  C   UNL A   1      39.847  31.874  33.540  1.00  0.00     0.121 C 
ATOM     29  C   UNL A   1      38.094  33.572  35.169  1.00  0.00     0.006 C 
ATOM     30  C   UNL A   1      38.432  31.395  33.886  1.00  0.00     0.006 C 
ATOM     31  C   UNL A   1      36.955  34.205  34.365  1.00  0.00     0.009 C 
ATOM     32  C   UNL A   1      37.986  32.037  35.207  1.00  0.00     0.010 C 
ATOM     33  C   UNL A   1      38.359  29.868  33.921  1.00  0.00     0.009 C 
ENDBRANCH  19  26
ENDBRANCH   8  15
ENDBRANCH   6   7
ENDBRANCH   5   6
ENDBRANCH   3   5
ENDBRANCH   2   3
ENDBRANCH   1   2
BRANCH   1  34
ATOM     34  C   UNL A   1      46.102  37.968  30.263  1.00  0.00     0.275 C 
BRANCH  34  35
ATOM     35  O   UNL A   1      46.192  37.177  29.075  1.00  0.00    -0.458 OA
BRANCH  35  36
ATOM     36  C   UNL A   1      47.373  36.551  28.894  1.00  0.00     0.338 C 
ATOM     37  O   UNL A   1      48.505  36.955  29.069  1.00  0.00    -0.246 OA
BRANCH  36  38
ATOM     38  C   UNL A   1      47.041  35.147  28.707  1.00  0.00     0.060 A 
ATOM     39  C   UNL A   1      46.479  34.754  27.487  1.00  0.00     0.016 A 
ATOM     40  C   UNL A   1      47.335  34.244  29.721  1.00  0.00     0.016 A 
ATOM     41  C   UNL A   1      46.176  33.421  27.285  1.00  0.00     0.010 A 
ATOM     42  C   UNL A   1      47.038  32.909  29.516  1.00  0.00     0.010 A 
ATOM     43  C   UNL A   1      46.435  32.509  28.311  1.00  0.00    -0.014 A 
BRANCH  43  44
ATOM     44  C   UNL A   1      45.953  31.131  28.191  1.00  0.00     0.031 A 
ATOM     45  C   UNL A   1      46.935  30.087  27.763  1.00  0.00     0.074 A 
ATOM     46  C   UNL A   1      44.663  30.862  28.445  1.00  0.00     0.049 A 
ATOM     47  N   UNL A   1      46.725  28.835  27.476  1.00  0.00    -0.248 NA
ATOM     48  C   UNL A   1      48.343  30.512  27.626  1.00  0.00     0.031 C 
ATOM     49  C   UNL A   1      43.671  31.842  28.896  1.00  0.00     0.029 A 
ATOM     50  N   UNL A   1      43.962  29.694  28.342  1.00  0.00    -0.354 N 
ATOM     51  C   UNL A   1      47.964  28.324  27.118  1.00  0.00     0.074 A 
ATOM     52  C   UNL A   1      48.920  29.403  27.189  1.00  0.00     0.031 C 
ATOM     53  C   UNL A   1      42.480  31.230  29.017  1.00  0.00     0.029 A 
ATOM     54  C   UNL A   1      42.623  29.836  28.610  1.00  0.00     0.049 A 
ATOM     55  H   UNL A   1      44.377  28.835  28.099  1.00  0.00     0.167 HD
ATOM     56  C   UNL A   1      48.262  27.054  26.774  1.00  0.00     0.037 A 
ATOM     57  C   UNL A   1      41.629  28.937  28.501  1.00  0.00     0.037 A 
ATOM     58  C   UNL A   1      47.278  26.007  26.728  1.00  0.00     0.049 A 
ATOM     59  C   UNL A   1      41.985  27.542  28.053  1.00  0.00     0.074 A 
ATOM     60  C   UNL A   1      47.462  24.674  26.416  1.00  0.00     0.029 A 
ATOM     61  N   UNL A   1      45.928  26.180  27.002  1.00  0.00    -0.354 N 
ATOM     62  N   UNL A   1      43.166  27.054  27.746  1.00  0.00    -0.248 NA
ATOM     63  C   UNL A   1      40.887  26.576  27.938  1.00  0.00     0.031 C 
ATOM     64  C   UNL A   1      46.212  24.053  26.439  1.00  0.00     0.029 A 
ATOM     65  C   UNL A   1      45.260  24.982  26.838  1.00  0.00     0.049 A 
ATOM     66  H   UNL A   1      45.510  27.028  27.272  1.00  0.00     0.167 HD
ATOM     67  C   UNL A   1      42.955  25.717  27.433  1.00  0.00     0.074 A 
ATOM     68  C   UNL A   1      41.537  25.471  27.600  1.00  0.00     0.031 C 
ATOM     69  C   UNL A   1      43.848  24.774  27.040  1.00  0.00     0.037 A 
BRANCH  56  70
ATOM     70  C   UNL A   1      49.680  26.715  26.425  1.00  0.00     0.058 A 
ATOM     71  C   UNL A   1      50.561  26.179  27.376  1.00  0.00     0.135 A 
ATOM     72  C   UNL A   1      50.124  26.816  25.097  1.00  0.00     0.135 A 
ATOM     73  F   UNL A   1      50.197  26.092  28.665  1.00  0.00    -0.206 F 
ATOM     74  C   UNL A   1      51.827  25.730  27.017  1.00  0.00     0.059 A 
ATOM     75  C   UNL A   1      51.377  26.350  24.711  1.00  0.00     0.059 A 
ATOM     76  F   UNL A   1      49.325  27.342  24.155  1.00  0.00    -0.206 F 
ATOM     77  C   UNL A   1      52.217  25.800  25.677  1.00  0.00     0.060 A 
BRANCH  77  78
ATOM     78  S   UNL A   1      53.823  25.119  25.218  1.00  0.00     0.124 S 
ATOM     79  O   UNL A   1      53.594  23.687  25.382  1.00  0.00    -0.237 OA
ATOM     80  O   UNL A   1      53.971  25.584  23.843  1.00  0.00    -0.237 OA
ATOM     81  O   UNL A   1      54.738  25.719  26.184  1.00  0.00    -0.744 OA
ENDBRANCH  77  78
ENDBRANCH  56  70
BRANCH  57  82
ATOM     82  C   UNL A   1      40.225  29.325  28.802  1.00  0.00     0.058 A 
ATOM     83  C   UNL A   1      39.289  29.510  27.776  1.00  0.00     0.135 A 
ATOM     84  C   UNL A   1      39.791  29.527  30.123  1.00  0.00     0.135 A 
ATOM     85  F   UNL A   1      39.651  29.326  26.497  1.00  0.00    -0.206 F 
ATOM     86  C   UNL A   1      37.986  29.917  28.042  1.00  0.00     0.059 A 
ATOM     87  C   UNL A   1      38.484  29.902  30.417  1.00  0.00     0.059 A 
ATOM     88  F   UNL A   1      40.640  29.344  31.147  1.00  0.00    -0.206 F 
ATOM     89  C   UNL A   1      37.594  30.115  29.366  1.00  0.00     0.060 A 
BRANCH  89  90
ATOM     90  S   UNL A   1      35.904  30.657  29.694  1.00  0.00     0.124 S 
ATOM     91  O   UNL A   1      35.166  29.970  28.640  1.00  0.00    -0.237 OA
ATOM     92  O   UNL A   1      35.685  30.166  31.051  1.00  0.00    -0.237 OA
ATOM     93  O   UNL A   1      35.983  32.109  29.564  1.00  0.00    -0.744 OA
ENDBRANCH  89  90
ENDBRANCH  57  82
BRANCH  69  94
ATOM     94  C   UNL A   1      43.335  23.385  26.803  1.00  0.00     0.058 A 
ATOM     95  C   UNL A   1      43.235  22.850  25.511  1.00  0.00     0.135 A 
ATOM     96  C   UNL A   1      43.057  22.541  27.892  1.00  0.00     0.135 A 
ATOM     97  F   UNL A   1      43.487  23.619  24.439  1.00  0.00    -0.206 F 
ATOM     98  C   UNL A   1      42.869  21.526  25.305  1.00  0.00     0.059 A 
ATOM     99  C   UNL A   1      42.725  21.204  27.710  1.00  0.00     0.059 A 
ATOM    100  F   UNL A   1      43.154  23.003  29.149  1.00  0.00    -0.206 F 
ATOM    101  C   UNL A   1      42.630  20.708  26.411  1.00  0.00     0.060 A 
BRANCH 101 102
ATOM    102  S   UNL A   1      42.226  18.974  26.123  1.00  0.00     0.124 S 
ATOM    103  O   UNL A   1      40.817  19.058  25.755  1.00  0.00    -0.237 OA
ATOM    104  O   UNL A   1      43.144  18.618  25.046  1.00  0.00    -0.237 OA
ATOM    105  O   UNL A   1      42.501  18.340  27.410  1.00  0.00    -0.744 OA
ENDBRANCH 101 102
ENDBRANCH  69  94
ENDBRANCH  43  44
ENDBRANCH  36  38
ENDBRANCH  35  36
ENDBRANCH  34  35
ENDBRANCH   1  34
TORSDOF 19
ENDMDL
