MODEL 1
REMARK VINA RESULT:     -10.0      0.000      0.000
REMARK SMILES Nn1c(Cc2ccc(F)c(F)c2)nnc1SCC(=O)OCCOC(=O)c1ccc(-c2c3nc(c(-c4c(F)cc(S(=O)(=O)[O-])cc4F)c4ccc([nH]4)c(-c4c(F)cc(S(=O)(=O)[O-])cc4F)c4nc(c(-c5c(F)cc(S(=O)(=O)[O-])cc5F)c5ccc2[nH]5)C=C4)C=C3)cc1
REMARK SMILES IDX 21 1 20 2 18 3 19 4 17 5 16 6 15 7 2 8 3 9 13 10 14 11 1 12
REMARK SMILES IDX 4 15 5 16 6 17 12 18 7 19 10 20 8 21 11 22 9 23 22 24 23 25
REMARK SMILES IDX 24 26 25 27 26 28 27 29 91 30 28 31 90 32 29 33 30 34 31 35
REMARK SMILES IDX 84 36 32 37 89 38 83 39 85 40 33 41 88 42 82 43 81 44 34 46
REMARK SMILES IDX 68 47 47 48 67 49 48 50 51 51 66 52 86 53 49 54 50 55 65 57
REMARK SMILES IDX 87 58 52 59 35 60 36 61 45 62 37 63 38 64 44 65 46 66 39 67
REMARK SMILES IDX 40 68 41 69 42 70 43 71 69 72 70 73 79 74 71 75 72 76 78 77
REMARK SMILES IDX 80 78 73 79 74 80 75 81 76 82 77 83 53 84 54 85 63 86 55 87
REMARK SMILES IDX 56 88 62 89 64 90 57 91 58 92 59 93 60 94 61 95
REMARK H PARENT 1 13 1 14 85 45 51 56
REMARK Flexibility Score: inf
ROOT
ATOM      1  C   UNL A   1      33.315  34.066  28.305  1.00  0.00     0.274 C 
ENDROOT
BRANCH   1   2
ATOM      2  O   UNL A   1      33.652  34.928  29.410  1.00  0.00    -0.461 OA
BRANCH   2   3
ATOM      3  C   UNL A   1      32.875  36.028  29.561  1.00  0.00     0.316 C 
ATOM      4  O   UNL A   1      32.129  36.466  28.688  1.00  0.00    -0.251 OA
BRANCH   3   5
ATOM      5  C   UNL A   1      32.954  36.695  30.912  1.00  0.00     0.200 C 
BRANCH   5   6
ATOM      6  S   UNL A   1      32.843  35.644  32.369  1.00  0.00    -0.073 SA
BRANCH   6   7
ATOM      7  C   UNL A   1      34.459  35.091  32.651  1.00  0.00     0.210 A 
ATOM      8  N   UNL A   1      34.979  33.864  32.306  1.00  0.00    -0.221 N 
ATOM      9  C   UNL A   1      36.258  33.845  32.820  1.00  0.00     0.157 A 
ATOM     10  N   UNL A   1      36.464  34.969  33.483  1.00  0.00    -0.132 NA
ATOM     11  N   UNL A   1      35.336  35.749  33.376  1.00  0.00    -0.121 NA
BRANCH   8  12
ATOM     12  N   UNL A   1      34.315  32.787  31.632  1.00  0.00    -0.336 N 
ATOM     13  H   UNL A   1      34.706  31.883  31.644  1.00  0.00     0.178 HD
ATOM     14  H   UNL A   1      33.468  32.949  31.158  1.00  0.00     0.178 HD
ENDBRANCH   8  12
BRANCH   9  15
ATOM     15  C   UNL A   1      37.202  32.698  32.668  1.00  0.00     0.115 C 
BRANCH  15  16
ATOM     16  C   UNL A   1      38.129  32.510  33.850  1.00  0.00    -0.037 A 
ATOM     17  C   UNL A   1      39.495  32.822  33.745  1.00  0.00     0.007 A 
ATOM     18  C   UNL A   1      37.648  31.974  35.055  1.00  0.00     0.046 A 
ATOM     19  C   UNL A   1      40.360  32.591  34.818  1.00  0.00     0.043 A 
ATOM     20  C   UNL A   1      38.517  31.738  36.115  1.00  0.00     0.159 A 
ATOM     21  C   UNL A   1      39.865  32.042  35.996  1.00  0.00     0.158 A 
ATOM     22  F   UNL A   1      38.040  31.205  37.249  1.00  0.00    -0.204 F 
ATOM     23  F   UNL A   1      40.703  31.803  37.016  1.00  0.00    -0.204 F 
ENDBRANCH  15  16
ENDBRANCH   9  15
ENDBRANCH   6   7
ENDBRANCH   5   6
ENDBRANCH   3   5
ENDBRANCH   2   3
ENDBRANCH   1   2
BRANCH   1  24
ATOM     24  C   UNL A   1      34.463  33.117  27.978  1.00  0.00     0.275 C 
BRANCH  24  25
ATOM     25  O   UNL A   1      34.418  31.957  28.831  1.00  0.00    -0.458 OA
BRANCH  25  26
ATOM     26  C   UNL A   1      34.523  30.780  28.192  1.00  0.00     0.338 C 
ATOM     27  O   UNL A   1      33.670  30.241  27.485  1.00  0.00    -0.246 OA
BRANCH  26  28
ATOM     28  C   UNL A   1      35.824  30.139  28.405  1.00  0.00     0.060 A 
ATOM     29  C   UNL A   1      36.204  29.703  29.674  1.00  0.00     0.016 A 
ATOM     30  C   UNL A   1      36.747  30.155  27.354  1.00  0.00     0.016 A 
ATOM     31  C   UNL A   1      37.539  29.362  29.911  1.00  0.00     0.010 A 
ATOM     32  C   UNL A   1      38.065  29.758  27.580  1.00  0.00     0.010 A 
ATOM     33  C   UNL A   1      38.484  29.404  28.871  1.00  0.00    -0.014 A 
BRANCH  33  34
ATOM     34  C   UNL A   1      39.918  29.123  29.137  1.00  0.00     0.031 A 
ATOM     35  C   UNL A   1      40.794  30.163  29.785  1.00  0.00     0.074 A 
ATOM     36  C   UNL A   1      40.440  27.928  28.800  1.00  0.00     0.049 A 
ATOM     37  N   UNL A   1      42.075  30.117  30.048  1.00  0.00    -0.248 NA
ATOM     38  C   UNL A   1      40.146  31.423  30.187  1.00  0.00     0.031 C 
ATOM     39  C   UNL A   1      39.705  26.835  28.163  1.00  0.00     0.029 A 
ATOM     40  N   UNL A   1      41.710  27.437  28.953  1.00  0.00    -0.354 N 
ATOM     41  C   UNL A   1      42.394  31.344  30.616  1.00  0.00     0.074 A 
ATOM     42  C   UNL A   1      41.171  32.118  30.661  1.00  0.00     0.031 C 
ATOM     43  C   UNL A   1      40.531  25.790  28.003  1.00  0.00     0.029 A 
ATOM     44  C   UNL A   1      41.859  26.151  28.494  1.00  0.00     0.049 A 
ATOM     45  H   UNL A   1      42.445  27.955  29.351  1.00  0.00     0.167 HD
ATOM     46  C   UNL A   1      43.595  31.790  31.056  1.00  0.00     0.037 A 
ATOM     47  C   UNL A   1      42.943  25.353  28.462  1.00  0.00     0.037 A 
ATOM     48  C   UNL A   1      44.812  31.023  31.034  1.00  0.00     0.049 A 
ATOM     49  C   UNL A   1      44.255  25.858  28.983  1.00  0.00     0.074 A 
ATOM     50  C   UNL A   1      46.077  31.395  31.462  1.00  0.00     0.029 A 
ATOM     51  N   UNL A   1      44.918  29.722  30.568  1.00  0.00    -0.354 N 
ATOM     52  N   UNL A   1      44.540  27.031  29.493  1.00  0.00    -0.248 NA
ATOM     53  C   UNL A   1      45.393  24.932  28.916  1.00  0.00     0.031 C 
ATOM     54  C   UNL A   1      46.948  30.320  31.246  1.00  0.00     0.029 A 
ATOM     55  C   UNL A   1      46.222  29.276  30.697  1.00  0.00     0.049 A 
ATOM     56  H   UNL A   1      44.175  29.194  30.197  1.00  0.00     0.167 HD
ATOM     57  C   UNL A   1      45.894  26.989  29.797  1.00  0.00     0.074 A 
ATOM     58  C   UNL A   1      46.367  25.667  29.436  1.00  0.00     0.031 C 
ATOM     59  C   UNL A   1      46.678  27.964  30.321  1.00  0.00     0.037 A 
BRANCH  46  60
ATOM     60  C   UNL A   1      43.651  33.189  31.594  1.00  0.00     0.058 A 
ATOM     61  C   UNL A   1      43.770  34.294  30.739  1.00  0.00     0.135 A 
ATOM     62  C   UNL A   1      43.564  33.427  32.975  1.00  0.00     0.135 A 
ATOM     63  F   UNL A   1      43.881  34.115  29.414  1.00  0.00    -0.206 F 
ATOM     64  C   UNL A   1      43.816  35.592  31.237  1.00  0.00     0.059 A 
ATOM     65  C   UNL A   1      43.598  34.717  33.494  1.00  0.00     0.059 A 
ATOM     66  F   UNL A   1      43.457  32.398  33.831  1.00  0.00    -0.206 F 
ATOM     67  C   UNL A   1      43.737  35.793  32.616  1.00  0.00     0.060 A 
BRANCH  67  68
ATOM     68  S   UNL A   1      43.809  37.479  33.259  1.00  0.00     0.124 S 
ATOM     69  O   UNL A   1      43.791  38.255  32.024  1.00  0.00    -0.237 OA
ATOM     70  O   UNL A   1      42.602  37.561  34.075  1.00  0.00    -0.237 OA
ATOM     71  O   UNL A   1      45.065  37.500  34.001  1.00  0.00    -0.744 OA
ENDBRANCH  67  68
ENDBRANCH  46  60
BRANCH  47  72
ATOM     72  C   UNL A   1      42.814  23.984  27.913  1.00  0.00     0.058 A 
ATOM     73  C   UNL A   1      42.626  22.887  28.765  1.00  0.00     0.135 A 
ATOM     74  C   UNL A   1      42.808  23.758  26.530  1.00  0.00     0.135 A 
ATOM     75  F   UNL A   1      42.629  23.064  30.095  1.00  0.00    -0.206 F 
ATOM     76  C   UNL A   1      42.424  21.607  28.263  1.00  0.00     0.059 A 
ATOM     77  C   UNL A   1      42.595  22.489  26.004  1.00  0.00     0.059 A 
ATOM     78  F   UNL A   1      42.972  24.784  25.681  1.00  0.00    -0.206 F 
ATOM     79  C   UNL A   1      42.404  21.419  26.880  1.00  0.00     0.060 A 
BRANCH  79  80
ATOM     80  S   UNL A   1      42.032  19.783  26.213  1.00  0.00     0.124 S 
ATOM     81  O   UNL A   1      40.597  19.881  25.980  1.00  0.00    -0.237 OA
ATOM     82  O   UNL A   1      42.869  19.727  25.017  1.00  0.00    -0.237 OA
ATOM     83  O   UNL A   1      42.443  18.893  27.294  1.00  0.00    -0.744 OA
ENDBRANCH  79  80
ENDBRANCH  47  72
BRANCH  59  84
ATOM     84  C   UNL A   1      48.125  27.630  30.519  1.00  0.00     0.058 A 
ATOM     85  C   UNL A   1      49.085  27.979  29.558  1.00  0.00     0.135 A 
ATOM     86  C   UNL A   1      48.555  26.959  31.672  1.00  0.00     0.135 A 
ATOM     87  F   UNL A   1      48.715  28.618  28.436  1.00  0.00    -0.206 F 
ATOM     88  C   UNL A   1      50.426  27.649  29.721  1.00  0.00     0.059 A 
ATOM     89  C   UNL A   1      49.894  26.628  31.860  1.00  0.00     0.059 A 
ATOM     90  F   UNL A   1      47.673  26.608  32.621  1.00  0.00    -0.206 F 
ATOM     91  C   UNL A   1      50.819  26.964  30.870  1.00  0.00     0.060 A 
BRANCH  91  92
ATOM     92  S   UNL A   1      52.558  26.527  31.087  1.00  0.00     0.124 S 
ATOM     93  O   UNL A   1      52.462  25.405  32.015  1.00  0.00    -0.237 OA
ATOM     94  O   UNL A   1      52.980  26.192  29.731  1.00  0.00    -0.237 OA
ATOM     95  O   UNL A   1      53.140  27.750  31.632  1.00  0.00    -0.744 OA
ENDBRANCH  91  92
ENDBRANCH  59  84
ENDBRANCH  33  34
ENDBRANCH  26  28
ENDBRANCH  25  26
ENDBRANCH  24  25
ENDBRANCH   1  24
TORSDOF 19
ENDMDL
MODEL 2
REMARK VINA RESULT:     -10.0      2.739      3.770
REMARK SMILES Nn1c(Cc2ccc(F)c(F)c2)nnc1SCC(=O)OCCOC(=O)c1ccc(-c2c3nc(c(-c4c(F)cc(S(=O)(=O)[O-])cc4F)c4ccc([nH]4)c(-c4c(F)cc(S(=O)(=O)[O-])cc4F)c4nc(c(-c5c(F)cc(S(=O)(=O)[O-])cc5F)c5ccc2[nH]5)C=C4)C=C3)cc1
REMARK SMILES IDX 21 1 20 2 18 3 19 4 17 5 16 6 15 7 2 8 3 9 13 10 14 11 1 12
REMARK SMILES IDX 4 15 5 16 6 17 12 18 7 19 10 20 8 21 11 22 9 23 22 24 23 25
REMARK SMILES IDX 24 26 25 27 26 28 27 29 91 30 28 31 90 32 29 33 30 34 31 35
REMARK SMILES IDX 84 36 32 37 89 38 83 39 85 40 33 41 88 42 82 43 81 44 34 46
REMARK SMILES IDX 68 47 47 48 67 49 48 50 51 51 66 52 86 53 49 54 50 55 65 57
REMARK SMILES IDX 87 58 52 59 35 60 36 61 45 62 37 63 38 64 44 65 46 66 39 67
REMARK SMILES IDX 40 68 41 69 42 70 43 71 69 72 70 73 79 74 71 75 72 76 78 77
REMARK SMILES IDX 80 78 73 79 74 80 75 81 76 82 77 83 53 84 54 85 63 86 55 87
REMARK SMILES IDX 56 88 62 89 64 90 57 91 58 92 59 93 60 94 61 95
REMARK H PARENT 1 13 1 14 85 45 51 56
REMARK Flexibility Score: inf
ROOT
ATOM      1  C   UNL A   1      35.059  33.359  27.964  1.00  0.00     0.274 C 
ENDROOT
BRANCH   1   2
ATOM      2  O   UNL A   1      34.618  34.728  28.046  1.00  0.00    -0.461 OA
BRANCH   2   3
ATOM      3  C   UNL A   1      33.540  34.957  28.836  1.00  0.00     0.316 C 
ATOM      4  O   UNL A   1      32.542  34.241  28.859  1.00  0.00    -0.251 OA
BRANCH   3   5
ATOM      5  C   UNL A   1      33.645  36.161  29.739  1.00  0.00     0.200 C 
BRANCH   5   6
ATOM      6  S   UNL A   1      33.005  36.006  31.414  1.00  0.00    -0.073 SA
BRANCH   6   7
ATOM      7  C   UNL A   1      34.293  35.293  32.325  1.00  0.00     0.210 A 
ATOM      8  N   UNL A   1      34.727  33.989  32.251  1.00  0.00    -0.221 N 
ATOM      9  C   UNL A   1      35.693  33.863  33.225  1.00  0.00     0.157 A 
ATOM     10  N   UNL A   1      35.784  35.007  33.881  1.00  0.00    -0.132 NA
ATOM     11  N   UNL A   1      34.907  35.902  33.315  1.00  0.00    -0.121 NA
BRANCH   8  12
ATOM     12  N   UNL A   1      34.229  32.944  31.403  1.00  0.00    -0.336 N 
ATOM     13  H   UNL A   1      33.375  33.061  30.928  1.00  0.00     0.178 HD
ATOM     14  H   UNL A   1      34.741  32.110  31.296  1.00  0.00     0.178 HD
ENDBRANCH   8  12
BRANCH   9  15
ATOM     15  C   UNL A   1      36.452  32.604  33.492  1.00  0.00     0.115 C 
BRANCH  15  16
ATOM     16  C   UNL A   1      37.867  32.620  32.955  1.00  0.00    -0.037 A 
ATOM     17  C   UNL A   1      38.886  31.901  33.602  1.00  0.00     0.007 A 
ATOM     18  C   UNL A   1      38.194  33.394  31.830  1.00  0.00     0.046 A 
ATOM     19  C   UNL A   1      40.203  31.966  33.140  1.00  0.00     0.043 A 
ATOM     20  C   UNL A   1      39.509  33.460  31.382  1.00  0.00     0.159 A 
ATOM     21  C   UNL A   1      40.509  32.752  32.035  1.00  0.00     0.158 A 
ATOM     22  F   UNL A   1      39.803  34.222  30.319  1.00  0.00    -0.204 F 
ATOM     23  F   UNL A   1      41.777  32.827  31.608  1.00  0.00    -0.204 F 
ENDBRANCH  15  16
ENDBRANCH   9  15
ENDBRANCH   6   7
ENDBRANCH   5   6
ENDBRANCH   3   5
ENDBRANCH   2   3
ENDBRANCH   1   2
BRANCH   1  24
ATOM     24  C   UNL A   1      36.490  33.210  28.470  1.00  0.00     0.275 C 
BRANCH  24  25
ATOM     25  O   UNL A   1      36.543  32.282  29.570  1.00  0.00    -0.458 OA
BRANCH  25  26
ATOM     26  C   UNL A   1      36.318  30.999  29.239  1.00  0.00     0.338 C 
ATOM     27  O   UNL A   1      35.224  30.455  29.078  1.00  0.00    -0.246 OA
BRANCH  26  28
ATOM     28  C   UNL A   1      37.558  30.237  29.065  1.00  0.00     0.060 A 
ATOM     29  C   UNL A   1      38.445  30.066  30.129  1.00  0.00     0.016 A 
ATOM     30  C   UNL A   1      37.924  29.860  27.769  1.00  0.00     0.016 A 
ATOM     31  C   UNL A   1      39.736  29.593  29.875  1.00  0.00     0.010 A 
ATOM     32  C   UNL A   1      39.193  29.333  27.530  1.00  0.00     0.010 A 
ATOM     33  C   UNL A   1      40.126  29.241  28.572  1.00  0.00    -0.014 A 
BRANCH  33  34
ATOM     34  C   UNL A   1      41.521  28.816  28.286  1.00  0.00     0.031 A 
ATOM     35  C   UNL A   1      42.652  29.809  28.360  1.00  0.00     0.074 A 
ATOM     36  C   UNL A   1      41.779  27.535  27.963  1.00  0.00     0.049 A 
ATOM     37  N   UNL A   1      43.922  29.635  28.095  1.00  0.00    -0.248 NA
ATOM     38  C   UNL A   1      42.311  31.178  28.781  1.00  0.00     0.031 C 
ATOM     39  C   UNL A   1      40.777  26.475  27.852  1.00  0.00     0.029 A 
ATOM     40  N   UNL A   1      42.964  26.911  27.673  1.00  0.00    -0.354 N 
ATOM     41  C   UNL A   1      44.527  30.871  28.288  1.00  0.00     0.074 A 
ATOM     42  C   UNL A   1      43.484  31.791  28.693  1.00  0.00     0.031 C 
ATOM     43  C   UNL A   1      41.394  25.323  27.544  1.00  0.00     0.029 A 
ATOM     44  C   UNL A   1      42.826  25.571  27.402  1.00  0.00     0.049 A 
ATOM     45  H   UNL A   1      43.830  27.377  27.659  1.00  0.00     0.167 HD
ATOM     46  C   UNL A   1      45.829  31.213  28.138  1.00  0.00     0.037 A 
ATOM     47  C   UNL A   1      43.746  24.647  27.068  1.00  0.00     0.037 A 
ATOM     48  C   UNL A   1      46.876  30.303  27.755  1.00  0.00     0.049 A 
ATOM     49  C   UNL A   1      45.186  25.043  26.938  1.00  0.00     0.074 A 
ATOM     50  C   UNL A   1      48.225  30.563  27.580  1.00  0.00     0.029 A 
ATOM     51  N   UNL A   1      46.694  28.954  27.497  1.00  0.00    -0.354 N 
ATOM     52  N   UNL A   1      45.732  26.223  27.100  1.00  0.00    -0.248 NA
ATOM     53  C   UNL A   1      46.133  23.981  26.570  1.00  0.00     0.031 C 
ATOM     54  C   UNL A   1      48.858  29.370  27.208  1.00  0.00     0.029 A 
ATOM     55  C   UNL A   1      47.905  28.367  27.165  1.00  0.00     0.049 A 
ATOM     56  H   UNL A   1      45.832  28.482  27.541  1.00  0.00     0.167 HD
ATOM     57  C   UNL A   1      47.086  26.050  26.843  1.00  0.00     0.074 A 
ATOM     58  C   UNL A   1      47.281  24.646  26.537  1.00  0.00     0.031 C 
ATOM     59  C   UNL A   1      48.078  26.974  26.851  1.00  0.00     0.037 A 
BRANCH  46  60
ATOM     60  C   UNL A   1      46.192  32.647  28.381  1.00  0.00     0.058 A 
ATOM     61  C   UNL A   1      46.589  33.093  29.651  1.00  0.00     0.135 A 
ATOM     62  C   UNL A   1      46.162  33.579  27.332  1.00  0.00     0.135 A 
ATOM     63  F   UNL A   1      46.610  32.244  30.689  1.00  0.00    -0.206 F 
ATOM     64  C   UNL A   1      46.930  34.422  29.876  1.00  0.00     0.059 A 
ATOM     65  C   UNL A   1      46.509  34.911  27.533  1.00  0.00     0.059 A 
ATOM     66  F   UNL A   1      45.780  33.199  26.103  1.00  0.00    -0.206 F 
ATOM     67  C   UNL A   1      46.881  35.326  28.812  1.00  0.00     0.060 A 
BRANCH  67  68
ATOM     68  S   UNL A   1      47.314  37.053  29.112  1.00  0.00     0.124 S 
ATOM     69  O   UNL A   1      46.135  37.521  29.834  1.00  0.00    -0.237 OA
ATOM     70  O   UNL A   1      48.537  36.943  29.901  1.00  0.00    -0.237 OA
ATOM     71  O   UNL A   1      47.487  37.591  27.767  1.00  0.00    -0.744 OA
ENDBRANCH  67  68
ENDBRANCH  46  60
BRANCH  47  72
ATOM     72  C   UNL A   1      43.313  23.250  26.839  1.00  0.00     0.058 A 
ATOM     73  C   UNL A   1      43.267  22.720  25.543  1.00  0.00     0.135 A 
ATOM     74  C   UNL A   1      43.006  22.403  27.913  1.00  0.00     0.135 A 
ATOM     75  F   UNL A   1      43.551  23.501  24.489  1.00  0.00    -0.206 F 
ATOM     76  C   UNL A   1      42.940  21.389  25.316  1.00  0.00     0.059 A 
ATOM     77  C   UNL A   1      42.688  21.065  27.713  1.00  0.00     0.059 A 
ATOM     78  F   UNL A   1      43.051  22.870  29.170  1.00  0.00    -0.206 F 
ATOM     79  C   UNL A   1      42.659  20.567  26.409  1.00  0.00     0.060 A 
BRANCH  79  80
ATOM     80  S   UNL A   1      42.341  18.809  26.139  1.00  0.00     0.124 S 
ATOM     81  O   UNL A   1      43.312  18.493  25.099  1.00  0.00    -0.237 OA
ATOM     82  O   UNL A   1      42.605  18.231  27.454  1.00  0.00    -0.237 OA
ATOM     83  O   UNL A   1      40.940  18.794  25.730  1.00  0.00    -0.744 OA
ENDBRANCH  79  80
ENDBRANCH  47  72
BRANCH  59  84
ATOM     84  C   UNL A   1      49.453  26.489  26.507  1.00  0.00     0.058 A 
ATOM     85  C   UNL A   1      50.302  25.967  27.493  1.00  0.00     0.135 A 
ATOM     86  C   UNL A   1      49.925  26.546  25.188  1.00  0.00     0.135 A 
ATOM     87  F   UNL A   1      49.892  25.899  28.770  1.00  0.00    -0.206 F 
ATOM     88  C   UNL A   1      51.590  25.539  27.188  1.00  0.00     0.059 A 
ATOM     89  C   UNL A   1      51.206  26.114  24.858  1.00  0.00     0.059 A 
ATOM     90  F   UNL A   1      49.145  27.034  24.210  1.00  0.00    -0.206 F 
ATOM     91  C   UNL A   1      52.036  25.627  25.869  1.00  0.00     0.060 A 
BRANCH  91  92
ATOM     92  S   UNL A   1      53.709  25.079  25.465  1.00  0.00     0.124 S 
ATOM     93  O   UNL A   1      54.451  25.513  26.644  1.00  0.00    -0.237 OA
ATOM     94  O   UNL A   1      53.549  23.636  25.314  1.00  0.00    -0.237 OA
ATOM     95  O   UNL A   1      54.004  25.801  24.231  1.00  0.00    -0.744 OA
ENDBRANCH  91  92
ENDBRANCH  59  84
ENDBRANCH  33  34
ENDBRANCH  26  28
ENDBRANCH  25  26
ENDBRANCH  24  25
ENDBRANCH   1  24
TORSDOF 19
ENDMDL
MODEL 3
REMARK VINA RESULT:      -9.9      5.376     12.314
REMARK SMILES Nn1c(Cc2ccc(F)c(F)c2)nnc1SCC(=O)OCCOC(=O)c1ccc(-c2c3nc(c(-c4c(F)cc(S(=O)(=O)[O-])cc4F)c4ccc([nH]4)c(-c4c(F)cc(S(=O)(=O)[O-])cc4F)c4nc(c(-c5c(F)cc(S(=O)(=O)[O-])cc5F)c5ccc2[nH]5)C=C4)C=C3)cc1
REMARK SMILES IDX 21 1 20 2 18 3 19 4 17 5 16 6 15 7 2 8 3 9 13 10 14 11 1 12
REMARK SMILES IDX 4 15 5 16 6 17 12 18 7 19 10 20 8 21 11 22 9 23 22 24 23 25
REMARK SMILES IDX 24 26 25 27 26 28 27 29 91 30 28 31 90 32 29 33 30 34 31 35
REMARK SMILES IDX 84 36 32 37 89 38 83 39 85 40 33 41 88 42 82 43 81 44 34 46
REMARK SMILES IDX 68 47 47 48 67 49 48 50 51 51 66 52 86 53 49 54 50 55 65 57
REMARK SMILES IDX 87 58 52 59 35 60 36 61 45 62 37 63 38 64 44 65 46 66 39 67
REMARK SMILES IDX 40 68 41 69 42 70 43 71 69 72 70 73 79 74 71 75 72 76 78 77
REMARK SMILES IDX 80 78 73 79 74 80 75 81 76 82 77 83 53 84 54 85 63 86 55 87
REMARK SMILES IDX 56 88 62 89 64 90 57 91 58 92 59 93 60 94 61 95
REMARK H PARENT 1 13 1 14 85 45 51 56
REMARK Flexibility Score: inf
ROOT
ATOM      1  C   UNL A   1      39.316  21.426  25.861  1.00  0.00     0.274 C 
ENDROOT
BRANCH   1   2
ATOM      2  O   UNL A   1      38.053  22.077  25.626  1.00  0.00    -0.461 OA
BRANCH   2   3
ATOM      3  C   UNL A   1      37.152  21.378  24.893  1.00  0.00     0.316 C 
ATOM      4  O   UNL A   1      36.965  20.169  25.009  1.00  0.00    -0.251 OA
BRANCH   3   5
ATOM      5  C   UNL A   1      36.344  22.192  23.913  1.00  0.00     0.200 C 
BRANCH   5   6
ATOM      6  S   UNL A   1      34.606  22.468  24.292  1.00  0.00    -0.073 SA
BRANCH   6   7
ATOM      7  C   UNL A   1      34.240  24.022  23.622  1.00  0.00     0.210 A 
ATOM      8  N   UNL A   1      33.976  25.177  24.324  1.00  0.00    -0.221 N 
ATOM      9  C   UNL A   1      33.643  26.119  23.376  1.00  0.00     0.157 A 
ATOM     10  N   UNL A   1      33.649  25.543  22.186  1.00  0.00    -0.132 NA
ATOM     11  N   UNL A   1      34.023  24.230  22.343  1.00  0.00    -0.121 NA
BRANCH   8  12
ATOM     12  N   UNL A   1      33.960  25.356  25.747  1.00  0.00    -0.336 N 
ATOM     13  H   UNL A   1      33.505  24.698  26.321  1.00  0.00     0.178 HD
ATOM     14  H   UNL A   1      34.405  26.135  26.151  1.00  0.00     0.178 HD
ENDBRANCH   8  12
BRANCH   9  15
ATOM     15  C   UNL A   1      33.292  27.536  23.694  1.00  0.00     0.115 C 
BRANCH  15  16
ATOM     16  C   UNL A   1      31.838  27.875  23.444  1.00  0.00    -0.037 A 
ATOM     17  C   UNL A   1      30.815  27.083  23.992  1.00  0.00     0.007 A 
ATOM     18  C   UNL A   1      31.489  28.957  22.621  1.00  0.00     0.046 A 
ATOM     19  C   UNL A   1      29.474  27.361  23.710  1.00  0.00     0.043 A 
ATOM     20  C   UNL A   1      30.153  29.222  22.338  1.00  0.00     0.159 A 
ATOM     21  C   UNL A   1      29.152  28.427  22.878  1.00  0.00     0.158 A 
ATOM     22  F   UNL A   1      29.843  30.247  21.532  1.00  0.00    -0.204 F 
ATOM     23  F   UNL A   1      27.866  28.678  22.595  1.00  0.00    -0.204 F 
ENDBRANCH  15  16
ENDBRANCH   9  15
ENDBRANCH   6   7
ENDBRANCH   5   6
ENDBRANCH   3   5
ENDBRANCH   2   3
ENDBRANCH   1   2
BRANCH   1  24
ATOM     24  C   UNL A   1      40.166  22.212  26.852  1.00  0.00     0.275 C 
BRANCH  24  25
ATOM     25  O   UNL A   1      40.067  23.626  26.593  1.00  0.00    -0.458 OA
BRANCH  25  26
ATOM     26  C   UNL A   1      41.184  24.328  26.845  1.00  0.00     0.338 C 
ATOM     27  O   UNL A   1      42.330  24.053  26.484  1.00  0.00    -0.246 OA
BRANCH  26  28
ATOM     28  C   UNL A   1      40.924  25.536  27.632  1.00  0.00     0.060 A 
ATOM     29  C   UNL A   1      41.881  26.548  27.724  1.00  0.00     0.016 A 
ATOM     30  C   UNL A   1      39.785  25.562  28.444  1.00  0.00     0.016 A 
ATOM     31  C   UNL A   1      41.736  27.543  28.694  1.00  0.00     0.010 A 
ATOM     32  C   UNL A   1      39.615  26.590  29.371  1.00  0.00     0.010 A 
ATOM     33  C   UNL A   1      40.612  27.562  29.538  1.00  0.00    -0.014 A 
BRANCH  33  34
ATOM     34  C   UNL A   1      40.495  28.569  30.623  1.00  0.00     0.031 A 
ATOM     35  C   UNL A   1      41.425  28.528  31.808  1.00  0.00     0.074 A 
ATOM     36  C   UNL A   1      39.554  29.529  30.548  1.00  0.00     0.049 A 
ATOM     37  N   UNL A   1      41.441  29.288  32.872  1.00  0.00    -0.248 NA
ATOM     38  C   UNL A   1      42.472  27.493  31.797  1.00  0.00     0.031 C 
ATOM     39  C   UNL A   1      38.587  29.680  29.461  1.00  0.00     0.029 A 
ATOM     40  N   UNL A   1      39.262  30.560  31.404  1.00  0.00    -0.354 N 
ATOM     41  C   UNL A   1      42.474  28.811  33.670  1.00  0.00     0.074 A 
ATOM     42  C   UNL A   1      43.065  27.691  32.967  1.00  0.00     0.031 C 
ATOM     43  C   UNL A   1      37.825  30.759  29.702  1.00  0.00     0.029 A 
ATOM     44  C   UNL A   1      38.227  31.353  30.974  1.00  0.00     0.049 A 
ATOM     45  H   UNL A   1      39.747  30.715  32.246  1.00  0.00     0.167 HD
ATOM     46  C   UNL A   1      42.891  29.258  34.878  1.00  0.00     0.037 A 
ATOM     47  C   UNL A   1      37.657  32.431  31.543  1.00  0.00     0.037 A 
ATOM     48  C   UNL A   1      42.325  30.382  35.577  1.00  0.00     0.049 A 
ATOM     49  C   UNL A   1      38.156  32.927  32.867  1.00  0.00     0.074 A 
ATOM     50  C   UNL A   1      42.686  30.906  36.807  1.00  0.00     0.029 A 
ATOM     51  N   UNL A   1      41.282  31.162  35.103  1.00  0.00    -0.354 N 
ATOM     52  N   UNL A   1      39.117  32.444  33.616  1.00  0.00    -0.248 NA
ATOM     53  C   UNL A   1      37.485  34.108  33.426  1.00  0.00     0.031 C 
ATOM     54  C   UNL A   1      41.855  32.000  37.079  1.00  0.00     0.029 A 
ATOM     55  C   UNL A   1      40.987  32.163  36.013  1.00  0.00     0.049 A 
ATOM     56  H   UNL A   1      40.817  31.023  34.246  1.00  0.00     0.167 HD
ATOM     57  C   UNL A   1      39.161  33.256  34.742  1.00  0.00     0.074 A 
ATOM     58  C   UNL A   1      38.145  34.275  34.566  1.00  0.00     0.031 C 
ATOM     59  C   UNL A   1      39.965  33.159  35.829  1.00  0.00     0.037 A 
BRANCH  46  60
ATOM     60  C   UNL A   1      44.019  28.516  35.531  1.00  0.00     0.058 A 
ATOM     61  C   UNL A   1      45.356  28.870  35.297  1.00  0.00     0.135 A 
ATOM     62  C   UNL A   1      43.760  27.455  36.412  1.00  0.00     0.135 A 
ATOM     63  F   UNL A   1      45.653  29.862  34.443  1.00  0.00    -0.206 F 
ATOM     64  C   UNL A   1      46.402  28.185  35.905  1.00  0.00     0.059 A 
ATOM     65  C   UNL A   1      44.790  26.762  37.039  1.00  0.00     0.059 A 
ATOM     66  F   UNL A   1      42.495  27.076  36.658  1.00  0.00    -0.206 F 
ATOM     67  C   UNL A   1      46.110  27.128  36.769  1.00  0.00     0.060 A 
BRANCH  67  68
ATOM     68  S   UNL A   1      47.472  26.234  37.548  1.00  0.00     0.124 S 
ATOM     69  O   UNL A   1      48.530  26.408  36.558  1.00  0.00    -0.237 OA
ATOM     70  O   UNL A   1      47.653  26.957  38.802  1.00  0.00    -0.237 OA
ATOM     71  O   UNL A   1      46.948  24.878  37.681  1.00  0.00    -0.744 OA
ENDBRANCH  67  68
ENDBRANCH  46  60
BRANCH  47  72
ATOM     72  C   UNL A   1      36.544  33.112  30.842  1.00  0.00     0.058 A 
ATOM     73  C   UNL A   1      35.235  33.034  31.336  1.00  0.00     0.135 A 
ATOM     74  C   UNL A   1      36.780  33.905  29.711  1.00  0.00     0.135 A 
ATOM     75  F   UNL A   1      34.969  32.283  32.415  1.00  0.00    -0.206 F 
ATOM     76  C   UNL A   1      34.193  33.731  30.737  1.00  0.00     0.059 A 
ATOM     77  C   UNL A   1      35.757  34.621  29.102  1.00  0.00     0.059 A 
ATOM     78  F   UNL A   1      38.023  34.015  29.215  1.00  0.00    -0.206 F 
ATOM     79  C   UNL A   1      34.465  34.528  29.623  1.00  0.00     0.060 A 
BRANCH  79  80
ATOM     80  S   UNL A   1      33.144  35.526  28.901  1.00  0.00     0.124 S 
ATOM     81  O   UNL A   1      33.904  36.539  28.180  1.00  0.00    -0.237 OA
ATOM     82  O   UNL A   1      32.428  34.559  28.075  1.00  0.00    -0.237 OA
ATOM     83  O   UNL A   1      32.414  35.993  30.076  1.00  0.00    -0.744 OA
ENDBRANCH  79  80
ENDBRANCH  47  72
BRANCH  59  84
ATOM     84  C   UNL A   1      39.763  34.178  36.908  1.00  0.00     0.058 A 
ATOM     85  C   UNL A   1      40.268  35.480  36.778  1.00  0.00     0.135 A 
ATOM     86  C   UNL A   1      39.062  33.853  38.079  1.00  0.00     0.135 A 
ATOM     87  F   UNL A   1      40.950  35.831  35.675  1.00  0.00    -0.206 F 
ATOM     88  C   UNL A   1      40.108  36.423  37.786  1.00  0.00     0.059 A 
ATOM     89  C   UNL A   1      38.882  34.785  39.097  1.00  0.00     0.059 A 
ATOM     90  F   UNL A   1      38.557  32.621  38.246  1.00  0.00    -0.206 F 
ATOM     91  C   UNL A   1      39.423  36.063  38.947  1.00  0.00     0.060 A 
BRANCH  91  92
ATOM     92  S   UNL A   1      39.215  37.281  40.264  1.00  0.00     0.124 S 
ATOM     93  O   UNL A   1      40.601  37.546  40.637  1.00  0.00    -0.237 OA
ATOM     94  O   UNL A   1      38.522  38.373  39.589  1.00  0.00    -0.237 OA
ATOM     95  O   UNL A   1      38.420  36.563  41.256  1.00  0.00    -0.744 OA
ENDBRANCH  91  92
ENDBRANCH  59  84
ENDBRANCH  33  34
ENDBRANCH  26  28
ENDBRANCH  25  26
ENDBRANCH  24  25
ENDBRANCH   1  24
TORSDOF 19
ENDMDL
