MODEL 1
REMARK VINA RESULT:     -11.4      0.000      0.000
REMARK SMILES CCCOC(=O)c1c(NC(=O)[C@@H]2CC=CC[C@H]2C(=O)OCCOC(=O)c2ccc(-c3c4nc(c(-c5c(F)cc(S(=O)(=O)[O-])cc5F)c5ccc([nH]5)c(-c5c(F)cc(S(=O)(=O)[O-])cc5F)c5nc(c(-c6c(F)cc(S(=O)(=O)[O-])cc6F)c6ccc3[nH]6)C=C5)C=C4)cc2)sc2c1CCCC2
REMARK SMILES IDX 20 1 18 2 19 3 17 4 12 5 13 6 14 7 16 8 15 9 10 10 9 11
REMARK SMILES IDX 11 13 8 14 7 15 94 16 92 17 93 18 95 19 98 20 96 21 97 22
REMARK SMILES IDX 5 23 6 24 4 25 3 26 2 27 1 28 21 29 22 30 23 31 24 32 25 33
REMARK SMILES IDX 26 34 27 35 91 36 28 37 90 38 29 39 30 40 31 41 84 42 32 43
REMARK SMILES IDX 89 44 83 45 85 46 33 47 88 48 82 49 81 50 34 52 68 53 47 54
REMARK SMILES IDX 67 55 48 56 51 57 66 58 86 59 49 60 50 61 65 63 87 64 52 65
REMARK SMILES IDX 35 66 36 67 45 68 37 69 38 70 44 71 46 72 39 73 40 74 41 75
REMARK SMILES IDX 42 76 43 77 69 78 70 79 79 80 71 81 72 82 78 83 80 84 73 85
REMARK SMILES IDX 74 86 75 87 76 88 77 89 53 90 54 91 63 92 55 93 56 94 62 95
REMARK SMILES IDX 64 96 57 97 58 98 59 99 60 100 61 101
REMARK H PARENT 9 12 85 51 51 62
REMARK Flexibility Score: inf
ROOT
ATOM      1  O   UNL A   1      33.948  28.680  25.715  1.00  0.00    -0.462 OA
ENDROOT
BRANCH   1   2
ATOM      2  C   UNL A   1      33.481  27.440  25.403  1.00  0.00     0.310 C 
ATOM      3  O   UNL A   1      34.073  26.443  25.807  1.00  0.00    -0.252 OA
BRANCH   2   4
ATOM      4  C   UNL A   1      32.179  27.319  24.513  1.00  0.00     0.116 C 
ATOM      5  C   UNL A   1      32.084  26.404  23.302  1.00  0.00     0.097 C 
ATOM      6  C   UNL A   1      31.134  27.060  22.263  1.00  0.00     0.041 C 
ATOM      7  C   UNL A   1      29.812  27.432  22.883  1.00  0.00    -0.030 C 
ATOM      8  C   UNL A   1      30.776  27.075  25.139  1.00  0.00     0.043 C 
ATOM      9  C   UNL A   1      29.639  27.410  24.211  1.00  0.00    -0.030 C 
BRANCH   5  10
ATOM     10  C   UNL A   1      33.388  26.091  22.704  1.00  0.00     0.229 C 
ATOM     11  N   UNL A   1      33.844  24.829  22.806  1.00  0.00    -0.317 N 
ATOM     12  H   UNL A   1      34.518  24.637  22.114  1.00  0.00     0.170 HD
ATOM     13  O   UNL A   1      34.017  26.928  22.060  1.00  0.00    -0.274 OA
BRANCH  11  14
ATOM     14  C   UNL A   1      33.631  23.730  23.614  1.00  0.00     0.110 A 
ATOM     15  C   UNL A   1      34.009  23.025  24.781  1.00  0.00     0.098 A 
ATOM     16  C   UNL A   1      33.473  21.644  24.629  1.00  0.00    -0.017 A 
ATOM     17  S   UNL A   1      32.432  22.906  22.691  1.00  0.00    -0.122 S 
ATOM     18  C   UNL A   1      32.745  21.467  23.466  1.00  0.00     0.011 A 
ATOM     19  C   UNL A   1      33.699  20.459  25.525  1.00  0.00     0.038 C 
ATOM     20  C   UNL A   1      32.287  20.188  22.853  1.00  0.00     0.047 C 
ATOM     21  C   UNL A   1      33.604  19.133  24.736  1.00  0.00     0.005 C 
ATOM     22  C   UNL A   1      32.337  19.056  23.870  1.00  0.00     0.006 C 
BRANCH  15  23
ATOM     23  C   UNL A   1      34.872  23.370  25.988  1.00  0.00     0.341 C 
ATOM     24  O   UNL A   1      34.454  23.201  27.128  1.00  0.00    -0.246 OA
BRANCH  23  25
ATOM     25  O   UNL A   1      36.206  23.712  25.755  1.00  0.00    -0.462 OA
BRANCH  25  26
ATOM     26  C   UNL A   1      36.922  23.454  24.485  1.00  0.00     0.233 C 
BRANCH  26  27
ATOM     27  C   UNL A   1      37.118  21.937  24.062  1.00  0.00     0.038 C 
ATOM     28  C   UNL A   1      37.372  20.774  25.054  1.00  0.00     0.007 C 
ENDBRANCH  26  27
ENDBRANCH  25  26
ENDBRANCH  23  25
ENDBRANCH  15  23
ENDBRANCH  11  14
ENDBRANCH   5  10
ENDBRANCH   2   4
ENDBRANCH   1   2
BRANCH   1  29
ATOM     29  C   UNL A   1      32.981  29.758  25.974  1.00  0.00     0.274 C 
BRANCH  29  30
ATOM     30  C   UNL A   1      33.406  30.744  27.065  1.00  0.00     0.275 C 
BRANCH  30  31
ATOM     31  O   UNL A   1      34.446  30.164  27.843  1.00  0.00    -0.458 OA
BRANCH  31  32
ATOM     32  C   UNL A   1      35.049  31.043  28.672  1.00  0.00     0.338 C 
ATOM     33  O   UNL A   1      34.524  31.888  29.382  1.00  0.00    -0.246 OA
BRANCH  32  34
ATOM     34  C   UNL A   1      36.423  30.567  28.772  1.00  0.00     0.060 A 
ATOM     35  C   UNL A   1      36.920  30.271  30.044  1.00  0.00     0.016 A 
ATOM     36  C   UNL A   1      37.153  30.293  27.618  1.00  0.00     0.016 A 
ATOM     37  C   UNL A   1      38.144  29.643  30.179  1.00  0.00     0.010 A 
ATOM     38  C   UNL A   1      38.411  29.726  27.753  1.00  0.00     0.010 A 
ATOM     39  C   UNL A   1      38.901  29.406  29.032  1.00  0.00    -0.014 A 
BRANCH  39  40
ATOM     40  C   UNL A   1      40.305  29.009  29.163  1.00  0.00     0.031 A 
ATOM     41  C   UNL A   1      41.277  30.088  29.512  1.00  0.00     0.074 A 
ATOM     42  C   UNL A   1      40.670  27.743  28.913  1.00  0.00     0.049 A 
ATOM     43  N   UNL A   1      42.575  30.091  29.418  1.00  0.00    -0.248 NA
ATOM     44  C   UNL A   1      40.699  31.352  30.009  1.00  0.00     0.031 C 
ATOM     45  C   UNL A   1      39.751  26.635  28.648  1.00  0.00     0.029 A 
ATOM     46  N   UNL A   1      41.914  27.188  28.806  1.00  0.00    -0.354 N 
ATOM     47  C   UNL A   1      42.969  31.366  29.804  1.00  0.00     0.074 A 
ATOM     48  C   UNL A   1      41.776  32.111  30.134  1.00  0.00     0.031 C 
ATOM     49  C   UNL A   1      40.469  25.535  28.367  1.00  0.00     0.029 A 
ATOM     50  C   UNL A   1      41.886  25.883  28.379  1.00  0.00     0.049 A 
ATOM     51  H   UNL A   1      42.745  27.674  29.014  1.00  0.00     0.167 HD
ATOM     52  C   UNL A   1      44.225  31.860  29.855  1.00  0.00     0.037 A 
ATOM     53  C   UNL A   1      42.903  25.092  27.989  1.00  0.00     0.037 A 
ATOM     54  C   UNL A   1      45.378  31.073  29.508  1.00  0.00     0.049 A 
ATOM     55  C   UNL A   1      44.292  25.677  28.012  1.00  0.00     0.074 A 
ATOM     56  C   UNL A   1      46.709  31.440  29.502  1.00  0.00     0.029 A 
ATOM     57  N   UNL A   1      45.322  29.743  29.104  1.00  0.00    -0.354 N 
ATOM     58  N   UNL A   1      44.669  26.892  28.340  1.00  0.00    -0.248 NA
ATOM     59  C   UNL A   1      45.390  24.794  27.605  1.00  0.00     0.031 C 
ATOM     60  C   UNL A   1      47.454  30.342  29.059  1.00  0.00     0.029 A 
ATOM     61  C   UNL A   1      46.593  29.275  28.836  1.00  0.00     0.049 A 
ATOM     62  H   UNL A   1      44.496  29.213  29.021  1.00  0.00     0.167 HD
ATOM     63  C   UNL A   1      46.050  26.917  28.203  1.00  0.00     0.074 A 
ATOM     64  C   UNL A   1      46.441  25.588  27.769  1.00  0.00     0.031 C 
ATOM     65  C   UNL A   1      46.922  27.935  28.414  1.00  0.00     0.037 A 
BRANCH  52  66
ATOM     66  C   UNL A   1      44.389  33.303  30.240  1.00  0.00     0.058 A 
ATOM     67  C   UNL A   1      44.304  34.340  29.295  1.00  0.00     0.135 A 
ATOM     68  C   UNL A   1      44.658  33.655  31.572  1.00  0.00     0.135 A 
ATOM     69  F   UNL A   1      44.082  34.058  28.001  1.00  0.00    -0.206 F 
ATOM     70  C   UNL A   1      44.505  35.670  29.652  1.00  0.00     0.059 A 
ATOM     71  C   UNL A   1      44.835  34.982  31.957  1.00  0.00     0.059 A 
ATOM     72  F   UNL A   1      44.768  32.706  32.514  1.00  0.00    -0.206 F 
ATOM     73  C   UNL A   1      44.771  35.981  30.987  1.00  0.00     0.060 A 
BRANCH  73  74
ATOM     74  S   UNL A   1      45.021  37.711  31.439  1.00  0.00     0.124 S 
ATOM     75  O   UNL A   1      45.104  38.347  30.129  1.00  0.00    -0.237 OA
ATOM     76  O   UNL A   1      43.818  38.009  32.212  1.00  0.00    -0.237 OA
ATOM     77  O   UNL A   1      46.263  37.687  32.204  1.00  0.00    -0.744 OA
ENDBRANCH  73  74
ENDBRANCH  52  66
BRANCH  53  78
ATOM     78  C   UNL A   1      42.638  23.705  27.529  1.00  0.00     0.058 A 
ATOM     79  C   UNL A   1      42.511  23.408  26.165  1.00  0.00     0.135 A 
ATOM     80  C   UNL A   1      42.544  22.636  28.437  1.00  0.00     0.135 A 
ATOM     81  F   UNL A   1      42.588  24.393  25.257  1.00  0.00    -0.206 F 
ATOM     82  C   UNL A   1      42.293  22.110  25.715  1.00  0.00     0.059 A 
ATOM     83  C   UNL A   1      42.350  21.325  28.012  1.00  0.00     0.059 A 
ATOM     84  F   UNL A   1      42.670  22.860  29.755  1.00  0.00    -0.206 F 
ATOM     85  C   UNL A   1      42.220  21.072  26.647  1.00  0.00     0.060 A 
BRANCH  85  86
ATOM     86  S   UNL A   1      41.993  19.383  26.048  1.00  0.00     0.124 S 
ATOM     87  O   UNL A   1      42.849  19.372  24.868  1.00  0.00    -0.237 OA
ATOM     88  O   UNL A   1      42.457  18.590  27.181  1.00  0.00    -0.237 OA
ATOM     89  O   UNL A   1      40.558  19.309  25.788  1.00  0.00    -0.744 OA
ENDBRANCH  85  86
ENDBRANCH  53  78
BRANCH  65  90
ATOM     90  C   UNL A   1      48.377  27.629  28.215  1.00  0.00     0.058 A 
ATOM     91  C   UNL A   1      49.012  27.842  26.983  1.00  0.00     0.135 A 
ATOM     92  C   UNL A   1      49.154  27.177  29.294  1.00  0.00     0.135 A 
ATOM     93  F   UNL A   1      48.308  28.268  25.923  1.00  0.00    -0.206 F 
ATOM     94  C   UNL A   1      50.370  27.598  26.821  1.00  0.00     0.059 A 
ATOM     95  C   UNL A   1      50.518  26.952  29.161  1.00  0.00     0.059 A 
ATOM     96  F   UNL A   1      48.590  26.971  30.495  1.00  0.00    -0.206 F 
ATOM     97  C   UNL A   1      51.115  27.155  27.917  1.00  0.00     0.060 A 
BRANCH  97  98
ATOM     98  S   UNL A   1      52.885  26.879  27.705  1.00  0.00     0.124 S 
ATOM     99  O   UNL A   1      53.253  27.994  26.839  1.00  0.00    -0.237 OA
ATOM    100  O   UNL A   1      53.379  26.949  29.077  1.00  0.00    -0.237 OA
ATOM    101  O   UNL A   1      52.950  25.557  27.090  1.00  0.00    -0.744 OA
ENDBRANCH  97  98
ENDBRANCH  65  90
ENDBRANCH  39  40
ENDBRANCH  32  34
ENDBRANCH  31  32
ENDBRANCH  30  31
ENDBRANCH  29  30
ENDBRANCH   1  29
TORSDOF 20
ENDMDL
MODEL 2
REMARK VINA RESULT:     -11.0      4.174     10.129
REMARK SMILES CCCOC(=O)c1c(NC(=O)[C@@H]2CC=CC[C@H]2C(=O)OCCOC(=O)c2ccc(-c3c4nc(c(-c5c(F)cc(S(=O)(=O)[O-])cc5F)c5ccc([nH]5)c(-c5c(F)cc(S(=O)(=O)[O-])cc5F)c5nc(c(-c6c(F)cc(S(=O)(=O)[O-])cc6F)c6ccc3[nH]6)C=C5)C=C4)cc2)sc2c1CCCC2
REMARK SMILES IDX 20 1 18 2 19 3 17 4 12 5 13 6 14 7 16 8 15 9 10 10 9 11
REMARK SMILES IDX 11 13 8 14 7 15 94 16 92 17 93 18 95 19 98 20 96 21 97 22
REMARK SMILES IDX 5 23 6 24 4 25 3 26 2 27 1 28 21 29 22 30 23 31 24 32 25 33
REMARK SMILES IDX 26 34 27 35 91 36 28 37 90 38 29 39 30 40 31 41 84 42 32 43
REMARK SMILES IDX 89 44 83 45 85 46 33 47 88 48 82 49 81 50 34 52 68 53 47 54
REMARK SMILES IDX 67 55 48 56 51 57 66 58 86 59 49 60 50 61 65 63 87 64 52 65
REMARK SMILES IDX 35 66 36 67 45 68 37 69 38 70 44 71 46 72 39 73 40 74 41 75
REMARK SMILES IDX 42 76 43 77 69 78 70 79 79 80 71 81 72 82 78 83 80 84 73 85
REMARK SMILES IDX 74 86 75 87 76 88 77 89 53 90 54 91 63 92 55 93 56 94 62 95
REMARK SMILES IDX 64 96 57 97 58 98 59 99 60 100 61 101
REMARK H PARENT 9 12 85 51 51 62
REMARK Flexibility Score: inf
ROOT
ATOM      1  O   UNL A   1      36.050  21.702  24.244  1.00  0.00    -0.462 OA
ENDROOT
BRANCH   1   2
ATOM      2  C   UNL A   1      35.276  22.744  23.835  1.00  0.00     0.310 C 
ATOM      3  O   UNL A   1      35.778  23.665  23.195  1.00  0.00    -0.252 OA
BRANCH   2   4
ATOM      4  C   UNL A   1      33.739  22.742  24.206  1.00  0.00     0.116 C 
ATOM      5  C   UNL A   1      32.653  23.206  23.247  1.00  0.00     0.097 C 
ATOM      6  C   UNL A   1      31.499  23.832  24.078  1.00  0.00     0.041 C 
ATOM      7  C   UNL A   1      31.031  22.897  25.163  1.00  0.00    -0.030 C 
ATOM      8  C   UNL A   1      33.041  21.490  24.810  1.00  0.00     0.043 C 
ATOM      9  C   UNL A   1      31.730  21.800  25.480  1.00  0.00    -0.030 C 
BRANCH   5  10
ATOM     10  C   UNL A   1      33.138  24.141  22.225  1.00  0.00     0.229 C 
ATOM     11  N   UNL A   1      33.225  25.443  22.549  1.00  0.00    -0.317 N 
ATOM     12  H   UNL A   1      33.855  25.916  21.958  1.00  0.00     0.170 HD
ATOM     13  O   UNL A   1      33.530  23.746  21.127  1.00  0.00    -0.274 OA
BRANCH  11  14
ATOM     14  C   UNL A   1      32.674  26.302  23.479  1.00  0.00     0.110 A 
ATOM     15  C   UNL A   1      31.597  27.156  23.812  1.00  0.00     0.098 A 
ATOM     16  C   UNL A   1      32.083  28.035  24.912  1.00  0.00    -0.017 A 
ATOM     17  S   UNL A   1      33.933  26.320  24.655  1.00  0.00    -0.122 S 
ATOM     18  C   UNL A   1      33.374  27.743  25.312  1.00  0.00     0.011 A 
ATOM     19  C   UNL A   1      31.379  29.203  25.544  1.00  0.00     0.038 C 
ATOM     20  C   UNL A   1      34.274  28.555  26.180  1.00  0.00     0.047 C 
ATOM     21  C   UNL A   1      32.389  30.238  26.090  1.00  0.00     0.005 C 
ATOM     22  C   UNL A   1      33.476  29.590  26.962  1.00  0.00     0.006 C 
BRANCH  15  23
ATOM     23  C   UNL A   1      30.209  27.380  23.226  1.00  0.00     0.341 C 
ATOM     24  O   UNL A   1      29.206  27.002  23.824  1.00  0.00    -0.246 OA
BRANCH  23  25
ATOM     25  O   UNL A   1      30.107  28.179  22.086  1.00  0.00    -0.462 OA
BRANCH  25  26
ATOM     26  C   UNL A   1      30.245  29.653  22.087  1.00  0.00     0.233 C 
BRANCH  26  27
ATOM     27  C   UNL A   1      28.923  30.503  22.315  1.00  0.00     0.038 C 
ATOM     28  C   UNL A   1      27.587  29.923  22.844  1.00  0.00     0.007 C 
ENDBRANCH  26  27
ENDBRANCH  25  26
ENDBRANCH  23  25
ENDBRANCH  15  23
ENDBRANCH  11  14
ENDBRANCH   5  10
ENDBRANCH   2   4
ENDBRANCH   1   2
BRANCH   1  29
ATOM     29  C   UNL A   1      36.677  21.763  25.574  1.00  0.00     0.274 C 
BRANCH  29  30
ATOM     30  C   UNL A   1      38.208  21.781  25.554  1.00  0.00     0.275 C 
BRANCH  30  31
ATOM     31  O   UNL A   1      38.670  23.031  26.051  1.00  0.00    -0.458 OA
BRANCH  31  32
ATOM     32  C   UNL A   1      39.992  23.044  26.324  1.00  0.00     0.338 C 
ATOM     33  O   UNL A   1      40.871  22.360  25.818  1.00  0.00    -0.246 OA
BRANCH  32  34
ATOM     34  C   UNL A   1      40.189  24.248  27.120  1.00  0.00     0.060 A 
ATOM     35  C   UNL A   1      41.255  25.086  26.783  1.00  0.00     0.016 A 
ATOM     36  C   UNL A   1      39.256  24.604  28.091  1.00  0.00     0.016 A 
ATOM     37  C   UNL A   1      41.374  26.327  27.380  1.00  0.00     0.010 A 
ATOM     38  C   UNL A   1      39.412  25.817  28.742  1.00  0.00     0.010 A 
ATOM     39  C   UNL A   1      40.471  26.672  28.384  1.00  0.00    -0.014 A 
BRANCH  39  40
ATOM     40  C   UNL A   1      40.739  27.842  29.225  1.00  0.00     0.031 A 
ATOM     41  C   UNL A   1      41.910  27.751  30.147  1.00  0.00     0.074 A 
ATOM     42  C   UNL A   1      39.913  28.898  29.187  1.00  0.00     0.049 A 
ATOM     43  N   UNL A   1      42.211  28.491  31.175  1.00  0.00    -0.248 NA
ATOM     44  C   UNL A   1      42.862  26.654  29.888  1.00  0.00     0.031 C 
ATOM     45  C   UNL A   1      38.804  29.069  28.247  1.00  0.00     0.029 A 
ATOM     46  N   UNL A   1      39.861  30.007  29.982  1.00  0.00    -0.354 N 
ATOM     47  C   UNL A   1      43.360  27.926  31.712  1.00  0.00     0.074 A 
ATOM     48  C   UNL A   1      43.706  26.784  30.898  1.00  0.00     0.031 C 
ATOM     49  C   UNL A   1      38.151  30.204  28.550  1.00  0.00     0.029 A 
ATOM     50  C   UNL A   1      38.767  30.799  29.732  1.00  0.00     0.049 A 
ATOM     51  H   UNL A   1      40.539  30.218  30.664  1.00  0.00     0.167 HD
ATOM     52  C   UNL A   1      44.045  28.331  32.804  1.00  0.00     0.037 A 
ATOM     53  C   UNL A   1      38.298  31.850  30.430  1.00  0.00     0.037 A 
ATOM     54  C   UNL A   1      43.649  29.475  33.581  1.00  0.00     0.049 A 
ATOM     55  C   UNL A   1      39.052  32.258  31.670  1.00  0.00     0.074 A 
ATOM     56  C   UNL A   1      44.238  29.997  34.715  1.00  0.00     0.029 A 
ATOM     57  N   UNL A   1      42.549  30.274  33.289  1.00  0.00    -0.354 N 
ATOM     58  N   UNL A   1      40.118  31.707  32.204  1.00  0.00    -0.248 NA
ATOM     59  C   UNL A   1      38.539  33.418  32.405  1.00  0.00     0.031 C 
ATOM     60  C   UNL A   1      43.472  31.092  35.129  1.00  0.00     0.029 A 
ATOM     61  C   UNL A   1      42.434  31.283  34.226  1.00  0.00     0.049 A 
ATOM     62  H   UNL A   1      41.942  30.141  32.526  1.00  0.00     0.167 HD
ATOM     63  C   UNL A   1      40.421  32.465  33.327  1.00  0.00     0.074 A 
ATOM     64  C   UNL A   1      39.427  33.521  33.387  1.00  0.00     0.031 C 
ATOM     65  C   UNL A   1      41.424  32.314  34.229  1.00  0.00     0.037 A 
BRANCH  52  66
ATOM     66  C   UNL A   1      45.226  27.506  33.228  1.00  0.00     0.058 A 
ATOM     67  C   UNL A   1      45.096  26.413  34.102  1.00  0.00     0.135 A 
ATOM     68  C   UNL A   1      46.515  27.827  32.773  1.00  0.00     0.135 A 
ATOM     69  F   UNL A   1      43.892  26.082  34.595  1.00  0.00    -0.206 F 
ATOM     70  C   UNL A   1      46.203  25.685  34.528  1.00  0.00     0.059 A 
ATOM     71  C   UNL A   1      47.634  27.095  33.164  1.00  0.00     0.059 A 
ATOM     72  F   UNL A   1      46.702  28.871  31.950  1.00  0.00    -0.206 F 
ATOM     73  C   UNL A   1      47.469  26.034  34.053  1.00  0.00     0.060 A 
BRANCH  73  74
ATOM     74  S   UNL A   1      48.895  25.075  34.606  1.00  0.00     0.124 S 
ATOM     75  O   UNL A   1      48.272  24.124  35.520  1.00  0.00    -0.237 OA
ATOM     76  O   UNL A   1      49.398  24.514  33.356  1.00  0.00    -0.237 OA
ATOM     77  O   UNL A   1      49.755  26.074  35.232  1.00  0.00    -0.744 OA
ENDBRANCH  73  74
ENDBRANCH  52  66
BRANCH  53  78
ATOM     78  C   UNL A   1      37.063  32.548  29.991  1.00  0.00     0.058 A 
ATOM     79  C   UNL A   1      35.795  32.052  30.326  1.00  0.00     0.135 A 
ATOM     80  C   UNL A   1      37.119  33.748  29.261  1.00  0.00     0.135 A 
ATOM     81  F   UNL A   1      35.686  30.907  31.017  1.00  0.00    -0.206 F 
ATOM     82  C   UNL A   1      34.629  32.710  29.949  1.00  0.00     0.059 A 
ATOM     83  C   UNL A   1      35.967  34.438  28.893  1.00  0.00     0.059 A 
ATOM     84  F   UNL A   1      38.306  34.276  28.924  1.00  0.00    -0.206 F 
ATOM     85  C   UNL A   1      34.725  33.907  29.236  1.00  0.00     0.060 A 
BRANCH  85  86
ATOM     86  S   UNL A   1      33.205  34.782  28.802  1.00  0.00     0.124 S 
ATOM     87  O   UNL A   1      32.572  34.940  30.106  1.00  0.00    -0.237 OA
ATOM     88  O   UNL A   1      33.718  36.002  28.188  1.00  0.00    -0.237 OA
ATOM     89  O   UNL A   1      32.539  33.861  27.884  1.00  0.00    -0.744 OA
ENDBRANCH  85  86
ENDBRANCH  53  78
BRANCH  65  90
ATOM     90  C   UNL A   1      41.508  33.337  35.323  1.00  0.00     0.058 A 
ATOM     91  C   UNL A   1      42.205  34.542  35.152  1.00  0.00     0.135 A 
ATOM     92  C   UNL A   1      40.827  33.128  36.533  1.00  0.00     0.135 A 
ATOM     93  F   UNL A   1      42.875  34.780  34.014  1.00  0.00    -0.206 F 
ATOM     94  C   UNL A   1      42.239  35.502  36.155  1.00  0.00     0.059 A 
ATOM     95  C   UNL A   1      40.826  34.087  37.538  1.00  0.00     0.059 A 
ATOM     96  F   UNL A   1      40.138  31.994  36.735  1.00  0.00    -0.206 F 
ATOM     97  C   UNL A   1      41.545  35.266  37.344  1.00  0.00     0.060 A 
BRANCH  97  98
ATOM     98  S   UNL A   1      41.565  36.537  38.624  1.00  0.00     0.124 S 
ATOM     99  O   UNL A   1      42.763  37.290  38.268  1.00  0.00    -0.237 OA
ATOM    100  O   UNL A   1      40.295  37.222  38.404  1.00  0.00    -0.237 OA
ATOM    101  O   UNL A   1      41.649  35.769  39.862  1.00  0.00    -0.744 OA
ENDBRANCH  97  98
ENDBRANCH  65  90
ENDBRANCH  39  40
ENDBRANCH  32  34
ENDBRANCH  31  32
ENDBRANCH  30  31
ENDBRANCH  29  30
ENDBRANCH   1  29
TORSDOF 20
ENDMDL
MODEL 3
REMARK VINA RESULT:     -10.4      6.742     15.059
REMARK SMILES CCCOC(=O)c1c(NC(=O)[C@@H]2CC=CC[C@H]2C(=O)OCCOC(=O)c2ccc(-c3c4nc(c(-c5c(F)cc(S(=O)(=O)[O-])cc5F)c5ccc([nH]5)c(-c5c(F)cc(S(=O)(=O)[O-])cc5F)c5nc(c(-c6c(F)cc(S(=O)(=O)[O-])cc6F)c6ccc3[nH]6)C=C5)C=C4)cc2)sc2c1CCCC2
REMARK SMILES IDX 20 1 18 2 19 3 17 4 12 5 13 6 14 7 16 8 15 9 10 10 9 11
REMARK SMILES IDX 11 13 8 14 7 15 94 16 92 17 93 18 95 19 98 20 96 21 97 22
REMARK SMILES IDX 5 23 6 24 4 25 3 26 2 27 1 28 21 29 22 30 23 31 24 32 25 33
REMARK SMILES IDX 26 34 27 35 91 36 28 37 90 38 29 39 30 40 31 41 84 42 32 43
REMARK SMILES IDX 89 44 83 45 85 46 33 47 88 48 82 49 81 50 34 52 68 53 47 54
REMARK SMILES IDX 67 55 48 56 51 57 66 58 86 59 49 60 50 61 65 63 87 64 52 65
REMARK SMILES IDX 35 66 36 67 45 68 37 69 38 70 44 71 46 72 39 73 40 74 41 75
REMARK SMILES IDX 42 76 43 77 69 78 70 79 79 80 71 81 72 82 78 83 80 84 73 85
REMARK SMILES IDX 74 86 75 87 76 88 77 89 53 90 54 91 63 92 55 93 56 94 62 95
REMARK SMILES IDX 64 96 57 97 58 98 59 99 60 100 61 101
REMARK H PARENT 9 12 85 51 51 62
REMARK Flexibility Score: inf
ROOT
ATOM      1  O   UNL A   1      47.269  40.796  24.887  1.00  0.00    -0.462 OA
ENDROOT
BRANCH   1   2
ATOM      2  C   UNL A   1      46.538  41.676  24.150  1.00  0.00     0.310 C 
ATOM      3  O   UNL A   1      45.346  41.463  23.946  1.00  0.00    -0.252 OA
BRANCH   2   4
ATOM      4  C   UNL A   1      47.256  42.958  23.563  1.00  0.00     0.116 C 
ATOM      5  C   UNL A   1      47.155  43.369  22.102  1.00  0.00     0.097 C 
ATOM      6  C   UNL A   1      48.484  44.063  21.694  1.00  0.00     0.041 C 
ATOM      7  C   UNL A   1      48.839  45.177  22.645  1.00  0.00    -0.030 C 
ATOM      8  C   UNL A   1      47.129  44.352  24.240  1.00  0.00     0.043 C 
ATOM      9  C   UNL A   1      48.192  45.327  23.808  1.00  0.00    -0.030 C 
BRANCH   5  10
ATOM     10  C   UNL A   1      46.842  42.254  21.202  1.00  0.00     0.229 C 
ATOM     11  N   UNL A   1      45.949  42.465  20.218  1.00  0.00    -0.317 N 
ATOM     12  H   UNL A   1      46.057  41.810  19.491  1.00  0.00     0.170 HD
ATOM     13  O   UNL A   1      47.429  41.176  21.286  1.00  0.00    -0.274 OA
BRANCH  11  14
ATOM     14  C   UNL A   1      44.921  43.347  19.947  1.00  0.00     0.110 A 
ATOM     15  C   UNL A   1      43.543  43.637  20.079  1.00  0.00     0.098 A 
ATOM     16  C   UNL A   1      43.233  44.673  19.055  1.00  0.00    -0.017 A 
ATOM     17  S   UNL A   1      45.762  44.504  18.987  1.00  0.00    -0.122 S 
ATOM     18  C   UNL A   1      44.342  45.076  18.334  1.00  0.00     0.011 A 
ATOM     19  C   UNL A   1      41.889  45.239  18.686  1.00  0.00     0.038 C 
ATOM     20  C   UNL A   1      44.382  45.881  17.079  1.00  0.00     0.047 C 
ATOM     21  C   UNL A   1      41.863  45.707  17.213  1.00  0.00     0.005 C 
ATOM     22  C   UNL A   1      43.060  46.605  16.863  1.00  0.00     0.006 C 
BRANCH  15  23
ATOM     23  C   UNL A   1      42.419  43.055  20.926  1.00  0.00     0.341 C 
ATOM     24  O   UNL A   1      41.262  43.054  20.520  1.00  0.00    -0.246 OA
BRANCH  23  25
ATOM     25  O   UNL A   1      42.773  42.368  22.089  1.00  0.00    -0.462 OA
BRANCH  25  26
ATOM     26  C   UNL A   1      42.336  42.754  23.450  1.00  0.00     0.233 C 
BRANCH  26  27
ATOM     27  C   UNL A   1      41.762  41.600  24.378  1.00  0.00     0.038 C 
ATOM     28  C   UNL A   1      42.379  41.178  25.736  1.00  0.00     0.007 C 
ENDBRANCH  26  27
ENDBRANCH  25  26
ENDBRANCH  23  25
ENDBRANCH  15  23
ENDBRANCH  11  14
ENDBRANCH   5  10
ENDBRANCH   2   4
ENDBRANCH   1   2
BRANCH   1  29
ATOM     29  C   UNL A   1      46.629  39.554  25.348  1.00  0.00     0.274 C 
BRANCH  29  30
ATOM     30  C   UNL A   1      47.578  38.360  25.474  1.00  0.00     0.275 C 
BRANCH  30  31
ATOM     31  O   UNL A   1      46.902  37.287  26.118  1.00  0.00    -0.458 OA
BRANCH  31  32
ATOM     32  C   UNL A   1      47.438  36.954  27.311  1.00  0.00     0.338 C 
ATOM     33  O   UNL A   1      47.881  37.702  28.172  1.00  0.00    -0.246 OA
BRANCH  32  34
ATOM     34  C   UNL A   1      47.099  35.548  27.485  1.00  0.00     0.060 A 
ATOM     35  C   UNL A   1      46.596  34.857  26.380  1.00  0.00     0.016 A 
ATOM     36  C   UNL A   1      47.401  34.899  28.680  1.00  0.00     0.016 A 
ATOM     37  C   UNL A   1      46.436  33.485  26.437  1.00  0.00     0.010 A 
ATOM     38  C   UNL A   1      47.176  33.534  28.764  1.00  0.00     0.010 A 
ATOM     39  C   UNL A   1      46.693  32.834  27.642  1.00  0.00    -0.014 A 
BRANCH  39  40
ATOM     40  C   UNL A   1      46.265  31.444  27.818  1.00  0.00     0.031 A 
ATOM     41  C   UNL A   1      47.245  30.386  27.429  1.00  0.00     0.074 A 
ATOM     42  C   UNL A   1      45.024  31.174  28.250  1.00  0.00     0.049 A 
ATOM     43  N   UNL A   1      47.048  29.118  27.214  1.00  0.00    -0.248 NA
ATOM     44  C   UNL A   1      48.638  30.829  27.228  1.00  0.00     0.031 C 
ATOM     45  C   UNL A   1      44.059  32.169  28.719  1.00  0.00     0.029 A 
ATOM     46  N   UNL A   1      44.356  29.986  28.328  1.00  0.00    -0.354 N 
ATOM     47  C   UNL A   1      48.279  28.616  26.811  1.00  0.00     0.074 A 
ATOM     48  C   UNL A   1      49.219  29.714  26.812  1.00  0.00     0.031 C 
ATOM     49  C   UNL A   1      42.900  31.548  28.999  1.00  0.00     0.029 A 
ATOM     50  C   UNL A   1      43.035  30.132  28.674  1.00  0.00     0.049 A 
ATOM     51  H   UNL A   1      44.778  29.113  28.155  1.00  0.00     0.167 HD
ATOM     52  C   UNL A   1      48.577  27.347  26.458  1.00  0.00     0.037 A 
ATOM     53  C   UNL A   1      42.046  29.219  28.666  1.00  0.00     0.037 A 
ATOM     54  C   UNL A   1      47.597  26.294  26.469  1.00  0.00     0.049 A 
ATOM     55  C   UNL A   1      42.389  27.820  28.226  1.00  0.00     0.074 A 
ATOM     56  C   UNL A   1      47.749  24.965  26.128  1.00  0.00     0.029 A 
ATOM     57  N   UNL A   1      46.270  26.467  26.850  1.00  0.00    -0.354 N 
ATOM     58  N   UNL A   1      43.542  27.347  27.810  1.00  0.00    -0.248 NA
ATOM     59  C   UNL A   1      41.304  26.834  28.245  1.00  0.00     0.031 C 
ATOM     60  C   UNL A   1      46.505  24.342  26.269  1.00  0.00     0.029 A 
ATOM     61  C   UNL A   1      45.587  25.271  26.745  1.00  0.00     0.049 A 
ATOM     62  H   UNL A   1      45.876  27.317  27.151  1.00  0.00     0.167 HD
ATOM     63  C   UNL A   1      43.331  26.002  27.537  1.00  0.00     0.074 A 
ATOM     64  C   UNL A   1      41.937  25.737  27.847  1.00  0.00     0.031 C 
ATOM     65  C   UNL A   1      44.198  25.066  27.076  1.00  0.00     0.037 A 
BRANCH  52  66
ATOM     66  C   UNL A   1      49.976  27.067  25.988  1.00  0.00     0.058 A 
ATOM     67  C   UNL A   1      50.340  27.164  24.634  1.00  0.00     0.135 A 
ATOM     68  C   UNL A   1      50.964  26.673  26.903  1.00  0.00     0.135 A 
ATOM     69  F   UNL A   1      49.427  27.504  23.712  1.00  0.00    -0.206 F 
ATOM     70  C   UNL A   1      51.627  26.855  24.202  1.00  0.00     0.059 A 
ATOM     71  C   UNL A   1      52.266  26.386  26.497  1.00  0.00     0.059 A 
ATOM     72  F   UNL A   1      50.669  26.546  28.207  1.00  0.00    -0.206 F 
ATOM     73  C   UNL A   1      52.583  26.466  25.142  1.00  0.00     0.060 A 
BRANCH  73  74
ATOM     74  S   UNL A   1      54.251  26.078  24.570  1.00  0.00     0.124 S 
ATOM     75  O   UNL A   1      55.059  26.968  25.396  1.00  0.00    -0.237 OA
ATOM     76  O   UNL A   1      54.363  24.654  24.876  1.00  0.00    -0.237 OA
ATOM     77  O   UNL A   1      54.209  26.408  23.149  1.00  0.00    -0.744 OA
ENDBRANCH  73  74
ENDBRANCH  52  66
BRANCH  53  78
ATOM     78  C   UNL A   1      40.665  29.610  29.054  1.00  0.00     0.058 A 
ATOM     79  C   UNL A   1      39.645  29.699  28.096  1.00  0.00     0.135 A 
ATOM     80  C   UNL A   1      40.324  29.863  30.393  1.00  0.00     0.135 A 
ATOM     81  F   UNL A   1      39.920  29.472  26.803  1.00  0.00    -0.206 F 
ATOM     82  C   UNL A   1      38.340  30.032  28.447  1.00  0.00     0.059 A 
ATOM     83  C   UNL A   1      39.021  30.175  30.773  1.00  0.00     0.059 A 
ATOM     84  F   UNL A   1      41.258  29.779  31.353  1.00  0.00    -0.206 F 
ATOM     85  C   UNL A   1      38.036  30.264  29.790  1.00  0.00     0.060 A 
BRANCH  85  86
ATOM     86  S   UNL A   1      36.328  30.640  30.239  1.00  0.00     0.124 S 
ATOM     87  O   UNL A   1      35.599  30.131  29.084  1.00  0.00    -0.237 OA
ATOM     88  O   UNL A   1      36.164  29.890  31.480  1.00  0.00    -0.237 OA
ATOM     89  O   UNL A   1      36.333  32.093  30.392  1.00  0.00    -0.744 OA
ENDBRANCH  85  86
ENDBRANCH  53  78
BRANCH  65  90
ATOM     90  C   UNL A   1      43.667  23.671  26.922  1.00  0.00     0.058 A 
ATOM     91  C   UNL A   1      43.488  22.826  28.027  1.00  0.00     0.135 A 
ATOM     92  C   UNL A   1      43.275  23.205  25.657  1.00  0.00     0.135 A 
ATOM     93  F   UNL A   1      43.854  23.229  29.253  1.00  0.00    -0.206 F 
ATOM     94  C   UNL A   1      42.953  21.552  27.879  1.00  0.00     0.059 A 
ATOM     95  C   UNL A   1      42.714  21.945  25.491  1.00  0.00     0.059 A 
ATOM     96  F   UNL A   1      43.418  23.985  24.574  1.00  0.00    -0.206 F 
ATOM     97  C   UNL A   1      42.567  21.122  26.607  1.00  0.00     0.060 A 
BRANCH  97  98
ATOM     98  S   UNL A   1      41.838  19.481  26.434  1.00  0.00     0.124 S 
ATOM     99  O   UNL A   1      42.439  19.026  25.184  1.00  0.00    -0.237 OA
ATOM    100  O   UNL A   1      42.299  18.806  27.643  1.00  0.00    -0.237 OA
ATOM    101  O   UNL A   1      40.405  19.750  26.381  1.00  0.00    -0.744 OA
ENDBRANCH  97  98
ENDBRANCH  65  90
ENDBRANCH  39  40
ENDBRANCH  32  34
ENDBRANCH  31  32
ENDBRANCH  30  31
ENDBRANCH  29  30
ENDBRANCH   1  29
TORSDOF 20
ENDMDL
