MODEL 1
REMARK VINA RESULT:     -11.5      0.000      0.000
REMARK SMILES C[C@@H](C(=O)OCCOC(=O)c1ccc(-c2c3nc(c(-c4c(F)cc(S(=O)(=O)[O-])cc4F)c4ccc([nH]4)c(-c4c(F)cc(S(=O)(=O)[O-])cc4F)c4nc(c(-c5c(F)cc(S(=O)(=O)[O-])cc5F)c5ccc2[nH]5)C=C4)C=C3)cc1)c1ccc(-c2cccc(OC(=O)NCCCc3ccccc3)c2)c(F)c1
REMARK SMILES IDX 3 1 4 2 2 3 1 4 77 5 78 6 102 7 79 8 100 9 80 10 101 11
REMARK SMILES IDX 81 12 82 13 99 14 83 15 85 16 84 17 86 18 87 19 88 20 89 21
REMARK SMILES IDX 90 23 91 24 92 25 93 26 94 27 98 28 95 29 97 30 96 31 5 32
REMARK SMILES IDX 6 33 7 34 8 35 9 36 10 37 11 38 12 39 76 40 13 41 75 42
REMARK SMILES IDX 14 43 15 44 16 45 69 46 17 47 74 48 68 49 70 50 18 51 73 52
REMARK SMILES IDX 67 53 66 54 19 56 53 57 32 58 52 59 33 60 36 61 51 62 71 63
REMARK SMILES IDX 34 64 35 65 50 67 72 68 37 69 20 70 21 71 30 72 22 73 23 74
REMARK SMILES IDX 29 75 31 76 24 77 25 78 26 79 27 80 28 81 54 82 55 83 64 84
REMARK SMILES IDX 56 85 57 86 63 87 65 88 58 89 59 90 60 91 61 92 62 93 38 94
REMARK SMILES IDX 39 95 48 96 40 97 41 98 47 99 49 100 42 101 43 102 44 103
REMARK SMILES IDX 45 104 46 105
REMARK H PARENT 89 22 70 55 36 66
REMARK Flexibility Score: inf
ROOT
ATOM      1  C   UNL A   1      42.741  22.207  27.640  1.00  0.00     0.313 C 
ATOM      2  O   UNL A   1      42.846  22.934  28.621  1.00  0.00    -0.252 OA
ENDROOT
BRANCH   1   3
ATOM      3  C   UNL A   1      41.671  21.102  27.498  1.00  0.00     0.126 C 
ATOM      4  C   UNL A   1      42.168  19.869  26.739  1.00  0.00     0.025 C 
BRANCH   3   5
ATOM      5  C   UNL A   1      40.412  21.620  26.815  1.00  0.00    -0.031 A 
ATOM      6  C   UNL A   1      40.087  22.968  26.943  1.00  0.00     0.005 A 
ATOM      7  C   UNL A   1      39.569  20.814  26.035  1.00  0.00     0.044 A 
ATOM      8  C   UNL A   1      38.910  23.474  26.404  1.00  0.00     0.012 A 
ATOM      9  C   UNL A   1      38.379  21.339  25.493  1.00  0.00     0.131 A 
ATOM     10  C   UNL A   1      38.004  22.671  25.701  1.00  0.00     0.018 A 
ATOM     11  F   UNL A   1      37.606  20.523  24.758  1.00  0.00    -0.206 F 
BRANCH  10  12
ATOM     12  C   UNL A   1      36.708  23.275  25.336  1.00  0.00    -0.012 A 
ATOM     13  C   UNL A   1      35.758  23.573  26.336  1.00  0.00     0.009 A 
ATOM     14  C   UNL A   1      36.300  23.362  23.995  1.00  0.00     0.056 A 
ATOM     15  C   UNL A   1      34.429  23.859  26.019  1.00  0.00     0.004 A 
ATOM     16  C   UNL A   1      34.965  23.635  23.684  1.00  0.00     0.133 A 
ATOM     17  C   UNL A   1      34.027  23.877  24.689  1.00  0.00     0.047 A 
BRANCH  16  18
ATOM     18  O   UNL A   1      34.474  23.728  22.360  1.00  0.00    -0.410 OA
BRANCH  18  19
ATOM     19  C   UNL A   1      33.158  23.471  22.000  1.00  0.00     0.412 C 
ATOM     20  O   UNL A   1      32.579  22.387  22.093  1.00  0.00    -0.224 OA
ATOM     21  N   UNL A   1      32.509  24.559  21.488  1.00  0.00    -0.321 N 
ATOM     22  H   UNL A   1      31.655  24.394  21.024  1.00  0.00     0.167 HD
BRANCH  21  23
ATOM     23  C   UNL A   1      32.962  25.930  21.564  1.00  0.00     0.120 C 
BRANCH  23  24
ATOM     24  C   UNL A   1      32.504  26.696  22.804  1.00  0.00     0.026 C 
BRANCH  24  25
ATOM     25  C   UNL A   1      33.593  27.374  23.644  1.00  0.00     0.037 C 
BRANCH  25  26
ATOM     26  C   UNL A   1      33.229  28.192  24.863  1.00  0.00    -0.048 A 
ATOM     27  C   UNL A   1      32.307  29.243  24.868  1.00  0.00     0.004 A 
ATOM     28  C   UNL A   1      33.889  27.895  26.069  1.00  0.00     0.004 A 
ATOM     29  C   UNL A   1      32.131  30.037  26.006  1.00  0.00     0.000 A 
ATOM     30  C   UNL A   1      33.690  28.666  27.216  1.00  0.00     0.000 A 
ATOM     31  C   UNL A   1      32.831  29.758  27.174  1.00  0.00     0.000 A 
ENDBRANCH  25  26
ENDBRANCH  24  25
ENDBRANCH  23  24
ENDBRANCH  21  23
ENDBRANCH  18  19
ENDBRANCH  16  18
ENDBRANCH  10  12
ENDBRANCH   3   5
ENDBRANCH   1   3
BRANCH   1  32
ATOM     32  O   UNL A   1      43.587  22.256  26.570  1.00  0.00    -0.462 OA
BRANCH  32  33
ATOM     33  C   UNL A   1      44.222  23.522  26.278  1.00  0.00     0.274 C 
BRANCH  33  34
ATOM     34  C   UNL A   1      43.533  24.212  25.102  1.00  0.00     0.275 C 
BRANCH  34  35
ATOM     35  O   UNL A   1      43.439  25.623  25.368  1.00  0.00    -0.458 OA
BRANCH  35  36
ATOM     36  C   UNL A   1      42.229  26.083  25.760  1.00  0.00     0.338 C 
ATOM     37  O   UNL A   1      41.176  26.004  25.150  1.00  0.00    -0.246 OA
BRANCH  36  38
ATOM     38  C   UNL A   1      42.326  26.633  27.127  1.00  0.00     0.060 A 
ATOM     39  C   UNL A   1      41.518  26.088  28.112  1.00  0.00     0.016 A 
ATOM     40  C   UNL A   1      43.037  27.809  27.385  1.00  0.00     0.016 A 
ATOM     41  C   UNL A   1      41.282  26.819  29.273  1.00  0.00     0.010 A 
ATOM     42  C   UNL A   1      42.893  28.465  28.623  1.00  0.00     0.010 A 
ATOM     43  C   UNL A   1      41.948  28.023  29.566  1.00  0.00    -0.014 A 
BRANCH  43  44
ATOM     44  C   UNL A   1      41.583  28.813  30.800  1.00  0.00     0.031 A 
ATOM     45  C   UNL A   1      40.365  29.721  30.834  1.00  0.00     0.074 A 
ATOM     46  C   UNL A   1      42.256  28.644  31.961  1.00  0.00     0.049 A 
ATOM     47  N   UNL A   1      39.993  30.579  31.755  1.00  0.00    -0.248 NA
ATOM     48  C   UNL A   1      39.434  29.645  29.697  1.00  0.00     0.031 C 
ATOM     49  C   UNL A   1      43.364  27.712  32.168  1.00  0.00     0.029 A 
ATOM     50  N   UNL A   1      42.079  29.211  33.206  1.00  0.00    -0.354 N 
ATOM     51  C   UNL A   1      38.836  31.191  31.279  1.00  0.00     0.074 A 
ATOM     52  C   UNL A   1      38.551  30.589  29.995  1.00  0.00     0.031 C 
ATOM     53  C   UNL A   1      43.671  27.671  33.468  1.00  0.00     0.029 A 
ATOM     54  C   UNL A   1      42.972  28.750  34.147  1.00  0.00     0.049 A 
ATOM     55  H   UNL A   1      41.382  29.878  33.402  1.00  0.00     0.167 HD
ATOM     56  C   UNL A   1      38.086  32.166  31.853  1.00  0.00     0.037 A 
ATOM     57  C   UNL A   1      43.289  29.190  35.382  1.00  0.00     0.037 A 
ATOM     58  C   UNL A   1      38.322  32.716  33.166  1.00  0.00     0.049 A 
ATOM     59  C   UNL A   1      42.505  30.333  35.965  1.00  0.00     0.074 A 
ATOM     60  C   UNL A   1      37.646  33.744  33.802  1.00  0.00     0.029 A 
ATOM     61  N   UNL A   1      39.291  32.274  34.053  1.00  0.00    -0.354 N 
ATOM     62  N   UNL A   1      41.450  30.939  35.477  1.00  0.00    -0.248 NA
ATOM     63  C   UNL A   1      42.949  30.859  37.264  1.00  0.00     0.031 C 
ATOM     64  C   UNL A   1      38.238  33.956  35.052  1.00  0.00     0.029 A 
ATOM     65  C   UNL A   1      39.248  33.025  35.218  1.00  0.00     0.049 A 
ATOM     66  H   UNL A   1      39.920  31.536  33.880  1.00  0.00     0.167 HD
ATOM     67  C   UNL A   1      41.097  31.902  36.417  1.00  0.00     0.074 A 
ATOM     68  C   UNL A   1      42.010  31.756  37.529  1.00  0.00     0.031 C 
ATOM     69  C   UNL A   1      40.124  32.843  36.348  1.00  0.00     0.037 A 
BRANCH  56  70
ATOM     70  C   UNL A   1      36.975  32.775  31.034  1.00  0.00     0.058 A 
ATOM     71  C   UNL A   1      37.208  33.691  29.997  1.00  0.00     0.135 A 
ATOM     72  C   UNL A   1      35.644  32.384  31.272  1.00  0.00     0.135 A 
ATOM     73  F   UNL A   1      38.456  34.108  29.733  1.00  0.00    -0.206 F 
ATOM     74  C   UNL A   1      36.160  34.220  29.246  1.00  0.00     0.059 A 
ATOM     75  C   UNL A   1      34.586  32.878  30.516  1.00  0.00     0.059 A 
ATOM     76  F   UNL A   1      35.364  31.504  32.246  1.00  0.00    -0.206 F 
ATOM     77  C   UNL A   1      34.852  33.810  29.516  1.00  0.00     0.060 A 
BRANCH  77  78
ATOM     78  S   UNL A   1      33.500  34.514  28.546  1.00  0.00     0.124 S 
ATOM     79  O   UNL A   1      34.179  35.603  27.851  1.00  0.00    -0.237 OA
ATOM     80  O   UNL A   1      33.094  33.386  27.713  1.00  0.00    -0.237 OA
ATOM     81  O   UNL A   1      32.531  34.924  29.557  1.00  0.00    -0.744 OA
ENDBRANCH  77  78
ENDBRANCH  56  70
BRANCH  57  82
ATOM     82  C   UNL A   1      44.461  28.593  36.096  1.00  0.00     0.058 A 
ATOM     83  C   UNL A   1      44.317  27.499  36.953  1.00  0.00     0.135 A 
ATOM     84  C   UNL A   1      45.765  29.099  35.930  1.00  0.00     0.135 A 
ATOM     85  F   UNL A   1      43.094  27.011  37.210  1.00  0.00    -0.206 F 
ATOM     86  C   UNL A   1      45.407  26.922  37.598  1.00  0.00     0.059 A 
ATOM     87  C   UNL A   1      46.879  28.498  36.508  1.00  0.00     0.059 A 
ATOM     88  F   UNL A   1      45.980  30.178  35.159  1.00  0.00    -0.206 F 
ATOM     89  C   UNL A   1      46.688  27.409  37.348  1.00  0.00     0.060 A 
BRANCH  89  90
ATOM     90  S   UNL A   1      48.091  26.639  38.179  1.00  0.00     0.124 S 
ATOM     91  O   UNL A   1      48.991  26.370  37.063  1.00  0.00    -0.237 OA
ATOM     92  O   UNL A   1      48.508  27.692  39.097  1.00  0.00    -0.237 OA
ATOM     93  O   UNL A   1      47.504  25.458  38.806  1.00  0.00    -0.744 OA
ENDBRANCH  89  90
ENDBRANCH  57  82
BRANCH  69  94
ATOM     94  C   UNL A   1      39.962  33.762  37.530  1.00  0.00     0.058 A 
ATOM     95  C   UNL A   1      40.644  34.987  37.611  1.00  0.00     0.135 A 
ATOM     96  C   UNL A   1      39.087  33.432  38.579  1.00  0.00     0.135 A 
ATOM     97  F   UNL A   1      41.500  35.349  36.643  1.00  0.00    -0.206 F 
ATOM     98  C   UNL A   1      40.489  35.837  38.702  1.00  0.00     0.059 A 
ATOM     99  C   UNL A   1      38.890  34.282  39.663  1.00  0.00     0.059 A 
ATOM    100  F   UNL A   1      38.403  32.277  38.551  1.00  0.00    -0.206 F 
ATOM    101  C   UNL A   1      39.607  35.477  39.721  1.00  0.00     0.060 A 
BRANCH 101 102
ATOM    102  S   UNL A   1      39.389  36.609  41.111  1.00  0.00     0.124 S 
ATOM    103  O   UNL A   1      38.934  37.820  40.435  1.00  0.00    -0.237 OA
ATOM    104  O   UNL A   1      38.388  35.920  41.920  1.00  0.00    -0.237 OA
ATOM    105  O   UNL A   1      40.721  36.682  41.702  1.00  0.00    -0.744 OA
ENDBRANCH 101 102
ENDBRANCH  69  94
ENDBRANCH  43  44
ENDBRANCH  36  38
ENDBRANCH  35  36
ENDBRANCH  34  35
ENDBRANCH  33  34
ENDBRANCH  32  33
ENDBRANCH   1  32
TORSDOF 22
ENDMDL
MODEL 2
REMARK VINA RESULT:     -11.5      5.941     12.243
REMARK SMILES C[C@@H](C(=O)OCCOC(=O)c1ccc(-c2c3nc(c(-c4c(F)cc(S(=O)(=O)[O-])cc4F)c4ccc([nH]4)c(-c4c(F)cc(S(=O)(=O)[O-])cc4F)c4nc(c(-c5c(F)cc(S(=O)(=O)[O-])cc5F)c5ccc2[nH]5)C=C4)C=C3)cc1)c1ccc(-c2cccc(OC(=O)NCCCc3ccccc3)c2)c(F)c1
REMARK SMILES IDX 3 1 4 2 2 3 1 4 77 5 78 6 102 7 79 8 100 9 80 10 101 11
REMARK SMILES IDX 81 12 82 13 99 14 83 15 85 16 84 17 86 18 87 19 88 20 89 21
REMARK SMILES IDX 90 23 91 24 92 25 93 26 94 27 98 28 95 29 97 30 96 31 5 32
REMARK SMILES IDX 6 33 7 34 8 35 9 36 10 37 11 38 12 39 76 40 13 41 75 42
REMARK SMILES IDX 14 43 15 44 16 45 69 46 17 47 74 48 68 49 70 50 18 51 73 52
REMARK SMILES IDX 67 53 66 54 19 56 53 57 32 58 52 59 33 60 36 61 51 62 71 63
REMARK SMILES IDX 34 64 35 65 50 67 72 68 37 69 20 70 21 71 30 72 22 73 23 74
REMARK SMILES IDX 29 75 31 76 24 77 25 78 26 79 27 80 28 81 54 82 55 83 64 84
REMARK SMILES IDX 56 85 57 86 63 87 65 88 58 89 59 90 60 91 61 92 62 93 38 94
REMARK SMILES IDX 39 95 48 96 40 97 41 98 47 99 49 100 42 101 43 102 44 103
REMARK SMILES IDX 45 104 46 105
REMARK H PARENT 89 22 70 55 36 66
REMARK Flexibility Score: inf
ROOT
ATOM      1  C   UNL A   1      34.685  33.028  29.980  1.00  0.00     0.313 C 
ATOM      2  O   UNL A   1      34.259  34.157  29.763  1.00  0.00    -0.252 OA
ENDROOT
BRANCH   1   3
ATOM      3  C   UNL A   1      35.551  32.229  28.982  1.00  0.00     0.126 C 
ATOM      4  C   UNL A   1      36.317  33.116  27.996  1.00  0.00     0.025 C 
BRANCH   3   5
ATOM      5  C   UNL A   1      34.720  31.226  28.191  1.00  0.00    -0.031 A 
ATOM      6  C   UNL A   1      35.215  29.937  28.015  1.00  0.00     0.005 A 
ATOM      7  C   UNL A   1      33.461  31.523  27.648  1.00  0.00     0.044 A 
ATOM      8  C   UNL A   1      34.534  29.008  27.238  1.00  0.00     0.012 A 
ATOM      9  C   UNL A   1      32.779  30.573  26.863  1.00  0.00     0.131 A 
ATOM     10  C   UNL A   1      33.321  29.309  26.607  1.00  0.00     0.018 A 
ATOM     11  F   UNL A   1      31.579  30.911  26.364  1.00  0.00    -0.206 F 
BRANCH  10  12
ATOM     12  C   UNL A   1      32.785  28.309  25.663  1.00  0.00    -0.012 A 
ATOM     13  C   UNL A   1      31.404  28.016  25.650  1.00  0.00     0.009 A 
ATOM     14  C   UNL A   1      33.640  27.474  24.926  1.00  0.00     0.056 A 
ATOM     15  C   UNL A   1      30.903  26.887  25.001  1.00  0.00     0.004 A 
ATOM     16  C   UNL A   1      33.135  26.337  24.290  1.00  0.00     0.133 A 
ATOM     17  C   UNL A   1      31.772  26.036  24.330  1.00  0.00     0.047 A 
BRANCH  16  18
ATOM     18  O   UNL A   1      33.932  25.442  23.537  1.00  0.00    -0.410 OA
BRANCH  18  19
ATOM     19  C   UNL A   1      34.550  24.318  24.067  1.00  0.00     0.412 C 
ATOM     20  O   UNL A   1      35.350  24.305  25.005  1.00  0.00    -0.224 OA
ATOM     21  N   UNL A   1      34.205  23.156  23.435  1.00  0.00    -0.321 N 
ATOM     22  H   UNL A   1      34.761  22.364  23.621  1.00  0.00     0.167 HD
BRANCH  21  23
ATOM     23  C   UNL A   1      33.101  22.985  22.519  1.00  0.00     0.120 C 
BRANCH  23  24
ATOM     24  C   UNL A   1      32.255  21.734  22.748  1.00  0.00     0.026 C 
BRANCH  24  25
ATOM     25  C   UNL A   1      32.554  20.912  24.008  1.00  0.00     0.037 C 
BRANCH  25  26
ATOM     26  C   UNL A   1      33.081  19.499  23.900  1.00  0.00    -0.048 A 
ATOM     27  C   UNL A   1      34.179  19.004  24.609  1.00  0.00     0.004 A 
ATOM     28  C   UNL A   1      32.439  18.631  22.998  1.00  0.00     0.004 A 
ATOM     29  C   UNL A   1      34.684  17.726  24.347  1.00  0.00     0.000 A 
ATOM     30  C   UNL A   1      32.922  17.343  22.760  1.00  0.00     0.000 A 
ATOM     31  C   UNL A   1      34.065  16.902  23.415  1.00  0.00     0.000 A 
ENDBRANCH  25  26
ENDBRANCH  24  25
ENDBRANCH  23  24
ENDBRANCH  21  23
ENDBRANCH  18  19
ENDBRANCH  16  18
ENDBRANCH  10  12
ENDBRANCH   3   5
ENDBRANCH   1   3
BRANCH   1  32
ATOM     32  O   UNL A   1      34.409  32.321  31.115  1.00  0.00    -0.462 OA
BRANCH  32  33
ATOM     33  C   UNL A   1      35.074  32.728  32.333  1.00  0.00     0.274 C 
BRANCH  33  34
ATOM     34  C   UNL A   1      36.574  32.452  32.246  1.00  0.00     0.275 C 
BRANCH  34  35
ATOM     35  O   UNL A   1      36.838  31.112  32.700  1.00  0.00    -0.458 OA
BRANCH  35  36
ATOM     36  C   UNL A   1      37.030  30.178  31.740  1.00  0.00     0.338 C 
ATOM     37  O   UNL A   1      36.208  29.391  31.303  1.00  0.00    -0.246 OA
BRANCH  36  38
ATOM     38  C   UNL A   1      38.396  30.300  31.194  1.00  0.00     0.060 A 
ATOM     39  C   UNL A   1      38.544  30.425  29.822  1.00  0.00     0.016 A 
ATOM     40  C   UNL A   1      39.519  30.073  31.995  1.00  0.00     0.016 A 
ATOM     41  C   UNL A   1      39.778  30.137  29.247  1.00  0.00     0.010 A 
ATOM     42  C   UNL A   1      40.789  29.921  31.405  1.00  0.00     0.010 A 
ATOM     43  C   UNL A   1      40.932  29.872  30.007  1.00  0.00    -0.014 A 
BRANCH  43  44
ATOM     44  C   UNL A   1      42.220  29.480  29.324  1.00  0.00     0.031 A 
ATOM     45  C   UNL A   1      42.418  28.096  28.729  1.00  0.00     0.074 A 
ATOM     46  C   UNL A   1      43.199  30.387  29.107  1.00  0.00     0.049 A 
ATOM     47  N   UNL A   1      43.506  27.548  28.241  1.00  0.00    -0.248 NA
ATOM     48  C   UNL A   1      41.238  27.219  28.653  1.00  0.00     0.031 C 
ATOM     49  C   UNL A   1      43.138  31.802  29.476  1.00  0.00     0.029 A 
ATOM     50  N   UNL A   1      44.420  30.275  28.476  1.00  0.00    -0.354 N 
ATOM     51  C   UNL A   1      43.163  26.250  27.871  1.00  0.00     0.074 A 
ATOM     52  C   UNL A   1      41.755  26.096  28.169  1.00  0.00     0.031 C 
ATOM     53  C   UNL A   1      44.189  32.441  28.954  1.00  0.00     0.029 A 
ATOM     54  C   UNL A   1      45.126  31.456  28.440  1.00  0.00     0.049 A 
ATOM     55  H   UNL A   1      44.753  29.433  28.089  1.00  0.00     0.167 HD
ATOM     56  C   UNL A   1      43.945  25.275  27.342  1.00  0.00     0.037 A 
ATOM     57  C   UNL A   1      46.412  31.730  28.136  1.00  0.00     0.037 A 
ATOM     58  C   UNL A   1      45.330  25.446  26.974  1.00  0.00     0.049 A 
ATOM     59  C   UNL A   1      47.290  30.616  27.637  1.00  0.00     0.074 A 
ATOM     60  C   UNL A   1      46.213  24.498  26.483  1.00  0.00     0.029 A 
ATOM     61  N   UNL A   1      46.029  26.642  27.033  1.00  0.00    -0.354 N 
ATOM     62  N   UNL A   1      46.964  29.379  27.348  1.00  0.00    -0.248 NA
ATOM     63  C   UNL A   1      48.711  30.925  27.422  1.00  0.00     0.031 C 
ATOM     64  C   UNL A   1      47.457  25.109  26.293  1.00  0.00     0.029 A 
ATOM     65  C   UNL A   1      47.337  26.450  26.613  1.00  0.00     0.049 A 
ATOM     66  H   UNL A   1      45.652  27.501  27.331  1.00  0.00     0.167 HD
ATOM     67  C   UNL A   1      48.134  28.772  26.903  1.00  0.00     0.074 A 
ATOM     68  C   UNL A   1      49.159  29.793  26.899  1.00  0.00     0.031 C 
ATOM     69  C   UNL A   1      48.344  27.479  26.558  1.00  0.00     0.037 A 
BRANCH  56  70
ATOM     70  C   UNL A   1      43.353  23.895  27.200  1.00  0.00     0.058 A 
ATOM     71  C   UNL A   1      43.122  23.050  28.296  1.00  0.00     0.135 A 
ATOM     72  C   UNL A   1      42.966  23.435  25.929  1.00  0.00     0.135 A 
ATOM     73  F   UNL A   1      43.482  23.432  29.531  1.00  0.00    -0.206 F 
ATOM     74  C   UNL A   1      42.555  21.788  28.132  1.00  0.00     0.059 A 
ATOM     75  C   UNL A   1      42.372  22.190  25.746  1.00  0.00     0.059 A 
ATOM     76  F   UNL A   1      43.156  24.205  24.846  1.00  0.00    -0.206 F 
ATOM     77  C   UNL A   1      42.187  21.365  26.852  1.00  0.00     0.060 A 
BRANCH  77  78
ATOM     78  S   UNL A   1      41.467  19.720  26.650  1.00  0.00     0.124 S 
ATOM     79  O   UNL A   1      42.074  19.000  27.765  1.00  0.00    -0.237 OA
ATOM     80  O   UNL A   1      40.037  19.989  26.772  1.00  0.00    -0.237 OA
ATOM     81  O   UNL A   1      41.915  19.311  25.323  1.00  0.00    -0.744 OA
ENDBRANCH  77  78
ENDBRANCH  56  70
BRANCH  57  82
ATOM     82  C   UNL A   1      46.949  33.105  28.388  1.00  0.00     0.058 A 
ATOM     83  C   UNL A   1      46.919  34.094  27.401  1.00  0.00     0.135 A 
ATOM     84  C   UNL A   1      47.500  33.468  29.632  1.00  0.00     0.135 A 
ATOM     85  F   UNL A   1      46.472  33.796  26.173  1.00  0.00    -0.206 F 
ATOM     86  C   UNL A   1      47.392  35.381  27.638  1.00  0.00     0.059 A 
ATOM     87  C   UNL A   1      47.914  34.765  29.915  1.00  0.00     0.059 A 
ATOM     88  F   UNL A   1      47.607  32.561  30.617  1.00  0.00    -0.206 F 
ATOM     89  C   UNL A   1      47.861  35.717  28.906  1.00  0.00     0.060 A 
BRANCH  89  90
ATOM     90  S   UNL A   1      48.455  37.395  29.199  1.00  0.00     0.124 S 
ATOM     91  O   UNL A   1      47.322  37.997  29.895  1.00  0.00    -0.237 OA
ATOM     92  O   UNL A   1      49.645  37.154  30.006  1.00  0.00    -0.237 OA
ATOM     93  O   UNL A   1      48.702  37.905  27.854  1.00  0.00    -0.744 OA
ENDBRANCH  89  90
ENDBRANCH  57  82
BRANCH  69  94
ATOM     94  C   UNL A   1      49.728  27.099  26.101  1.00  0.00     0.058 A 
ATOM     95  C   UNL A   1      50.728  26.720  27.013  1.00  0.00     0.135 A 
ATOM     96  C   UNL A   1      50.049  27.077  24.734  1.00  0.00     0.135 A 
ATOM     97  F   UNL A   1      50.479  26.732  28.332  1.00  0.00    -0.206 F 
ATOM     98  C   UNL A   1      52.004  26.364  26.588  1.00  0.00     0.059 A 
ATOM     99  C   UNL A   1      51.309  26.691  24.285  1.00  0.00     0.059 A 
ATOM    100  F   UNL A   1      49.131  27.422  23.817  1.00  0.00    -0.206 F 
ATOM    101  C   UNL A   1      52.283  26.350  25.221  1.00  0.00     0.060 A 
BRANCH 101 102
ATOM    102  S   UNL A   1      53.933  25.848  24.684  1.00  0.00     0.124 S 
ATOM    103  O   UNL A   1      54.758  26.322  25.791  1.00  0.00    -0.237 OA
ATOM    104  O   UNL A   1      53.797  24.400  24.570  1.00  0.00    -0.237 OA
ATOM    105  O   UNL A   1      54.110  26.558  23.421  1.00  0.00    -0.744 OA
ENDBRANCH 101 102
ENDBRANCH  69  94
ENDBRANCH  43  44
ENDBRANCH  36  38
ENDBRANCH  35  36
ENDBRANCH  34  35
ENDBRANCH  33  34
ENDBRANCH  32  33
ENDBRANCH   1  32
TORSDOF 22
ENDMDL
MODEL 3
REMARK VINA RESULT:     -11.4      1.284      2.594
REMARK SMILES C[C@@H](C(=O)OCCOC(=O)c1ccc(-c2c3nc(c(-c4c(F)cc(S(=O)(=O)[O-])cc4F)c4ccc([nH]4)c(-c4c(F)cc(S(=O)(=O)[O-])cc4F)c4nc(c(-c5c(F)cc(S(=O)(=O)[O-])cc5F)c5ccc2[nH]5)C=C4)C=C3)cc1)c1ccc(-c2cccc(OC(=O)NCCCc3ccccc3)c2)c(F)c1
REMARK SMILES IDX 3 1 4 2 2 3 1 4 77 5 78 6 102 7 79 8 100 9 80 10 101 11
REMARK SMILES IDX 81 12 82 13 99 14 83 15 85 16 84 17 86 18 87 19 88 20 89 21
REMARK SMILES IDX 90 23 91 24 92 25 93 26 94 27 98 28 95 29 97 30 96 31 5 32
REMARK SMILES IDX 6 33 7 34 8 35 9 36 10 37 11 38 12 39 76 40 13 41 75 42
REMARK SMILES IDX 14 43 15 44 16 45 69 46 17 47 74 48 68 49 70 50 18 51 73 52
REMARK SMILES IDX 67 53 66 54 19 56 53 57 32 58 52 59 33 60 36 61 51 62 71 63
REMARK SMILES IDX 34 64 35 65 50 67 72 68 37 69 20 70 21 71 30 72 22 73 23 74
REMARK SMILES IDX 29 75 31 76 24 77 25 78 26 79 27 80 28 81 54 82 55 83 64 84
REMARK SMILES IDX 56 85 57 86 63 87 65 88 58 89 59 90 60 91 61 92 62 93 38 94
REMARK SMILES IDX 39 95 48 96 40 97 41 98 47 99 49 100 42 101 43 102 44 103
REMARK SMILES IDX 45 104 46 105
REMARK H PARENT 89 22 70 55 36 66
REMARK Flexibility Score: inf
ROOT
ATOM      1  C   UNL A   1      42.886  22.308  27.402  1.00  0.00     0.313 C 
ATOM      2  O   UNL A   1      42.940  22.958  28.439  1.00  0.00    -0.252 OA
ENDROOT
BRANCH   1   3
ATOM      3  C   UNL A   1      41.863  21.179  27.147  1.00  0.00     0.126 C 
ATOM      4  C   UNL A   1      42.317  20.176  26.083  1.00  0.00     0.025 C 
BRANCH   3   5
ATOM      5  C   UNL A   1      40.501  21.731  26.746  1.00  0.00    -0.031 A 
ATOM      6  C   UNL A   1      39.567  20.866  26.184  1.00  0.00     0.005 A 
ATOM      7  C   UNL A   1      40.122  23.068  26.938  1.00  0.00     0.044 A 
ATOM      8  C   UNL A   1      38.339  21.335  25.731  1.00  0.00     0.012 A 
ATOM      9  C   UNL A   1      38.874  23.532  26.476  1.00  0.00     0.131 A 
ATOM     10  C   UNL A   1      37.973  22.682  25.825  1.00  0.00     0.018 A 
ATOM     11  F   UNL A   1      38.564  24.822  26.682  1.00  0.00    -0.206 F 
BRANCH  10  12
ATOM     12  C   UNL A   1      36.727  23.093  25.148  1.00  0.00    -0.012 A 
ATOM     13  C   UNL A   1      36.455  22.650  23.836  1.00  0.00     0.009 A 
ATOM     14  C   UNL A   1      35.903  24.093  25.688  1.00  0.00     0.056 A 
ATOM     15  C   UNL A   1      35.459  23.241  23.057  1.00  0.00     0.004 A 
ATOM     16  C   UNL A   1      34.916  24.691  24.900  1.00  0.00     0.133 A 
ATOM     17  C   UNL A   1      34.695  24.275  23.586  1.00  0.00     0.047 A 
BRANCH  16  18
ATOM     18  O   UNL A   1      34.054  25.711  25.367  1.00  0.00    -0.410 OA
BRANCH  18  19
ATOM     19  C   UNL A   1      33.454  26.658  24.547  1.00  0.00     0.412 C 
ATOM     20  O   UNL A   1      34.030  27.373  23.725  1.00  0.00    -0.224 OA
ATOM     21  N   UNL A   1      32.104  26.764  24.732  1.00  0.00    -0.321 N 
ATOM     22  H   UNL A   1      31.660  27.551  24.341  1.00  0.00     0.167 HD
BRANCH  21  23
ATOM     23  C   UNL A   1      31.270  25.826  25.450  1.00  0.00     0.120 C 
BRANCH  23  24
ATOM     24  C   UNL A   1      31.007  24.507  24.727  1.00  0.00     0.026 C 
BRANCH  24  25
ATOM     25  C   UNL A   1      30.901  23.247  25.595  1.00  0.00     0.037 C 
BRANCH  25  26
ATOM     26  C   UNL A   1      32.024  22.235  25.626  1.00  0.00    -0.048 A 
ATOM     27  C   UNL A   1      32.894  22.046  26.702  1.00  0.00     0.004 A 
ATOM     28  C   UNL A   1      32.225  21.449  24.476  1.00  0.00     0.004 A 
ATOM     29  C   UNL A   1      33.991  21.185  26.596  1.00  0.00     0.000 A 
ATOM     30  C   UNL A   1      33.301  20.563  24.380  1.00  0.00     0.000 A 
ATOM     31  C   UNL A   1      34.202  20.455  25.432  1.00  0.00     0.000 A 
ENDBRANCH  25  26
ENDBRANCH  24  25
ENDBRANCH  23  24
ENDBRANCH  21  23
ENDBRANCH  18  19
ENDBRANCH  16  18
ENDBRANCH  10  12
ENDBRANCH   3   5
ENDBRANCH   1   3
BRANCH   1  32
ATOM     32  O   UNL A   1      43.753  22.472  26.361  1.00  0.00    -0.462 OA
BRANCH  32  33
ATOM     33  C   UNL A   1      44.322  23.787  26.168  1.00  0.00     0.274 C 
BRANCH  33  34
ATOM     34  C   UNL A   1      43.589  24.535  25.055  1.00  0.00     0.275 C 
BRANCH  34  35
ATOM     35  O   UNL A   1      43.444  25.917  25.426  1.00  0.00    -0.458 OA
BRANCH  35  36
ATOM     36  C   UNL A   1      42.224  26.297  25.870  1.00  0.00     0.338 C 
ATOM     37  O   UNL A   1      41.153  26.145  25.307  1.00  0.00    -0.246 OA
BRANCH  36  38
ATOM     38  C   UNL A   1      42.343  26.857  27.231  1.00  0.00     0.060 A 
ATOM     39  C   UNL A   1      41.574  26.298  28.240  1.00  0.00     0.016 A 
ATOM     40  C   UNL A   1      43.032  28.051  27.465  1.00  0.00     0.016 A 
ATOM     41  C   UNL A   1      41.351  27.030  29.403  1.00  0.00     0.010 A 
ATOM     42  C   UNL A   1      42.905  28.710  28.703  1.00  0.00     0.010 A 
ATOM     43  C   UNL A   1      41.996  28.251  29.672  1.00  0.00    -0.014 A 
BRANCH  43  44
ATOM     44  C   UNL A   1      41.644  29.040  30.911  1.00  0.00     0.031 A 
ATOM     45  C   UNL A   1      40.430  29.952  30.958  1.00  0.00     0.074 A 
ATOM     46  C   UNL A   1      42.327  28.866  32.066  1.00  0.00     0.049 A 
ATOM     47  N   UNL A   1      40.069  30.809  31.885  1.00  0.00    -0.248 NA
ATOM     48  C   UNL A   1      39.489  29.882  29.829  1.00  0.00     0.031 C 
ATOM     49  C   UNL A   1      43.434  27.930  32.261  1.00  0.00     0.029 A 
ATOM     50  N   UNL A   1      42.163  29.430  33.313  1.00  0.00    -0.354 N 
ATOM     51  C   UNL A   1      38.909  31.426  31.420  1.00  0.00     0.074 A 
ATOM     52  C   UNL A   1      38.611  30.828  30.137  1.00  0.00     0.031 C 
ATOM     53  C   UNL A   1      43.752  27.885  33.558  1.00  0.00     0.029 A 
ATOM     54  C   UNL A   1      43.062  28.964  34.245  1.00  0.00     0.049 A 
ATOM     55  H   UNL A   1      41.470  30.100  33.517  1.00  0.00     0.167 HD
ATOM     56  C   UNL A   1      38.168  32.402  32.003  1.00  0.00     0.037 A 
ATOM     57  C   UNL A   1      43.391  29.401  35.479  1.00  0.00     0.037 A 
ATOM     58  C   UNL A   1      38.417  32.948  33.315  1.00  0.00     0.049 A 
ATOM     59  C   UNL A   1      42.617  30.545  36.072  1.00  0.00     0.074 A 
ATOM     60  C   UNL A   1      37.751  33.977  33.960  1.00  0.00     0.029 A 
ATOM     61  N   UNL A   1      39.393  32.501  34.192  1.00  0.00    -0.354 N 
ATOM     62  N   UNL A   1      41.559  31.156  35.595  1.00  0.00    -0.248 NA
ATOM     63  C   UNL A   1      43.074  31.066  37.368  1.00  0.00     0.031 C 
ATOM     64  C   UNL A   1      38.354  34.184  35.204  1.00  0.00     0.029 A 
ATOM     65  C   UNL A   1      39.363  33.249  35.360  1.00  0.00     0.049 A 
ATOM     66  H   UNL A   1      40.017  31.761  34.012  1.00  0.00     0.167 HD
ATOM     67  C   UNL A   1      41.218  32.118  36.539  1.00  0.00     0.074 A 
ATOM     68  C   UNL A   1      42.140  31.965  37.643  1.00  0.00     0.031 C 
ATOM     69  C   UNL A   1      40.248  33.062  36.481  1.00  0.00     0.037 A 
BRANCH  56  70
ATOM     70  C   UNL A   1      37.052  33.016  31.195  1.00  0.00     0.058 A 
ATOM     71  C   UNL A   1      37.282  33.831  30.076  1.00  0.00     0.135 A 
ATOM     72  C   UNL A   1      35.716  32.735  31.532  1.00  0.00     0.135 A 
ATOM     73  F   UNL A   1      38.536  34.143  29.714  1.00  0.00    -0.206 F 
ATOM     74  C   UNL A   1      36.227  34.367  29.339  1.00  0.00     0.059 A 
ATOM     75  C   UNL A   1      34.648  33.236  30.794  1.00  0.00     0.059 A 
ATOM     76  F   UNL A   1      35.437  31.954  32.588  1.00  0.00    -0.206 F 
ATOM     77  C   UNL A   1      34.914  34.067  29.708  1.00  0.00     0.060 A 
BRANCH  77  78
ATOM     78  S   UNL A   1      33.555  34.780  28.755  1.00  0.00     0.124 S 
ATOM     79  O   UNL A   1      34.143  36.039  28.310  1.00  0.00    -0.237 OA
ATOM     80  O   UNL A   1      33.343  33.777  27.716  1.00  0.00    -0.237 OA
ATOM     81  O   UNL A   1      32.478  34.904  29.733  1.00  0.00    -0.744 OA
ENDBRANCH  77  78
ENDBRANCH  56  70
BRANCH  57  82
ATOM     82  C   UNL A   1      44.568  28.797  36.181  1.00  0.00     0.058 A 
ATOM     83  C   UNL A   1      45.869  29.255  35.956  1.00  0.00     0.135 A 
ATOM     84  C   UNL A   1      44.418  27.747  37.108  1.00  0.00     0.135 A 
ATOM     85  F   UNL A   1      46.091  30.205  35.035  1.00  0.00    -0.206 F 
ATOM     86  C   UNL A   1      46.963  28.716  36.626  1.00  0.00     0.059 A 
ATOM     87  C   UNL A   1      45.486  27.240  37.841  1.00  0.00     0.059 A 
ATOM     88  F   UNL A   1      43.205  27.221  37.345  1.00  0.00    -0.206 F 
ATOM     89  C   UNL A   1      46.760  27.729  37.588  1.00  0.00     0.060 A 
BRANCH  89  90
ATOM     90  S   UNL A   1      48.189  27.055  38.459  1.00  0.00     0.124 S 
ATOM     91  O   UNL A   1      49.058  26.666  37.354  1.00  0.00    -0.237 OA
ATOM     92  O   UNL A   1      48.628  28.202  39.245  1.00  0.00    -0.237 OA
ATOM     93  O   UNL A   1      47.624  25.949  39.227  1.00  0.00    -0.744 OA
ENDBRANCH  89  90
ENDBRANCH  57  82
BRANCH  69  94
ATOM     94  C   UNL A   1      40.099  33.978  37.667  1.00  0.00     0.058 A 
ATOM     95  C   UNL A   1      40.809  35.187  37.759  1.00  0.00     0.135 A 
ATOM     96  C   UNL A   1      39.210  33.664  38.708  1.00  0.00     0.135 A 
ATOM     97  F   UNL A   1      41.680  35.533  36.798  1.00  0.00    -0.206 F 
ATOM     98  C   UNL A   1      40.667  36.034  38.853  1.00  0.00     0.059 A 
ATOM     99  C   UNL A   1      39.026  34.513  39.795  1.00  0.00     0.059 A 
ATOM    100  F   UNL A   1      38.499  32.525  38.670  1.00  0.00    -0.206 F 
ATOM    101  C   UNL A   1      39.770  35.690  39.864  1.00  0.00     0.060 A 
BRANCH 101 102
ATOM    102  S   UNL A   1      39.568  36.820  41.259  1.00  0.00     0.124 S 
ATOM    103  O   UNL A   1      38.628  36.085  42.098  1.00  0.00    -0.237 OA
ATOM    104  O   UNL A   1      40.930  36.925  41.773  1.00  0.00    -0.237 OA
ATOM    105  O   UNL A   1      39.043  38.033  40.640  1.00  0.00    -0.744 OA
ENDBRANCH 101 102
ENDBRANCH  69  94
ENDBRANCH  43  44
ENDBRANCH  36  38
ENDBRANCH  35  36
ENDBRANCH  34  35
ENDBRANCH  33  34
ENDBRANCH  32  33
ENDBRANCH   1  32
TORSDOF 22
ENDMDL
