MODEL 1
REMARK VINA RESULT:     -10.0      0.000      0.000
REMARK SMILES COc1cc(/C=C2/C(=O)NN(c3ccc(Cl)c(Cl)c3)C2=O)ccc1OCC(=O)OCCOC(=O)c1ccc(-c2c3nc(c(-c4c(F)cc(S(=O)(=O)[O-])cc4F)c4ccc([nH]4)c(-c4c(F)cc(S(=O)(=O)[O-])cc4F)c4nc(c(-c5c(F)cc(S(=O)(=O)[O-])cc5F)c5ccc2[nH]5)C=C4)C=C3)cc1
REMARK SMILES IDX 30 1 29 2 27 3 28 4 26 5 25 6 24 7 3 8 4 9 5 10 23 11 22 12
REMARK SMILES IDX 2 13 1 14 6 15 7 16 8 17 20 18 9 19 10 20 11 21 21 22 12 24
REMARK SMILES IDX 13 25 19 26 14 27 17 28 15 29 18 30 16 31 31 32 32 33 33 34
REMARK SMILES IDX 34 35 35 36 36 37 100 38 37 39 99 40 38 41 39 42 40 43 93 44
REMARK SMILES IDX 41 45 98 46 92 47 94 48 42 49 97 50 91 51 90 52 43 54 77 55
REMARK SMILES IDX 56 56 76 57 57 58 60 59 75 60 95 61 58 62 59 63 74 65 96 66
REMARK SMILES IDX 61 67 44 68 45 69 54 70 46 71 47 72 53 73 55 74 48 75 49 76
REMARK SMILES IDX 50 77 51 78 52 79 78 80 79 81 88 82 80 83 81 84 87 85 89 86
REMARK SMILES IDX 82 87 83 88 84 89 85 90 86 91 62 92 63 93 72 94 64 95 65 96
REMARK SMILES IDX 71 97 73 98 66 99 67 100 68 101 69 102 70 103
REMARK H PARENT 10 23 94 53 60 64
REMARK Flexibility Score: inf
ROOT
ATOM      1  C   UNL A   1      39.716  19.700  26.163  1.00  0.00     0.274 C 
ENDROOT
BRANCH   1   2
ATOM      2  O   UNL A   1      40.828  19.112  25.452  1.00  0.00    -0.460 OA
BRANCH   2   3
ATOM      3  C   UNL A   1      41.848  18.637  26.213  1.00  0.00     0.344 C 
ATOM      4  O   UNL A   1      42.667  17.805  25.836  1.00  0.00    -0.248 OA
BRANCH   3   5
ATOM      5  C   UNL A   1      41.901  19.277  27.606  1.00  0.00     0.352 C 
BRANCH   5   6
ATOM      6  O   UNL A   1      42.670  20.405  27.926  1.00  0.00    -0.478 OA
BRANCH   6   7
ATOM      7  C   UNL A   1      42.871  21.497  27.143  1.00  0.00     0.162 A 
ATOM      8  C   UNL A   1      43.257  21.670  25.807  1.00  0.00     0.161 A 
ATOM      9  C   UNL A   1      43.437  22.988  25.300  1.00  0.00     0.058 A 
ATOM     10  C   UNL A   1      43.308  24.118  26.120  1.00  0.00    -0.021 A 
ATOM     11  C   UNL A   1      42.773  22.644  27.951  1.00  0.00     0.051 A 
ATOM     12  C   UNL A   1      42.998  23.929  27.463  1.00  0.00     0.012 A 
BRANCH   8  13
ATOM     13  O   UNL A   1      43.802  20.715  24.988  1.00  0.00    -0.493 OA
ATOM     14  C   UNL A   1      45.001  21.013  24.306  1.00  0.00     0.278 C 
ENDBRANCH   8  13
BRANCH  10  15
ATOM     15  C   UNL A   1      43.593  25.497  25.694  1.00  0.00     0.028 C 
ATOM     16  C   UNL A   1      44.806  26.065  25.769  1.00  0.00     0.109 C 
ATOM     17  C   UNL A   1      45.024  27.534  25.675  1.00  0.00     0.275 C 
ATOM     18  C   UNL A   1      46.107  25.418  26.079  1.00  0.00     0.282 C 
ATOM     19  O   UNL A   1      44.205  28.380  25.402  1.00  0.00    -0.267 OA
ATOM     20  N   UNL A   1      46.352  27.712  26.023  1.00  0.00    -0.256 N 
ATOM     21  N   UNL A   1      46.996  26.491  26.212  1.00  0.00    -0.217 N 
ATOM     22  O   UNL A   1      46.311  24.231  26.229  1.00  0.00    -0.267 OA
ATOM     23  H   UNL A   1      46.788  28.589  26.125  1.00  0.00     0.192 HD
BRANCH  21  24
ATOM     24  C   UNL A   1      48.351  26.361  26.559  1.00  0.00     0.068 A 
ATOM     25  C   UNL A   1      49.301  25.969  25.612  1.00  0.00     0.030 A 
ATOM     26  C   UNL A   1      48.767  26.681  27.859  1.00  0.00     0.050 A 
ATOM     27  C   UNL A   1      50.660  25.962  25.949  1.00  0.00     0.024 A 
ATOM     28  C   UNL A   1      50.117  26.624  28.211  1.00  0.00     0.061 A 
ATOM     29  C   UNL A   1      51.071  26.288  27.247  1.00  0.00     0.059 A 
ATOM     30  Cl  UNL A   1      50.538  26.993  29.845  1.00  0.00    -0.083 Cl
ATOM     31  Cl  UNL A   1      52.765  26.282  27.584  1.00  0.00    -0.083 Cl
ENDBRANCH  21  24
ENDBRANCH  10  15
ENDBRANCH   6   7
ENDBRANCH   5   6
ENDBRANCH   3   5
ENDBRANCH   2   3
ENDBRANCH   1   2
BRANCH   1  32
ATOM     32  C   UNL A   1      39.274  20.962  25.420  1.00  0.00     0.275 C 
BRANCH  32  33
ATOM     33  O   UNL A   1      39.519  22.121  26.241  1.00  0.00    -0.458 OA
BRANCH  33  34
ATOM     34  C   UNL A   1      38.678  23.165  26.009  1.00  0.00     0.338 C 
ATOM     35  O   UNL A   1      37.668  23.118  25.323  1.00  0.00    -0.246 OA
BRANCH  34  36
ATOM     36  C   UNL A   1      39.109  24.385  26.749  1.00  0.00     0.060 A 
ATOM     37  C   UNL A   1      39.824  25.409  26.133  1.00  0.00     0.016 A 
ATOM     38  C   UNL A   1      38.842  24.488  28.116  1.00  0.00     0.016 A 
ATOM     39  C   UNL A   1      40.402  26.433  26.892  1.00  0.00     0.010 A 
ATOM     40  C   UNL A   1      39.289  25.603  28.844  1.00  0.00     0.010 A 
ATOM     41  C   UNL A   1      40.097  26.587  28.248  1.00  0.00    -0.014 A 
BRANCH  41  42
ATOM     42  C   UNL A   1      40.540  27.781  29.041  1.00  0.00     0.031 A 
ATOM     43  C   UNL A   1      41.800  27.711  29.871  1.00  0.00     0.074 A 
ATOM     44  C   UNL A   1      39.771  28.892  29.101  1.00  0.00     0.049 A 
ATOM     45  N   UNL A   1      42.148  28.418  30.916  1.00  0.00    -0.248 NA
ATOM     46  C   UNL A   1      42.788  26.688  29.488  1.00  0.00     0.031 C 
ATOM     47  C   UNL A   1      38.568  29.151  28.305  1.00  0.00     0.029 A 
ATOM     48  N   UNL A   1      39.870  30.011  29.899  1.00  0.00    -0.354 N 
ATOM     49  C   UNL A   1      43.349  27.873  31.367  1.00  0.00     0.074 A 
ATOM     50  C   UNL A   1      43.679  26.788  30.467  1.00  0.00     0.031 C 
ATOM     51  C   UNL A   1      38.055  30.343  28.636  1.00  0.00     0.029 A 
ATOM     52  C   UNL A   1      38.802  30.872  29.765  1.00  0.00     0.049 A 
ATOM     53  H   UNL A   1      40.627  30.177  30.507  1.00  0.00     0.167 HD
ATOM     54  C   UNL A   1      44.086  28.240  32.445  1.00  0.00     0.037 A 
ATOM     55  C   UNL A   1      38.400  31.918  30.512  1.00  0.00     0.037 A 
ATOM     56  C   UNL A   1      43.758  29.364  33.287  1.00  0.00     0.049 A 
ATOM     57  C   UNL A   1      39.192  32.271  31.738  1.00  0.00     0.074 A 
ATOM     58  C   UNL A   1      44.435  29.839  34.397  1.00  0.00     0.029 A 
ATOM     59  N   UNL A   1      42.665  30.200  33.100  1.00  0.00    -0.354 N 
ATOM     60  N   UNL A   1      40.274  31.699  32.207  1.00  0.00    -0.248 NA
ATOM     61  C   UNL A   1      38.698  33.392  32.549  1.00  0.00     0.031 C 
ATOM     62  C   UNL A   1      43.725  30.930  34.909  1.00  0.00     0.029 A 
ATOM     63  C   UNL A   1      42.640  31.176  34.083  1.00  0.00     0.049 A 
ATOM     64  H   UNL A   1      42.004  30.112  32.375  1.00  0.00     0.167 HD
ATOM     65  C   UNL A   1      40.613  32.413  33.348  1.00  0.00     0.074 A 
ATOM     66  C   UNL A   1      39.619  33.457  33.501  1.00  0.00     0.031 C 
ATOM     67  C   UNL A   1      41.657  32.225  34.192  1.00  0.00     0.037 A 
BRANCH  54  68
ATOM     68  C   UNL A   1      45.284  27.401  32.815  1.00  0.00     0.058 A 
ATOM     69  C   UNL A   1      45.209  26.335  33.724  1.00  0.00     0.135 A 
ATOM     70  C   UNL A   1      46.529  27.642  32.204  1.00  0.00     0.135 A 
ATOM     71  F   UNL A   1      44.054  26.059  34.350  1.00  0.00    -0.206 F 
ATOM     72  C   UNL A   1      46.326  25.563  34.039  1.00  0.00     0.059 A 
ATOM     73  C   UNL A   1      47.652  26.867  32.483  1.00  0.00     0.059 A 
ATOM     74  F   UNL A   1      46.663  28.644  31.320  1.00  0.00    -0.206 F 
ATOM     75  C   UNL A   1      47.545  25.839  33.416  1.00  0.00     0.060 A 
BRANCH  75  76
ATOM     76  S   UNL A   1      48.985  24.844  33.859  1.00  0.00     0.124 S 
ATOM     77  O   UNL A   1      49.777  24.918  32.631  1.00  0.00    -0.237 OA
ATOM     78  O   UNL A   1      49.529  25.570  35.001  1.00  0.00    -0.237 OA
ATOM     79  O   UNL A   1      48.420  23.533  34.161  1.00  0.00    -0.744 OA
ENDBRANCH  75  76
ENDBRANCH  54  68
BRANCH  55  80
ATOM     80  C   UNL A   1      37.154  32.657  30.158  1.00  0.00     0.058 A 
ATOM     81  C   UNL A   1      35.914  32.267  30.684  1.00  0.00     0.135 A 
ATOM     82  C   UNL A   1      37.178  33.782  29.316  1.00  0.00     0.135 A 
ATOM     83  F   UNL A   1      35.834  31.194  31.486  1.00  0.00    -0.206 F 
ATOM     84  C   UNL A   1      34.744  32.958  30.382  1.00  0.00     0.059 A 
ATOM     85  C   UNL A   1      36.028  34.508  29.027  1.00  0.00     0.059 A 
ATOM     86  F   UNL A   1      38.341  34.210  28.797  1.00  0.00    -0.206 F 
ATOM     87  C   UNL A   1      34.812  34.081  29.557  1.00  0.00     0.060 A 
BRANCH  87  88
ATOM     88  S   UNL A   1      33.294  34.996  29.211  1.00  0.00     0.124 S 
ATOM     89  O   UNL A   1      32.690  35.074  30.536  1.00  0.00    -0.237 OA
ATOM     90  O   UNL A   1      33.809  36.250  28.669  1.00  0.00    -0.237 OA
ATOM     91  O   UNL A   1      32.599  34.146  28.249  1.00  0.00    -0.744 OA
ENDBRANCH  87  88
ENDBRANCH  55  80
BRANCH  67  92
ATOM     92  C   UNL A   1      41.827  33.212  35.309  1.00  0.00     0.058 A 
ATOM     93  C   UNL A   1      41.254  33.010  36.573  1.00  0.00     0.135 A 
ATOM     94  C   UNL A   1      42.646  34.338  35.128  1.00  0.00     0.135 A 
ATOM     95  F   UNL A   1      40.451  31.957  36.792  1.00  0.00    -0.206 F 
ATOM     96  C   UNL A   1      41.487  33.893  37.621  1.00  0.00     0.059 A 
ATOM     97  C   UNL A   1      42.915  35.219  36.168  1.00  0.00     0.059 A 
ATOM     98  F   UNL A   1      43.217  34.572  33.935  1.00  0.00    -0.206 F 
ATOM     99  C   UNL A   1      42.328  34.989  37.411  1.00  0.00     0.060 A 
BRANCH  99 100
ATOM    100  S   UNL A   1      42.687  36.082  38.802  1.00  0.00     0.124 S 
ATOM    101  O   UNL A   1      42.545  37.397  38.188  1.00  0.00    -0.237 OA
ATOM    102  O   UNL A   1      41.649  35.714  39.762  1.00  0.00    -0.237 OA
ATOM    103  O   UNL A   1      44.045  35.710  39.186  1.00  0.00    -0.744 OA
ENDBRANCH  99 100
ENDBRANCH  67  92
ENDBRANCH  41  42
ENDBRANCH  34  36
ENDBRANCH  33  34
ENDBRANCH  32  33
ENDBRANCH   1  32
TORSDOF 19
ENDMDL
MODEL 2
REMARK VINA RESULT:     -10.0      1.761      2.815
REMARK SMILES COc1cc(/C=C2/C(=O)NN(c3ccc(Cl)c(Cl)c3)C2=O)ccc1OCC(=O)OCCOC(=O)c1ccc(-c2c3nc(c(-c4c(F)cc(S(=O)(=O)[O-])cc4F)c4ccc([nH]4)c(-c4c(F)cc(S(=O)(=O)[O-])cc4F)c4nc(c(-c5c(F)cc(S(=O)(=O)[O-])cc5F)c5ccc2[nH]5)C=C4)C=C3)cc1
REMARK SMILES IDX 30 1 29 2 27 3 28 4 26 5 25 6 24 7 3 8 4 9 5 10 23 11 22 12
REMARK SMILES IDX 2 13 1 14 6 15 7 16 8 17 20 18 9 19 10 20 11 21 21 22 12 24
REMARK SMILES IDX 13 25 19 26 14 27 17 28 15 29 18 30 16 31 31 32 32 33 33 34
REMARK SMILES IDX 34 35 35 36 36 37 100 38 37 39 99 40 38 41 39 42 40 43 93 44
REMARK SMILES IDX 41 45 98 46 92 47 94 48 42 49 97 50 91 51 90 52 43 54 77 55
REMARK SMILES IDX 56 56 76 57 57 58 60 59 75 60 95 61 58 62 59 63 74 65 96 66
REMARK SMILES IDX 61 67 44 68 45 69 54 70 46 71 47 72 53 73 55 74 48 75 49 76
REMARK SMILES IDX 50 77 51 78 52 79 78 80 79 81 88 82 80 83 81 84 87 85 89 86
REMARK SMILES IDX 82 87 83 88 84 89 85 90 86 91 62 92 63 93 72 94 64 95 65 96
REMARK SMILES IDX 71 97 73 98 66 99 67 100 68 101 69 102 70 103
REMARK H PARENT 10 23 94 53 60 64
REMARK Flexibility Score: inf
ROOT
ATOM      1  C   UNL A   1      40.610  20.190  26.793  1.00  0.00     0.274 C 
ENDROOT
BRANCH   1   2
ATOM      2  O   UNL A   1      40.953  19.092  25.920  1.00  0.00    -0.460 OA
BRANCH   2   3
ATOM      3  C   UNL A   1      42.257  18.711  25.911  1.00  0.00     0.344 C 
ATOM      4  O   UNL A   1      42.647  17.572  25.672  1.00  0.00    -0.248 OA
BRANCH   3   5
ATOM      5  C   UNL A   1      43.219  19.870  26.203  1.00  0.00     0.352 C 
BRANCH   5   6
ATOM      6  O   UNL A   1      43.423  20.959  25.343  1.00  0.00    -0.478 OA
BRANCH   6   7
ATOM      7  C   UNL A   1      44.320  21.966  25.511  1.00  0.00     0.162 A 
ATOM      8  C   UNL A   1      44.699  22.750  26.609  1.00  0.00     0.161 A 
ATOM      9  C   UNL A   1      45.655  23.790  26.425  1.00  0.00     0.058 A 
ATOM     10  C   UNL A   1      46.174  24.099  25.160  1.00  0.00    -0.021 A 
ATOM     11  C   UNL A   1      44.836  22.313  24.249  1.00  0.00     0.051 A 
ATOM     12  C   UNL A   1      45.733  23.362  24.066  1.00  0.00     0.012 A 
BRANCH   8  13
ATOM     13  O   UNL A   1      44.028  22.860  27.799  1.00  0.00    -0.493 OA
ATOM     14  C   UNL A   1      44.754  23.223  28.953  1.00  0.00     0.278 C 
ENDBRANCH   8  13
BRANCH  10  15
ATOM     15  C   UNL A   1      47.072  25.230  24.879  1.00  0.00     0.028 C 
ATOM     16  C   UNL A   1      46.868  26.474  25.337  1.00  0.00     0.109 C 
ATOM     17  C   UNL A   1      47.558  27.670  24.780  1.00  0.00     0.275 C 
ATOM     18  C   UNL A   1      45.875  26.934  26.342  1.00  0.00     0.282 C 
ATOM     19  O   UNL A   1      48.452  27.686  23.967  1.00  0.00    -0.267 OA
ATOM     20  N   UNL A   1      46.910  28.747  25.360  1.00  0.00    -0.256 N 
ATOM     21  N   UNL A   1      45.970  28.329  26.298  1.00  0.00    -0.217 N 
ATOM     22  O   UNL A   1      45.130  26.236  26.998  1.00  0.00    -0.267 OA
ATOM     23  H   UNL A   1      47.091  29.689  25.138  1.00  0.00     0.192 HD
BRANCH  21  24
ATOM     24  C   UNL A   1      45.170  29.203  27.053  1.00  0.00     0.068 A 
ATOM     25  C   UNL A   1      43.833  29.429  26.712  1.00  0.00     0.030 A 
ATOM     26  C   UNL A   1      45.701  29.818  28.196  1.00  0.00     0.050 A 
ATOM     27  C   UNL A   1      43.022  30.209  27.547  1.00  0.00     0.024 A 
ATOM     28  C   UNL A   1      44.907  30.638  29.000  1.00  0.00     0.061 A 
ATOM     29  C   UNL A   1      43.557  30.815  28.689  1.00  0.00     0.059 A 
ATOM     30  Cl  UNL A   1      45.653  31.388  30.366  1.00  0.00    -0.083 Cl
ATOM     31  Cl  UNL A   1      42.492  31.743  29.685  1.00  0.00    -0.083 Cl
ENDBRANCH  21  24
ENDBRANCH  10  15
ENDBRANCH   6   7
ENDBRANCH   5   6
ENDBRANCH   3   5
ENDBRANCH   2   3
ENDBRANCH   1   2
BRANCH   1  32
ATOM     32  C   UNL A   1      39.640  21.115  26.056  1.00  0.00     0.275 C 
BRANCH  32  33
ATOM     33  O   UNL A   1      40.079  22.482  26.184  1.00  0.00    -0.458 OA
BRANCH  33  34
ATOM     34  C   UNL A   1      39.079  23.404  26.127  1.00  0.00     0.338 C 
ATOM     35  O   UNL A   1      38.007  23.247  25.565  1.00  0.00    -0.246 OA
BRANCH  34  36
ATOM     36  C   UNL A   1      39.430  24.633  26.894  1.00  0.00     0.060 A 
ATOM     37  C   UNL A   1      40.230  25.637  26.356  1.00  0.00     0.016 A 
ATOM     38  C   UNL A   1      38.992  24.766  28.214  1.00  0.00     0.016 A 
ATOM     39  C   UNL A   1      40.721  26.669  27.164  1.00  0.00     0.010 A 
ATOM     40  C   UNL A   1      39.358  25.890  28.973  1.00  0.00     0.010 A 
ATOM     41  C   UNL A   1      40.249  26.853  28.467  1.00  0.00    -0.014 A 
BRANCH  41  42
ATOM     42  C   UNL A   1      40.602  28.058  29.288  1.00  0.00     0.031 A 
ATOM     43  C   UNL A   1      41.812  28.025  30.193  1.00  0.00     0.074 A 
ATOM     44  C   UNL A   1      39.796  29.143  29.305  1.00  0.00     0.049 A 
ATOM     45  N   UNL A   1      42.072  28.738  31.259  1.00  0.00    -0.248 NA
ATOM     46  C   UNL A   1      42.854  27.037  29.868  1.00  0.00     0.031 C 
ATOM     47  C   UNL A   1      38.635  29.366  28.437  1.00  0.00     0.029 A 
ATOM     48  N   UNL A   1      39.809  30.260  30.110  1.00  0.00    -0.354 N 
ATOM     49  C   UNL A   1      43.261  28.231  31.780  1.00  0.00     0.074 A 
ATOM     50  C   UNL A   1      43.680  27.162  30.900  1.00  0.00     0.031 C 
ATOM     51  C   UNL A   1      38.064  30.538  28.740  1.00  0.00     0.029 A 
ATOM     52  C   UNL A   1      38.723  31.087  29.913  1.00  0.00     0.049 A 
ATOM     53  H   UNL A   1      40.522  30.449  30.762  1.00  0.00     0.167 HD
ATOM     54  C   UNL A   1      43.919  28.617  32.902  1.00  0.00     0.037 A 
ATOM     55  C   UNL A   1      38.242  32.116  30.637  1.00  0.00     0.037 A 
ATOM     56  C   UNL A   1      43.504  29.726  33.725  1.00  0.00     0.049 A 
ATOM     57  C   UNL A   1      38.947  32.489  31.910  1.00  0.00     0.074 A 
ATOM     58  C   UNL A   1      44.097  30.218  34.876  1.00  0.00     0.029 A 
ATOM     59  N   UNL A   1      42.398  30.527  33.474  1.00  0.00    -0.354 N 
ATOM     60  N   UNL A   1      40.017  31.951  32.442  1.00  0.00    -0.248 NA
ATOM     61  C   UNL A   1      38.368  33.589  32.692  1.00  0.00     0.031 C 
ATOM     62  C   UNL A   1      43.322  31.283  35.346  1.00  0.00     0.029 A 
ATOM     63  C   UNL A   1      42.281  31.497  34.457  1.00  0.00     0.049 A 
ATOM     64  H   UNL A   1      41.785  30.420  32.711  1.00  0.00     0.167 HD
ATOM     65  C   UNL A   1      40.263  32.670  33.603  1.00  0.00     0.074 A 
ATOM     66  C   UNL A   1      39.227  33.681  33.698  1.00  0.00     0.031 C 
ATOM     67  C   UNL A   1      41.259  32.513  34.508  1.00  0.00     0.037 A 
BRANCH  54  68
ATOM     68  C   UNL A   1      45.120  27.816  33.342  1.00  0.00     0.058 A 
ATOM     69  C   UNL A   1      45.008  26.628  34.081  1.00  0.00     0.135 A 
ATOM     70  C   UNL A   1      46.414  28.226  32.971  1.00  0.00     0.135 A 
ATOM     71  F   UNL A   1      43.802  26.190  34.476  1.00  0.00    -0.206 F 
ATOM     72  C   UNL A   1      46.130  25.896  34.463  1.00  0.00     0.059 A 
ATOM     73  C   UNL A   1      47.549  27.496  33.318  1.00  0.00     0.059 A 
ATOM     74  F   UNL A   1      46.588  29.350  32.258  1.00  0.00    -0.206 F 
ATOM     75  C   UNL A   1      47.398  26.340  34.080  1.00  0.00     0.060 A 
BRANCH  75  76
ATOM     76  S   UNL A   1      48.840  25.391  34.608  1.00  0.00     0.124 S 
ATOM     77  O   UNL A   1      48.330  24.732  35.809  1.00  0.00    -0.237 OA
ATOM     78  O   UNL A   1      49.076  24.517  33.464  1.00  0.00    -0.237 OA
ATOM     79  O   UNL A   1      49.858  26.410  34.838  1.00  0.00    -0.744 OA
ENDBRANCH  75  76
ENDBRANCH  54  68
BRANCH  55  80
ATOM     80  C   UNL A   1      36.997  32.815  30.210  1.00  0.00     0.058 A 
ATOM     81  C   UNL A   1      35.756  32.477  30.769  1.00  0.00     0.135 A 
ATOM     82  C   UNL A   1      37.022  33.852  29.262  1.00  0.00     0.135 A 
ATOM     83  F   UNL A   1      35.675  31.488  31.672  1.00  0.00    -0.206 F 
ATOM     84  C   UNL A   1      34.586  33.134  30.399  1.00  0.00     0.059 A 
ATOM     85  C   UNL A   1      35.871  34.546  28.901  1.00  0.00     0.059 A 
ATOM     86  F   UNL A   1      38.185  34.229  28.706  1.00  0.00    -0.206 F 
ATOM     87  C   UNL A   1      34.655  34.171  29.468  1.00  0.00     0.060 A 
BRANCH  87  88
ATOM     88  S   UNL A   1      33.137  35.046  29.031  1.00  0.00     0.124 S 
ATOM     89  O   UNL A   1      32.439  35.080  30.311  1.00  0.00    -0.237 OA
ATOM     90  O   UNL A   1      33.648  36.325  28.548  1.00  0.00    -0.237 OA
ATOM     91  O   UNL A   1      32.538  34.194  28.007  1.00  0.00    -0.744 OA
ENDBRANCH  87  88
ENDBRANCH  55  80
BRANCH  67  92
ATOM     92  C   UNL A   1      41.328  33.500  35.636  1.00  0.00     0.058 A 
ATOM     93  C   UNL A   1      42.094  34.671  35.552  1.00  0.00     0.135 A 
ATOM     94  C   UNL A   1      40.548  33.301  36.787  1.00  0.00     0.135 A 
ATOM     95  F   UNL A   1      42.868  34.899  34.480  1.00  0.00    -0.206 F 
ATOM     96  C   UNL A   1      42.085  35.615  36.574  1.00  0.00     0.059 A 
ATOM     97  C   UNL A   1      40.503  34.243  37.808  1.00  0.00     0.059 A 
ATOM     98  F   UNL A   1      39.798  32.194  36.912  1.00  0.00    -0.206 F 
ATOM     99  C   UNL A   1      41.276  35.396  37.692  1.00  0.00     0.060 A 
BRANCH  99 100
ATOM    100  S   UNL A   1      41.212  36.666  38.973  1.00  0.00     0.124 S 
ATOM    101  O   UNL A   1      41.279  35.863  40.189  1.00  0.00    -0.237 OA
ATOM    102  O   UNL A   1      42.397  37.468  38.676  1.00  0.00    -0.237 OA
ATOM    103  O   UNL A   1      39.936  37.332  38.729  1.00  0.00    -0.744 OA
ENDBRANCH  99 100
ENDBRANCH  67  92
ENDBRANCH  41  42
ENDBRANCH  34  36
ENDBRANCH  33  34
ENDBRANCH  32  33
ENDBRANCH   1  32
TORSDOF 19
ENDMDL
MODEL 3
REMARK VINA RESULT:      -9.9      1.083      2.058
REMARK SMILES COc1cc(/C=C2/C(=O)NN(c3ccc(Cl)c(Cl)c3)C2=O)ccc1OCC(=O)OCCOC(=O)c1ccc(-c2c3nc(c(-c4c(F)cc(S(=O)(=O)[O-])cc4F)c4ccc([nH]4)c(-c4c(F)cc(S(=O)(=O)[O-])cc4F)c4nc(c(-c5c(F)cc(S(=O)(=O)[O-])cc5F)c5ccc2[nH]5)C=C4)C=C3)cc1
REMARK SMILES IDX 30 1 29 2 27 3 28 4 26 5 25 6 24 7 3 8 4 9 5 10 23 11 22 12
REMARK SMILES IDX 2 13 1 14 6 15 7 16 8 17 20 18 9 19 10 20 11 21 21 22 12 24
REMARK SMILES IDX 13 25 19 26 14 27 17 28 15 29 18 30 16 31 31 32 32 33 33 34
REMARK SMILES IDX 34 35 35 36 36 37 100 38 37 39 99 40 38 41 39 42 40 43 93 44
REMARK SMILES IDX 41 45 98 46 92 47 94 48 42 49 97 50 91 51 90 52 43 54 77 55
REMARK SMILES IDX 56 56 76 57 57 58 60 59 75 60 95 61 58 62 59 63 74 65 96 66
REMARK SMILES IDX 61 67 44 68 45 69 54 70 46 71 47 72 53 73 55 74 48 75 49 76
REMARK SMILES IDX 50 77 51 78 52 79 78 80 79 81 88 82 80 83 81 84 87 85 89 86
REMARK SMILES IDX 82 87 83 88 84 89 85 90 86 91 62 92 63 93 72 94 64 95 65 96
REMARK SMILES IDX 71 97 73 98 66 99 67 100 68 101 69 102 70 103
REMARK H PARENT 10 23 94 53 60 64
REMARK Flexibility Score: inf
ROOT
ATOM      1  C   UNL A   1      40.454  19.957  26.698  1.00  0.00     0.274 C 
ENDROOT
BRANCH   1   2
ATOM      2  O   UNL A   1      40.943  19.047  25.687  1.00  0.00    -0.460 OA
BRANCH   2   3
ATOM      3  C   UNL A   1      42.251  18.691  25.776  1.00  0.00     0.344 C 
ATOM      4  O   UNL A   1      42.652  17.536  25.879  1.00  0.00    -0.248 OA
BRANCH   3   5
ATOM      5  C   UNL A   1      43.203  19.893  25.703  1.00  0.00     0.352 C 
BRANCH   5   6
ATOM      6  O   UNL A   1      42.834  21.162  25.234  1.00  0.00    -0.478 OA
BRANCH   6   7
ATOM      7  C   UNL A   1      43.292  22.358  25.688  1.00  0.00     0.162 A 
ATOM      8  C   UNL A   1      43.508  22.888  26.967  1.00  0.00     0.161 A 
ATOM      9  C   UNL A   1      43.952  24.234  27.097  1.00  0.00     0.058 A 
ATOM     10  C   UNL A   1      44.111  25.069  25.981  1.00  0.00    -0.021 A 
ATOM     11  C   UNL A   1      43.434  23.223  24.588  1.00  0.00     0.051 A 
ATOM     12  C   UNL A   1      43.822  24.554  24.723  1.00  0.00     0.012 A 
BRANCH   8  13
ATOM     13  O   UNL A   1      43.039  22.375  28.149  1.00  0.00    -0.493 OA
ATOM     14  C   UNL A   1      42.425  23.250  29.069  1.00  0.00     0.278 C 
ENDBRANCH   8  13
BRANCH  10  15
ATOM     15  C   UNL A   1      44.452  26.499  26.050  1.00  0.00     0.028 C 
ATOM     16  C   UNL A   1      45.664  26.991  25.749  1.00  0.00     0.109 C 
ATOM     17  C   UNL A   1      46.110  28.354  26.145  1.00  0.00     0.275 C 
ATOM     18  C   UNL A   1      46.810  26.290  25.115  1.00  0.00     0.282 C 
ATOM     19  O   UNL A   1      45.442  29.223  26.655  1.00  0.00    -0.267 OA
ATOM     20  N   UNL A   1      47.462  28.377  25.851  1.00  0.00    -0.256 N 
ATOM     21  N   UNL A   1      47.863  27.206  25.213  1.00  0.00    -0.217 N 
ATOM     22  O   UNL A   1      46.815  25.161  24.670  1.00  0.00    -0.267 OA
ATOM     23  H   UNL A   1      48.065  29.126  26.066  1.00  0.00     0.192 HD
BRANCH  21  24
ATOM     24  C   UNL A   1      49.178  26.954  24.785  1.00  0.00     0.068 A 
ATOM     25  C   UNL A   1      49.632  27.418  23.548  1.00  0.00     0.030 A 
ATOM     26  C   UNL A   1      50.064  26.274  25.632  1.00  0.00     0.050 A 
ATOM     27  C   UNL A   1      50.978  27.260  23.194  1.00  0.00     0.024 A 
ATOM     28  C   UNL A   1      51.394  26.069  25.257  1.00  0.00     0.061 A 
ATOM     29  C   UNL A   1      51.859  26.585  24.046  1.00  0.00     0.059 A 
ATOM     30  Cl  UNL A   1      52.407  25.185  26.342  1.00  0.00    -0.083 Cl
ATOM     31  Cl  UNL A   1      53.510  26.448  23.555  1.00  0.00    -0.083 Cl
ENDBRANCH  21  24
ENDBRANCH  10  15
ENDBRANCH   6   7
ENDBRANCH   5   6
ENDBRANCH   3   5
ENDBRANCH   2   3
ENDBRANCH   1   2
BRANCH   1  32
ATOM     32  C   UNL A   1      39.629  21.048  26.015  1.00  0.00     0.275 C 
BRANCH  32  33
ATOM     33  O   UNL A   1      39.540  22.202  26.875  1.00  0.00    -0.458 OA
BRANCH  33  34
ATOM     34  C   UNL A   1      38.970  23.294  26.297  1.00  0.00     0.338 C 
ATOM     35  O   UNL A   1      38.162  23.267  25.382  1.00  0.00    -0.246 OA
BRANCH  34  36
ATOM     36  C   UNL A   1      39.415  24.553  26.960  1.00  0.00     0.060 A 
ATOM     37  C   UNL A   1      40.215  25.488  26.309  1.00  0.00     0.016 A 
ATOM     38  C   UNL A   1      39.068  24.785  28.294  1.00  0.00     0.016 A 
ATOM     39  C   UNL A   1      40.795  26.547  27.017  1.00  0.00     0.010 A 
ATOM     40  C   UNL A   1      39.524  25.938  28.954  1.00  0.00     0.010 A 
ATOM     41  C   UNL A   1      40.415  26.831  28.333  1.00  0.00    -0.014 A 
BRANCH  41  42
ATOM     42  C   UNL A   1      40.865  28.068  29.051  1.00  0.00     0.031 A 
ATOM     43  C   UNL A   1      42.182  28.073  29.792  1.00  0.00     0.074 A 
ATOM     44  C   UNL A   1      40.061  29.152  29.129  1.00  0.00     0.049 A 
ATOM     45  N   UNL A   1      42.575  28.830  30.785  1.00  0.00    -0.248 NA
ATOM     46  C   UNL A   1      43.180  27.074  29.374  1.00  0.00     0.031 C 
ATOM     47  C   UNL A   1      38.795  29.338  28.412  1.00  0.00     0.029 A 
ATOM     48  N   UNL A   1      40.171  30.301  29.880  1.00  0.00    -0.354 N 
ATOM     49  C   UNL A   1      43.824  28.346  31.167  1.00  0.00     0.074 A 
ATOM     50  C   UNL A   1      44.132  27.241  30.283  1.00  0.00     0.031 C 
ATOM     51  C   UNL A   1      38.261  30.522  28.739  1.00  0.00     0.029 A 
ATOM     52  C   UNL A   1      39.064  31.118  29.793  1.00  0.00     0.049 A 
ATOM     53  H   UNL A   1      40.962  30.517  30.426  1.00  0.00     0.167 HD
ATOM     54  C   UNL A   1      44.621  28.778  32.177  1.00  0.00     0.037 A 
ATOM     55  C   UNL A   1      38.676  32.176  30.532  1.00  0.00     0.037 A 
ATOM     56  C   UNL A   1      44.309  29.919  33.001  1.00  0.00     0.049 A 
ATOM     57  C   UNL A   1      39.537  32.601  31.685  1.00  0.00     0.074 A 
ATOM     58  C   UNL A   1      45.044  30.458  34.044  1.00  0.00     0.029 A 
ATOM     59  N   UNL A   1      43.175  30.708  32.865  1.00  0.00    -0.354 N 
ATOM     60  N   UNL A   1      40.671  32.086  32.095  1.00  0.00    -0.248 NA
ATOM     61  C   UNL A   1      39.059  33.732  32.491  1.00  0.00     0.031 C 
ATOM     62  C   UNL A   1      44.330  31.541  34.568  1.00  0.00     0.029 A 
ATOM     63  C   UNL A   1      43.181  31.717  33.814  1.00  0.00     0.049 A 
ATOM     64  H   UNL A   1      42.469  30.570  32.193  1.00  0.00     0.167 HD
ATOM     65  C   UNL A   1      41.062  32.853  33.184  1.00  0.00     0.074 A 
ATOM     66  C   UNL A   1      40.041  33.865  33.372  1.00  0.00     0.031 C 
ATOM     67  C   UNL A   1      42.168  32.733  33.957  1.00  0.00     0.037 A 
BRANCH  54  68
ATOM     68  C   UNL A   1      45.873  27.996  32.489  1.00  0.00     0.058 A 
ATOM     69  C   UNL A   1      47.125  28.324  31.947  1.00  0.00     0.135 A 
ATOM     70  C   UNL A   1      45.824  26.919  33.393  1.00  0.00     0.135 A 
ATOM     71  F   UNL A   1      47.238  29.334  31.069  1.00  0.00    -0.206 F 
ATOM     72  C   UNL A   1      48.271  27.597  32.262  1.00  0.00     0.059 A 
ATOM     73  C   UNL A   1      46.961  26.195  33.744  1.00  0.00     0.059 A 
ATOM     74  F   UNL A   1      44.656  26.559  33.951  1.00  0.00    -0.206 F 
ATOM     75  C   UNL A   1      48.179  26.531  33.159  1.00  0.00     0.060 A 
BRANCH  75  76
ATOM     76  S   UNL A   1      49.671  25.586  33.532  1.00  0.00     0.124 S 
ATOM     77  O   UNL A   1      50.388  26.510  34.409  1.00  0.00    -0.237 OA
ATOM     78  O   UNL A   1      49.133  24.394  34.180  1.00  0.00    -0.237 OA
ATOM     79  O   UNL A   1      50.278  25.367  32.223  1.00  0.00    -0.744 OA
ENDBRANCH  75  76
ENDBRANCH  54  68
BRANCH  55  80
ATOM     80  C   UNL A   1      37.381  32.856  30.242  1.00  0.00     0.058 A 
ATOM     81  C   UNL A   1      37.299  33.858  29.265  1.00  0.00     0.135 A 
ATOM     82  C   UNL A   1      36.196  32.498  30.908  1.00  0.00     0.135 A 
ATOM     83  F   UNL A   1      38.403  34.243  28.606  1.00  0.00    -0.206 F 
ATOM     84  C   UNL A   1      36.094  34.487  28.965  1.00  0.00     0.059 A 
ATOM     85  C   UNL A   1      34.974  33.090  30.602  1.00  0.00     0.059 A 
ATOM     86  F   UNL A   1      36.212  31.533  31.841  1.00  0.00    -0.206 F 
ATOM     87  C   UNL A   1      34.936  34.092  29.635  1.00  0.00     0.060 A 
BRANCH  87  88
ATOM     88  S   UNL A   1      33.371  34.884  29.203  1.00  0.00     0.124 S 
ATOM     89  O   UNL A   1      33.827  36.163  28.671  1.00  0.00    -0.237 OA
ATOM     90  O   UNL A   1      32.813  33.950  28.231  1.00  0.00    -0.237 OA
ATOM     91  O   UNL A   1      32.662  34.946  30.478  1.00  0.00    -0.744 OA
ENDBRANCH  87  88
ENDBRANCH  55  80
BRANCH  67  92
ATOM     92  C   UNL A   1      42.378  33.766  35.026  1.00  0.00     0.058 A 
ATOM     93  C   UNL A   1      41.831  33.628  36.309  1.00  0.00     0.135 A 
ATOM     94  C   UNL A   1      43.208  34.870  34.776  1.00  0.00     0.135 A 
ATOM     95  F   UNL A   1      41.019  32.598  36.592  1.00  0.00    -0.206 F 
ATOM     96  C   UNL A   1      42.101  34.553  37.312  1.00  0.00     0.059 A 
ATOM     97  C   UNL A   1      43.513  35.792  35.770  1.00  0.00     0.059 A 
ATOM     98  F   UNL A   1      43.755  35.043  33.562  1.00  0.00    -0.206 F 
ATOM     99  C   UNL A   1      42.953  35.625  37.035  1.00  0.00     0.060 A 
BRANCH  99 100
ATOM    100  S   UNL A   1      43.358  36.773  38.367  1.00  0.00     0.124 S 
ATOM    101  O   UNL A   1      44.663  36.281  38.795  1.00  0.00    -0.237 OA
ATOM    102  O   UNL A   1      43.360  38.061  37.679  1.00  0.00    -0.237 OA
ATOM    103  O   UNL A   1      42.271  36.583  39.323  1.00  0.00    -0.744 OA
ENDBRANCH  99 100
ENDBRANCH  67  92
ENDBRANCH  41  42
ENDBRANCH  34  36
ENDBRANCH  33  34
ENDBRANCH  32  33
ENDBRANCH   1  32
TORSDOF 19
ENDMDL
