MODEL 1
REMARK VINA RESULT:     -13.9      0.000      0.000
REMARK SMILES Cc1ccc(-c2ncc(C(=O)OCCOC(=O)c3ccc(-c4c5nc(c(-c6c(F)cc(S(=O)(=O)[O-])cc6F)c6ccc([nH]6)c(-c6c(F)cc(S(=O)(=O)[O-])cc6F)c6nc(c(-c7c(F)cc(S(=O)(=O)[O-])cc7F)c7ccc4[nH]7)C=C6)C=C5)cc3)c(Nc3ccccc3)n2)cc1
REMARK SMILES IDX 14 1 13 2 12 3 10 4 11 5 9 6 6 7 7 8 92 9 8 10 84 11 5 12
REMARK SMILES IDX 1 13 2 14 3 15 94 16 4 17 93 18 85 19 86 21 87 22 91 23
REMARK SMILES IDX 88 24 90 25 89 26 15 27 16 28 17 29 18 30 19 31 83 32 20 33
REMARK SMILES IDX 82 34 21 35 22 36 23 37 76 38 24 39 81 40 75 41 77 42 25 43
REMARK SMILES IDX 80 44 74 45 73 46 26 48 60 49 39 50 59 51 40 52 43 53 58 54
REMARK SMILES IDX 78 55 41 56 42 57 57 59 79 60 44 61 27 62 28 63 37 64 29 65
REMARK SMILES IDX 30 66 36 67 38 68 31 69 32 70 33 71 34 72 35 73 61 74 62 75
REMARK SMILES IDX 71 76 63 77 64 78 70 79 72 80 65 81 66 82 67 83 68 84 69 85
REMARK SMILES IDX 45 86 46 87 55 88 47 89 48 90 54 91 56 92 49 93 50 94 51 95
REMARK SMILES IDX 52 96 53 97
REMARK H PARENT 85 20 77 47 43 58
REMARK Flexibility Score: inf
ROOT
ATOM      1  C   UNL A   1      34.474  29.215  27.544  1.00  0.00     0.275 C 
ENDROOT
BRANCH   1   2
ATOM      2  C   UNL A   1      32.989  29.353  27.154  1.00  0.00     0.275 C 
BRANCH   2   3
ATOM      3  O   UNL A   1      32.593  28.483  26.065  1.00  0.00    -0.458 OA
BRANCH   3   4
ATOM      4  C   UNL A   1      31.688  27.538  26.440  1.00  0.00     0.343 C 
ATOM      5  O   UNL A   1      31.108  27.516  27.510  1.00  0.00    -0.246 OA
BRANCH   4   6
ATOM      6  C   UNL A   1      31.723  26.318  25.636  1.00  0.00     0.121 A 
ATOM      7  C   UNL A   1      32.003  23.791  24.756  1.00  0.00     0.161 A 
ATOM      8  N   UNL A   1      32.940  24.226  25.605  1.00  0.00    -0.236 NA
ATOM      9  N   UNL A   1      30.976  24.518  24.301  1.00  0.00    -0.210 NA
ATOM     10  C   UNL A   1      32.766  25.488  26.024  1.00  0.00     0.133 A 
ATOM     11  C   UNL A   1      30.798  25.781  24.752  1.00  0.00     0.149 A 
BRANCH   7  12
ATOM     12  C   UNL A   1      32.129  22.437  24.242  1.00  0.00     0.019 A 
ATOM     13  C   UNL A   1      32.366  18.386  22.792  1.00  0.00     0.044 C 
ATOM     14  C   UNL A   1      32.304  19.793  23.299  1.00  0.00    -0.051 A 
ATOM     15  C   UNL A   1      32.077  20.849  22.406  1.00  0.00     0.004 A 
ATOM     16  C   UNL A   1      32.478  20.069  24.657  1.00  0.00     0.004 A 
ATOM     17  C   UNL A   1      31.982  22.159  22.876  1.00  0.00     0.012 A 
ATOM     18  C   UNL A   1      32.402  21.379  25.121  1.00  0.00     0.012 A 
ENDBRANCH   7  12
BRANCH  11  19
ATOM     19  N   UNL A   1      29.628  26.405  24.308  1.00  0.00    -0.339 N 
ATOM     20  H   UNL A   1      28.776  25.987  24.573  1.00  0.00     0.168 HD
BRANCH  19  21
ATOM     21  C   UNL A   1      29.540  27.583  23.512  1.00  0.00     0.040 A 
ATOM     22  C   UNL A   1      28.306  28.226  23.348  1.00  0.00     0.026 A 
ATOM     23  C   UNL A   1      30.663  28.180  22.916  1.00  0.00     0.026 A 
ATOM     24  C   UNL A   1      28.181  29.389  22.576  1.00  0.00     0.002 A 
ATOM     25  C   UNL A   1      30.543  29.344  22.141  1.00  0.00     0.002 A 
ATOM     26  C   UNL A   1      29.300  29.947  21.968  1.00  0.00     0.000 A 
ENDBRANCH  19  21
ENDBRANCH  11  19
ENDBRANCH   4   6
ENDBRANCH   3   4
ENDBRANCH   2   3
ENDBRANCH   1   2
BRANCH   1  27
ATOM     27  O   UNL A   1      35.346  30.341  27.304  1.00  0.00    -0.458 OA
BRANCH  27  28
ATOM     28  C   UNL A   1      36.211  30.650  28.303  1.00  0.00     0.338 C 
ATOM     29  O   UNL A   1      35.931  31.395  29.238  1.00  0.00    -0.246 OA
BRANCH  28  30
ATOM     30  C   UNL A   1      37.306  29.642  28.282  1.00  0.00     0.060 A 
ATOM     31  C   UNL A   1      38.225  29.675  27.228  1.00  0.00     0.016 A 
ATOM     32  C   UNL A   1      37.612  28.951  29.459  1.00  0.00     0.016 A 
ATOM     33  C   UNL A   1      39.503  29.154  27.384  1.00  0.00     0.010 A 
ATOM     34  C   UNL A   1      38.898  28.506  29.652  1.00  0.00     0.010 A 
ATOM     35  C   UNL A   1      39.840  28.607  28.617  1.00  0.00    -0.014 A 
BRANCH  35  36
ATOM     36  C   UNL A   1      41.026  27.801  28.822  1.00  0.00     0.031 A 
ATOM     37  C   UNL A   1      41.121  26.369  28.458  1.00  0.00     0.074 A 
ATOM     38  C   UNL A   1      42.052  28.556  29.276  1.00  0.00     0.049 A 
ATOM     39  N   UNL A   1      42.036  25.580  28.906  1.00  0.00    -0.248 NA
ATOM     40  C   UNL A   1      40.189  25.676  27.569  1.00  0.00     0.031 C 
ATOM     41  C   UNL A   1      43.459  28.232  29.385  1.00  0.00     0.029 A 
ATOM     42  N   UNL A   1      41.956  29.806  29.917  1.00  0.00    -0.354 N 
ATOM     43  C   UNL A   1      42.009  24.414  28.160  1.00  0.00     0.074 A 
ATOM     44  C   UNL A   1      40.777  24.480  27.416  1.00  0.00     0.031 C 
ATOM     45  C   UNL A   1      43.997  29.037  30.320  1.00  0.00     0.029 A 
ATOM     46  C   UNL A   1      42.894  29.767  30.939  1.00  0.00     0.049 A 
ATOM     47  H   UNL A   1      41.351  30.549  29.688  1.00  0.00     0.167 HD
ATOM     48  C   UNL A   1      43.124  23.622  28.145  1.00  0.00     0.037 A 
ATOM     49  C   UNL A   1      42.526  29.682  32.253  1.00  0.00     0.037 A 
ATOM     50  C   UNL A   1      44.108  24.162  29.078  1.00  0.00     0.049 A 
ATOM     51  C   UNL A   1      43.114  28.434  32.865  1.00  0.00     0.074 A 
ATOM     52  C   UNL A   1      45.147  25.057  28.885  1.00  0.00     0.029 A 
ATOM     53  N   UNL A   1      43.851  24.133  30.444  1.00  0.00    -0.354 N 
ATOM     54  N   UNL A   1      43.232  27.293  32.235  1.00  0.00    -0.248 NA
ATOM     55  C   UNL A   1      43.758  28.437  34.173  1.00  0.00     0.031 C 
ATOM     56  C   UNL A   1      45.447  25.647  30.137  1.00  0.00     0.029 A 
ATOM     57  C   UNL A   1      44.601  25.099  31.088  1.00  0.00     0.049 A 
ATOM     58  H   UNL A   1      43.225  23.516  30.887  1.00  0.00     0.167 HD
ATOM     59  C   UNL A   1      44.046  26.468  32.972  1.00  0.00     0.074 A 
ATOM     60  C   UNL A   1      44.318  27.216  34.190  1.00  0.00     0.031 C 
ATOM     61  C   UNL A   1      44.532  25.269  32.527  1.00  0.00     0.037 A 
BRANCH  48  62
ATOM     62  C   UNL A   1      43.470  22.588  27.083  1.00  0.00     0.058 A 
ATOM     63  C   UNL A   1      42.745  21.372  27.015  1.00  0.00     0.135 A 
ATOM     64  C   UNL A   1      44.511  22.696  26.141  1.00  0.00     0.135 A 
ATOM     65  F   UNL A   1      41.683  21.139  27.799  1.00  0.00    -0.206 F 
ATOM     66  C   UNL A   1      43.075  20.323  26.156  1.00  0.00     0.059 A 
ATOM     67  C   UNL A   1      44.878  21.644  25.283  1.00  0.00     0.059 A 
ATOM     68  F   UNL A   1      45.192  23.840  25.990  1.00  0.00    -0.206 F 
ATOM     69  C   UNL A   1      44.161  20.454  25.308  1.00  0.00     0.060 A 
BRANCH  69  70
ATOM     70  S   UNL A   1      44.592  19.056  24.249  1.00  0.00     0.124 S 
ATOM     71  O   UNL A   1      43.629  18.044  24.672  1.00  0.00    -0.237 OA
ATOM     72  O   UNL A   1      44.386  19.606  22.913  1.00  0.00    -0.237 OA
ATOM     73  O   UNL A   1      45.981  18.776  24.602  1.00  0.00    -0.744 OA
ENDBRANCH  69  70
ENDBRANCH  48  62
BRANCH  49  74
ATOM     74  C   UNL A   1      41.231  30.339  32.622  1.00  0.00     0.058 A 
ATOM     75  C   UNL A   1      40.228  29.517  33.172  1.00  0.00     0.135 A 
ATOM     76  C   UNL A   1      41.051  31.726  32.763  1.00  0.00     0.135 A 
ATOM     77  F   UNL A   1      40.315  28.182  33.050  1.00  0.00    -0.206 F 
ATOM     78  C   UNL A   1      39.189  30.022  33.947  1.00  0.00     0.059 A 
ATOM     79  C   UNL A   1      39.999  32.262  33.531  1.00  0.00     0.059 A 
ATOM     80  F   UNL A   1      41.951  32.577  32.250  1.00  0.00    -0.206 F 
ATOM     81  C   UNL A   1      39.106  31.393  34.165  1.00  0.00     0.060 A 
BRANCH  81  82
ATOM     82  S   UNL A   1      37.958  31.949  35.456  1.00  0.00     0.124 S 
ATOM     83  O   UNL A   1      37.840  30.762  36.295  1.00  0.00    -0.237 OA
ATOM     84  O   UNL A   1      38.681  33.075  36.043  1.00  0.00    -0.237 OA
ATOM     85  O   UNL A   1      36.766  32.323  34.714  1.00  0.00    -0.744 OA
ENDBRANCH  81  82
ENDBRANCH  49  74
BRANCH  61  86
ATOM     86  C   UNL A   1      45.153  24.206  33.400  1.00  0.00     0.058 A 
ATOM     87  C   UNL A   1      46.469  24.281  33.880  1.00  0.00     0.135 A 
ATOM     88  C   UNL A   1      44.371  23.143  33.921  1.00  0.00     0.135 A 
ATOM     89  F   UNL A   1      47.269  25.312  33.572  1.00  0.00    -0.206 F 
ATOM     90  C   UNL A   1      47.007  23.323  34.734  1.00  0.00     0.059 A 
ATOM     91  C   UNL A   1      44.868  22.213  34.826  1.00  0.00     0.059 A 
ATOM     92  F   UNL A   1      43.083  22.978  33.585  1.00  0.00    -0.206 F 
ATOM     93  C   UNL A   1      46.200  22.290  35.199  1.00  0.00     0.060 A 
BRANCH  93  94
ATOM     94  S   UNL A   1      46.882  21.070  36.330  1.00  0.00     0.124 S 
ATOM     95  O   UNL A   1      48.031  20.586  35.571  1.00  0.00    -0.237 OA
ATOM     96  O   UNL A   1      47.199  21.867  37.511  1.00  0.00    -0.237 OA
ATOM     97  O   UNL A   1      45.788  20.121  36.499  1.00  0.00    -0.744 OA
ENDBRANCH  93  94
ENDBRANCH  61  86
ENDBRANCH  35  36
ENDBRANCH  28  30
ENDBRANCH  27  28
ENDBRANCH   1  27
TORSDOF 17
ENDMDL
MODEL 2
REMARK VINA RESULT:     -13.9      1.126      1.925
REMARK SMILES Cc1ccc(-c2ncc(C(=O)OCCOC(=O)c3ccc(-c4c5nc(c(-c6c(F)cc(S(=O)(=O)[O-])cc6F)c6ccc([nH]6)c(-c6c(F)cc(S(=O)(=O)[O-])cc6F)c6nc(c(-c7c(F)cc(S(=O)(=O)[O-])cc7F)c7ccc4[nH]7)C=C6)C=C5)cc3)c(Nc3ccccc3)n2)cc1
REMARK SMILES IDX 14 1 13 2 12 3 10 4 11 5 9 6 6 7 7 8 92 9 8 10 84 11 5 12
REMARK SMILES IDX 1 13 2 14 3 15 94 16 4 17 93 18 85 19 86 21 87 22 91 23
REMARK SMILES IDX 88 24 90 25 89 26 15 27 16 28 17 29 18 30 19 31 83 32 20 33
REMARK SMILES IDX 82 34 21 35 22 36 23 37 76 38 24 39 81 40 75 41 77 42 25 43
REMARK SMILES IDX 80 44 74 45 73 46 26 48 60 49 39 50 59 51 40 52 43 53 58 54
REMARK SMILES IDX 78 55 41 56 42 57 57 59 79 60 44 61 27 62 28 63 37 64 29 65
REMARK SMILES IDX 30 66 36 67 38 68 31 69 32 70 33 71 34 72 35 73 61 74 62 75
REMARK SMILES IDX 71 76 63 77 64 78 70 79 72 80 65 81 66 82 67 83 68 84 69 85
REMARK SMILES IDX 45 86 46 87 55 88 47 89 48 90 54 91 56 92 49 93 50 94 51 95
REMARK SMILES IDX 52 96 53 97
REMARK H PARENT 85 20 77 47 43 58
REMARK Flexibility Score: inf
ROOT
ATOM      1  C   UNL A   1      33.773  29.522  26.894  1.00  0.00     0.275 C 
ENDROOT
BRANCH   1   2
ATOM      2  C   UNL A   1      33.349  28.451  25.869  1.00  0.00     0.275 C 
BRANCH   2   3
ATOM      3  O   UNL A   1      33.522  27.094  26.345  1.00  0.00    -0.458 OA
BRANCH   3   4
ATOM      4  C   UNL A   1      32.375  26.361  26.295  1.00  0.00     0.343 C 
ATOM      5  O   UNL A   1      31.390  26.564  26.979  1.00  0.00    -0.246 OA
BRANCH   4   6
ATOM      6  C   UNL A   1      32.519  25.063  25.639  1.00  0.00     0.121 A 
ATOM      7  C   UNL A   1      33.031  22.488  25.055  1.00  0.00     0.161 A 
ATOM      8  N   UNL A   1      33.931  23.106  25.826  1.00  0.00    -0.236 NA
ATOM      9  N   UNL A   1      31.934  23.056  24.541  1.00  0.00    -0.210 NA
ATOM     10  C   UNL A   1      33.641  24.387  26.098  1.00  0.00     0.133 A 
ATOM     11  C   UNL A   1      31.640  24.341  24.845  1.00  0.00     0.149 A 
BRANCH   7  12
ATOM     12  C   UNL A   1      33.281  21.100  24.700  1.00  0.00     0.019 A 
ATOM     13  C   UNL A   1      34.022  17.030  23.495  1.00  0.00     0.044 C 
ATOM     14  C   UNL A   1      33.752  18.437  23.928  1.00  0.00    -0.051 A 
ATOM     15  C   UNL A   1      34.732  19.154  24.626  1.00  0.00     0.004 A 
ATOM     16  C   UNL A   1      32.524  19.044  23.649  1.00  0.00     0.004 A 
ATOM     17  C   UNL A   1      34.500  20.478  25.002  1.00  0.00     0.012 A 
ATOM     18  C   UNL A   1      32.289  20.359  24.042  1.00  0.00     0.012 A 
ENDBRANCH   7  12
BRANCH  11  19
ATOM     19  N   UNL A   1      30.410  24.795  24.357  1.00  0.00    -0.339 N 
ATOM     20  H   UNL A   1      29.649  24.174  24.431  1.00  0.00     0.168 HD
BRANCH  19  21
ATOM     21  C   UNL A   1      30.145  26.062  23.764  1.00  0.00     0.040 A 
ATOM     22  C   UNL A   1      31.125  26.687  22.981  1.00  0.00     0.026 A 
ATOM     23  C   UNL A   1      28.902  26.706  23.877  1.00  0.00     0.026 A 
ATOM     24  C   UNL A   1      30.898  27.931  22.377  1.00  0.00     0.002 A 
ATOM     25  C   UNL A   1      28.670  27.953  23.275  1.00  0.00     0.002 A 
ATOM     26  C   UNL A   1      29.671  28.568  22.527  1.00  0.00     0.000 A 
ENDBRANCH  19  21
ENDBRANCH  11  19
ENDBRANCH   4   6
ENDBRANCH   3   4
ENDBRANCH   2   3
ENDBRANCH   1   2
BRANCH   1  27
ATOM     27  O   UNL A   1      34.972  29.288  27.663  1.00  0.00    -0.458 OA
BRANCH  27  28
ATOM     28  C   UNL A   1      35.748  30.375  27.905  1.00  0.00     0.338 C 
ATOM     29  O   UNL A   1      35.300  31.504  28.084  1.00  0.00    -0.246 OA
BRANCH  28  30
ATOM     30  C   UNL A   1      37.091  29.888  28.322  1.00  0.00     0.060 A 
ATOM     31  C   UNL A   1      37.180  29.033  29.426  1.00  0.00     0.016 A 
ATOM     32  C   UNL A   1      38.155  29.981  27.419  1.00  0.00     0.016 A 
ATOM     33  C   UNL A   1      38.250  28.160  29.564  1.00  0.00     0.010 A 
ATOM     34  C   UNL A   1      39.178  29.066  27.502  1.00  0.00     0.010 A 
ATOM     35  C   UNL A   1      39.225  28.159  28.571  1.00  0.00    -0.014 A 
BRANCH  35  36
ATOM     36  C   UNL A   1      40.507  27.503  28.729  1.00  0.00     0.031 A 
ATOM     37  C   UNL A   1      40.759  26.090  28.365  1.00  0.00     0.074 A 
ATOM     38  C   UNL A   1      41.452  28.379  29.140  1.00  0.00     0.049 A 
ATOM     39  N   UNL A   1      41.779  25.420  28.777  1.00  0.00    -0.248 NA
ATOM     40  C   UNL A   1      39.882  25.284  27.516  1.00  0.00     0.031 C 
ATOM     41  C   UNL A   1      42.890  28.227  29.192  1.00  0.00     0.029 A 
ATOM     42  N   UNL A   1      41.231  29.613  29.781  1.00  0.00    -0.354 N 
ATOM     43  C   UNL A   1      41.863  24.254  28.035  1.00  0.00     0.074 A 
ATOM     44  C   UNL A   1      40.604  24.166  27.342  1.00  0.00     0.031 C 
ATOM     45  C   UNL A   1      43.365  29.097  30.104  1.00  0.00     0.029 A 
ATOM     46  C   UNL A   1      42.207  29.694  30.765  1.00  0.00     0.049 A 
ATOM     47  H   UNL A   1      40.533  30.276  29.576  1.00  0.00     0.167 HD
ATOM     48  C   UNL A   1      43.064  23.602  27.978  1.00  0.00     0.037 A 
ATOM     49  C   UNL A   1      41.904  29.575  32.093  1.00  0.00     0.037 A 
ATOM     50  C   UNL A   1      44.012  24.263  28.869  1.00  0.00     0.049 A 
ATOM     51  C   UNL A   1      42.663  28.411  32.683  1.00  0.00     0.074 A 
ATOM     52  C   UNL A   1      44.928  25.274  28.632  1.00  0.00     0.029 A 
ATOM     53  N   UNL A   1      43.815  24.213  30.244  1.00  0.00    -0.354 N 
ATOM     54  N   UNL A   1      42.892  27.288  32.052  1.00  0.00    -0.248 NA
ATOM     55  C   UNL A   1      43.353  28.501  33.965  1.00  0.00     0.031 C 
ATOM     56  C   UNL A   1      45.203  25.905  29.869  1.00  0.00     0.029 A 
ATOM     57  C   UNL A   1      44.469  25.266  30.855  1.00  0.00     0.049 A 
ATOM     58  H   UNL A   1      43.286  23.528  30.713  1.00  0.00     0.167 HD
ATOM     59  C   UNL A   1      43.829  26.572  32.757  1.00  0.00     0.074 A 
ATOM     60  C   UNL A   1      44.056  27.356  33.961  1.00  0.00     0.031 C 
ATOM     61  C   UNL A   1      44.437  25.437  32.295  1.00  0.00     0.037 A 
BRANCH  48  62
ATOM     62  C   UNL A   1      43.489  22.610  26.905  1.00  0.00     0.058 A 
ATOM     63  C   UNL A   1      42.926  21.309  26.879  1.00  0.00     0.135 A 
ATOM     64  C   UNL A   1      44.460  22.841  25.912  1.00  0.00     0.135 A 
ATOM     65  F   UNL A   1      41.943  20.949  27.715  1.00  0.00    -0.206 F 
ATOM     66  C   UNL A   1      43.348  20.302  26.010  1.00  0.00     0.059 A 
ATOM     67  C   UNL A   1      44.919  21.835  25.042  1.00  0.00     0.059 A 
ATOM     68  F   UNL A   1      44.979  24.062  25.722  1.00  0.00    -0.206 F 
ATOM     69  C   UNL A   1      44.366  20.563  25.108  1.00  0.00     0.060 A 
BRANCH  69  70
ATOM     70  S   UNL A   1      44.922  19.221  24.036  1.00  0.00     0.124 S 
ATOM     71  O   UNL A   1      46.360  19.206  24.284  1.00  0.00    -0.237 OA
ATOM     72  O   UNL A   1      44.178  18.080  24.560  1.00  0.00    -0.237 OA
ATOM     73  O   UNL A   1      44.528  19.664  22.702  1.00  0.00    -0.744 OA
ENDBRANCH  69  70
ENDBRANCH  48  62
BRANCH  49  74
ATOM     74  C   UNL A   1      40.556  30.074  32.513  1.00  0.00     0.058 A 
ATOM     75  C   UNL A   1      40.331  31.463  32.433  1.00  0.00     0.135 A 
ATOM     76  C   UNL A   1      39.418  29.263  32.668  1.00  0.00     0.135 A 
ATOM     77  F   UNL A   1      41.373  32.303  32.315  1.00  0.00    -0.206 F 
ATOM     78  C   UNL A   1      39.055  32.010  32.357  1.00  0.00     0.059 A 
ATOM     79  C   UNL A   1      38.116  29.796  32.609  1.00  0.00     0.059 A 
ATOM     80  F   UNL A   1      39.547  27.933  32.772  1.00  0.00    -0.206 F 
ATOM     81  C   UNL A   1      37.949  31.168  32.397  1.00  0.00     0.060 A 
BRANCH  81  82
ATOM     82  S   UNL A   1      36.350  31.895  31.940  1.00  0.00     0.124 S 
ATOM     83  O   UNL A   1      36.715  32.774  30.835  1.00  0.00    -0.237 OA
ATOM     84  O   UNL A   1      35.568  30.713  31.583  1.00  0.00    -0.237 OA
ATOM     85  O   UNL A   1      35.915  32.555  33.160  1.00  0.00    -0.744 OA
ENDBRANCH  81  82
ENDBRANCH  49  74
BRANCH  61  86
ATOM     86  C   UNL A   1      45.215  24.462  33.145  1.00  0.00     0.058 A 
ATOM     87  C   UNL A   1      46.507  24.726  33.626  1.00  0.00     0.135 A 
ATOM     88  C   UNL A   1      44.607  23.282  33.643  1.00  0.00     0.135 A 
ATOM     89  F   UNL A   1      47.139  25.874  33.339  1.00  0.00    -0.206 F 
ATOM     90  C   UNL A   1      47.187  23.843  34.459  1.00  0.00     0.059 A 
ATOM     91  C   UNL A   1      45.243  22.420  34.528  1.00  0.00     0.059 A 
ATOM     92  F   UNL A   1      43.357  22.931  33.305  1.00  0.00    -0.206 F 
ATOM     93  C   UNL A   1      46.548  22.690  34.902  1.00  0.00     0.060 A 
BRANCH  93  94
ATOM     94  S   UNL A   1      47.413  21.564  36.006  1.00  0.00     0.124 S 
ATOM     95  O   UNL A   1      48.677  22.267  36.200  1.00  0.00    -0.237 OA
ATOM     96  O   UNL A   1      46.533  21.516  37.170  1.00  0.00    -0.237 OA
ATOM     97  O   UNL A   1      47.486  20.329  35.234  1.00  0.00    -0.744 OA
ENDBRANCH  93  94
ENDBRANCH  61  86
ENDBRANCH  35  36
ENDBRANCH  28  30
ENDBRANCH  27  28
ENDBRANCH   1  27
TORSDOF 17
ENDMDL
MODEL 3
REMARK VINA RESULT:     -13.8      4.584     11.177
REMARK SMILES Cc1ccc(-c2ncc(C(=O)OCCOC(=O)c3ccc(-c4c5nc(c(-c6c(F)cc(S(=O)(=O)[O-])cc6F)c6ccc([nH]6)c(-c6c(F)cc(S(=O)(=O)[O-])cc6F)c6nc(c(-c7c(F)cc(S(=O)(=O)[O-])cc7F)c7ccc4[nH]7)C=C6)C=C5)cc3)c(Nc3ccccc3)n2)cc1
REMARK SMILES IDX 14 1 13 2 12 3 10 4 11 5 9 6 6 7 7 8 92 9 8 10 84 11 5 12
REMARK SMILES IDX 1 13 2 14 3 15 94 16 4 17 93 18 85 19 86 21 87 22 91 23
REMARK SMILES IDX 88 24 90 25 89 26 15 27 16 28 17 29 18 30 19 31 83 32 20 33
REMARK SMILES IDX 82 34 21 35 22 36 23 37 76 38 24 39 81 40 75 41 77 42 25 43
REMARK SMILES IDX 80 44 74 45 73 46 26 48 60 49 39 50 59 51 40 52 43 53 58 54
REMARK SMILES IDX 78 55 41 56 42 57 57 59 79 60 44 61 27 62 28 63 37 64 29 65
REMARK SMILES IDX 30 66 36 67 38 68 31 69 32 70 33 71 34 72 35 73 61 74 62 75
REMARK SMILES IDX 71 76 63 77 64 78 70 79 72 80 65 81 66 82 67 83 68 84 69 85
REMARK SMILES IDX 45 86 46 87 55 88 47 89 48 90 54 91 56 92 49 93 50 94 51 95
REMARK SMILES IDX 52 96 53 97
REMARK H PARENT 85 20 77 47 43 58
REMARK Flexibility Score: inf
ROOT
ATOM      1  C   UNL A   1      37.689  23.057  25.779  1.00  0.00     0.275 C 
ENDROOT
BRANCH   1   2
ATOM      2  C   UNL A   1      36.351  23.223  25.032  1.00  0.00     0.275 C 
BRANCH   2   3
ATOM      3  O   UNL A   1      35.603  24.396  25.436  1.00  0.00    -0.458 OA
BRANCH   3   4
ATOM      4  C   UNL A   1      34.507  24.098  26.186  1.00  0.00     0.343 C 
ATOM      5  O   UNL A   1      34.387  23.102  26.875  1.00  0.00    -0.246 OA
BRANCH   4   6
ATOM      6  C   UNL A   1      33.309  24.852  25.828  1.00  0.00     0.121 A 
ATOM      7  C   UNL A   1      31.546  26.572  24.744  1.00  0.00     0.161 A 
ATOM      8  N   UNL A   1      32.760  27.064  25.011  1.00  0.00    -0.236 NA
ATOM      9  N   UNL A   1      31.147  25.321  25.000  1.00  0.00    -0.210 NA
ATOM     10  C   UNL A   1      33.612  26.178  25.547  1.00  0.00     0.133 A 
ATOM     11  C   UNL A   1      32.024  24.430  25.517  1.00  0.00     0.149 A 
BRANCH   7  12
ATOM     12  C   UNL A   1      30.558  27.474  24.175  1.00  0.00     0.019 A 
ATOM     13  C   UNL A   1      27.728  30.173  22.366  1.00  0.00     0.044 C 
ATOM     14  C   UNL A   1      28.706  29.243  23.013  1.00  0.00    -0.051 A 
ATOM     15  C   UNL A   1      28.406  27.880  23.128  1.00  0.00     0.004 A 
ATOM     16  C   UNL A   1      29.920  29.723  23.512  1.00  0.00     0.004 A 
ATOM     17  C   UNL A   1      29.329  27.002  23.698  1.00  0.00     0.012 A 
ATOM     18  C   UNL A   1      30.831  28.848  24.097  1.00  0.00     0.012 A 
ENDBRANCH   7  12
BRANCH  11  19
ATOM     19  N   UNL A   1      31.539  23.123  25.628  1.00  0.00    -0.339 N 
ATOM     20  H   UNL A   1      30.916  22.944  26.369  1.00  0.00     0.168 HD
BRANCH  19  21
ATOM     21  C   UNL A   1      31.855  22.023  24.781  1.00  0.00     0.040 A 
ATOM     22  C   UNL A   1      31.843  22.186  23.389  1.00  0.00     0.026 A 
ATOM     23  C   UNL A   1      32.242  20.769  25.280  1.00  0.00     0.026 A 
ATOM     24  C   UNL A   1      32.153  21.128  22.524  1.00  0.00     0.002 A 
ATOM     25  C   UNL A   1      32.552  19.705  24.418  1.00  0.00     0.002 A 
ATOM     26  C   UNL A   1      32.503  19.885  23.038  1.00  0.00     0.000 A 
ENDBRANCH  19  21
ENDBRANCH  11  19
ENDBRANCH   4   6
ENDBRANCH   3   4
ENDBRANCH   2   3
ENDBRANCH   1   2
BRANCH   1  27
ATOM     27  O   UNL A   1      38.378  24.251  26.209  1.00  0.00    -0.458 OA
BRANCH  27  28
ATOM     28  C   UNL A   1      39.592  24.064  26.788  1.00  0.00     0.338 C 
ATOM     29  O   UNL A   1      40.346  23.139  26.501  1.00  0.00    -0.246 OA
BRANCH  28  30
ATOM     30  C   UNL A   1      39.981  25.341  27.446  1.00  0.00     0.060 A 
ATOM     31  C   UNL A   1      40.380  26.413  26.641  1.00  0.00     0.016 A 
ATOM     32  C   UNL A   1      39.596  25.563  28.772  1.00  0.00     0.016 A 
ATOM     33  C   UNL A   1      40.262  27.722  27.092  1.00  0.00     0.010 A 
ATOM     34  C   UNL A   1      39.399  26.855  29.198  1.00  0.00     0.010 A 
ATOM     35  C   UNL A   1      39.731  27.930  28.361  1.00  0.00    -0.014 A 
BRANCH  35  36
ATOM     36  C   UNL A   1      39.805  29.206  29.044  1.00  0.00     0.031 A 
ATOM     37  C   UNL A   1      38.758  30.249  28.955  1.00  0.00     0.074 A 
ATOM     38  C   UNL A   1      40.890  29.261  29.850  1.00  0.00     0.049 A 
ATOM     39  N   UNL A   1      38.947  31.478  29.294  1.00  0.00    -0.248 NA
ATOM     40  C   UNL A   1      37.401  30.022  28.461  1.00  0.00     0.031 C 
ATOM     41  C   UNL A   1      41.225  30.220  30.881  1.00  0.00     0.029 A 
ATOM     42  N   UNL A   1      42.049  28.468  29.753  1.00  0.00    -0.354 N 
ATOM     43  C   UNL A   1      37.715  32.106  29.362  1.00  0.00     0.074 A 
ATOM     44  C   UNL A   1      36.799  31.190  28.733  1.00  0.00     0.031 C 
ATOM     45  C   UNL A   1      42.560  30.192  31.053  1.00  0.00     0.029 A 
ATOM     46  C   UNL A   1      43.106  29.332  30.006  1.00  0.00     0.049 A 
ATOM     47  H   UNL A   1      42.099  27.507  29.549  1.00  0.00     0.167 HD
ATOM     48  C   UNL A   1      37.606  33.252  30.100  1.00  0.00     0.037 A 
ATOM     49  C   UNL A   1      43.963  29.733  29.018  1.00  0.00     0.037 A 
ATOM     50  C   UNL A   1      38.929  33.643  30.577  1.00  0.00     0.049 A 
ATOM     51  C   UNL A   1      43.924  31.236  28.892  1.00  0.00     0.074 A 
ATOM     52  C   UNL A   1      39.594  33.344  31.755  1.00  0.00     0.029 A 
ATOM     53  N   UNL A   1      39.891  34.071  29.669  1.00  0.00    -0.354 N 
ATOM     54  N   UNL A   1      42.840  31.957  29.027  1.00  0.00    -0.248 NA
ATOM     55  C   UNL A   1      45.135  32.039  28.768  1.00  0.00     0.031 C 
ATOM     56  C   UNL A   1      40.981  33.497  31.517  1.00  0.00     0.029 A 
ATOM     57  C   UNL A   1      41.154  33.902  30.203  1.00  0.00     0.049 A 
ATOM     58  H   UNL A   1      39.699  34.438  28.777  1.00  0.00     0.167 HD
ATOM     59  C   UNL A   1      43.201  33.279  29.129  1.00  0.00     0.074 A 
ATOM     60  C   UNL A   1      44.641  33.279  28.924  1.00  0.00     0.031 C 
ATOM     61  C   UNL A   1      42.341  34.288  29.463  1.00  0.00     0.037 A 
BRANCH  48  62
ATOM     62  C   UNL A   1      36.317  33.828  30.668  1.00  0.00     0.058 A 
ATOM     63  C   UNL A   1      35.345  34.383  29.799  1.00  0.00     0.135 A 
ATOM     64  C   UNL A   1      35.988  33.911  32.035  1.00  0.00     0.135 A 
ATOM     65  F   UNL A   1      35.476  34.327  28.467  1.00  0.00    -0.206 F 
ATOM     66  C   UNL A   1      34.196  35.039  30.243  1.00  0.00     0.059 A 
ATOM     67  C   UNL A   1      34.850  34.589  32.508  1.00  0.00     0.059 A 
ATOM     68  F   UNL A   1      36.739  33.307  32.966  1.00  0.00    -0.206 F 
ATOM     69  C   UNL A   1      33.965  35.163  31.603  1.00  0.00     0.060 A 
BRANCH  69  70
ATOM     70  S   UNL A   1      32.498  36.065  32.142  1.00  0.00     0.124 S 
ATOM     71  O   UNL A   1      33.011  36.844  33.264  1.00  0.00    -0.237 OA
ATOM     72  O   UNL A   1      32.150  36.829  30.948  1.00  0.00    -0.237 OA
ATOM     73  O   UNL A   1      31.559  35.006  32.501  1.00  0.00    -0.744 OA
ENDBRANCH  69  70
ENDBRANCH  48  62
BRANCH  49  74
ATOM     74  C   UNL A   1      44.216  28.746  27.920  1.00  0.00     0.058 A 
ATOM     75  C   UNL A   1      44.958  27.595  28.250  1.00  0.00     0.135 A 
ATOM     76  C   UNL A   1      43.519  28.714  26.700  1.00  0.00     0.135 A 
ATOM     77  F   UNL A   1      45.675  27.563  29.386  1.00  0.00    -0.206 F 
ATOM     78  C   UNL A   1      44.896  26.425  27.500  1.00  0.00     0.059 A 
ATOM     79  C   UNL A   1      43.454  27.546  25.916  1.00  0.00     0.059 A 
ATOM     80  F   UNL A   1      42.805  29.777  26.303  1.00  0.00    -0.206 F 
ATOM     81  C   UNL A   1      44.104  26.389  26.357  1.00  0.00     0.060 A 
BRANCH  81  82
ATOM     82  S   UNL A   1      43.786  24.756  25.633  1.00  0.00     0.124 S 
ATOM     83  O   UNL A   1      42.688  25.034  24.715  1.00  0.00    -0.237 OA
ATOM     84  O   UNL A   1      45.072  24.441  25.014  1.00  0.00    -0.237 OA
ATOM     85  O   UNL A   1      43.457  23.932  26.785  1.00  0.00    -0.744 OA
ENDBRANCH  81  82
ENDBRANCH  49  74
BRANCH  61  86
ATOM     86  C   UNL A   1      42.616  35.760  29.277  1.00  0.00     0.058 A 
ATOM     87  C   UNL A   1      43.492  36.485  30.100  1.00  0.00     0.135 A 
ATOM     88  C   UNL A   1      42.123  36.457  28.145  1.00  0.00     0.135 A 
ATOM     89  F   UNL A   1      44.132  35.904  31.124  1.00  0.00    -0.206 F 
ATOM     90  C   UNL A   1      43.783  37.828  29.877  1.00  0.00     0.059 A 
ATOM     91  C   UNL A   1      42.453  37.778  27.867  1.00  0.00     0.059 A 
ATOM     92  F   UNL A   1      41.314  35.872  27.248  1.00  0.00    -0.206 F 
ATOM     93  C   UNL A   1      43.255  38.468  28.761  1.00  0.00     0.060 A 
BRANCH  93  94
ATOM     94  S   UNL A   1      43.657  40.193  28.453  1.00  0.00     0.124 S 
ATOM     95  O   UNL A   1      45.115  40.158  28.485  1.00  0.00    -0.237 OA
ATOM     96  O   UNL A   1      43.060  40.434  27.142  1.00  0.00    -0.237 OA
ATOM     97  O   UNL A   1      43.014  40.889  29.562  1.00  0.00    -0.744 OA
ENDBRANCH  93  94
ENDBRANCH  61  86
ENDBRANCH  35  36
ENDBRANCH  28  30
ENDBRANCH  27  28
ENDBRANCH   1  27
TORSDOF 17
ENDMDL
