MODEL 1
REMARK VINA RESULT:      -9.7      0.000      0.000
REMARK SMILES C[C@H]([NH2+]CCc1ccccc1)[C@@H](C)C(=O)OCCOC(=O)c1ccc(-c2c3nc(c(-c4c(F)cc(S(=O)(=O)[O-])cc4F)c4ccc([nH]4)c(-c4c(F)cc(S(=O)(=O)[O-])cc4F)c4nc(c(-c5c(F)cc(S(=O)(=O)[O-])cc5F)c5ccc2[nH]5)C=C4)C=C3)cc1
REMARK SMILES IDX 17 1 16 2 14 3 15 4 12 5 13 6 2 7 1 8 3 9 4 12 5 13 6 14
REMARK SMILES IDX 7 15 11 16 8 17 10 18 9 19 18 20 19 21 20 22 21 23 22 24
REMARK SMILES IDX 23 25 87 26 24 27 86 28 25 29 26 30 27 31 80 32 28 33 85 34
REMARK SMILES IDX 79 35 81 36 29 37 84 38 78 39 77 40 30 42 64 43 43 44 63 45
REMARK SMILES IDX 44 46 47 47 62 48 82 49 45 50 46 51 61 53 83 54 48 55 31 56
REMARK SMILES IDX 32 57 41 58 33 59 34 60 40 61 42 62 35 63 36 64 37 65 38 66
REMARK SMILES IDX 39 67 65 68 66 69 75 70 67 71 68 72 74 73 76 74 69 75 70 76
REMARK SMILES IDX 71 77 72 78 73 79 49 80 50 81 59 82 51 83 52 84 58 85 60 86
REMARK SMILES IDX 53 87 54 88 55 89 56 90 57 91
REMARK H PARENT 3 10 3 11 81 41 47 52
REMARK Flexibility Score: inf
ROOT
ATOM      1  C   UNL A   1      33.634  27.862  25.609  1.00  0.00     0.274 C 
ENDROOT
BRANCH   1   2
ATOM      2  O   UNL A   1      32.411  27.119  25.425  1.00  0.00    -0.462 OA
BRANCH   2   3
ATOM      3  C   UNL A   1      32.550  25.950  24.745  1.00  0.00     0.314 C 
ATOM      4  O   UNL A   1      33.520  25.669  24.048  1.00  0.00    -0.252 OA
BRANCH   3   5
ATOM      5  C   UNL A   1      31.365  25.010  24.883  1.00  0.00     0.154 C 
ATOM      6  C   UNL A   1      30.346  25.720  25.780  1.00  0.00     0.026 C 
BRANCH   5   7
ATOM      7  C   UNL A   1      31.686  23.570  25.362  1.00  0.00     0.193 C 
ATOM      8  C   UNL A   1      32.464  23.560  26.687  1.00  0.00     0.076 C 
BRANCH   7   9
ATOM      9  N   UNL A   1      32.503  22.922  24.319  1.00  0.00    -0.343 N 
ATOM     10  H   UNL A   1      32.841  23.643  23.682  1.00  0.00     0.346 HD
ATOM     11  H   UNL A   1      31.901  22.239  23.857  1.00  0.00     0.346 HD
BRANCH   9  12
ATOM     12  C   UNL A   1      33.657  22.186  24.833  1.00  0.00     0.265 C 
BRANCH  12  13
ATOM     13  C   UNL A   1      34.920  22.461  23.991  1.00  0.00     0.097 C 
BRANCH  13  14
ATOM     14  C   UNL A   1      36.225  22.619  24.745  1.00  0.00    -0.042 A 
ATOM     15  C   UNL A   1      37.116  21.534  24.797  1.00  0.00     0.004 A 
ATOM     16  C   UNL A   1      36.562  23.789  25.440  1.00  0.00     0.004 A 
ATOM     17  C   UNL A   1      38.321  21.629  25.496  1.00  0.00     0.000 A 
ATOM     18  C   UNL A   1      37.771  23.886  26.133  1.00  0.00     0.000 A 
ATOM     19  C   UNL A   1      38.651  22.807  26.159  1.00  0.00     0.000 A 
ENDBRANCH  13  14
ENDBRANCH  12  13
ENDBRANCH   9  12
ENDBRANCH   7   9
ENDBRANCH   5   7
ENDBRANCH   3   5
ENDBRANCH   2   3
ENDBRANCH   1   2
BRANCH   1  20
ATOM     20  C   UNL A   1      33.348  29.245  26.198  1.00  0.00     0.275 C 
BRANCH  20  21
ATOM     21  O   UNL A   1      33.699  29.265  27.592  1.00  0.00    -0.458 OA
BRANCH  21  22
ATOM     22  C   UNL A   1      34.376  30.357  28.017  1.00  0.00     0.338 C 
ATOM     23  O   UNL A   1      33.933  31.482  28.171  1.00  0.00    -0.246 OA
BRANCH  22  24
ATOM     24  C   UNL A   1      35.790  30.001  28.248  1.00  0.00     0.060 A 
ATOM     25  C   UNL A   1      36.734  30.085  27.221  1.00  0.00     0.016 A 
ATOM     26  C   UNL A   1      36.164  29.529  29.506  1.00  0.00     0.016 A 
ATOM     27  C   UNL A   1      38.051  29.684  27.446  1.00  0.00     0.010 A 
ATOM     28  C   UNL A   1      37.496  29.190  29.748  1.00  0.00     0.010 A 
ATOM     29  C   UNL A   1      38.452  29.261  28.720  1.00  0.00    -0.014 A 
BRANCH  29  30
ATOM     30  C   UNL A   1      39.872  28.934  29.012  1.00  0.00     0.031 A 
ATOM     31  C   UNL A   1      40.806  29.996  29.519  1.00  0.00     0.074 A 
ATOM     32  C   UNL A   1      40.333  27.694  28.753  1.00  0.00     0.049 A 
ATOM     33  N   UNL A   1      42.109  29.965  29.630  1.00  0.00    -0.248 NA
ATOM     34  C   UNL A   1      40.194  31.263  29.949  1.00  0.00     0.031 C 
ATOM     35  C   UNL A   1      39.521  26.570  28.281  1.00  0.00     0.029 A 
ATOM     36  N   UNL A   1      41.603  27.178  28.827  1.00  0.00    -0.354 N 
ATOM     37  C   UNL A   1      42.479  31.216  30.109  1.00  0.00     0.074 A 
ATOM     38  C   UNL A   1      41.261  31.985  30.262  1.00  0.00     0.031 C 
ATOM     39  C   UNL A   1      40.310  25.499  28.105  1.00  0.00     0.029 A 
ATOM     40  C   UNL A   1      41.691  25.879  28.384  1.00  0.00     0.049 A 
ATOM     41  H   UNL A   1      42.374  27.687  29.164  1.00  0.00     0.167 HD
ATOM     42  C   UNL A   1      43.722  31.676  30.393  1.00  0.00     0.037 A 
ATOM     43  C   UNL A   1      42.765  25.094  28.177  1.00  0.00     0.037 A 
ATOM     44  C   UNL A   1      44.924  30.894  30.256  1.00  0.00     0.049 A 
ATOM     45  C   UNL A   1      44.137  25.645  28.441  1.00  0.00     0.074 A 
ATOM     46  C   UNL A   1      46.227  31.258  30.549  1.00  0.00     0.029 A 
ATOM     47  N   UNL A   1      44.971  29.590  29.785  1.00  0.00    -0.354 N 
ATOM     48  N   UNL A   1      44.475  26.834  28.881  1.00  0.00    -0.248 NA
ATOM     49  C   UNL A   1      45.275  24.758  28.164  1.00  0.00     0.031 C 
ATOM     50  C   UNL A   1      47.066  30.187  30.218  1.00  0.00     0.029 A 
ATOM     51  C   UNL A   1      46.282  29.142  29.755  1.00  0.00     0.049 A 
ATOM     52  H   UNL A   1      44.188  29.060  29.512  1.00  0.00     0.167 HD
ATOM     53  C   UNL A   1      45.863  26.837  28.937  1.00  0.00     0.074 A 
ATOM     54  C   UNL A   1      46.302  25.525  28.505  1.00  0.00     0.031 C 
ATOM     55  C   UNL A   1      46.700  27.837  29.310  1.00  0.00     0.037 A 
BRANCH  42  56
ATOM     56  C   UNL A   1      43.849  33.101  30.856  1.00  0.00     0.058 A 
ATOM     57  C   UNL A   1      43.870  33.438  32.218  1.00  0.00     0.135 A 
ATOM     58  C   UNL A   1      43.991  34.141  29.922  1.00  0.00     0.135 A 
ATOM     59  F   UNL A   1      43.723  32.484  33.152  1.00  0.00    -0.206 F 
ATOM     60  C   UNL A   1      44.003  34.757  32.639  1.00  0.00     0.059 A 
ATOM     61  C   UNL A   1      44.147  35.465  30.320  1.00  0.00     0.059 A 
ATOM     62  F   UNL A   1      43.977  33.873  28.607  1.00  0.00    -0.206 F 
ATOM     63  C   UNL A   1      44.138  35.765  31.682  1.00  0.00     0.060 A 
BRANCH  63  64
ATOM     64  S   UNL A   1      44.310  37.473  32.242  1.00  0.00     0.124 S 
ATOM     65  O   UNL A   1      43.345  37.518  33.336  1.00  0.00    -0.237 OA
ATOM     66  O   UNL A   1      45.715  37.536  32.633  1.00  0.00    -0.237 OA
ATOM     67  O   UNL A   1      43.957  38.256  31.061  1.00  0.00    -0.744 OA
ENDBRANCH  63  64
ENDBRANCH  42  56
BRANCH  43  68
ATOM     68  C   UNL A   1      42.581  23.718  27.646  1.00  0.00     0.058 A 
ATOM     69  C   UNL A   1      42.595  23.470  26.267  1.00  0.00     0.135 A 
ATOM     70  C   UNL A   1      42.423  22.621  28.510  1.00  0.00     0.135 A 
ATOM     71  F   UNL A   1      42.732  24.488  25.405  1.00  0.00    -0.206 F 
ATOM     72  C   UNL A   1      42.457  22.182  25.760  1.00  0.00     0.059 A 
ATOM     73  C   UNL A   1      42.308  21.323  28.026  1.00  0.00     0.059 A 
ATOM     74  F   UNL A   1      42.415  22.807  29.838  1.00  0.00    -0.206 F 
ATOM     75  C   UNL A   1      42.318  21.114  26.648  1.00  0.00     0.060 A 
BRANCH  75  76
ATOM     76  S   UNL A   1      42.208  19.438  25.983  1.00  0.00     0.124 S 
ATOM     77  O   UNL A   1      42.763  18.651  27.078  1.00  0.00    -0.237 OA
ATOM     78  O   UNL A   1      40.774  19.290  25.752  1.00  0.00    -0.237 OA
ATOM     79  O   UNL A   1      43.024  19.504  24.774  1.00  0.00    -0.744 OA
ENDBRANCH  75  76
ENDBRANCH  43  68
BRANCH  55  80
ATOM     80  C   UNL A   1      48.172  27.545  29.270  1.00  0.00     0.058 A 
ATOM     81  C   UNL A   1      48.915  27.698  28.089  1.00  0.00     0.135 A 
ATOM     82  C   UNL A   1      48.854  27.143  30.429  1.00  0.00     0.135 A 
ATOM     83  F   UNL A   1      48.307  28.070  26.952  1.00  0.00    -0.206 F 
ATOM     84  C   UNL A   1      50.282  27.444  28.054  1.00  0.00     0.059 A 
ATOM     85  C   UNL A   1      50.223  26.904  30.423  1.00  0.00     0.059 A 
ATOM     86  F   UNL A   1      48.188  26.989  31.585  1.00  0.00    -0.206 F 
ATOM     87  C   UNL A   1      50.928  27.047  29.227  1.00  0.00     0.060 A 
BRANCH  87  88
ATOM     88  S   UNL A   1      52.708  26.748  29.180  1.00  0.00     0.124 S 
ATOM     89  O   UNL A   1      53.235  28.108  29.228  1.00  0.00    -0.237 OA
ATOM     90  O   UNL A   1      52.924  25.942  30.378  1.00  0.00    -0.237 OA
ATOM     91  O   UNL A   1      52.900  26.044  27.915  1.00  0.00    -0.744 OA
ENDBRANCH  87  88
ENDBRANCH  55  80
ENDBRANCH  29  30
ENDBRANCH  22  24
ENDBRANCH  21  22
ENDBRANCH  20  21
ENDBRANCH   1  20
TORSDOF 19
ENDMDL
MODEL 2
REMARK VINA RESULT:      -9.6      2.872      4.605
REMARK SMILES C[C@H]([NH2+]CCc1ccccc1)[C@@H](C)C(=O)OCCOC(=O)c1ccc(-c2c3nc(c(-c4c(F)cc(S(=O)(=O)[O-])cc4F)c4ccc([nH]4)c(-c4c(F)cc(S(=O)(=O)[O-])cc4F)c4nc(c(-c5c(F)cc(S(=O)(=O)[O-])cc5F)c5ccc2[nH]5)C=C4)C=C3)cc1
REMARK SMILES IDX 17 1 16 2 14 3 15 4 12 5 13 6 2 7 1 8 3 9 4 12 5 13 6 14
REMARK SMILES IDX 7 15 11 16 8 17 10 18 9 19 18 20 19 21 20 22 21 23 22 24
REMARK SMILES IDX 23 25 87 26 24 27 86 28 25 29 26 30 27 31 80 32 28 33 85 34
REMARK SMILES IDX 79 35 81 36 29 37 84 38 78 39 77 40 30 42 64 43 43 44 63 45
REMARK SMILES IDX 44 46 47 47 62 48 82 49 45 50 46 51 61 53 83 54 48 55 31 56
REMARK SMILES IDX 32 57 41 58 33 59 34 60 40 61 42 62 35 63 36 64 37 65 38 66
REMARK SMILES IDX 39 67 65 68 66 69 75 70 67 71 68 72 74 73 76 74 69 75 70 76
REMARK SMILES IDX 71 77 72 78 73 79 49 80 50 81 59 82 51 83 52 84 58 85 60 86
REMARK SMILES IDX 53 87 54 88 55 89 56 90 57 91
REMARK H PARENT 3 10 3 11 81 41 47 52
REMARK Flexibility Score: inf
ROOT
ATOM      1  C   UNL A   1      33.402  30.147  26.555  1.00  0.00     0.274 C 
ENDROOT
BRANCH   1   2
ATOM      2  O   UNL A   1      33.877  28.790  26.424  1.00  0.00    -0.462 OA
BRANCH   2   3
ATOM      3  C   UNL A   1      33.594  28.199  25.233  1.00  0.00     0.314 C 
ATOM      4  O   UNL A   1      33.778  28.726  24.140  1.00  0.00    -0.252 OA
BRANCH   3   5
ATOM      5  C   UNL A   1      32.977  26.817  25.361  1.00  0.00     0.154 C 
ATOM      6  C   UNL A   1      33.950  25.841  24.690  1.00  0.00     0.026 C 
BRANCH   5   7
ATOM      7  C   UNL A   1      31.523  26.666  24.841  1.00  0.00     0.193 C 
ATOM      8  C   UNL A   1      31.432  25.711  23.641  1.00  0.00     0.076 C 
BRANCH   7   9
ATOM      9  N   UNL A   1      31.053  28.003  24.429  1.00  0.00    -0.343 N 
ATOM     10  H   UNL A   1      31.846  28.644  24.457  1.00  0.00     0.346 HD
ATOM     11  H   UNL A   1      30.310  28.266  25.077  1.00  0.00     0.346 HD
BRANCH   9  12
ATOM     12  C   UNL A   1      30.475  28.047  23.086  1.00  0.00     0.265 C 
BRANCH  12  13
ATOM     13  C   UNL A   1      29.018  28.549  23.118  1.00  0.00     0.097 C 
BRANCH  13  14
ATOM     14  C   UNL A   1      28.784  29.999  22.743  1.00  0.00    -0.042 A 
ATOM     15  C   UNL A   1      28.340  30.303  21.445  1.00  0.00     0.004 A 
ATOM     16  C   UNL A   1      29.042  31.060  23.622  1.00  0.00     0.004 A 
ATOM     17  C   UNL A   1      28.130  31.626  21.050  1.00  0.00     0.000 A 
ATOM     18  C   UNL A   1      28.825  32.384  23.229  1.00  0.00     0.000 A 
ATOM     19  C   UNL A   1      28.367  32.666  21.945  1.00  0.00     0.000 A 
ENDBRANCH  13  14
ENDBRANCH  12  13
ENDBRANCH   9  12
ENDBRANCH   7   9
ENDBRANCH   5   7
ENDBRANCH   3   5
ENDBRANCH   2   3
ENDBRANCH   1   2
BRANCH   1  20
ATOM     20  C   UNL A   1      34.240  30.922  27.573  1.00  0.00     0.275 C 
BRANCH  20  21
ATOM     21  O   UNL A   1      35.452  30.203  27.857  1.00  0.00    -0.458 OA
BRANCH  21  22
ATOM     22  C   UNL A   1      36.102  30.561  28.989  1.00  0.00     0.338 C 
ATOM     23  O   UNL A   1      35.635  31.149  29.950  1.00  0.00    -0.246 OA
BRANCH  22  24
ATOM     24  C   UNL A   1      37.519  30.159  28.891  1.00  0.00     0.060 A 
ATOM     25  C   UNL A   1      38.340  30.120  30.021  1.00  0.00     0.016 A 
ATOM     26  C   UNL A   1      38.044  29.862  27.634  1.00  0.00     0.016 A 
ATOM     27  C   UNL A   1      39.691  29.797  29.896  1.00  0.00     0.010 A 
ATOM     28  C   UNL A   1      39.381  29.475  27.518  1.00  0.00     0.010 A 
ATOM     29  C   UNL A   1      40.217  29.442  28.646  1.00  0.00    -0.014 A 
BRANCH  29  30
ATOM     30  C   UNL A   1      41.626  28.989  28.505  1.00  0.00     0.031 A 
ATOM     31  C   UNL A   1      42.751  29.983  28.557  1.00  0.00     0.074 A 
ATOM     32  C   UNL A   1      41.883  27.688  28.262  1.00  0.00     0.049 A 
ATOM     33  N   UNL A   1      44.011  29.821  28.248  1.00  0.00    -0.248 NA
ATOM     34  C   UNL A   1      42.411  31.343  29.006  1.00  0.00     0.031 C 
ATOM     35  C   UNL A   1      40.880  26.622  28.212  1.00  0.00     0.029 A 
ATOM     36  N   UNL A   1      43.064  27.046  27.987  1.00  0.00    -0.354 N 
ATOM     37  C   UNL A   1      44.611  31.062  28.432  1.00  0.00     0.074 A 
ATOM     38  C   UNL A   1      43.572  31.970  28.874  1.00  0.00     0.031 C 
ATOM     39  C   UNL A   1      41.486  25.461  27.922  1.00  0.00     0.029 A 
ATOM     40  C   UNL A   1      42.905  25.711  27.698  1.00  0.00     0.049 A 
ATOM     41  H   UNL A   1      43.939  27.496  27.997  1.00  0.00     0.167 HD
ATOM     42  C   UNL A   1      45.908  31.407  28.247  1.00  0.00     0.037 A 
ATOM     43  C   UNL A   1      43.790  24.799  27.252  1.00  0.00     0.037 A 
ATOM     44  C   UNL A   1      46.936  30.490  27.827  1.00  0.00     0.049 A 
ATOM     45  C   UNL A   1      45.209  25.219  26.997  1.00  0.00     0.074 A 
ATOM     46  C   UNL A   1      48.286  30.734  27.642  1.00  0.00     0.029 A 
ATOM     47  N   UNL A   1      46.729  29.152  27.524  1.00  0.00    -0.354 N 
ATOM     48  N   UNL A   1      45.760  26.397  27.161  1.00  0.00    -0.248 NA
ATOM     49  C   UNL A   1      46.123  24.192  26.478  1.00  0.00     0.031 C 
ATOM     50  C   UNL A   1      48.888  29.554  27.191  1.00  0.00     0.029 A 
ATOM     51  C   UNL A   1      47.920  28.564  27.131  1.00  0.00     0.049 A 
ATOM     52  H   UNL A   1      45.863  28.689  27.581  1.00  0.00     0.167 HD
ATOM     53  C   UNL A   1      47.085  26.254  26.770  1.00  0.00     0.074 A 
ATOM     54  C   UNL A   1      47.259  24.869  26.380  1.00  0.00     0.031 C 
ATOM     55  C   UNL A   1      48.070  27.186  26.733  1.00  0.00     0.037 A 
BRANCH  42  56
ATOM     56  C   UNL A   1      46.286  32.845  28.472  1.00  0.00     0.058 A 
ATOM     57  C   UNL A   1      46.728  33.308  29.721  1.00  0.00     0.135 A 
ATOM     58  C   UNL A   1      46.241  33.765  27.411  1.00  0.00     0.135 A 
ATOM     59  F   UNL A   1      46.776  32.474  30.772  1.00  0.00    -0.206 F 
ATOM     60  C   UNL A   1      47.090  34.637  29.917  1.00  0.00     0.059 A 
ATOM     61  C   UNL A   1      46.619  35.094  27.579  1.00  0.00     0.059 A 
ATOM     62  F   UNL A   1      45.825  33.375  26.196  1.00  0.00    -0.206 F 
ATOM     63  C   UNL A   1      47.029  35.524  28.840  1.00  0.00     0.060 A 
BRANCH  63  64
ATOM     64  S   UNL A   1      47.502  37.246  29.109  1.00  0.00     0.124 S 
ATOM     65  O   UNL A   1      47.151  37.427  30.514  1.00  0.00    -0.237 OA
ATOM     66  O   UNL A   1      48.931  37.230  28.811  1.00  0.00    -0.237 OA
ATOM     67  O   UNL A   1      46.675  37.979  28.155  1.00  0.00    -0.744 OA
ENDBRANCH  63  64
ENDBRANCH  42  56
BRANCH  43  68
ATOM     68  C   UNL A   1      43.340  23.409  26.977  1.00  0.00     0.058 A 
ATOM     69  C   UNL A   1      43.136  22.966  25.663  1.00  0.00     0.135 A 
ATOM     70  C   UNL A   1      43.140  22.490  28.019  1.00  0.00     0.135 A 
ATOM     71  F   UNL A   1      43.305  23.812  24.636  1.00  0.00    -0.206 F 
ATOM     72  C   UNL A   1      42.747  21.659  25.390  1.00  0.00     0.059 A 
ATOM     73  C   UNL A   1      42.775  21.171  27.769  1.00  0.00     0.059 A 
ATOM     74  F   UNL A   1      43.334  22.864  29.293  1.00  0.00    -0.206 F 
ATOM     75  C   UNL A   1      42.573  20.767  26.450  1.00  0.00     0.060 A 
BRANCH  75  76
ATOM     76  S   UNL A   1      42.134  19.053  26.083  1.00  0.00     0.124 S 
ATOM     77  O   UNL A   1      40.694  19.158  25.879  1.00  0.00    -0.237 OA
ATOM     78  O   UNL A   1      42.930  18.778  24.891  1.00  0.00    -0.237 OA
ATOM     79  O   UNL A   1      42.553  18.338  27.285  1.00  0.00    -0.744 OA
ENDBRANCH  75  76
ENDBRANCH  43  68
BRANCH  55  80
ATOM     80  C   UNL A   1      49.421  26.734  26.260  1.00  0.00     0.058 A 
ATOM     81  C   UNL A   1      49.805  26.863  24.916  1.00  0.00     0.135 A 
ATOM     82  C   UNL A   1      50.353  26.199  27.163  1.00  0.00     0.135 A 
ATOM     83  F   UNL A   1      48.945  27.359  24.013  1.00  0.00    -0.206 F 
ATOM     84  C   UNL A   1      51.062  26.459  24.479  1.00  0.00     0.059 A 
ATOM     85  C   UNL A   1      51.623  25.808  26.752  1.00  0.00     0.059 A 
ATOM     86  F   UNL A   1      50.035  26.061  28.460  1.00  0.00    -0.206 F 
ATOM     87  C   UNL A   1      51.964  25.932  25.405  1.00  0.00     0.060 A 
BRANCH  87  88
ATOM     88  S   UNL A   1      53.605  25.439  24.835  1.00  0.00     0.124 S 
ATOM     89  O   UNL A   1      53.680  26.110  23.542  1.00  0.00    -0.237 OA
ATOM     90  O   UNL A   1      54.475  25.973  25.878  1.00  0.00    -0.237 OA
ATOM     91  O   UNL A   1      53.522  23.982  24.782  1.00  0.00    -0.744 OA
ENDBRANCH  87  88
ENDBRANCH  55  80
ENDBRANCH  29  30
ENDBRANCH  22  24
ENDBRANCH  21  22
ENDBRANCH  20  21
ENDBRANCH   1  20
TORSDOF 19
ENDMDL
MODEL 3
REMARK VINA RESULT:      -9.6      5.489     10.945
REMARK SMILES C[C@H]([NH2+]CCc1ccccc1)[C@@H](C)C(=O)OCCOC(=O)c1ccc(-c2c3nc(c(-c4c(F)cc(S(=O)(=O)[O-])cc4F)c4ccc([nH]4)c(-c4c(F)cc(S(=O)(=O)[O-])cc4F)c4nc(c(-c5c(F)cc(S(=O)(=O)[O-])cc5F)c5ccc2[nH]5)C=C4)C=C3)cc1
REMARK SMILES IDX 17 1 16 2 14 3 15 4 12 5 13 6 2 7 1 8 3 9 4 12 5 13 6 14
REMARK SMILES IDX 7 15 11 16 8 17 10 18 9 19 18 20 19 21 20 22 21 23 22 24
REMARK SMILES IDX 23 25 87 26 24 27 86 28 25 29 26 30 27 31 80 32 28 33 85 34
REMARK SMILES IDX 79 35 81 36 29 37 84 38 78 39 77 40 30 42 64 43 43 44 63 45
REMARK SMILES IDX 44 46 47 47 62 48 82 49 45 50 46 51 61 53 83 54 48 55 31 56
REMARK SMILES IDX 32 57 41 58 33 59 34 60 40 61 42 62 35 63 36 64 37 65 38 66
REMARK SMILES IDX 39 67 65 68 66 69 75 70 67 71 68 72 74 73 76 74 69 75 70 76
REMARK SMILES IDX 71 77 72 78 73 79 49 80 50 81 59 82 51 83 52 84 58 85 60 86
REMARK SMILES IDX 53 87 54 88 55 89 56 90 57 91
REMARK H PARENT 3 10 3 11 81 41 47 52
REMARK Flexibility Score: inf
ROOT
ATOM      1  C   UNL A   1      45.574  24.227  25.355  1.00  0.00     0.274 C 
ENDROOT
BRANCH   1   2
ATOM      2  O   UNL A   1      44.766  23.871  24.214  1.00  0.00    -0.462 OA
BRANCH   2   3
ATOM      3  C   UNL A   1      44.726  22.541  23.935  1.00  0.00     0.314 C 
ATOM      4  O   UNL A   1      44.416  22.073  22.844  1.00  0.00    -0.252 OA
BRANCH   3   5
ATOM      5  C   UNL A   1      45.064  21.652  25.119  1.00  0.00     0.154 C 
ATOM      6  C   UNL A   1      46.127  20.662  24.632  1.00  0.00     0.026 C 
BRANCH   5   7
ATOM      7  C   UNL A   1      43.865  20.952  25.813  1.00  0.00     0.193 C 
ATOM      8  C   UNL A   1      43.667  19.512  25.313  1.00  0.00     0.076 C 
BRANCH   7   9
ATOM      9  N   UNL A   1      42.653  21.737  25.513  1.00  0.00    -0.343 N 
ATOM     10  H   UNL A   1      42.476  21.684  24.510  1.00  0.00     0.346 HD
ATOM     11  H   UNL A   1      42.834  22.689  25.832  1.00  0.00     0.346 HD
BRANCH   9  12
ATOM     12  C   UNL A   1      41.454  21.279  26.214  1.00  0.00     0.265 C 
BRANCH  12  13
ATOM     13  C   UNL A   1      40.639  22.466  26.767  1.00  0.00     0.097 C 
BRANCH  13  14
ATOM     14  C   UNL A   1      39.208  22.598  26.286  1.00  0.00    -0.042 A 
ATOM     15  C   UNL A   1      38.523  23.803  26.513  1.00  0.00     0.004 A 
ATOM     16  C   UNL A   1      38.517  21.548  25.666  1.00  0.00     0.004 A 
ATOM     17  C   UNL A   1      37.197  23.964  26.103  1.00  0.00     0.000 A 
ATOM     18  C   UNL A   1      37.193  21.710  25.250  1.00  0.00     0.000 A 
ATOM     19  C   UNL A   1      36.534  22.918  25.467  1.00  0.00     0.000 A 
ENDBRANCH  13  14
ENDBRANCH  12  13
ENDBRANCH   9  12
ENDBRANCH   7   9
ENDBRANCH   5   7
ENDBRANCH   3   5
ENDBRANCH   2   3
ENDBRANCH   1   2
BRANCH   1  20
ATOM     20  C   UNL A   1      44.817  25.177  26.285  1.00  0.00     0.275 C 
BRANCH  20  21
ATOM     21  O   UNL A   1      43.442  24.770  26.386  1.00  0.00    -0.458 OA
BRANCH  21  22
ATOM     22  C   UNL A   1      42.520  25.718  26.096  1.00  0.00     0.338 C 
ATOM     23  O   UNL A   1      42.031  25.958  25.006  1.00  0.00    -0.246 OA
BRANCH  22  24
ATOM     24  C   UNL A   1      42.195  26.477  27.320  1.00  0.00     0.060 A 
ATOM     25  C   UNL A   1      42.806  27.704  27.594  1.00  0.00     0.016 A 
ATOM     26  C   UNL A   1      41.294  25.924  28.230  1.00  0.00     0.016 A 
ATOM     27  C   UNL A   1      42.529  28.374  28.786  1.00  0.00     0.010 A 
ATOM     28  C   UNL A   1      40.969  26.627  29.392  1.00  0.00     0.010 A 
ATOM     29  C   UNL A   1      41.585  27.856  29.683  1.00  0.00    -0.014 A 
BRANCH  29  30
ATOM     30  C   UNL A   1      41.193  28.605  30.905  1.00  0.00     0.031 A 
ATOM     31  C   UNL A   1      40.051  29.581  30.863  1.00  0.00     0.074 A 
ATOM     32  C   UNL A   1      41.912  28.452  32.035  1.00  0.00     0.049 A 
ATOM     33  N   UNL A   1      39.695  30.474  31.750  1.00  0.00    -0.248 NA
ATOM     34  C   UNL A   1      39.206  29.557  29.659  1.00  0.00     0.031 C 
ATOM     35  C   UNL A   1      43.026  27.518  32.210  1.00  0.00     0.029 A 
ATOM     36  N   UNL A   1      41.827  29.098  33.244  1.00  0.00    -0.354 N 
ATOM     37  C   UNL A   1      38.606  31.142  31.201  1.00  0.00     0.074 A 
ATOM     38  C   UNL A   1      38.365  30.554  29.900  1.00  0.00     0.031 C 
ATOM     39  C   UNL A   1      43.523  27.653  33.449  1.00  0.00     0.029 A 
ATOM     40  C   UNL A   1      42.810  28.727  34.131  1.00  0.00     0.049 A 
ATOM     41  H   UNL A   1      41.132  29.761  33.455  1.00  0.00     0.167 HD
ATOM     42  C   UNL A   1      37.879  32.152  31.737  1.00  0.00     0.037 A 
ATOM     43  C   UNL A   1      43.136  29.227  35.338  1.00  0.00     0.037 A 
ATOM     44  C   UNL A   1      38.117  32.714  33.043  1.00  0.00     0.049 A 
ATOM     45  C   UNL A   1      42.354  30.386  35.886  1.00  0.00     0.074 A 
ATOM     46  C   UNL A   1      37.416  33.717  33.689  1.00  0.00     0.029 A 
ATOM     47  N   UNL A   1      39.136  32.324  33.900  1.00  0.00    -0.354 N 
ATOM     48  N   UNL A   1      41.336  31.018  35.352  1.00  0.00    -0.248 NA
ATOM     49  C   UNL A   1      42.775  30.914  37.191  1.00  0.00     0.031 C 
ATOM     50  C   UNL A   1      38.034  33.960  34.921  1.00  0.00     0.029 A 
ATOM     51  C   UNL A   1      39.098  33.082  35.059  1.00  0.00     0.049 A 
ATOM     52  H   UNL A   1      39.789  31.612  33.712  1.00  0.00     0.167 HD
ATOM     53  C   UNL A   1      40.992  32.015  36.256  1.00  0.00     0.074 A 
ATOM     54  C   UNL A   1      41.898  31.890  37.381  1.00  0.00     0.031 C 
ATOM     55  C   UNL A   1      40.016  32.951  36.162  1.00  0.00     0.037 A 
BRANCH  42  56
ATOM     56  C   UNL A   1      36.773  32.734  30.903  1.00  0.00     0.058 A 
ATOM     57  C   UNL A   1      35.424  32.436  31.149  1.00  0.00     0.135 A 
ATOM     58  C   UNL A   1      37.066  33.634  29.864  1.00  0.00     0.135 A 
ATOM     59  F   UNL A   1      35.090  31.571  32.120  1.00  0.00    -0.206 F 
ATOM     60  C   UNL A   1      34.405  32.991  30.382  1.00  0.00     0.059 A 
ATOM     61  C   UNL A   1      36.061  34.217  29.097  1.00  0.00     0.059 A 
ATOM     62  F   UNL A   1      38.339  33.952  29.585  1.00  0.00    -0.206 F 
ATOM     63  C   UNL A   1      34.733  33.878  29.355  1.00  0.00     0.060 A 
BRANCH  63  64
ATOM     64  S   UNL A   1      33.401  34.591  28.367  1.00  0.00     0.124 S 
ATOM     65  O   UNL A   1      32.530  35.136  29.404  1.00  0.00    -0.237 OA
ATOM     66  O   UNL A   1      34.105  35.574  27.550  1.00  0.00    -0.237 OA
ATOM     67  O   UNL A   1      32.867  33.444  27.639  1.00  0.00    -0.744 OA
ENDBRANCH  63  64
ENDBRANCH  42  56
BRANCH  43  68
ATOM     68  C   UNL A   1      44.288  28.658  36.085  1.00  0.00     0.058 A 
ATOM     69  C   UNL A   1      44.124  27.551  36.928  1.00  0.00     0.135 A 
ATOM     70  C   UNL A   1      45.580  29.189  35.942  1.00  0.00     0.135 A 
ATOM     71  F   UNL A   1      42.907  27.017  37.103  1.00  0.00    -0.206 F 
ATOM     72  C   UNL A   1      45.201  26.989  37.606  1.00  0.00     0.059 A 
ATOM     73  C   UNL A   1      46.676  28.630  36.591  1.00  0.00     0.059 A 
ATOM     74  F   UNL A   1      45.790  30.242  35.137  1.00  0.00    -0.206 F 
ATOM     75  C   UNL A   1      46.474  27.533  37.428  1.00  0.00     0.060 A 
BRANCH  75  76
ATOM     76  S   UNL A   1      47.877  26.755  38.259  1.00  0.00     0.124 S 
ATOM     77  O   UNL A   1      48.994  27.223  37.446  1.00  0.00    -0.237 OA
ATOM     78  O   UNL A   1      47.788  27.313  39.605  1.00  0.00    -0.237 OA
ATOM     79  O   UNL A   1      47.575  25.331  38.159  1.00  0.00    -0.744 OA
ENDBRANCH  75  76
ENDBRANCH  43  68
BRANCH  55  80
ATOM     80  C   UNL A   1      39.877  33.910  37.309  1.00  0.00     0.058 A 
ATOM     81  C   UNL A   1      40.521  35.157  37.301  1.00  0.00     0.135 A 
ATOM     82  C   UNL A   1      39.067  33.595  38.411  1.00  0.00     0.135 A 
ATOM     83  F   UNL A   1      41.315  35.501  36.275  1.00  0.00    -0.206 F 
ATOM     84  C   UNL A   1      40.380  36.053  38.356  1.00  0.00     0.059 A 
ATOM     85  C   UNL A   1      38.895  34.483  39.467  1.00  0.00     0.059 A 
ATOM     86  F   UNL A   1      38.425  32.416  38.462  1.00  0.00    -0.206 F 
ATOM     87  C   UNL A   1      39.565  35.706  39.435  1.00  0.00     0.060 A 
BRANCH  87  88
ATOM     88  S   UNL A   1      39.365  36.887  40.786  1.00  0.00     0.124 S 
ATOM     89  O   UNL A   1      38.696  36.071  41.793  1.00  0.00    -0.237 OA
ATOM     90  O   UNL A   1      40.745  37.260  41.086  1.00  0.00    -0.237 OA
ATOM     91  O   UNL A   1      38.552  37.945  40.194  1.00  0.00    -0.744 OA
ENDBRANCH  87  88
ENDBRANCH  55  80
ENDBRANCH  29  30
ENDBRANCH  22  24
ENDBRANCH  21  22
ENDBRANCH  20  21
ENDBRANCH   1  20
TORSDOF 19
ENDMDL
