MODEL 1
REMARK VINA RESULT:     -12.7      0.000      0.000
REMARK SMILES O=C(OCCOC(=O)c1cc(S(=O)(=O)NNC(=O)[C@H]2C=C(c3ccccc3)N=N2)ccc1F)c1ccc(-c2c3nc(c(-c4c(F)cc(S(=O)(=O)[O-])cc4F)c4ccc([nH]4)c(-c4c(F)cc(S(=O)(=O)[O-])cc4F)c4nc(c(-c5c(F)cc(S(=O)(=O)[O-])cc5F)c5ccc2[nH]5)C=C4)C=C3)cc1
REMARK SMILES IDX 5 1 4 2 3 3 2 4 1 5 34 6 35 7 99 8 36 9 98 10 37 11 38 12
REMARK SMILES IDX 39 13 92 14 40 15 97 16 91 17 93 18 41 19 96 20 90 21 89 22
REMARK SMILES IDX 42 24 76 25 55 26 75 27 56 28 59 29 74 30 94 31 57 32 58 33
REMARK SMILES IDX 73 35 95 36 60 37 43 38 44 39 53 40 45 41 46 42 52 43 54 44
REMARK SMILES IDX 47 45 48 46 49 47 50 48 51 49 77 50 78 51 87 52 79 53 80 54
REMARK SMILES IDX 86 55 88 56 81 57 82 58 83 59 84 60 85 61 61 62 62 63 71 64
REMARK SMILES IDX 63 65 64 66 70 67 72 68 65 69 66 70 67 71 68 72 69 73 6 74
REMARK SMILES IDX 7 75 8 76 9 77 10 78 32 79 11 80 31 81 33 82 30 83 12 84
REMARK SMILES IDX 13 85 14 86 15 87 16 89 17 90 18 92 19 93 20 94 29 95 21 96
REMARK SMILES IDX 28 97 22 98 23 99 27 100 24 101 26 102 25 103
REMARK H PARENT 93 23 59 34 15 88 16 91
REMARK Flexibility Score: inf
ROOT
ATOM      1  C   UNL A   1      32.916  35.725  30.699  1.00  0.00     0.275 C 
ENDROOT
BRANCH   1   2
ATOM      2  C   UNL A   1      33.652  35.456  32.012  1.00  0.00     0.275 C 
BRANCH   2   3
ATOM      3  O   UNL A   1      34.824  34.615  31.956  1.00  0.00    -0.458 OA
BRANCH   3   4
ATOM      4  C   UNL A   1      34.707  33.324  32.333  1.00  0.00     0.338 C 
ATOM      5  O   UNL A   1      33.699  32.811  32.788  1.00  0.00    -0.246 OA
BRANCH   4   6
ATOM      6  C   UNL A   1      35.946  32.577  32.022  1.00  0.00     0.060 A 
ATOM      7  C   UNL A   1      35.915  31.208  31.728  1.00  0.00     0.016 A 
ATOM      8  C   UNL A   1      37.155  33.277  31.995  1.00  0.00     0.016 A 
ATOM      9  C   UNL A   1      37.095  30.526  31.472  1.00  0.00     0.010 A 
ATOM     10  C   UNL A   1      38.336  32.593  31.729  1.00  0.00     0.010 A 
ATOM     11  C   UNL A   1      38.310  31.212  31.505  1.00  0.00    -0.014 A 
BRANCH  11  12
ATOM     12  C   UNL A   1      39.532  30.436  31.299  1.00  0.00     0.031 A 
ATOM     13  C   UNL A   1      40.402  30.180  32.487  1.00  0.00     0.074 A 
ATOM     14  C   UNL A   1      39.810  29.840  30.123  1.00  0.00     0.049 A 
ATOM     15  N   UNL A   1      41.656  30.459  32.663  1.00  0.00    -0.248 NA
ATOM     16  C   UNL A   1      39.769  29.547  33.652  1.00  0.00     0.031 C 
ATOM     17  C   UNL A   1      38.940  29.709  28.950  1.00  0.00     0.029 A 
ATOM     18  N   UNL A   1      40.909  29.112  29.779  1.00  0.00    -0.354 N 
ATOM     19  C   UNL A   1      42.016  29.891  33.887  1.00  0.00     0.074 A 
ATOM     20  C   UNL A   1      40.794  29.428  34.495  1.00  0.00     0.031 C 
ATOM     21  C   UNL A   1      39.448  28.765  28.129  1.00  0.00     0.029 A 
ATOM     22  C   UNL A   1      40.734  28.335  28.646  1.00  0.00     0.049 A 
ATOM     23  H   UNL A   1      41.751  29.138  30.289  1.00  0.00     0.167 HD
ATOM     24  C   UNL A   1      43.309  29.692  34.270  1.00  0.00     0.037 A 
ATOM     25  C   UNL A   1      41.553  27.347  28.213  1.00  0.00     0.037 A 
ATOM     26  C   UNL A   1      44.238  30.452  33.483  1.00  0.00     0.049 A 
ATOM     27  C   UNL A   1      42.887  27.563  28.828  1.00  0.00     0.074 A 
ATOM     28  C   UNL A   1      44.461  31.797  33.268  1.00  0.00     0.029 A 
ATOM     29  N   UNL A   1      44.957  29.799  32.515  1.00  0.00    -0.354 N 
ATOM     30  N   UNL A   1      43.673  28.570  28.558  1.00  0.00    -0.248 NA
ATOM     31  C   UNL A   1      43.215  26.829  30.040  1.00  0.00     0.031 C 
ATOM     32  C   UNL A   1      44.897  31.890  31.915  1.00  0.00     0.029 A 
ATOM     33  C   UNL A   1      44.928  30.594  31.397  1.00  0.00     0.049 A 
ATOM     34  H   UNL A   1      45.408  28.927  32.604  1.00  0.00     0.167 HD
ATOM     35  C   UNL A   1      44.334  28.839  29.746  1.00  0.00     0.074 A 
ATOM     36  C   UNL A   1      44.105  27.664  30.580  1.00  0.00     0.031 C 
ATOM     37  C   UNL A   1      44.779  30.094  30.047  1.00  0.00     0.037 A 
BRANCH  24  38
ATOM     38  C   UNL A   1      43.767  28.600  35.206  1.00  0.00     0.058 A 
ATOM     39  C   UNL A   1      43.768  27.237  34.843  1.00  0.00     0.135 A 
ATOM     40  C   UNL A   1      44.466  28.920  36.388  1.00  0.00     0.135 A 
ATOM     41  F   UNL A   1      43.225  26.814  33.693  1.00  0.00    -0.206 F 
ATOM     42  C   UNL A   1      44.403  26.257  35.600  1.00  0.00     0.059 A 
ATOM     43  C   UNL A   1      45.152  27.959  37.138  1.00  0.00     0.059 A 
ATOM     44  F   UNL A   1      44.549  30.192  36.810  1.00  0.00    -0.206 F 
ATOM     45  C   UNL A   1      45.117  26.630  36.731  1.00  0.00     0.060 A 
BRANCH  45  46
ATOM     46  S   UNL A   1      46.081  25.362  37.576  1.00  0.00     0.124 S 
ATOM     47  O   UNL A   1      47.440  25.722  37.187  1.00  0.00    -0.237 OA
ATOM     48  O   UNL A   1      45.736  25.602  38.974  1.00  0.00    -0.237 OA
ATOM     49  O   UNL A   1      45.569  24.118  37.011  1.00  0.00    -0.744 OA
ENDBRANCH  45  46
ENDBRANCH  24  38
BRANCH  25  50
ATOM     50  C   UNL A   1      41.154  26.065  27.582  1.00  0.00     0.058 A 
ATOM     51  C   UNL A   1      40.105  25.280  28.103  1.00  0.00     0.135 A 
ATOM     52  C   UNL A   1      41.969  25.450  26.617  1.00  0.00     0.135 A 
ATOM     53  F   UNL A   1      39.305  25.744  29.076  1.00  0.00    -0.206 F 
ATOM     54  C   UNL A   1      39.896  23.959  27.720  1.00  0.00     0.059 A 
ATOM     55  C   UNL A   1      41.789  24.119  26.225  1.00  0.00     0.059 A 
ATOM     56  F   UNL A   1      43.007  26.117  26.087  1.00  0.00    -0.206 F 
ATOM     57  C   UNL A   1      40.764  23.375  26.805  1.00  0.00     0.060 A 
BRANCH  57  58
ATOM     58  S   UNL A   1      40.580  21.609  26.480  1.00  0.00     0.124 S 
ATOM     59  O   UNL A   1      41.712  21.350  25.597  1.00  0.00    -0.237 OA
ATOM     60  O   UNL A   1      40.683  21.042  27.821  1.00  0.00    -0.237 OA
ATOM     61  O   UNL A   1      39.264  21.511  25.858  1.00  0.00    -0.744 OA
ENDBRANCH  57  58
ENDBRANCH  25  50
BRANCH  37  62
ATOM     62  C   UNL A   1      44.830  31.124  28.947  1.00  0.00     0.058 A 
ATOM     63  C   UNL A   1      43.691  31.909  28.710  1.00  0.00     0.135 A 
ATOM     64  C   UNL A   1      45.881  31.222  28.018  1.00  0.00     0.135 A 
ATOM     65  F   UNL A   1      42.628  31.817  29.527  1.00  0.00    -0.206 F 
ATOM     66  C   UNL A   1      43.591  32.744  27.601  1.00  0.00     0.059 A 
ATOM     67  C   UNL A   1      45.817  32.079  26.917  1.00  0.00     0.059 A 
ATOM     68  F   UNL A   1      46.960  30.432  28.113  1.00  0.00    -0.206 F 
ATOM     69  C   UNL A   1      44.658  32.819  26.706  1.00  0.00     0.060 A 
BRANCH  69  70
ATOM     70  S   UNL A   1      44.481  33.863  25.243  1.00  0.00     0.124 S 
ATOM     71  O   UNL A   1      43.414  34.773  25.651  1.00  0.00    -0.237 OA
ATOM     72  O   UNL A   1      45.807  34.463  25.122  1.00  0.00    -0.237 OA
ATOM     73  O   UNL A   1      44.127  32.924  24.184  1.00  0.00    -0.744 OA
ENDBRANCH  69  70
ENDBRANCH  37  62
ENDBRANCH  11  12
ENDBRANCH   4   6
ENDBRANCH   3   4
ENDBRANCH   2   3
ENDBRANCH   1   2
BRANCH   1  74
ATOM     74  O   UNL A   1      33.095  34.616  29.798  1.00  0.00    -0.458 OA
BRANCH  74  75
ATOM     75  C   UNL A   1      33.902  34.868  28.739  1.00  0.00     0.341 C 
ATOM     76  O   UNL A   1      34.082  35.926  28.163  1.00  0.00    -0.246 OA
BRANCH  75  77
ATOM     77  C   UNL A   1      34.587  33.627  28.377  1.00  0.00     0.097 A 
ATOM     78  C   UNL A   1      33.861  32.540  27.887  1.00  0.00     0.040 A 
ATOM     79  C   UNL A   1      35.954  33.516  28.605  1.00  0.00     0.137 A 
ATOM     80  C   UNL A   1      34.533  31.343  27.597  1.00  0.00     0.085 A 
ATOM     81  C   UNL A   1      36.620  32.325  28.318  1.00  0.00     0.041 A 
ATOM     82  F   UNL A   1      36.643  34.538  29.130  1.00  0.00    -0.206 F 
ATOM     83  C   UNL A   1      35.913  31.231  27.803  1.00  0.00     0.025 A 
BRANCH  80  84
ATOM     84  S   UNL A   1      33.535  29.961  27.096  1.00  0.00     0.257 S 
ATOM     85  O   UNL A   1      34.259  28.768  27.495  1.00  0.00    -0.205 OA
ATOM     86  O   UNL A   1      32.187  30.228  27.519  1.00  0.00    -0.205 OA
BRANCH  84  87
ATOM     87  N   UNL A   1      33.524  29.988  25.396  1.00  0.00    -0.123 NA
ATOM     88  H   UNL A   1      34.243  30.649  25.101  1.00  0.00     0.167 HD
BRANCH  87  89
ATOM     89  N   UNL A   1      33.763  28.754  24.687  1.00  0.00    -0.275 N 
ATOM     90  C   UNL A   1      32.795  27.869  24.277  1.00  0.00     0.265 C 
ATOM     91  H   UNL A   1      34.697  28.527  24.480  1.00  0.00     0.186 HD
ATOM     92  O   UNL A   1      33.134  26.917  23.566  1.00  0.00    -0.271 OA
BRANCH  90  93
ATOM     93  C   UNL A   1      31.349  28.112  24.728  1.00  0.00     0.244 C 
ATOM     94  C   UNL A   1      30.890  29.486  24.409  1.00  0.00     0.042 C 
ATOM     95  N   UNL A   1      30.464  27.278  23.863  1.00  0.00    -0.171 NA
ATOM     96  C   UNL A   1      29.960  29.342  23.463  1.00  0.00     0.091 C 
ATOM     97  N   UNL A   1      29.712  28.024  23.172  1.00  0.00    -0.155 NA
BRANCH  96  98
ATOM     98  C   UNL A   1      29.265  30.445  22.796  1.00  0.00     0.002 A 
ATOM     99  C   UNL A   1      28.987  31.631  23.486  1.00  0.00     0.010 A 
ATOM    100  C   UNL A   1      28.854  30.330  21.459  1.00  0.00     0.010 A 
ATOM    101  C   UNL A   1      28.343  32.692  22.843  1.00  0.00     0.001 A 
ATOM    102  C   UNL A   1      28.203  31.387  20.819  1.00  0.00     0.001 A 
ATOM    103  C   UNL A   1      27.954  32.570  21.510  1.00  0.00     0.000 A 
ENDBRANCH  96  98
ENDBRANCH  90  93
ENDBRANCH  87  89
ENDBRANCH  84  87
ENDBRANCH  80  84
ENDBRANCH  75  77
ENDBRANCH  74  75
ENDBRANCH   1  74
TORSDOF 19
ENDMDL
MODEL 2
REMARK VINA RESULT:     -12.7      2.849      9.777
REMARK SMILES O=C(OCCOC(=O)c1cc(S(=O)(=O)NNC(=O)[C@H]2C=C(c3ccccc3)N=N2)ccc1F)c1ccc(-c2c3nc(c(-c4c(F)cc(S(=O)(=O)[O-])cc4F)c4ccc([nH]4)c(-c4c(F)cc(S(=O)(=O)[O-])cc4F)c4nc(c(-c5c(F)cc(S(=O)(=O)[O-])cc5F)c5ccc2[nH]5)C=C4)C=C3)cc1
REMARK SMILES IDX 5 1 4 2 3 3 2 4 1 5 34 6 35 7 99 8 36 9 98 10 37 11 38 12
REMARK SMILES IDX 39 13 92 14 40 15 97 16 91 17 93 18 41 19 96 20 90 21 89 22
REMARK SMILES IDX 42 24 76 25 55 26 75 27 56 28 59 29 74 30 94 31 57 32 58 33
REMARK SMILES IDX 73 35 95 36 60 37 43 38 44 39 53 40 45 41 46 42 52 43 54 44
REMARK SMILES IDX 47 45 48 46 49 47 50 48 51 49 77 50 78 51 87 52 79 53 80 54
REMARK SMILES IDX 86 55 88 56 81 57 82 58 83 59 84 60 85 61 61 62 62 63 71 64
REMARK SMILES IDX 63 65 64 66 70 67 72 68 65 69 66 70 67 71 68 72 69 73 6 74
REMARK SMILES IDX 7 75 8 76 9 77 10 78 32 79 11 80 31 81 33 82 30 83 12 84
REMARK SMILES IDX 13 85 14 86 15 87 16 89 17 90 18 92 19 93 20 94 29 95 21 96
REMARK SMILES IDX 28 97 22 98 23 99 27 100 24 101 26 102 25 103
REMARK H PARENT 93 23 59 34 15 88 16 91
REMARK Flexibility Score: inf
ROOT
ATOM      1  C   UNL A   1      42.651  20.016  25.781  1.00  0.00     0.275 C 
ENDROOT
BRANCH   1   2
ATOM      2  C   UNL A   1      43.479  21.301  25.786  1.00  0.00     0.275 C 
BRANCH   2   3
ATOM      3  O   UNL A   1      42.911  22.459  25.141  1.00  0.00    -0.458 OA
BRANCH   3   4
ATOM      4  C   UNL A   1      43.707  23.528  24.921  1.00  0.00     0.338 C 
ATOM      5  O   UNL A   1      44.570  23.599  24.062  1.00  0.00    -0.246 OA
BRANCH   4   6
ATOM      6  C   UNL A   1      43.321  24.653  25.799  1.00  0.00     0.060 A 
ATOM      7  C   UNL A   1      42.340  25.575  25.412  1.00  0.00     0.016 A 
ATOM      8  C   UNL A   1      43.936  24.762  27.049  1.00  0.00     0.016 A 
ATOM      9  C   UNL A   1      42.021  26.640  26.241  1.00  0.00     0.010 A 
ATOM     10  C   UNL A   1      43.608  25.826  27.883  1.00  0.00     0.010 A 
ATOM     11  C   UNL A   1      42.678  26.784  27.463  1.00  0.00    -0.014 A 
BRANCH  11  12
ATOM     12  C   UNL A   1      42.359  27.960  28.270  1.00  0.00     0.031 A 
ATOM     13  C   UNL A   1      43.361  29.068  28.313  1.00  0.00     0.074 A 
ATOM     14  C   UNL A   1      41.151  28.127  28.844  1.00  0.00     0.049 A 
ATOM     15  N   UNL A   1      43.943  29.612  29.336  1.00  0.00    -0.248 NA
ATOM     16  C   UNL A   1      43.794  29.626  27.024  1.00  0.00     0.031 C 
ATOM     17  C   UNL A   1      39.944  27.315  28.656  1.00  0.00     0.029 A 
ATOM     18  N   UNL A   1      40.720  29.149  29.634  1.00  0.00    -0.354 N 
ATOM     19  C   UNL A   1      44.684  30.687  28.841  1.00  0.00     0.074 A 
ATOM     20  C   UNL A   1      44.633  30.588  27.404  1.00  0.00     0.031 C 
ATOM     21  C   UNL A   1      38.878  27.999  29.122  1.00  0.00     0.029 A 
ATOM     22  C   UNL A   1      39.342  29.218  29.759  1.00  0.00     0.049 A 
ATOM     23  H   UNL A   1      41.333  29.780  30.077  1.00  0.00     0.167 HD
ATOM     24  C   UNL A   1      45.172  31.687  29.629  1.00  0.00     0.037 A 
ATOM     25  C   UNL A   1      38.631  30.249  30.275  1.00  0.00     0.037 A 
ATOM     26  C   UNL A   1      45.180  31.336  31.020  1.00  0.00     0.049 A 
ATOM     27  C   UNL A   1      39.545  31.046  31.131  1.00  0.00     0.074 A 
ATOM     28  C   UNL A   1      45.810  30.370  31.778  1.00  0.00     0.029 A 
ATOM     29  N   UNL A   1      44.206  31.864  31.829  1.00  0.00    -0.354 N 
ATOM     30  N   UNL A   1      40.071  30.622  32.249  1.00  0.00    -0.248 NA
ATOM     31  C   UNL A   1      40.178  32.223  30.557  1.00  0.00     0.031 C 
ATOM     32  C   UNL A   1      44.882  30.041  32.807  1.00  0.00     0.029 A 
ATOM     33  C   UNL A   1      43.751  30.839  32.620  1.00  0.00     0.049 A 
ATOM     34  H   UNL A   1      43.893  32.798  31.841  1.00  0.00     0.167 HD
ATOM     35  C   UNL A   1      41.320  31.221  32.309  1.00  0.00     0.074 A 
ATOM     36  C   UNL A   1      41.277  32.284  31.311  1.00  0.00     0.031 C 
ATOM     37  C   UNL A   1      42.362  30.634  32.967  1.00  0.00     0.037 A 
BRANCH  24  38
ATOM     38  C   UNL A   1      45.414  33.103  29.164  1.00  0.00     0.058 A 
ATOM     39  C   UNL A   1      44.363  34.003  28.886  1.00  0.00     0.135 A 
ATOM     40  C   UNL A   1      46.702  33.671  29.246  1.00  0.00     0.135 A 
ATOM     41  F   UNL A   1      43.082  33.609  28.879  1.00  0.00    -0.206 F 
ATOM     42  C   UNL A   1      44.570  35.364  28.690  1.00  0.00     0.059 A 
ATOM     43  C   UNL A   1      46.927  35.043  29.100  1.00  0.00     0.059 A 
ATOM     44  F   UNL A   1      47.768  32.907  29.530  1.00  0.00    -0.206 F 
ATOM     45  C   UNL A   1      45.852  35.882  28.827  1.00  0.00     0.060 A 
BRANCH  45  46
ATOM     46  S   UNL A   1      46.050  37.673  28.753  1.00  0.00     0.124 S 
ATOM     47  O   UNL A   1      47.325  37.852  29.439  1.00  0.00    -0.237 OA
ATOM     48  O   UNL A   1      46.063  37.915  27.314  1.00  0.00    -0.237 OA
ATOM     49  O   UNL A   1      44.876  38.171  29.460  1.00  0.00    -0.744 OA
ENDBRANCH  45  46
ENDBRANCH  24  38
BRANCH  25  50
ATOM     50  C   UNL A   1      37.321  30.759  29.800  1.00  0.00     0.058 A 
ATOM     51  C   UNL A   1      37.062  30.970  28.430  1.00  0.00     0.135 A 
ATOM     52  C   UNL A   1      36.390  31.307  30.700  1.00  0.00     0.135 A 
ATOM     53  F   UNL A   1      37.918  30.548  27.487  1.00  0.00    -0.206 F 
ATOM     54  C   UNL A   1      35.971  31.706  27.979  1.00  0.00     0.059 A 
ATOM     55  C   UNL A   1      35.294  32.062  30.272  1.00  0.00     0.059 A 
ATOM     56  F   UNL A   1      36.574  31.175  32.023  1.00  0.00    -0.206 F 
ATOM     57  C   UNL A   1      35.109  32.277  28.908  1.00  0.00     0.060 A 
BRANCH  57  58
ATOM     58  S   UNL A   1      33.822  33.383  28.292  1.00  0.00     0.124 S 
ATOM     59  O   UNL A   1      33.322  33.974  29.530  1.00  0.00    -0.237 OA
ATOM     60  O   UNL A   1      34.580  34.279  27.425  1.00  0.00    -0.237 OA
ATOM     61  O   UNL A   1      32.898  32.484  27.609  1.00  0.00    -0.744 OA
ENDBRANCH  57  58
ENDBRANCH  25  50
BRANCH  37  62
ATOM     62  C   UNL A   1      42.070  29.484  33.897  1.00  0.00     0.058 A 
ATOM     63  C   UNL A   1      42.048  29.728  35.279  1.00  0.00     0.135 A 
ATOM     64  C   UNL A   1      42.002  28.142  33.481  1.00  0.00     0.135 A 
ATOM     65  F   UNL A   1      42.170  30.982  35.743  1.00  0.00    -0.206 F 
ATOM     66  C   UNL A   1      41.974  28.693  36.207  1.00  0.00     0.059 A 
ATOM     67  C   UNL A   1      41.892  27.091  34.393  1.00  0.00     0.059 A 
ATOM     68  F   UNL A   1      42.121  27.816  32.187  1.00  0.00    -0.206 F 
ATOM     69  C   UNL A   1      41.901  27.375  35.756  1.00  0.00     0.060 A 
BRANCH  69  70
ATOM     70  S   UNL A   1      41.866  26.048  36.978  1.00  0.00     0.124 S 
ATOM     71  O   UNL A   1      42.885  26.486  37.928  1.00  0.00    -0.237 OA
ATOM     72  O   UNL A   1      40.490  26.102  37.463  1.00  0.00    -0.237 OA
ATOM     73  O   UNL A   1      42.205  24.855  36.209  1.00  0.00    -0.744 OA
ENDBRANCH  69  70
ENDBRANCH  37  62
ENDBRANCH  11  12
ENDBRANCH   4   6
ENDBRANCH   3   4
ENDBRANCH   2   3
ENDBRANCH   1   2
BRANCH   1  74
ATOM     74  O   UNL A   1      41.249  20.334  25.704  1.00  0.00    -0.458 OA
BRANCH  74  75
ATOM     75  C   UNL A   1      40.676  20.671  26.885  1.00  0.00     0.341 C 
ATOM     76  O   UNL A   1      40.899  20.208  27.990  1.00  0.00    -0.246 OA
BRANCH  75  77
ATOM     77  C   UNL A   1      39.717  21.748  26.641  1.00  0.00     0.097 A 
ATOM     78  C   UNL A   1      38.573  21.512  25.875  1.00  0.00     0.040 A 
ATOM     79  C   UNL A   1      40.000  23.026  27.108  1.00  0.00     0.137 A 
ATOM     80  C   UNL A   1      37.696  22.574  25.610  1.00  0.00     0.085 A 
ATOM     81  C   UNL A   1      39.128  24.081  26.842  1.00  0.00     0.041 A 
ATOM     82  F   UNL A   1      41.126  23.269  27.793  1.00  0.00    -0.206 F 
ATOM     83  C   UNL A   1      37.963  23.859  26.097  1.00  0.00     0.025 A 
BRANCH  80  84
ATOM     84  S   UNL A   1      36.327  22.236  24.528  1.00  0.00     0.257 S 
ATOM     85  O   UNL A   1      36.543  23.034  23.336  1.00  0.00    -0.205 OA
ATOM     86  O   UNL A   1      36.155  20.809  24.487  1.00  0.00    -0.205 OA
BRANCH  84  87
ATOM     87  N   UNL A   1      34.954  22.869  25.307  1.00  0.00    -0.123 NA
ATOM     88  H   UNL A   1      34.721  23.745  24.841  1.00  0.00     0.167 HD
BRANCH  87  89
ATOM     89  N   UNL A   1      33.753  22.069  25.338  1.00  0.00    -0.275 N 
ATOM     90  C   UNL A   1      32.525  22.489  25.791  1.00  0.00     0.265 C 
ATOM     91  H   UNL A   1      33.818  21.146  25.006  1.00  0.00     0.186 HD
ATOM     92  O   UNL A   1      31.555  21.740  25.638  1.00  0.00    -0.271 OA
BRANCH  90  93
ATOM     93  C   UNL A   1      32.430  23.865  26.465  1.00  0.00     0.244 C 
ATOM     94  C   UNL A   1      32.348  24.965  25.473  1.00  0.00     0.042 C 
ATOM     95  N   UNL A   1      31.099  23.945  27.133  1.00  0.00    -0.171 NA
ATOM     96  C   UNL A   1      31.117  25.464  25.594  1.00  0.00     0.091 C 
ATOM     97  N   UNL A   1      30.404  24.856  26.597  1.00  0.00    -0.155 NA
BRANCH  96  98
ATOM     98  C   UNL A   1      30.562  26.538  24.767  1.00  0.00     0.002 A 
ATOM     99  C   UNL A   1      31.320  27.682  24.486  1.00  0.00     0.010 A 
ATOM    100  C   UNL A   1      29.260  26.447  24.251  1.00  0.00     0.010 A 
ATOM    101  C   UNL A   1      30.798  28.697  23.679  1.00  0.00     0.001 A 
ATOM    102  C   UNL A   1      28.737  27.465  23.452  1.00  0.00     0.001 A 
ATOM    103  C   UNL A   1      29.509  28.587  23.161  1.00  0.00     0.000 A 
ENDBRANCH  96  98
ENDBRANCH  90  93
ENDBRANCH  87  89
ENDBRANCH  84  87
ENDBRANCH  80  84
ENDBRANCH  75  77
ENDBRANCH  74  75
ENDBRANCH   1  74
TORSDOF 19
ENDMDL
MODEL 3
REMARK VINA RESULT:     -12.7      2.730      9.637
REMARK SMILES O=C(OCCOC(=O)c1cc(S(=O)(=O)NNC(=O)[C@H]2C=C(c3ccccc3)N=N2)ccc1F)c1ccc(-c2c3nc(c(-c4c(F)cc(S(=O)(=O)[O-])cc4F)c4ccc([nH]4)c(-c4c(F)cc(S(=O)(=O)[O-])cc4F)c4nc(c(-c5c(F)cc(S(=O)(=O)[O-])cc5F)c5ccc2[nH]5)C=C4)C=C3)cc1
REMARK SMILES IDX 5 1 4 2 3 3 2 4 1 5 34 6 35 7 99 8 36 9 98 10 37 11 38 12
REMARK SMILES IDX 39 13 92 14 40 15 97 16 91 17 93 18 41 19 96 20 90 21 89 22
REMARK SMILES IDX 42 24 76 25 55 26 75 27 56 28 59 29 74 30 94 31 57 32 58 33
REMARK SMILES IDX 73 35 95 36 60 37 43 38 44 39 53 40 45 41 46 42 52 43 54 44
REMARK SMILES IDX 47 45 48 46 49 47 50 48 51 49 77 50 78 51 87 52 79 53 80 54
REMARK SMILES IDX 86 55 88 56 81 57 82 58 83 59 84 60 85 61 61 62 62 63 71 64
REMARK SMILES IDX 63 65 64 66 70 67 72 68 65 69 66 70 67 71 68 72 69 73 6 74
REMARK SMILES IDX 7 75 8 76 9 77 10 78 32 79 11 80 31 81 33 82 30 83 12 84
REMARK SMILES IDX 13 85 14 86 15 87 16 89 17 90 18 92 19 93 20 94 29 95 21 96
REMARK SMILES IDX 28 97 22 98 23 99 27 100 24 101 26 102 25 103
REMARK H PARENT 93 23 59 34 15 88 16 91
REMARK Flexibility Score: inf
ROOT
ATOM      1  C   UNL A   1      36.559  21.415  24.571  1.00  0.00     0.275 C 
ENDROOT
BRANCH   1   2
ATOM      2  C   UNL A   1      37.954  21.297  25.186  1.00  0.00     0.275 C 
BRANCH   2   3
ATOM      3  O   UNL A   1      38.387  22.362  26.057  1.00  0.00    -0.458 OA
BRANCH   3   4
ATOM      4  C   UNL A   1      39.679  22.387  26.449  1.00  0.00     0.338 C 
ATOM      5  O   UNL A   1      40.493  21.502  26.249  1.00  0.00    -0.246 OA
BRANCH   4   6
ATOM      6  C   UNL A   1      40.009  23.688  27.070  1.00  0.00     0.060 A 
ATOM      7  C   UNL A   1      41.180  23.860  27.819  1.00  0.00     0.016 A 
ATOM      8  C   UNL A   1      39.139  24.762  26.865  1.00  0.00     0.016 A 
ATOM      9  C   UNL A   1      41.449  25.082  28.417  1.00  0.00     0.010 A 
ATOM     10  C   UNL A   1      39.415  25.990  27.459  1.00  0.00     0.010 A 
ATOM     11  C   UNL A   1      40.550  26.138  28.264  1.00  0.00    -0.014 A 
BRANCH  11  12
ATOM     12  C   UNL A   1      40.842  27.385  28.971  1.00  0.00     0.031 A 
ATOM     13  C   UNL A   1      41.983  28.213  28.478  1.00  0.00     0.074 A 
ATOM     14  C   UNL A   1      40.036  27.862  29.940  1.00  0.00     0.049 A 
ATOM     15  N   UNL A   1      43.031  28.632  29.117  1.00  0.00    -0.248 NA
ATOM     16  C   UNL A   1      41.961  28.603  27.062  1.00  0.00     0.031 C 
ATOM     17  C   UNL A   1      38.716  27.365  30.341  1.00  0.00     0.029 A 
ATOM     18  N   UNL A   1      40.190  28.985  30.695  1.00  0.00    -0.354 N 
ATOM     19  C   UNL A   1      43.715  29.476  28.238  1.00  0.00     0.074 A 
ATOM     20  C   UNL A   1      43.065  29.343  26.959  1.00  0.00     0.031 C 
ATOM     21  C   UNL A   1      38.102  28.305  31.090  1.00  0.00     0.029 A 
ATOM     22  C   UNL A   1      39.030  29.394  31.333  1.00  0.00     0.049 A 
ATOM     23  H   UNL A   1      41.048  29.461  30.781  1.00  0.00     0.167 HD
ATOM     24  C   UNL A   1      44.680  30.352  28.638  1.00  0.00     0.037 A 
ATOM     25  C   UNL A   1      38.825  30.585  31.945  1.00  0.00     0.037 A 
ATOM     26  C   UNL A   1      45.179  30.058  29.951  1.00  0.00     0.049 A 
ATOM     27  C   UNL A   1      40.154  31.162  32.269  1.00  0.00     0.074 A 
ATOM     28  C   UNL A   1      45.844  28.993  30.525  1.00  0.00     0.029 A 
ATOM     29  N   UNL A   1      44.753  30.836  30.998  1.00  0.00    -0.354 N 
ATOM     30  N   UNL A   1      40.986  30.661  33.141  1.00  0.00    -0.248 NA
ATOM     31  C   UNL A   1      40.730  32.128  31.347  1.00  0.00     0.031 C 
ATOM     32  C   UNL A   1      45.368  28.937  31.866  1.00  0.00     0.029 A 
ATOM     33  C   UNL A   1      44.455  29.982  32.029  1.00  0.00     0.049 A 
ATOM     34  H   UNL A   1      44.676  31.818  31.007  1.00  0.00     0.167 HD
ATOM     35  C   UNL A   1      42.247  30.937  32.635  1.00  0.00     0.074 A 
ATOM     36  C   UNL A   1      42.027  31.943  31.602  1.00  0.00     0.031 C 
ATOM     37  C   UNL A   1      43.317  30.136  32.910  1.00  0.00     0.037 A 
BRANCH  24  38
ATOM     38  C   UNL A   1      45.004  31.648  27.936  1.00  0.00     0.058 A 
ATOM     39  C   UNL A   1      44.217  32.811  28.082  1.00  0.00     0.135 A 
ATOM     40  C   UNL A   1      46.257  31.831  27.316  1.00  0.00     0.135 A 
ATOM     41  F   UNL A   1      43.050  32.793  28.741  1.00  0.00    -0.206 F 
ATOM     42  C   UNL A   1      44.633  34.061  27.637  1.00  0.00     0.059 A 
ATOM     43  C   UNL A   1      46.715  33.086  26.905  1.00  0.00     0.059 A 
ATOM     44  F   UNL A   1      47.095  30.795  27.151  1.00  0.00    -0.206 F 
ATOM     45  C   UNL A   1      45.895  34.196  27.074  1.00  0.00     0.060 A 
BRANCH  45  46
ATOM     46  S   UNL A   1      46.471  35.860  26.684  1.00  0.00     0.124 S 
ATOM     47  O   UNL A   1      45.210  36.587  26.582  1.00  0.00    -0.237 OA
ATOM     48  O   UNL A   1      47.294  36.175  27.847  1.00  0.00    -0.237 OA
ATOM     49  O   UNL A   1      47.199  35.679  25.433  1.00  0.00    -0.744 OA
ENDBRANCH  45  46
ENDBRANCH  24  38
BRANCH  25  50
ATOM     50  C   UNL A   1      37.574  31.384  31.952  1.00  0.00     0.058 A 
ATOM     51  C   UNL A   1      37.113  32.044  30.794  1.00  0.00     0.135 A 
ATOM     52  C   UNL A   1      36.952  31.740  33.160  1.00  0.00     0.135 A 
ATOM     53  F   UNL A   1      37.680  31.830  29.598  1.00  0.00    -0.206 F 
ATOM     54  C   UNL A   1      36.122  33.020  30.834  1.00  0.00     0.059 A 
ATOM     55  C   UNL A   1      35.964  32.727  33.228  1.00  0.00     0.059 A 
ATOM     56  F   UNL A   1      37.348  31.179  34.314  1.00  0.00    -0.206 F 
ATOM     57  C   UNL A   1      35.576  33.380  32.060  1.00  0.00     0.060 A 
BRANCH  57  58
ATOM     58  S   UNL A   1      34.438  34.781  32.095  1.00  0.00     0.124 S 
ATOM     59  O   UNL A   1      34.272  35.064  30.673  1.00  0.00    -0.237 OA
ATOM     60  O   UNL A   1      33.273  34.210  32.765  1.00  0.00    -0.237 OA
ATOM     61  O   UNL A   1      35.164  35.792  32.855  1.00  0.00    -0.744 OA
ENDBRANCH  57  58
ENDBRANCH  25  50
BRANCH  37  62
ATOM     62  C   UNL A   1      43.194  29.125  34.021  1.00  0.00     0.058 A 
ATOM     63  C   UNL A   1      42.674  27.857  33.720  1.00  0.00     0.135 A 
ATOM     64  C   UNL A   1      43.393  29.430  35.380  1.00  0.00     0.135 A 
ATOM     65  F   UNL A   1      42.405  27.525  32.446  1.00  0.00    -0.206 F 
ATOM     66  C   UNL A   1      42.354  26.937  34.715  1.00  0.00     0.059 A 
ATOM     67  C   UNL A   1      43.112  28.511  36.392  1.00  0.00     0.059 A 
ATOM     68  F   UNL A   1      43.788  30.653  35.759  1.00  0.00    -0.206 F 
ATOM     69  C   UNL A   1      42.572  27.275  36.051  1.00  0.00     0.060 A 
BRANCH  69  70
ATOM     70  S   UNL A   1      42.094  26.089  37.326  1.00  0.00     0.124 S 
ATOM     71  O   UNL A   1      43.103  26.330  38.354  1.00  0.00    -0.237 OA
ATOM     72  O   UNL A   1      40.739  26.518  37.663  1.00  0.00    -0.237 OA
ATOM     73  O   UNL A   1      42.186  24.797  36.654  1.00  0.00    -0.744 OA
ENDBRANCH  69  70
ENDBRANCH  37  62
ENDBRANCH  11  12
ENDBRANCH   4   6
ENDBRANCH   3   4
ENDBRANCH   2   3
ENDBRANCH   1   2
BRANCH   1  74
ATOM     74  O   UNL A   1      35.574  20.894  25.482  1.00  0.00    -0.458 OA
BRANCH  74  75
ATOM     75  C   UNL A   1      34.289  21.033  25.073  1.00  0.00     0.341 C 
ATOM     76  O   UNL A   1      33.486  20.158  24.800  1.00  0.00    -0.246 OA
BRANCH  75  77
ATOM     77  C   UNL A   1      33.972  22.460  25.028  1.00  0.00     0.097 A 
ATOM     78  C   UNL A   1      33.662  23.073  23.812  1.00  0.00     0.040 A 
ATOM     79  C   UNL A   1      34.064  23.213  26.192  1.00  0.00     0.137 A 
ATOM     80  C   UNL A   1      33.414  24.454  23.785  1.00  0.00     0.085 A 
ATOM     81  C   UNL A   1      33.819  24.585  26.164  1.00  0.00     0.041 A 
ATOM     82  F   UNL A   1      34.418  22.637  27.350  1.00  0.00    -0.206 F 
ATOM     83  C   UNL A   1      33.483  25.214  24.959  1.00  0.00     0.025 A 
BRANCH  80  84
ATOM     84  S   UNL A   1      33.150  25.194  22.191  1.00  0.00     0.257 S 
ATOM     85  O   UNL A   1      34.099  26.286  22.086  1.00  0.00    -0.205 OA
ATOM     86  O   UNL A   1      33.083  24.128  21.229  1.00  0.00    -0.205 OA
BRANCH  84  87
ATOM     87  N   UNL A   1      31.599  25.888  22.254  1.00  0.00    -0.123 NA
ATOM     88  H   UNL A   1      31.348  25.978  23.239  1.00  0.00     0.167 HD
BRANCH  87  89
ATOM     89  N   UNL A   1      31.400  27.181  21.644  1.00  0.00    -0.275 N 
ATOM     90  C   UNL A   1      31.078  28.338  22.312  1.00  0.00     0.265 C 
ATOM     91  H   UNL A   1      31.504  27.239  20.668  1.00  0.00     0.186 HD
ATOM     92  O   UNL A   1      31.066  29.398  21.677  1.00  0.00    -0.271 OA
BRANCH  90  93
ATOM     93  C   UNL A   1      30.748  28.248  23.808  1.00  0.00     0.244 C 
ATOM     94  C   UNL A   1      31.971  28.163  24.643  1.00  0.00     0.042 C 
ATOM     95  N   UNL A   1      30.177  29.562  24.220  1.00  0.00    -0.171 NA
ATOM     96  C   UNL A   1      32.025  29.314  25.315  1.00  0.00     0.091 C 
ATOM     97  N   UNL A   1      30.940  30.117  25.062  1.00  0.00    -0.155 NA
BRANCH  96  98
ATOM     98  C   UNL A   1      33.103  29.703  26.227  1.00  0.00     0.002 A 
ATOM     99  C   UNL A   1      34.200  28.858  26.431  1.00  0.00     0.010 A 
ATOM    100  C   UNL A   1      33.051  30.923  26.920  1.00  0.00     0.010 A 
ATOM    101  C   UNL A   1      35.240  29.239  27.285  1.00  0.00     0.001 A 
ATOM    102  C   UNL A   1      34.085  31.298  27.780  1.00  0.00     0.001 A 
ATOM    103  C   UNL A   1      35.183  30.459  27.956  1.00  0.00     0.000 A 
ENDBRANCH  96  98
ENDBRANCH  90  93
ENDBRANCH  87  89
ENDBRANCH  84  87
ENDBRANCH  80  84
ENDBRANCH  75  77
ENDBRANCH  74  75
ENDBRANCH   1  74
TORSDOF 19
ENDMDL
