MODEL 1
REMARK VINA RESULT:     -11.3      0.000      0.000
REMARK SMILES O=C(OCCOC(=O)c1cc(S(=O)(=O)Nc2ccc(F)c(C(F)(F)F)c2)c[nH]1)c1ccc(-c2c3nc(c(-c4c(F)cc(S(=O)(=O)[O-])cc4F)c4ccc([nH]4)c(-c4c(F)cc(S(=O)(=O)[O-])cc4F)c4nc(c(-c5c(F)cc(S(=O)(=O)[O-])cc5F)c5ccc2[nH]5)C=C4)C=C3)cc1
REMARK SMILES IDX 5 1 4 2 3 3 2 4 1 5 29 6 30 7 94 8 31 9 93 10 32 11 33 12
REMARK SMILES IDX 34 13 87 14 35 15 92 16 86 17 88 18 36 19 91 20 85 21 84 22
REMARK SMILES IDX 37 24 71 25 50 26 70 27 51 28 54 29 69 30 89 31 52 32 53 33
REMARK SMILES IDX 68 35 90 36 55 37 38 38 39 39 48 40 40 41 41 42 47 43 49 44
REMARK SMILES IDX 42 45 43 46 44 47 45 48 46 49 72 50 73 51 82 52 74 53 75 54
REMARK SMILES IDX 81 55 83 56 76 57 77 58 78 59 79 60 80 61 56 62 57 63 66 64
REMARK SMILES IDX 58 65 59 66 65 67 67 68 60 69 61 70 62 71 63 72 64 73 6 74
REMARK SMILES IDX 7 75 8 76 9 77 10 78 28 79 11 80 27 81 12 83 13 84 14 85
REMARK SMILES IDX 15 86 16 88 17 89 26 90 18 91 21 92 19 93 20 94 22 95 23 96
REMARK SMILES IDX 24 97 25 98
REMARK H PARENT 88 23 54 34 28 82 15 87
REMARK Flexibility Score: inf
ROOT
ATOM      1  C   UNL A   1      34.555  33.662  28.806  1.00  0.00     0.275 C 
ENDROOT
BRANCH   1   2
ATOM      2  C   UNL A   1      34.535  32.379  27.972  1.00  0.00     0.275 C 
BRANCH   2   3
ATOM      3  O   UNL A   1      35.777  31.644  27.911  1.00  0.00    -0.458 OA
BRANCH   3   4
ATOM      4  C   UNL A   1      35.807  30.292  27.842  1.00  0.00     0.338 C 
ATOM      5  O   UNL A   1      34.934  29.637  27.285  1.00  0.00    -0.246 OA
BRANCH   4   6
ATOM      6  C   UNL A   1      37.097  29.665  28.212  1.00  0.00     0.060 A 
ATOM      7  C   UNL A   1      37.254  28.865  29.344  1.00  0.00     0.016 A 
ATOM      8  C   UNL A   1      38.182  29.851  27.338  1.00  0.00     0.016 A 
ATOM      9  C   UNL A   1      38.496  28.322  29.646  1.00  0.00     0.010 A 
ATOM     10  C   UNL A   1      39.425  29.289  27.627  1.00  0.00     0.010 A 
ATOM     11  C   UNL A   1      39.584  28.538  28.795  1.00  0.00    -0.014 A 
BRANCH  11  12
ATOM     12  C   UNL A   1      40.866  27.896  29.167  1.00  0.00     0.031 A 
ATOM     13  C   UNL A   1      41.163  26.642  28.352  1.00  0.00     0.074 A 
ATOM     14  C   UNL A   1      41.520  28.413  30.247  1.00  0.00     0.049 A 
ATOM     15  N   UNL A   1      41.669  25.511  28.739  1.00  0.00    -0.248 NA
ATOM     16  C   UNL A   1      40.718  26.590  26.936  1.00  0.00     0.031 C 
ATOM     17  C   UNL A   1      41.101  29.637  30.953  1.00  0.00     0.029 A 
ATOM     18  N   UNL A   1      42.633  28.036  30.974  1.00  0.00    -0.354 N 
ATOM     19  C   UNL A   1      41.771  24.687  27.599  1.00  0.00     0.074 A 
ATOM     20  C   UNL A   1      41.052  25.354  26.553  1.00  0.00     0.031 C 
ATOM     21  C   UNL A   1      41.899  29.871  32.014  1.00  0.00     0.029 A 
ATOM     22  C   UNL A   1      42.895  28.825  32.122  1.00  0.00     0.049 A 
ATOM     23  H   UNL A   1      43.202  27.276  30.713  1.00  0.00     0.167 HD
ATOM     24  C   UNL A   1      42.547  23.565  27.549  1.00  0.00     0.037 A 
ATOM     25  C   UNL A   1      43.811  28.634  33.122  1.00  0.00     0.037 A 
ATOM     26  C   UNL A   1      43.278  23.404  28.763  1.00  0.00     0.049 A 
ATOM     27  C   UNL A   1      44.603  27.447  32.740  1.00  0.00     0.074 A 
ATOM     28  C   UNL A   1      42.953  22.963  30.019  1.00  0.00     0.029 A 
ATOM     29  N   UNL A   1      44.523  23.984  28.809  1.00  0.00    -0.354 N 
ATOM     30  N   UNL A   1      45.456  27.394  31.763  1.00  0.00    -0.248 NA
ATOM     31  C   UNL A   1      44.393  26.196  33.482  1.00  0.00     0.031 C 
ATOM     32  C   UNL A   1      43.867  23.616  30.875  1.00  0.00     0.029 A 
ATOM     33  C   UNL A   1      44.750  24.381  30.105  1.00  0.00     0.049 A 
ATOM     34  H   UNL A   1      45.141  24.095  28.051  1.00  0.00     0.167 HD
ATOM     35  C   UNL A   1      45.630  26.043  31.576  1.00  0.00     0.074 A 
ATOM     36  C   UNL A   1      45.201  25.395  32.793  1.00  0.00     0.031 C 
ATOM     37  C   UNL A   1      45.595  25.539  30.317  1.00  0.00     0.037 A 
BRANCH  24  38
ATOM     38  C   UNL A   1      42.939  22.660  26.411  1.00  0.00     0.058 A 
ATOM     39  C   UNL A   1      43.953  22.953  25.489  1.00  0.00     0.135 A 
ATOM     40  C   UNL A   1      42.513  21.308  26.460  1.00  0.00     0.135 A 
ATOM     41  F   UNL A   1      44.436  24.197  25.370  1.00  0.00    -0.206 F 
ATOM     42  C   UNL A   1      44.563  21.955  24.721  1.00  0.00     0.059 A 
ATOM     43  C   UNL A   1      43.133  20.294  25.736  1.00  0.00     0.059 A 
ATOM     44  F   UNL A   1      41.514  20.935  27.279  1.00  0.00    -0.206 F 
ATOM     45  C   UNL A   1      44.176  20.624  24.883  1.00  0.00     0.060 A 
BRANCH  45  46
ATOM     46  S   UNL A   1      45.123  19.314  24.073  1.00  0.00     0.124 S 
ATOM     47  O   UNL A   1      44.730  18.142  24.846  1.00  0.00    -0.237 OA
ATOM     48  O   UNL A   1      44.627  19.368  22.701  1.00  0.00    -0.237 OA
ATOM     49  O   UNL A   1      46.509  19.742  24.246  1.00  0.00    -0.744 OA
ENDBRANCH  45  46
ENDBRANCH  24  38
BRANCH  25  50
ATOM     50  C   UNL A   1      44.090  29.205  34.500  1.00  0.00     0.058 A 
ATOM     51  C   UNL A   1      43.143  28.997  35.544  1.00  0.00     0.135 A 
ATOM     52  C   UNL A   1      45.125  30.088  34.842  1.00  0.00     0.135 A 
ATOM     53  F   UNL A   1      42.179  28.070  35.440  1.00  0.00    -0.206 F 
ATOM     54  C   UNL A   1      43.093  29.757  36.711  1.00  0.00     0.059 A 
ATOM     55  C   UNL A   1      45.131  30.825  36.037  1.00  0.00     0.059 A 
ATOM     56  F   UNL A   1      46.160  30.309  34.027  1.00  0.00    -0.206 F 
ATOM     57  C   UNL A   1      44.067  30.713  36.925  1.00  0.00     0.060 A 
BRANCH  57  58
ATOM     58  S   UNL A   1      43.911  31.820  38.338  1.00  0.00     0.124 S 
ATOM     59  O   UNL A   1      45.026  31.380  39.173  1.00  0.00    -0.237 OA
ATOM     60  O   UNL A   1      44.057  33.141  37.736  1.00  0.00    -0.237 OA
ATOM     61  O   UNL A   1      42.580  31.516  38.855  1.00  0.00    -0.744 OA
ENDBRANCH  57  58
ENDBRANCH  25  50
BRANCH  37  62
ATOM     62  C   UNL A   1      46.046  26.525  29.255  1.00  0.00     0.058 A 
ATOM     63  C   UNL A   1      47.394  26.759  28.941  1.00  0.00     0.135 A 
ATOM     64  C   UNL A   1      45.103  27.175  28.443  1.00  0.00     0.135 A 
ATOM     65  F   UNL A   1      48.359  26.152  29.628  1.00  0.00    -0.206 F 
ATOM     66  C   UNL A   1      47.799  27.601  27.906  1.00  0.00     0.059 A 
ATOM     67  C   UNL A   1      45.479  28.010  27.384  1.00  0.00     0.059 A 
ATOM     68  F   UNL A   1      43.791  26.995  28.668  1.00  0.00    -0.206 F 
ATOM     69  C   UNL A   1      46.831  28.219  27.123  1.00  0.00     0.060 A 
BRANCH  69  70
ATOM     70  S   UNL A   1      47.374  29.292  25.776  1.00  0.00     0.124 S 
ATOM     71  O   UNL A   1      48.592  29.883  26.323  1.00  0.00    -0.237 OA
ATOM     72  O   UNL A   1      47.576  28.344  24.683  1.00  0.00    -0.237 OA
ATOM     73  O   UNL A   1      46.258  30.217  25.601  1.00  0.00    -0.744 OA
ENDBRANCH  69  70
ENDBRANCH  37  62
ENDBRANCH  11  12
ENDBRANCH   4   6
ENDBRANCH   3   4
ENDBRANCH   2   3
ENDBRANCH   1   2
BRANCH   1  74
ATOM     74  O   UNL A   1      34.091  33.421  30.142  1.00  0.00    -0.457 OA
BRANCH  74  75
ATOM     75  C   UNL A   1      33.630  34.518  30.801  1.00  0.00     0.354 C 
ATOM     76  O   UNL A   1      32.968  35.425  30.304  1.00  0.00    -0.244 OA
BRANCH  75  77
ATOM     77  C   UNL A   1      34.027  34.478  32.177  1.00  0.00     0.126 A 
ATOM     78  C   UNL A   1      34.697  33.491  32.879  1.00  0.00     0.057 A 
ATOM     79  N   UNL A   1      33.874  35.545  33.036  1.00  0.00    -0.354 N 
ATOM     80  C   UNL A   1      35.271  34.128  34.012  1.00  0.00     0.106 A 
ATOM     81  C   UNL A   1      34.663  35.360  34.143  1.00  0.00     0.105 A 
ATOM     82  H   UNL A   1      33.288  36.321  32.879  1.00  0.00     0.166 HD
BRANCH  80  83
ATOM     83  S   UNL A   1      36.590  33.480  34.925  1.00  0.00     0.263 S 
ATOM     84  O   UNL A   1      36.237  33.704  36.318  1.00  0.00    -0.201 OA
ATOM     85  O   UNL A   1      36.810  32.168  34.385  1.00  0.00    -0.201 OA
BRANCH  83  86
ATOM     86  N   UNL A   1      38.015  34.390  34.640  1.00  0.00    -0.280 N 
ATOM     87  H   UNL A   1      38.271  35.137  35.227  1.00  0.00     0.180 HD
BRANCH  86  88
ATOM     88  C   UNL A   1      38.816  34.021  33.515  1.00  0.00     0.050 A 
ATOM     89  C   UNL A   1      40.125  33.594  33.750  1.00  0.00     0.030 A 
ATOM     90  C   UNL A   1      38.353  34.163  32.205  1.00  0.00     0.043 A 
ATOM     91  C   UNL A   1      40.979  33.328  32.682  1.00  0.00     0.042 A 
ATOM     92  C   UNL A   1      39.202  33.867  31.117  1.00  0.00     0.093 A 
ATOM     93  C   UNL A   1      40.511  33.460  31.378  1.00  0.00     0.135 A 
ATOM     94  F   UNL A   1      41.353  33.188  30.373  1.00  0.00    -0.206 F 
BRANCH  92  95
ATOM     95  C   UNL A   1      38.699  33.950  29.706  1.00  0.00     0.419 C 
ATOM     96  F   UNL A   1      38.633  32.720  29.121  1.00  0.00    -0.166 F 
ATOM     97  F   UNL A   1      37.438  34.460  29.632  1.00  0.00    -0.166 F 
ATOM     98  F   UNL A   1      39.452  34.715  28.870  1.00  0.00    -0.166 F 
ENDBRANCH  92  95
ENDBRANCH  86  88
ENDBRANCH  83  86
ENDBRANCH  80  83
ENDBRANCH  75  77
ENDBRANCH  74  75
ENDBRANCH   1  74
TORSDOF 18
ENDMDL
MODEL 2
REMARK VINA RESULT:     -11.2      4.417      7.516
REMARK SMILES O=C(OCCOC(=O)c1cc(S(=O)(=O)Nc2ccc(F)c(C(F)(F)F)c2)c[nH]1)c1ccc(-c2c3nc(c(-c4c(F)cc(S(=O)(=O)[O-])cc4F)c4ccc([nH]4)c(-c4c(F)cc(S(=O)(=O)[O-])cc4F)c4nc(c(-c5c(F)cc(S(=O)(=O)[O-])cc5F)c5ccc2[nH]5)C=C4)C=C3)cc1
REMARK SMILES IDX 5 1 4 2 3 3 2 4 1 5 29 6 30 7 94 8 31 9 93 10 32 11 33 12
REMARK SMILES IDX 34 13 87 14 35 15 92 16 86 17 88 18 36 19 91 20 85 21 84 22
REMARK SMILES IDX 37 24 71 25 50 26 70 27 51 28 54 29 69 30 89 31 52 32 53 33
REMARK SMILES IDX 68 35 90 36 55 37 38 38 39 39 48 40 40 41 41 42 47 43 49 44
REMARK SMILES IDX 42 45 43 46 44 47 45 48 46 49 72 50 73 51 82 52 74 53 75 54
REMARK SMILES IDX 81 55 83 56 76 57 77 58 78 59 79 60 80 61 56 62 57 63 66 64
REMARK SMILES IDX 58 65 59 66 65 67 67 68 60 69 61 70 62 71 63 72 64 73 6 74
REMARK SMILES IDX 7 75 8 76 9 77 10 78 28 79 11 80 27 81 12 83 13 84 14 85
REMARK SMILES IDX 15 86 16 88 17 89 26 90 18 91 21 92 19 93 20 94 22 95 23 96
REMARK SMILES IDX 24 97 25 98
REMARK H PARENT 88 23 54 34 28 82 15 87
REMARK Flexibility Score: inf
ROOT
ATOM      1  C   UNL A   1      33.218  29.354  25.881  1.00  0.00     0.275 C 
ENDROOT
BRANCH   1   2
ATOM      2  C   UNL A   1      33.459  29.771  27.333  1.00  0.00     0.275 C 
BRANCH   2   3
ATOM      3  O   UNL A   1      34.741  29.409  27.891  1.00  0.00    -0.458 OA
BRANCH   3   4
ATOM      4  C   UNL A   1      35.820  30.222  27.794  1.00  0.00     0.338 C 
ATOM      5  O   UNL A   1      35.726  31.434  27.637  1.00  0.00    -0.246 OA
BRANCH   4   6
ATOM      6  C   UNL A   1      37.112  29.612  28.187  1.00  0.00     0.060 A 
ATOM      7  C   UNL A   1      37.267  28.843  29.341  1.00  0.00     0.016 A 
ATOM      8  C   UNL A   1      38.201  29.782  27.314  1.00  0.00     0.016 A 
ATOM      9  C   UNL A   1      38.510  28.315  29.663  1.00  0.00     0.010 A 
ATOM     10  C   UNL A   1      39.445  29.234  27.624  1.00  0.00     0.010 A 
ATOM     11  C   UNL A   1      39.602  28.515  28.812  1.00  0.00    -0.014 A 
BRANCH  11  12
ATOM     12  C   UNL A   1      40.885  27.890  29.207  1.00  0.00     0.031 A 
ATOM     13  C   UNL A   1      41.220  26.648  28.390  1.00  0.00     0.074 A 
ATOM     14  C   UNL A   1      41.507  28.409  30.305  1.00  0.00     0.049 A 
ATOM     15  N   UNL A   1      41.735  25.522  28.779  1.00  0.00    -0.248 NA
ATOM     16  C   UNL A   1      40.807  26.600  26.964  1.00  0.00     0.031 C 
ATOM     17  C   UNL A   1      41.054  29.621  31.011  1.00  0.00     0.029 A 
ATOM     18  N   UNL A   1      42.610  28.044  31.053  1.00  0.00    -0.354 N 
ATOM     19  C   UNL A   1      41.875  24.708  27.637  1.00  0.00     0.074 A 
ATOM     20  C   UNL A   1      41.169  25.372  26.579  1.00  0.00     0.031 C 
ATOM     21  C   UNL A   1      41.824  29.860  32.091  1.00  0.00     0.029 A 
ATOM     22  C   UNL A   1      42.834  28.828  32.213  1.00  0.00     0.049 A 
ATOM     23  H   UNL A   1      43.197  27.295  30.800  1.00  0.00     0.167 HD
ATOM     24  C   UNL A   1      42.670  23.599  27.595  1.00  0.00     0.037 A 
ATOM     25  C   UNL A   1      43.731  28.644  33.231  1.00  0.00     0.037 A 
ATOM     26  C   UNL A   1      43.376  23.440  28.824  1.00  0.00     0.049 A 
ATOM     27  C   UNL A   1      44.550  27.472  32.858  1.00  0.00     0.074 A 
ATOM     28  C   UNL A   1      43.031  22.985  30.069  1.00  0.00     0.029 A 
ATOM     29  N   UNL A   1      44.611  24.039  28.901  1.00  0.00    -0.354 N 
ATOM     30  N   UNL A   1      45.425  27.441  31.899  1.00  0.00    -0.248 NA
ATOM     31  C   UNL A   1      44.344  26.213  33.586  1.00  0.00     0.031 C 
ATOM     32  C   UNL A   1      43.916  23.645  30.949  1.00  0.00     0.029 A 
ATOM     33  C   UNL A   1      44.803  24.430  30.204  1.00  0.00     0.049 A 
ATOM     34  H   UNL A   1      45.243  24.165  28.157  1.00  0.00     0.167 HD
ATOM     35  C   UNL A   1      45.624  26.094  31.706  1.00  0.00     0.074 A 
ATOM     36  C   UNL A   1      45.179  25.429  32.909  1.00  0.00     0.031 C 
ATOM     37  C   UNL A   1      45.625  25.599  30.444  1.00  0.00     0.037 A 
BRANCH  24  38
ATOM     38  C   UNL A   1      43.100  22.709  26.459  1.00  0.00     0.058 A 
ATOM     39  C   UNL A   1      44.188  22.981  25.618  1.00  0.00     0.135 A 
ATOM     40  C   UNL A   1      42.614  21.377  26.437  1.00  0.00     0.135 A 
ATOM     41  F   UNL A   1      44.732  24.205  25.571  1.00  0.00    -0.206 F 
ATOM     42  C   UNL A   1      44.807  21.978  24.864  1.00  0.00     0.059 A 
ATOM     43  C   UNL A   1      43.239  20.356  25.727  1.00  0.00     0.059 A 
ATOM     44  F   UNL A   1      41.545  21.026  27.174  1.00  0.00    -0.206 F 
ATOM     45  C   UNL A   1      44.352  20.661  24.958  1.00  0.00     0.060 A 
BRANCH  45  46
ATOM     46  S   UNL A   1      45.296  19.333  24.174  1.00  0.00     0.124 S 
ATOM     47  O   UNL A   1      46.652  19.867  24.218  1.00  0.00    -0.237 OA
ATOM     48  O   UNL A   1      45.030  18.197  25.050  1.00  0.00    -0.237 OA
ATOM     49  O   UNL A   1      44.704  19.239  22.842  1.00  0.00    -0.744 OA
ENDBRANCH  45  46
ENDBRANCH  24  38
BRANCH  25  50
ATOM     50  C   UNL A   1      43.972  29.208  34.620  1.00  0.00     0.058 A 
ATOM     51  C   UNL A   1      42.961  29.062  35.614  1.00  0.00     0.135 A 
ATOM     52  C   UNL A   1      45.036  30.035  35.010  1.00  0.00     0.135 A 
ATOM     53  F   UNL A   1      41.953  28.190  35.465  1.00  0.00    -0.206 F 
ATOM     54  C   UNL A   1      42.895  29.832  36.774  1.00  0.00     0.059 A 
ATOM     55  C   UNL A   1      45.023  30.779  36.200  1.00  0.00     0.059 A 
ATOM     56  F   UNL A   1      46.121  30.191  34.248  1.00  0.00    -0.206 F 
ATOM     57  C   UNL A   1      43.910  30.733  37.033  1.00  0.00     0.060 A 
BRANCH  57  58
ATOM     58  S   UNL A   1      43.744  31.859  38.431  1.00  0.00     0.124 S 
ATOM     59  O   UNL A   1      43.938  33.153  37.782  1.00  0.00    -0.237 OA
ATOM     60  O   UNL A   1      42.393  31.589  38.910  1.00  0.00    -0.237 OA
ATOM     61  O   UNL A   1      44.818  31.437  39.327  1.00  0.00    -0.744 OA
ENDBRANCH  57  58
ENDBRANCH  25  50
BRANCH  37  62
ATOM     62  C   UNL A   1      46.083  26.600  29.399  1.00  0.00     0.058 A 
ATOM     63  C   UNL A   1      45.198  27.364  28.621  1.00  0.00     0.135 A 
ATOM     64  C   UNL A   1      47.447  26.892  29.246  1.00  0.00     0.135 A 
ATOM     65  F   UNL A   1      43.883  27.188  28.731  1.00  0.00    -0.206 F 
ATOM     66  C   UNL A   1      45.625  28.343  27.724  1.00  0.00     0.059 A 
ATOM     67  C   UNL A   1      47.905  27.883  28.368  1.00  0.00     0.059 A 
ATOM     68  F   UNL A   1      48.360  26.216  29.962  1.00  0.00    -0.206 F 
ATOM     69  C   UNL A   1      46.985  28.604  27.610  1.00  0.00     0.060 A 
BRANCH  69  70
ATOM     70  S   UNL A   1      47.518  29.887  26.456  1.00  0.00     0.124 S 
ATOM     71  O   UNL A   1      46.487  29.824  25.424  1.00  0.00    -0.237 OA
ATOM     72  O   UNL A   1      47.494  31.086  27.290  1.00  0.00    -0.237 OA
ATOM     73  O   UNL A   1      48.845  29.445  26.038  1.00  0.00    -0.744 OA
ENDBRANCH  69  70
ENDBRANCH  37  62
ENDBRANCH  11  12
ENDBRANCH   4   6
ENDBRANCH   3   4
ENDBRANCH   2   3
ENDBRANCH   1   2
BRANCH   1  74
ATOM     74  O   UNL A   1      31.851  28.972  25.669  1.00  0.00    -0.457 OA
BRANCH  74  75
ATOM     75  C   UNL A   1      31.455  28.938  24.368  1.00  0.00     0.354 C 
ATOM     76  O   UNL A   1      30.479  29.518  23.902  1.00  0.00    -0.244 OA
BRANCH  75  77
ATOM     77  C   UNL A   1      32.342  28.118  23.597  1.00  0.00     0.126 A 
ATOM     78  C   UNL A   1      32.655  26.777  23.734  1.00  0.00     0.057 A 
ATOM     79  N   UNL A   1      32.980  28.563  22.458  1.00  0.00    -0.354 N 
ATOM     80  C   UNL A   1      33.153  26.353  22.472  1.00  0.00     0.106 A 
ATOM     81  C   UNL A   1      33.444  27.488  21.742  1.00  0.00     0.105 A 
ATOM     82  H   UNL A   1      33.086  29.507  22.199  1.00  0.00     0.166 HD
BRANCH  80  83
ATOM     83  S   UNL A   1      33.218  24.702  21.959  1.00  0.00     0.263 S 
ATOM     84  O   UNL A   1      33.051  24.743  20.515  1.00  0.00    -0.201 OA
ATOM     85  O   UNL A   1      34.390  24.161  22.587  1.00  0.00    -0.201 OA
BRANCH  83  86
ATOM     86  N   UNL A   1      31.871  23.836  22.573  1.00  0.00    -0.280 N 
ATOM     87  H   UNL A   1      30.958  24.018  22.254  1.00  0.00     0.180 HD
BRANCH  86  88
ATOM     88  C   UNL A   1      32.127  22.840  23.566  1.00  0.00     0.050 A 
ATOM     89  C   UNL A   1      32.321  23.260  24.885  1.00  0.00     0.030 A 
ATOM     90  C   UNL A   1      32.273  21.492  23.234  1.00  0.00     0.043 A 
ATOM     91  C   UNL A   1      32.680  22.340  25.867  1.00  0.00     0.042 A 
ATOM     92  C   UNL A   1      32.608  20.549  24.230  1.00  0.00     0.093 A 
ATOM     93  C   UNL A   1      32.814  20.995  25.535  1.00  0.00     0.135 A 
ATOM     94  F   UNL A   1      33.150  20.135  26.504  1.00  0.00    -0.206 F 
BRANCH  92  95
ATOM     95  C   UNL A   1      32.702  19.088  23.902  1.00  0.00     0.419 C 
ATOM     96  F   UNL A   1      32.073  18.319  24.836  1.00  0.00    -0.166 F 
ATOM     97  F   UNL A   1      32.110  18.781  22.714  1.00  0.00    -0.166 F 
ATOM     98  F   UNL A   1      33.968  18.598  23.814  1.00  0.00    -0.166 F 
ENDBRANCH  92  95
ENDBRANCH  86  88
ENDBRANCH  83  86
ENDBRANCH  80  83
ENDBRANCH  75  77
ENDBRANCH  74  75
ENDBRANCH   1  74
TORSDOF 18
ENDMDL
MODEL 3
REMARK VINA RESULT:     -11.2      1.628      2.271
REMARK SMILES O=C(OCCOC(=O)c1cc(S(=O)(=O)Nc2ccc(F)c(C(F)(F)F)c2)c[nH]1)c1ccc(-c2c3nc(c(-c4c(F)cc(S(=O)(=O)[O-])cc4F)c4ccc([nH]4)c(-c4c(F)cc(S(=O)(=O)[O-])cc4F)c4nc(c(-c5c(F)cc(S(=O)(=O)[O-])cc5F)c5ccc2[nH]5)C=C4)C=C3)cc1
REMARK SMILES IDX 5 1 4 2 3 3 2 4 1 5 29 6 30 7 94 8 31 9 93 10 32 11 33 12
REMARK SMILES IDX 34 13 87 14 35 15 92 16 86 17 88 18 36 19 91 20 85 21 84 22
REMARK SMILES IDX 37 24 71 25 50 26 70 27 51 28 54 29 69 30 89 31 52 32 53 33
REMARK SMILES IDX 68 35 90 36 55 37 38 38 39 39 48 40 40 41 41 42 47 43 49 44
REMARK SMILES IDX 42 45 43 46 44 47 45 48 46 49 72 50 73 51 82 52 74 53 75 54
REMARK SMILES IDX 81 55 83 56 76 57 77 58 78 59 79 60 80 61 56 62 57 63 66 64
REMARK SMILES IDX 58 65 59 66 65 67 67 68 60 69 61 70 62 71 63 72 64 73 6 74
REMARK SMILES IDX 7 75 8 76 9 77 10 78 28 79 11 80 27 81 12 83 13 84 14 85
REMARK SMILES IDX 15 86 16 88 17 89 26 90 18 91 21 92 19 93 20 94 22 95 23 96
REMARK SMILES IDX 24 97 25 98
REMARK H PARENT 88 23 54 34 28 82 15 87
REMARK Flexibility Score: inf
ROOT
ATOM      1  C   UNL A   1      34.804  33.798  27.775  1.00  0.00     0.275 C 
ENDROOT
BRANCH   1   2
ATOM      2  C   UNL A   1      34.660  32.275  27.744  1.00  0.00     0.275 C 
BRANCH   2   3
ATOM      3  O   UNL A   1      35.855  31.520  28.044  1.00  0.00    -0.458 OA
BRANCH   3   4
ATOM      4  C   UNL A   1      35.947  30.193  27.792  1.00  0.00     0.338 C 
ATOM      5  O   UNL A   1      35.135  29.592  27.097  1.00  0.00    -0.246 OA
BRANCH   4   6
ATOM      6  C   UNL A   1      37.240  29.566  28.150  1.00  0.00     0.060 A 
ATOM      7  C   UNL A   1      38.422  29.812  27.451  1.00  0.00     0.016 A 
ATOM      8  C   UNL A   1      37.265  28.735  29.284  1.00  0.00     0.016 A 
ATOM      9  C   UNL A   1      39.598  29.177  27.826  1.00  0.00     0.010 A 
ATOM     10  C   UNL A   1      38.450  28.113  29.677  1.00  0.00     0.010 A 
ATOM     11  C   UNL A   1      39.614  28.322  28.933  1.00  0.00    -0.014 A 
BRANCH  11  12
ATOM     12  C   UNL A   1      40.915  27.711  29.291  1.00  0.00     0.031 A 
ATOM     13  C   UNL A   1      41.243  26.477  28.459  1.00  0.00     0.074 A 
ATOM     14  C   UNL A   1      41.559  28.233  30.375  1.00  0.00     0.049 A 
ATOM     15  N   UNL A   1      41.782  25.355  28.830  1.00  0.00    -0.248 NA
ATOM     16  C   UNL A   1      40.792  26.430  27.045  1.00  0.00     0.031 C 
ATOM     17  C   UNL A   1      41.110  29.436  31.098  1.00  0.00     0.029 A 
ATOM     18  N   UNL A   1      42.686  27.878  31.091  1.00  0.00    -0.354 N 
ATOM     19  C   UNL A   1      41.902  24.548  27.680  1.00  0.00     0.074 A 
ATOM     20  C   UNL A   1      41.159  25.208  26.645  1.00  0.00     0.031 C 
ATOM     21  C   UNL A   1      41.906  29.680  32.158  1.00  0.00     0.029 A 
ATOM     22  C   UNL A   1      42.931  28.660  32.248  1.00  0.00     0.049 A 
ATOM     23  H   UNL A   1      43.275  27.138  30.819  1.00  0.00     0.167 HD
ATOM     24  C   UNL A   1      42.709  23.449  27.612  1.00  0.00     0.037 A 
ATOM     25  C   UNL A   1      43.858  28.483  33.241  1.00  0.00     0.037 A 
ATOM     26  C   UNL A   1      43.449  23.294  28.821  1.00  0.00     0.049 A 
ATOM     27  C   UNL A   1      44.681  27.323  32.842  1.00  0.00     0.074 A 
ATOM     28  C   UNL A   1      43.143  22.829  30.072  1.00  0.00     0.029 A 
ATOM     29  N   UNL A   1      44.679  23.908  28.868  1.00  0.00    -0.354 N 
ATOM     30  N   UNL A   1      45.530  27.307  31.860  1.00  0.00    -0.248 NA
ATOM     31  C   UNL A   1      44.509  26.058  33.569  1.00  0.00     0.031 C 
ATOM     32  C   UNL A   1      44.043  23.496  30.932  1.00  0.00     0.029 A 
ATOM     33  C   UNL A   1      44.900  24.295  30.168  1.00  0.00     0.049 A 
ATOM     34  H   UNL A   1      45.289  24.045  28.109  1.00  0.00     0.167 HD
ATOM     35  C   UNL A   1      45.741  25.963  31.655  1.00  0.00     0.074 A 
ATOM     36  C   UNL A   1      45.336  25.288  32.866  1.00  0.00     0.031 C 
ATOM     37  C   UNL A   1      45.713  25.474  30.391  1.00  0.00     0.037 A 
BRANCH  24  38
ATOM     38  C   UNL A   1      43.120  22.570  26.461  1.00  0.00     0.058 A 
ATOM     39  C   UNL A   1      44.154  22.880  25.567  1.00  0.00     0.135 A 
ATOM     40  C   UNL A   1      42.687  21.219  26.469  1.00  0.00     0.135 A 
ATOM     41  F   UNL A   1      44.645  24.124  25.488  1.00  0.00    -0.206 F 
ATOM     42  C   UNL A   1      44.776  21.897  24.789  1.00  0.00     0.059 A 
ATOM     43  C   UNL A   1      43.318  20.219  25.735  1.00  0.00     0.059 A 
ATOM     44  F   UNL A   1      41.670  20.831  27.258  1.00  0.00    -0.206 F 
ATOM     45  C   UNL A   1      44.380  20.564  24.911  1.00  0.00     0.060 A 
BRANCH  45  46
ATOM     46  S   UNL A   1      45.338  19.270  24.089  1.00  0.00     0.124 S 
ATOM     47  O   UNL A   1      45.142  18.139  24.989  1.00  0.00    -0.237 OA
ATOM     48  O   UNL A   1      44.683  19.169  22.789  1.00  0.00    -0.237 OA
ATOM     49  O   UNL A   1      46.691  19.818  24.059  1.00  0.00    -0.744 OA
ENDBRANCH  45  46
ENDBRANCH  24  38
BRANCH  25  50
ATOM     50  C   UNL A   1      44.128  29.044  34.626  1.00  0.00     0.058 A 
ATOM     51  C   UNL A   1      43.048  29.171  35.548  1.00  0.00     0.135 A 
ATOM     52  C   UNL A   1      45.323  29.633  35.067  1.00  0.00     0.135 A 
ATOM     53  F   UNL A   1      41.883  28.537  35.352  1.00  0.00    -0.206 F 
ATOM     54  C   UNL A   1      43.082  29.990  36.675  1.00  0.00     0.059 A 
ATOM     55  C   UNL A   1      45.399  30.416  36.230  1.00  0.00     0.059 A 
ATOM     56  F   UNL A   1      46.462  29.510  34.383  1.00  0.00    -0.206 F 
ATOM     57  C   UNL A   1      44.253  30.656  36.980  1.00  0.00     0.060 A 
BRANCH  57  58
ATOM     58  S   UNL A   1      44.253  31.854  38.326  1.00  0.00     0.124 S 
ATOM     59  O   UNL A   1      44.125  33.110  37.593  1.00  0.00    -0.237 OA
ATOM     60  O   UNL A   1      43.089  31.461  39.113  1.00  0.00    -0.237 OA
ATOM     61  O   UNL A   1      45.544  31.630  38.970  1.00  0.00    -0.744 OA
ENDBRANCH  57  58
ENDBRANCH  25  50
BRANCH  37  62
ATOM     62  C   UNL A   1      46.131  26.485  29.338  1.00  0.00     0.058 A 
ATOM     63  C   UNL A   1      45.217  27.213  28.560  1.00  0.00     0.135 A 
ATOM     64  C   UNL A   1      47.484  26.825  29.178  1.00  0.00     0.135 A 
ATOM     65  F   UNL A   1      43.910  26.990  28.676  1.00  0.00    -0.206 F 
ATOM     66  C   UNL A   1      45.604  28.202  27.656  1.00  0.00     0.059 A 
ATOM     67  C   UNL A   1      47.902  27.828  28.294  1.00  0.00     0.059 A 
ATOM     68  F   UNL A   1      48.423  26.186  29.894  1.00  0.00    -0.206 F 
ATOM     69  C   UNL A   1      46.954  28.510  27.535  1.00  0.00     0.060 A 
BRANCH  69  70
ATOM     70  S   UNL A   1      47.436  29.806  26.372  1.00  0.00     0.124 S 
ATOM     71  O   UNL A   1      46.958  31.014  27.039  1.00  0.00    -0.237 OA
ATOM     72  O   UNL A   1      48.888  29.654  26.320  1.00  0.00    -0.237 OA
ATOM     73  O   UNL A   1      46.727  29.449  25.147  1.00  0.00    -0.744 OA
ENDBRANCH  69  70
ENDBRANCH  37  62
ENDBRANCH  11  12
ENDBRANCH   4   6
ENDBRANCH   3   4
ENDBRANCH   2   3
ENDBRANCH   1   2
BRANCH   1  74
ATOM     74  O   UNL A   1      33.532  34.437  27.950  1.00  0.00    -0.457 OA
BRANCH  74  75
ATOM     75  C   UNL A   1      33.582  35.687  28.483  1.00  0.00     0.354 C 
ATOM     76  O   UNL A   1      33.799  36.723  27.859  1.00  0.00    -0.244 OA
BRANCH  75  77
ATOM     77  C   UNL A   1      33.344  35.639  29.895  1.00  0.00     0.126 A 
ATOM     78  C   UNL A   1      34.093  35.054  30.901  1.00  0.00     0.057 A 
ATOM     79  N   UNL A   1      32.307  36.310  30.507  1.00  0.00    -0.354 N 
ATOM     80  C   UNL A   1      33.716  35.704  32.108  1.00  0.00     0.106 A 
ATOM     81  C   UNL A   1      32.545  36.391  31.856  1.00  0.00     0.105 A 
ATOM     82  H   UNL A   1      31.516  36.675  30.047  1.00  0.00     0.166 HD
BRANCH  80  83
ATOM     83  S   UNL A   1      34.674  35.709  33.548  1.00  0.00     0.263 S 
ATOM     84  O   UNL A   1      36.054  35.735  33.089  1.00  0.00    -0.201 OA
ATOM     85  O   UNL A   1      34.112  36.744  34.368  1.00  0.00    -0.201 OA
BRANCH  83  86
ATOM     86  N   UNL A   1      34.479  34.231  34.396  1.00  0.00    -0.280 N 
ATOM     87  H   UNL A   1      33.634  34.009  34.849  1.00  0.00     0.180 HD
BRANCH  86  88
ATOM     88  C   UNL A   1      35.593  33.335  34.420  1.00  0.00     0.050 A 
ATOM     89  C   UNL A   1      36.530  33.476  35.446  1.00  0.00     0.030 A 
ATOM     90  C   UNL A   1      35.804  32.399  33.405  1.00  0.00     0.043 A 
ATOM     91  C   UNL A   1      37.687  32.700  35.450  1.00  0.00     0.042 A 
ATOM     92  C   UNL A   1      36.959  31.588  33.419  1.00  0.00     0.093 A 
ATOM     93  C   UNL A   1      37.890  31.761  34.444  1.00  0.00     0.135 A 
ATOM     94  F   UNL A   1      39.006  31.023  34.482  1.00  0.00    -0.206 F 
BRANCH  92  95
ATOM     95  C   UNL A   1      37.167  30.532  32.373  1.00  0.00     0.419 C 
ATOM     96  F   UNL A   1      36.049  30.344  31.616  1.00  0.00    -0.166 F 
ATOM     97  F   UNL A   1      38.156  30.855  31.495  1.00  0.00    -0.166 F 
ATOM     98  F   UNL A   1      37.496  29.302  32.855  1.00  0.00    -0.166 F 
ENDBRANCH  92  95
ENDBRANCH  86  88
ENDBRANCH  83  86
ENDBRANCH  80  83
ENDBRANCH  75  77
ENDBRANCH  74  75
ENDBRANCH   1  74
TORSDOF 18
ENDMDL
