MODEL 1
REMARK VINA RESULT:      -9.8      0.000      0.000
REMARK SMILES CCN(CC(C)(C)O)C(=O)N[C@@H](C(=O)OCCOC(=O)c1ccc(-c2c3nc(c(-c4c(F)cc(S(=O)(=O)[O-])cc4F)c4ccc([nH]4)c(-c4c(F)cc(S(=O)(=O)[O-])cc4F)c4nc(c(-c5c(F)cc(S(=O)(=O)[O-])cc5F)c5ccc2[nH]5)C=C4)C=C3)cc1)C(C)(C)C
REMARK SMILES IDX 16 1 15 2 13 3 14 4 12 5 11 6 9 7 10 8 3 10 2 11 1 12 4 13
REMARK SMILES IDX 5 14 6 15 7 16 8 17 87 19 88 20 89 21 90 22 17 23 18 24
REMARK SMILES IDX 19 25 20 26 21 27 22 28 86 29 23 30 85 31 24 32 25 33 26 34
REMARK SMILES IDX 79 35 27 36 84 37 78 38 80 39 28 40 83 41 77 42 76 43 29 45
REMARK SMILES IDX 63 46 42 47 62 48 43 49 46 50 61 51 81 52 44 53 45 54 60 56
REMARK SMILES IDX 82 57 47 58 30 59 31 60 40 61 32 62 33 63 39 64 41 65 34 66
REMARK SMILES IDX 35 67 36 68 37 69 38 70 64 71 65 72 74 73 66 74 67 75 73 76
REMARK SMILES IDX 75 77 68 78 69 79 70 80 71 81 72 82 48 83 49 84 58 85 50 86
REMARK SMILES IDX 51 87 57 88 59 89 52 90 53 91 54 92 55 93 56 94
REMARK H PARENT 11 9 8 18 80 44 46 55
REMARK Flexibility Score: inf
ROOT
ATOM      1  C   UNL A   1      35.710  23.659  24.010  1.00  0.00     0.274 C 
ENDROOT
BRANCH   1   2
ATOM      2  O   UNL A   1      35.132  24.488  25.043  1.00  0.00    -0.461 OA
BRANCH   2   3
ATOM      3  C   UNL A   1      34.048  23.966  25.690  1.00  0.00     0.329 C 
ATOM      4  O   UNL A   1      34.119  23.197  26.643  1.00  0.00    -0.250 OA
BRANCH   3   5
ATOM      5  C   UNL A   1      32.707  24.324  25.002  1.00  0.00     0.199 C 
BRANCH   5   6
ATOM      6  N   UNL A   1      31.938  25.258  25.828  1.00  0.00    -0.324 N 
ATOM      7  C   UNL A   1      31.869  26.579  26.026  1.00  0.00     0.318 C 
ATOM      8  O   UNL A   1      31.022  26.924  26.859  1.00  0.00    -0.249 OA
ATOM      9  H   UNL A   1      31.292  24.779  26.397  1.00  0.00     0.166 HD
BRANCH   7  10
ATOM     10  N   UNL A   1      32.638  27.503  25.370  1.00  0.00    -0.322 N 
BRANCH  10  11
ATOM     11  C   UNL A   1      32.373  27.638  23.934  1.00  0.00     0.118 C 
ATOM     12  C   UNL A   1      33.644  28.004  23.175  1.00  0.00     0.027 C 
ENDBRANCH  10  11
BRANCH  10  13
ATOM     13  C   UNL A   1      33.751  28.327  25.867  1.00  0.00     0.155 C 
BRANCH  13  14
ATOM     14  C   UNL A   1      33.350  29.463  26.858  1.00  0.00     0.077 C 
ATOM     15  C   UNL A   1      34.474  30.386  27.335  1.00  0.00     0.043 C 
ATOM     16  C   UNL A   1      32.246  30.317  26.223  1.00  0.00     0.043 C 
BRANCH  14  17
ATOM     17  O   UNL A   1      32.788  28.861  28.036  1.00  0.00    -0.389 OA
ATOM     18  H   UNL A   1      33.008  27.917  28.055  1.00  0.00     0.211 HD
ENDBRANCH  14  17
ENDBRANCH  13  14
ENDBRANCH  10  13
ENDBRANCH   7  10
ENDBRANCH   5   6
BRANCH   5  19
ATOM     19  C   UNL A   1      31.829  23.128  24.519  1.00  0.00    -0.007 C 
ATOM     20  C   UNL A   1      30.834  23.590  23.427  1.00  0.00     0.013 C 
ATOM     21  C   UNL A   1      32.712  22.045  23.865  1.00  0.00     0.013 C 
ATOM     22  C   UNL A   1      31.005  22.525  25.668  1.00  0.00     0.013 C 
ENDBRANCH   5  19
ENDBRANCH   3   5
ENDBRANCH   2   3
ENDBRANCH   1   2
BRANCH   1  23
ATOM     23  C   UNL A   1      37.008  23.007  24.474  1.00  0.00     0.275 C 
BRANCH  23  24
ATOM     24  O   UNL A   1      37.646  23.889  25.405  1.00  0.00    -0.458 OA
BRANCH  24  25
ATOM     25  C   UNL A   1      38.756  23.414  26.019  1.00  0.00     0.338 C 
ATOM     26  O   UNL A   1      39.278  22.329  25.836  1.00  0.00    -0.246 OA
BRANCH  25  27
ATOM     27  C   UNL A   1      39.313  24.465  26.907  1.00  0.00     0.060 A 
ATOM     28  C   UNL A   1      39.004  24.478  28.266  1.00  0.00     0.016 A 
ATOM     29  C   UNL A   1      40.043  25.522  26.367  1.00  0.00     0.016 A 
ATOM     30  C   UNL A   1      39.298  25.588  29.050  1.00  0.00     0.010 A 
ATOM     31  C   UNL A   1      40.447  26.582  27.190  1.00  0.00     0.010 A 
ATOM     32  C   UNL A   1      40.040  26.651  28.537  1.00  0.00    -0.014 A 
BRANCH  32  33
ATOM     33  C   UNL A   1      40.324  27.856  29.369  1.00  0.00     0.031 A 
ATOM     34  C   UNL A   1      41.593  27.909  30.179  1.00  0.00     0.074 A 
ATOM     35  C   UNL A   1      39.492  28.918  29.398  1.00  0.00     0.049 A 
ATOM     36  N   UNL A   1      41.879  28.642  31.221  1.00  0.00    -0.248 NA
ATOM     37  C   UNL A   1      42.672  26.992  29.776  1.00  0.00     0.031 C 
ATOM     38  C   UNL A   1      38.275  29.082  28.598  1.00  0.00     0.029 A 
ATOM     39  N   UNL A   1      39.550  30.077  30.136  1.00  0.00    -0.354 N 
ATOM     40  C   UNL A   1      43.118  28.197  31.667  1.00  0.00     0.074 A 
ATOM     41  C   UNL A   1      43.549  27.159  30.756  1.00  0.00     0.031 C 
ATOM     42  C   UNL A   1      37.738  30.285  28.845  1.00  0.00     0.029 A 
ATOM     43  C   UNL A   1      38.486  30.922  29.921  1.00  0.00     0.049 A 
ATOM     44  H   UNL A   1      40.284  30.281  30.761  1.00  0.00     0.167 HD
ATOM     45  C   UNL A   1      43.810  28.605  32.757  1.00  0.00     0.037 A 
ATOM     46  C   UNL A   1      38.102  32.040  30.567  1.00  0.00     0.037 A 
ATOM     47  C   UNL A   1      43.408  29.706  33.592  1.00  0.00     0.049 A 
ATOM     48  C   UNL A   1      38.881  32.486  31.770  1.00  0.00     0.074 A 
ATOM     49  C   UNL A   1      44.018  30.196  34.733  1.00  0.00     0.029 A 
ATOM     50  N   UNL A   1      42.311  30.519  33.346  1.00  0.00    -0.354 N 
ATOM     51  N   UNL A   1      39.955  31.951  32.299  1.00  0.00    -0.248 NA
ATOM     52  C   UNL A   1      38.371  33.658  32.493  1.00  0.00     0.031 C 
ATOM     53  C   UNL A   1      43.282  31.299  35.183  1.00  0.00     0.029 A 
ATOM     54  C   UNL A   1      42.231  31.512  34.306  1.00  0.00     0.049 A 
ATOM     55  H   UNL A   1      41.681  30.406  32.597  1.00  0.00     0.167 HD
ATOM     56  C   UNL A   1      40.242  32.712  33.425  1.00  0.00     0.074 A 
ATOM     57  C   UNL A   1      39.246  33.763  33.484  1.00  0.00     0.031 C 
ATOM     58  C   UNL A   1      41.229  32.547  34.339  1.00  0.00     0.037 A 
BRANCH  45  59
ATOM     59  C   UNL A   1      45.029  27.817  33.144  1.00  0.00     0.058 A 
ATOM     60  C   UNL A   1      46.319  28.165  32.718  1.00  0.00     0.135 A 
ATOM     61  C   UNL A   1      44.895  26.694  33.979  1.00  0.00     0.135 A 
ATOM     62  F   UNL A   1      46.500  29.214  31.901  1.00  0.00    -0.206 F 
ATOM     63  C   UNL A   1      47.432  27.414  33.087  1.00  0.00     0.059 A 
ATOM     64  C   UNL A   1      45.996  25.943  34.378  1.00  0.00     0.059 A 
ATOM     65  F   UNL A   1      43.683  26.314  34.411  1.00  0.00    -0.206 F 
ATOM     66  C   UNL A   1      47.260  26.303  33.915  1.00  0.00     0.060 A 
BRANCH  66  67
ATOM     67  S   UNL A   1      48.708  25.334  34.389  1.00  0.00     0.124 S 
ATOM     68  O   UNL A   1      49.772  26.034  33.677  1.00  0.00    -0.237 OA
ATOM     69  O   UNL A   1      48.720  25.475  35.842  1.00  0.00    -0.237 OA
ATOM     70  O   UNL A   1      48.397  23.997  33.896  1.00  0.00    -0.744 OA
ENDBRANCH  66  67
ENDBRANCH  45  59
BRANCH  46  71
ATOM     71  C   UNL A   1      36.870  32.755  30.139  1.00  0.00     0.058 A 
ATOM     72  C   UNL A   1      35.625  32.448  30.703  1.00  0.00     0.135 A 
ATOM     73  C   UNL A   1      36.923  33.790  29.191  1.00  0.00     0.135 A 
ATOM     74  F   UNL A   1      35.521  31.457  31.601  1.00  0.00    -0.206 F 
ATOM     75  C   UNL A   1      34.474  33.149  30.352  1.00  0.00     0.059 A 
ATOM     76  C   UNL A   1      35.793  34.523  28.845  1.00  0.00     0.059 A 
ATOM     77  F   UNL A   1      38.093  34.128  28.627  1.00  0.00    -0.206 F 
ATOM     78  C   UNL A   1      34.571  34.191  29.428  1.00  0.00     0.060 A 
BRANCH  78  79
ATOM     79  S   UNL A   1      33.098  35.164  29.044  1.00  0.00     0.124 S 
ATOM     80  O   UNL A   1      33.685  36.384  28.504  1.00  0.00    -0.237 OA
ATOM     81  O   UNL A   1      32.402  34.311  28.084  1.00  0.00    -0.237 OA
ATOM     82  O   UNL A   1      32.442  35.295  30.341  1.00  0.00    -0.744 OA
ENDBRANCH  78  79
ENDBRANCH  46  71
BRANCH  58  83
ATOM     83  C   UNL A   1      41.286  33.537  35.464  1.00  0.00     0.058 A 
ATOM     84  C   UNL A   1      42.039  34.715  35.360  1.00  0.00     0.135 A 
ATOM     85  C   UNL A   1      40.556  33.318  36.641  1.00  0.00     0.135 A 
ATOM     86  F   UNL A   1      42.761  34.962  34.255  1.00  0.00    -0.206 F 
ATOM     87  C   UNL A   1      42.080  35.640  36.397  1.00  0.00     0.059 A 
ATOM     88  C   UNL A   1      40.569  34.238  37.684  1.00  0.00     0.059 A 
ATOM     89  F   UNL A   1      39.817  32.207  36.783  1.00  0.00    -0.206 F 
ATOM     90  C   UNL A   1      41.344  35.391  37.557  1.00  0.00     0.060 A 
BRANCH  90  91
ATOM     91  S   UNL A   1      41.384  36.607  38.890  1.00  0.00     0.124 S 
ATOM     92  O   UNL A   1      41.375  35.748  40.070  1.00  0.00    -0.237 OA
ATOM     93  O   UNL A   1      42.631  37.318  38.633  1.00  0.00    -0.237 OA
ATOM     94  O   UNL A   1      40.169  37.388  38.671  1.00  0.00    -0.744 OA
ENDBRANCH  90  91
ENDBRANCH  58  83
ENDBRANCH  32  33
ENDBRANCH  25  27
ENDBRANCH  24  25
ENDBRANCH  23  24
ENDBRANCH   1  23
TORSDOF 21
ENDMDL
MODEL 2
REMARK VINA RESULT:      -9.8      4.947     11.313
REMARK SMILES CCN(CC(C)(C)O)C(=O)N[C@@H](C(=O)OCCOC(=O)c1ccc(-c2c3nc(c(-c4c(F)cc(S(=O)(=O)[O-])cc4F)c4ccc([nH]4)c(-c4c(F)cc(S(=O)(=O)[O-])cc4F)c4nc(c(-c5c(F)cc(S(=O)(=O)[O-])cc5F)c5ccc2[nH]5)C=C4)C=C3)cc1)C(C)(C)C
REMARK SMILES IDX 16 1 15 2 13 3 14 4 12 5 11 6 9 7 10 8 3 10 2 11 1 12 4 13
REMARK SMILES IDX 5 14 6 15 7 16 8 17 87 19 88 20 89 21 90 22 17 23 18 24
REMARK SMILES IDX 19 25 20 26 21 27 22 28 86 29 23 30 85 31 24 32 25 33 26 34
REMARK SMILES IDX 79 35 27 36 84 37 78 38 80 39 28 40 83 41 77 42 76 43 29 45
REMARK SMILES IDX 63 46 42 47 62 48 43 49 46 50 61 51 81 52 44 53 45 54 60 56
REMARK SMILES IDX 82 57 47 58 30 59 31 60 40 61 32 62 33 63 39 64 41 65 34 66
REMARK SMILES IDX 35 67 36 68 37 69 38 70 64 71 65 72 74 73 66 74 67 75 73 76
REMARK SMILES IDX 75 77 68 78 69 79 70 80 71 81 72 82 48 83 49 84 58 85 50 86
REMARK SMILES IDX 51 87 57 88 59 89 52 90 53 91 54 92 55 93 56 94
REMARK H PARENT 11 9 8 18 80 44 46 55
REMARK Flexibility Score: inf
ROOT
ATOM      1  C   UNL A   1      34.211  33.446  29.858  1.00  0.00     0.274 C 
ENDROOT
BRANCH   1   2
ATOM      2  O   UNL A   1      34.207  32.719  31.106  1.00  0.00    -0.461 OA
BRANCH   2   3
ATOM      3  C   UNL A   1      34.017  33.468  32.233  1.00  0.00     0.329 C 
ATOM      4  O   UNL A   1      33.378  33.093  33.210  1.00  0.00    -0.250 OA
BRANCH   3   5
ATOM      5  C   UNL A   1      34.566  34.910  32.095  1.00  0.00     0.199 C 
BRANCH   5   6
ATOM      6  N   UNL A   1      35.747  35.094  32.940  1.00  0.00    -0.324 N 
ATOM      7  C   UNL A   1      36.903  34.463  33.177  1.00  0.00     0.318 C 
ATOM      8  O   UNL A   1      37.626  35.022  34.010  1.00  0.00    -0.249 OA
ATOM      9  H   UNL A   1      35.669  35.909  33.487  1.00  0.00     0.166 HD
BRANCH   7  10
ATOM     10  N   UNL A   1      37.296  33.306  32.559  1.00  0.00    -0.322 N 
BRANCH  10  11
ATOM     11  C   UNL A   1      37.918  33.476  31.241  1.00  0.00     0.118 C 
ATOM     12  C   UNL A   1      39.070  34.473  31.304  1.00  0.00     0.027 C 
ENDBRANCH  10  11
BRANCH  10  13
ATOM     13  C   UNL A   1      37.118  31.906  32.975  1.00  0.00     0.155 C 
BRANCH  13  14
ATOM     14  C   UNL A   1      38.120  31.398  34.056  1.00  0.00     0.077 C 
ATOM     15  C   UNL A   1      39.609  31.574  33.749  1.00  0.00     0.043 C 
ATOM     16  C   UNL A   1      37.808  32.083  35.393  1.00  0.00     0.043 C 
BRANCH  14  17
ATOM     17  O   UNL A   1      37.907  29.989  34.248  1.00  0.00    -0.389 OA
ATOM     18  H   UNL A   1      38.389  29.692  35.036  1.00  0.00     0.211 HD
ENDBRANCH  14  17
ENDBRANCH  13  14
ENDBRANCH  10  13
ENDBRANCH   7  10
ENDBRANCH   5   6
BRANCH   5  19
ATOM     19  C   UNL A   1      33.538  36.069  32.285  1.00  0.00    -0.007 C 
ATOM     20  C   UNL A   1      33.616  37.066  31.103  1.00  0.00     0.013 C 
ATOM     21  C   UNL A   1      32.098  35.514  32.284  1.00  0.00     0.013 C 
ATOM     22  C   UNL A   1      33.805  36.862  33.575  1.00  0.00     0.013 C 
ENDBRANCH   5  19
ENDBRANCH   3   5
ENDBRANCH   2   3
ENDBRANCH   1   2
BRANCH   1  23
ATOM     23  C   UNL A   1      35.347  32.992  28.948  1.00  0.00     0.275 C 
BRANCH  23  24
ATOM     24  O   UNL A   1      34.782  32.276  27.844  1.00  0.00    -0.458 OA
BRANCH  24  25
ATOM     25  C   UNL A   1      34.573  30.951  28.031  1.00  0.00     0.338 C 
ATOM     26  O   UNL A   1      33.498  30.378  28.020  1.00  0.00    -0.246 OA
BRANCH  25  27
ATOM     27  C   UNL A   1      35.880  30.262  28.167  1.00  0.00     0.060 A 
ATOM     28  C   UNL A   1      36.281  29.745  29.399  1.00  0.00     0.016 A 
ATOM     29  C   UNL A   1      36.774  30.241  27.099  1.00  0.00     0.016 A 
ATOM     30  C   UNL A   1      37.594  29.336  29.603  1.00  0.00     0.010 A 
ATOM     31  C   UNL A   1      38.060  29.711  27.278  1.00  0.00     0.010 A 
ATOM     32  C   UNL A   1      38.503  29.292  28.547  1.00  0.00    -0.014 A 
BRANCH  32  33
ATOM     33  C   UNL A   1      39.920  28.887  28.775  1.00  0.00     0.031 A 
ATOM     34  C   UNL A   1      40.884  29.884  29.364  1.00  0.00     0.074 A 
ATOM     35  C   UNL A   1      40.364  27.643  28.497  1.00  0.00     0.049 A 
ATOM     36  N   UNL A   1      42.189  29.900  29.315  1.00  0.00    -0.248 NA
ATOM     37  C   UNL A   1      40.295  31.029  30.079  1.00  0.00     0.031 C 
ATOM     38  C   UNL A   1      39.546  26.523  28.022  1.00  0.00     0.029 A 
ATOM     39  N   UNL A   1      41.627  27.107  28.581  1.00  0.00    -0.354 N 
ATOM     40  C   UNL A   1      42.572  31.108  29.888  1.00  0.00     0.074 A 
ATOM     41  C   UNL A   1      41.364  31.777  30.316  1.00  0.00     0.031 C 
ATOM     42  C   UNL A   1      40.312  25.429  27.912  1.00  0.00     0.029 A 
ATOM     43  C   UNL A   1      41.698  25.796  28.170  1.00  0.00     0.049 A 
ATOM     44  H   UNL A   1      42.407  27.614  28.904  1.00  0.00     0.167 HD
ATOM     45  C   UNL A   1      43.822  31.614  30.012  1.00  0.00     0.037 A 
ATOM     46  C   UNL A   1      42.760  24.999  27.944  1.00  0.00     0.037 A 
ATOM     47  C   UNL A   1      45.016  30.888  29.668  1.00  0.00     0.049 A 
ATOM     48  C   UNL A   1      44.141  25.569  28.092  1.00  0.00     0.074 A 
ATOM     49  C   UNL A   1      46.334  31.306  29.732  1.00  0.00     0.029 A 
ATOM     50  N   UNL A   1      45.037  29.570  29.236  1.00  0.00    -0.354 N 
ATOM     51  N   UNL A   1      44.496  26.776  28.461  1.00  0.00    -0.248 NA
ATOM     52  C   UNL A   1      45.263  24.687  27.747  1.00  0.00     0.031 C 
ATOM     53  C   UNL A   1      47.150  30.243  29.327  1.00  0.00     0.029 A 
ATOM     54  C   UNL A   1      46.342  29.155  29.039  1.00  0.00     0.049 A 
ATOM     55  H   UNL A   1      44.239  29.011  29.091  1.00  0.00     0.167 HD
ATOM     56  C   UNL A   1      45.882  26.805  28.380  1.00  0.00     0.074 A 
ATOM     57  C   UNL A   1      46.303  25.484  27.956  1.00  0.00     0.031 C 
ATOM     58  C   UNL A   1      46.731  27.834  28.617  1.00  0.00     0.037 A 
BRANCH  45  59
ATOM     59  C   UNL A   1      43.955  33.037  30.476  1.00  0.00     0.058 A 
ATOM     60  C   UNL A   1      43.791  34.130  29.614  1.00  0.00     0.135 A 
ATOM     61  C   UNL A   1      44.239  33.304  31.827  1.00  0.00     0.135 A 
ATOM     62  F   UNL A   1      43.543  33.932  28.311  1.00  0.00    -0.206 F 
ATOM     63  C   UNL A   1      43.926  35.440  30.069  1.00  0.00     0.059 A 
ATOM     64  C   UNL A   1      44.355  34.604  32.308  1.00  0.00     0.059 A 
ATOM     65  F   UNL A   1      44.411  32.293  32.693  1.00  0.00    -0.206 F 
ATOM     66  C   UNL A   1      44.212  35.666  31.418  1.00  0.00     0.060 A 
BRANCH  66  67
ATOM     67  S   UNL A   1      44.384  37.366  32.000  1.00  0.00     0.124 S 
ATOM     68  O   UNL A   1      44.093  38.121  30.786  1.00  0.00    -0.237 OA
ATOM     69  O   UNL A   1      43.374  37.444  33.051  1.00  0.00    -0.237 OA
ATOM     70  O   UNL A   1      45.767  37.428  32.461  1.00  0.00    -0.744 OA
ENDBRANCH  66  67
ENDBRANCH  45  59
BRANCH  46  71
ATOM     71  C   UNL A   1      42.550  23.606  27.465  1.00  0.00     0.058 A 
ATOM     72  C   UNL A   1      42.540  23.308  26.096  1.00  0.00     0.135 A 
ATOM     73  C   UNL A   1      42.402  22.541  28.369  1.00  0.00     0.135 A 
ATOM     74  F   UNL A   1      42.662  24.293  25.194  1.00  0.00    -0.206 F 
ATOM     75  C   UNL A   1      42.401  22.001  25.637  1.00  0.00     0.059 A 
ATOM     76  C   UNL A   1      42.289  21.225  27.935  1.00  0.00     0.059 A 
ATOM     77  F   UNL A   1      42.412  22.774  29.691  1.00  0.00    -0.206 F 
ATOM     78  C   UNL A   1      42.285  20.965  26.567  1.00  0.00     0.060 A 
BRANCH  78  79
ATOM     79  S   UNL A   1      42.202  19.260  25.975  1.00  0.00     0.124 S 
ATOM     80  O   UNL A   1      40.779  19.118  25.691  1.00  0.00    -0.237 OA
ATOM     81  O   UNL A   1      43.085  19.290  24.812  1.00  0.00    -0.237 OA
ATOM     82  O   UNL A   1      42.703  18.491  27.109  1.00  0.00    -0.744 OA
ENDBRANCH  78  79
ENDBRANCH  46  71
BRANCH  58  83
ATOM     83  C   UNL A   1      48.196  27.562  28.441  1.00  0.00     0.058 A 
ATOM     84  C   UNL A   1      48.983  27.096  29.503  1.00  0.00     0.135 A 
ATOM     85  C   UNL A   1      48.806  27.738  27.191  1.00  0.00     0.135 A 
ATOM     86  F   UNL A   1      48.443  26.921  30.720  1.00  0.00    -0.206 F 
ATOM     87  C   UNL A   1      50.337  26.829  29.336  1.00  0.00     0.059 A 
ATOM     88  C   UNL A   1      50.155  27.461  26.996  1.00  0.00     0.059 A 
ATOM     89  F   UNL A   1      48.089  28.176  26.143  1.00  0.00    -0.206 F 
ATOM     90  C   UNL A   1      50.915  27.018  28.079  1.00  0.00     0.060 A 
BRANCH  90  91
ATOM     91  S   UNL A   1      52.668  26.648  27.863  1.00  0.00     0.124 S 
ATOM     92  O   UNL A   1      53.075  26.351  29.233  1.00  0.00    -0.237 OA
ATOM     93  O   UNL A   1      52.641  25.511  26.949  1.00  0.00    -0.237 OA
ATOM     94  O   UNL A   1      53.207  27.883  27.301  1.00  0.00    -0.744 OA
ENDBRANCH  90  91
ENDBRANCH  58  83
ENDBRANCH  32  33
ENDBRANCH  25  27
ENDBRANCH  24  25
ENDBRANCH  23  24
ENDBRANCH   1  23
TORSDOF 21
ENDMDL
MODEL 3
REMARK VINA RESULT:      -9.7      1.294      2.477
REMARK SMILES CCN(CC(C)(C)O)C(=O)N[C@@H](C(=O)OCCOC(=O)c1ccc(-c2c3nc(c(-c4c(F)cc(S(=O)(=O)[O-])cc4F)c4ccc([nH]4)c(-c4c(F)cc(S(=O)(=O)[O-])cc4F)c4nc(c(-c5c(F)cc(S(=O)(=O)[O-])cc5F)c5ccc2[nH]5)C=C4)C=C3)cc1)C(C)(C)C
REMARK SMILES IDX 16 1 15 2 13 3 14 4 12 5 11 6 9 7 10 8 3 10 2 11 1 12 4 13
REMARK SMILES IDX 5 14 6 15 7 16 8 17 87 19 88 20 89 21 90 22 17 23 18 24
REMARK SMILES IDX 19 25 20 26 21 27 22 28 86 29 23 30 85 31 24 32 25 33 26 34
REMARK SMILES IDX 79 35 27 36 84 37 78 38 80 39 28 40 83 41 77 42 76 43 29 45
REMARK SMILES IDX 63 46 42 47 62 48 43 49 46 50 61 51 81 52 44 53 45 54 60 56
REMARK SMILES IDX 82 57 47 58 30 59 31 60 40 61 32 62 33 63 39 64 41 65 34 66
REMARK SMILES IDX 35 67 36 68 37 69 38 70 64 71 65 72 74 73 66 74 67 75 73 76
REMARK SMILES IDX 75 77 68 78 69 79 70 80 71 81 72 82 48 83 49 84 58 85 50 86
REMARK SMILES IDX 51 87 57 88 59 89 52 90 53 91 54 92 55 93 56 94
REMARK H PARENT 11 9 8 18 80 44 46 55
REMARK Flexibility Score: inf
ROOT
ATOM      1  C   UNL A   1      35.659  22.847  24.263  1.00  0.00     0.274 C 
ENDROOT
BRANCH   1   2
ATOM      2  O   UNL A   1      35.639  21.482  24.737  1.00  0.00    -0.461 OA
BRANCH   2   3
ATOM      3  C   UNL A   1      34.602  21.152  25.562  1.00  0.00     0.329 C 
ATOM      4  O   UNL A   1      34.653  21.202  26.786  1.00  0.00    -0.250 OA
BRANCH   3   5
ATOM      5  C   UNL A   1      33.391  20.562  24.799  1.00  0.00     0.199 C 
BRANCH   5   6
ATOM      6  N   UNL A   1      32.133  21.035  25.382  1.00  0.00    -0.324 N 
ATOM      7  C   UNL A   1      31.391  22.148  25.363  1.00  0.00     0.318 C 
ATOM      8  O   UNL A   1      30.355  22.079  26.035  1.00  0.00    -0.249 OA
ATOM      9  H   UNL A   1      31.720  20.342  25.946  1.00  0.00     0.166 HD
BRANCH   7  10
ATOM     10  N   UNL A   1      31.706  23.279  24.657  1.00  0.00    -0.322 N 
BRANCH  10  11
ATOM     11  C   UNL A   1      31.369  23.245  23.229  1.00  0.00     0.118 C 
ATOM     12  C   UNL A   1      32.628  23.233  22.370  1.00  0.00     0.027 C 
ENDBRANCH  10  11
BRANCH  10  13
ATOM     13  C   UNL A   1      32.407  24.497  25.091  1.00  0.00     0.155 C 
BRANCH  13  14
ATOM     14  C   UNL A   1      31.577  25.459  25.997  1.00  0.00     0.077 C 
ATOM     15  C   UNL A   1      32.274  26.741  26.457  1.00  0.00     0.043 C 
ATOM     16  C   UNL A   1      30.279  25.836  25.272  1.00  0.00     0.043 C 
BRANCH  14  17
ATOM     17  O   UNL A   1      31.199  24.748  27.188  1.00  0.00    -0.389 OA
ATOM     18  H   UNL A   1      31.288  25.334  27.957  1.00  0.00     0.211 HD
ENDBRANCH  14  17
ENDBRANCH  13  14
ENDBRANCH  10  13
ENDBRANCH   7  10
ENDBRANCH   5   6
BRANCH   5  19
ATOM     19  C   UNL A   1      33.381  19.014  24.596  1.00  0.00    -0.007 C 
ATOM     20  C   UNL A   1      34.828  18.466  24.521  1.00  0.00     0.013 C 
ATOM     21  C   UNL A   1      32.722  18.319  25.805  1.00  0.00     0.013 C 
ATOM     22  C   UNL A   1      32.669  18.614  23.294  1.00  0.00     0.013 C 
ENDBRANCH   5  19
ENDBRANCH   3   5
ENDBRANCH   2   3
ENDBRANCH   1   2
BRANCH   1  23
ATOM     23  C   UNL A   1      36.303  23.784  25.280  1.00  0.00     0.275 C 
BRANCH  23  24
ATOM     24  O   UNL A   1      37.700  23.884  24.979  1.00  0.00    -0.458 OA
BRANCH  24  25
ATOM     25  C   UNL A   1      38.548  23.287  25.850  1.00  0.00     0.338 C 
ATOM     26  O   UNL A   1      38.851  22.108  25.874  1.00  0.00    -0.246 OA
BRANCH  25  27
ATOM     27  C   UNL A   1      39.139  24.315  26.742  1.00  0.00     0.060 A 
ATOM     28  C   UNL A   1      38.864  24.308  28.109  1.00  0.00     0.016 A 
ATOM     29  C   UNL A   1      39.868  25.373  26.203  1.00  0.00     0.016 A 
ATOM     30  C   UNL A   1      39.190  25.400  28.905  1.00  0.00     0.010 A 
ATOM     31  C   UNL A   1      40.305  26.413  27.034  1.00  0.00     0.010 A 
ATOM     32  C   UNL A   1      39.933  26.463  28.391  1.00  0.00    -0.014 A 
BRANCH  32  33
ATOM     33  C   UNL A   1      40.252  27.650  29.237  1.00  0.00     0.031 A 
ATOM     34  C   UNL A   1      41.538  27.671  30.021  1.00  0.00     0.074 A 
ATOM     35  C   UNL A   1      39.435  28.723  29.302  1.00  0.00     0.049 A 
ATOM     36  N   UNL A   1      41.856  28.382  31.069  1.00  0.00    -0.248 NA
ATOM     37  C   UNL A   1      42.594  26.745  29.580  1.00  0.00     0.031 C 
ATOM     38  C   UNL A   1      38.205  28.918  28.529  1.00  0.00     0.029 A 
ATOM     39  N   UNL A   1      39.527  29.868  30.057  1.00  0.00    -0.354 N 
ATOM     40  C   UNL A   1      43.097  27.911  31.481  1.00  0.00     0.074 A 
ATOM     41  C   UNL A   1      43.494  26.883  30.545  1.00  0.00     0.031 C 
ATOM     42  C   UNL A   1      37.691  30.124  28.808  1.00  0.00     0.029 A 
ATOM     43  C   UNL A   1      38.471  30.732  29.879  1.00  0.00     0.049 A 
ATOM     44  H   UNL A   1      40.276  30.052  30.670  1.00  0.00     0.167 HD
ATOM     45  C   UNL A   1      43.817  28.291  32.564  1.00  0.00     0.037 A 
ATOM     46  C   UNL A   1      38.117  31.845  30.550  1.00  0.00     0.037 A 
ATOM     47  C   UNL A   1      43.449  29.384  33.425  1.00  0.00     0.049 A 
ATOM     48  C   UNL A   1      38.927  32.259  31.744  1.00  0.00     0.074 A 
ATOM     49  C   UNL A   1      44.089  29.845  34.561  1.00  0.00     0.029 A 
ATOM     50  N   UNL A   1      42.359  30.217  33.215  1.00  0.00    -0.354 N 
ATOM     51  N   UNL A   1      40.004  31.700  32.242  1.00  0.00    -0.248 NA
ATOM     52  C   UNL A   1      38.450  33.426  32.497  1.00  0.00     0.031 C 
ATOM     53  C   UNL A   1      43.380  30.951  35.045  1.00  0.00     0.029 A 
ATOM     54  C   UNL A   1      42.314  31.194  34.193  1.00  0.00     0.049 A 
ATOM     55  H   UNL A   1      41.712  30.125  32.478  1.00  0.00     0.167 HD
ATOM     56  C   UNL A   1      40.325  32.437  33.374  1.00  0.00     0.074 A 
ATOM     57  C   UNL A   1      39.347  33.502  33.471  1.00  0.00     0.031 C 
ATOM     58  C   UNL A   1      41.328  32.242  34.264  1.00  0.00     0.037 A 
BRANCH  45  59
ATOM     59  C   UNL A   1      45.033  27.479  32.912  1.00  0.00     0.058 A 
ATOM     60  C   UNL A   1      44.981  26.378  33.778  1.00  0.00     0.135 A 
ATOM     61  C   UNL A   1      46.276  27.812  32.347  1.00  0.00     0.135 A 
ATOM     62  F   UNL A   1      43.825  26.032  34.364  1.00  0.00    -0.206 F 
ATOM     63  C   UNL A   1      46.125  25.646  34.089  1.00  0.00     0.059 A 
ATOM     64  C   UNL A   1      47.426  27.081  32.625  1.00  0.00     0.059 A 
ATOM     65  F   UNL A   1      46.381  28.861  31.516  1.00  0.00    -0.206 F 
ATOM     66  C   UNL A   1      47.344  26.008  33.510  1.00  0.00     0.060 A 
BRANCH  66  67
ATOM     67  S   UNL A   1      48.821  25.054  33.917  1.00  0.00     0.124 S 
ATOM     68  O   UNL A   1      49.126  25.548  35.256  1.00  0.00    -0.237 OA
ATOM     69  O   UNL A   1      48.339  23.678  33.844  1.00  0.00    -0.237 OA
ATOM     70  O   UNL A   1      49.769  25.437  32.877  1.00  0.00    -0.744 OA
ENDBRANCH  66  67
ENDBRANCH  45  59
BRANCH  46  71
ATOM     71  C   UNL A   1      36.887  32.585  30.161  1.00  0.00     0.058 A 
ATOM     72  C   UNL A   1      35.668  32.352  30.811  1.00  0.00     0.135 A 
ATOM     73  C   UNL A   1      36.919  33.571  29.161  1.00  0.00     0.135 A 
ATOM     74  F   UNL A   1      35.584  31.409  31.761  1.00  0.00    -0.206 F 
ATOM     75  C   UNL A   1      34.523  33.078  30.493  1.00  0.00     0.059 A 
ATOM     76  C   UNL A   1      35.796  34.328  28.846  1.00  0.00     0.059 A 
ATOM     77  F   UNL A   1      38.064  33.837  28.514  1.00  0.00    -0.206 F 
ATOM     78  C   UNL A   1      34.601  34.071  29.515  1.00  0.00     0.060 A 
BRANCH  78  79
ATOM     79  S   UNL A   1      33.142  35.079  29.170  1.00  0.00     0.124 S 
ATOM     80  O   UNL A   1      32.509  34.321  28.097  1.00  0.00    -0.237 OA
ATOM     81  O   UNL A   1      32.446  35.071  30.454  1.00  0.00    -0.237 OA
ATOM     82  O   UNL A   1      33.712  36.366  28.786  1.00  0.00    -0.744 OA
ENDBRANCH  78  79
ENDBRANCH  46  71
BRANCH  58  83
ATOM     83  C   UNL A   1      41.424  33.212  35.404  1.00  0.00     0.058 A 
ATOM     84  C   UNL A   1      40.759  32.979  36.617  1.00  0.00     0.135 A 
ATOM     85  C   UNL A   1      42.213  34.366  35.292  1.00  0.00     0.135 A 
ATOM     86  F   UNL A   1      39.986  31.892  36.766  1.00  0.00    -0.206 F 
ATOM     87  C   UNL A   1      40.860  33.871  37.679  1.00  0.00     0.059 A 
ATOM     88  C   UNL A   1      42.342  35.262  36.347  1.00  0.00     0.059 A 
ATOM     89  F   UNL A   1      42.872  34.627  34.152  1.00  0.00    -0.206 F 
ATOM     90  C   UNL A   1      41.652  35.011  37.533  1.00  0.00     0.060 A 
BRANCH  90  91
ATOM     91  S   UNL A   1      41.797  36.152  38.924  1.00  0.00     0.124 S 
ATOM     92  O   UNL A   1      42.651  35.397  39.835  1.00  0.00    -0.237 OA
ATOM     93  O   UNL A   1      42.408  37.326  38.308  1.00  0.00    -0.237 OA
ATOM     94  O   UNL A   1      40.415  36.331  39.360  1.00  0.00    -0.744 OA
ENDBRANCH  90  91
ENDBRANCH  58  83
ENDBRANCH  32  33
ENDBRANCH  25  27
ENDBRANCH  24  25
ENDBRANCH  23  24
ENDBRANCH   1  23
TORSDOF 21
ENDMDL
