MODEL 1
REMARK VINA RESULT:     -12.9      0.000      0.000
REMARK SMILES O=C(OCCOC(=O)c1ccccc1NC(=O)c1cc2cc(Cl)cc(Cl)c2oc1=O)c1ccc(-c2c3nc(c(-c4c(F)cc(S(=O)(=O)[O-])cc4F)c4ccc([nH]4)c(-c4c(F)cc(S(=O)(=O)[O-])cc4F)c4nc(c(-c5c(F)cc(S(=O)(=O)[O-])cc5F)c5ccc2[nH]5)C=C4)C=C3)cc1
REMARK SMILES IDX 4 1 3 2 2 3 1 4 31 5 32 6 96 7 33 8 95 9 34 10 35 11 36 12
REMARK SMILES IDX 89 13 37 14 94 15 88 16 90 17 38 18 93 19 87 20 86 21 39 23
REMARK SMILES IDX 73 24 52 25 72 26 53 27 56 28 71 29 91 30 54 31 55 32 70 34
REMARK SMILES IDX 92 35 57 36 40 37 41 38 50 39 42 40 43 41 49 42 51 43 44 44
REMARK SMILES IDX 45 45 46 46 47 47 48 48 74 49 75 50 84 51 76 52 77 53 83 54
REMARK SMILES IDX 85 55 78 56 79 57 80 58 81 59 82 60 58 61 59 62 68 63 60 64
REMARK SMILES IDX 61 65 67 66 69 67 62 68 63 69 64 70 65 71 66 72 5 73 6 74
REMARK SMILES IDX 7 75 8 76 9 77 10 78 14 79 11 80 13 81 12 82 15 83 16 84
REMARK SMILES IDX 17 86 18 87 19 88 29 89 20 90 28 91 30 92 21 93 27 94 22 95
REMARK SMILES IDX 25 96 23 97 24 98 26 99
REMARK H PARENT 90 22 56 33 15 85
REMARK Flexibility Score: inf
ROOT
ATOM      1  C   UNL A   1      34.846  30.726  27.746  1.00  0.00     0.275 C 
ENDROOT
BRANCH   1   2
ATOM      2  O   UNL A   1      35.353  30.819  29.086  1.00  0.00    -0.458 OA
BRANCH   2   3
ATOM      3  C   UNL A   1      36.272  30.069  29.736  1.00  0.00     0.338 C 
ATOM      4  O   UNL A   1      35.973  29.645  30.854  1.00  0.00    -0.246 OA
BRANCH   3   5
ATOM      5  C   UNL A   1      37.671  29.797  29.249  1.00  0.00     0.060 A 
ATOM      6  C   UNL A   1      38.117  29.765  27.923  1.00  0.00     0.016 A 
ATOM      7  C   UNL A   1      38.625  29.545  30.257  1.00  0.00     0.016 A 
ATOM      8  C   UNL A   1      39.457  29.493  27.611  1.00  0.00     0.010 A 
ATOM      9  C   UNL A   1      39.963  29.273  29.953  1.00  0.00     0.010 A 
ATOM     10  C   UNL A   1      40.380  29.224  28.623  1.00  0.00    -0.014 A 
BRANCH  10  11
ATOM     11  C   UNL A   1      41.750  28.772  28.289  1.00  0.00     0.031 A 
ATOM     12  C   UNL A   1      42.866  29.754  28.375  1.00  0.00     0.074 A 
ATOM     13  C   UNL A   1      41.978  27.530  27.832  1.00  0.00     0.049 A 
ATOM     14  N   UNL A   1      44.132  29.579  28.115  1.00  0.00    -0.248 NA
ATOM     15  C   UNL A   1      42.499  31.127  28.752  1.00  0.00     0.031 C 
ATOM     16  C   UNL A   1      40.923  26.563  27.602  1.00  0.00     0.029 A 
ATOM     17  N   UNL A   1      43.118  26.868  27.456  1.00  0.00    -0.354 N 
ATOM     18  C   UNL A   1      44.707  30.833  28.235  1.00  0.00     0.074 A 
ATOM     19  C   UNL A   1      43.654  31.754  28.605  1.00  0.00     0.031 C 
ATOM     20  C   UNL A   1      41.452  25.426  27.131  1.00  0.00     0.029 A 
ATOM     21  C   UNL A   1      42.899  25.559  27.089  1.00  0.00     0.049 A 
ATOM     22  H   UNL A   1      44.008  27.290  27.449  1.00  0.00     0.167 HD
ATOM     23  C   UNL A   1      45.997  31.180  28.018  1.00  0.00     0.037 A 
ATOM     24  C   UNL A   1      43.774  24.574  26.798  1.00  0.00     0.037 A 
ATOM     25  C   UNL A   1      47.013  30.245  27.618  1.00  0.00     0.049 A 
ATOM     26  C   UNL A   1      45.231  24.935  26.762  1.00  0.00     0.074 A 
ATOM     27  C   UNL A   1      48.347  30.479  27.352  1.00  0.00     0.029 A 
ATOM     28  N   UNL A   1      46.795  28.886  27.418  1.00  0.00    -0.354 N 
ATOM     29  N   UNL A   1      45.779  26.112  26.957  1.00  0.00    -0.248 NA
ATOM     30  C   UNL A   1      46.186  23.867  26.447  1.00  0.00     0.031 C 
ATOM     31  C   UNL A   1      48.932  29.266  26.966  1.00  0.00     0.029 A 
ATOM     32  C   UNL A   1      47.970  28.268  27.033  1.00  0.00     0.049 A 
ATOM     33  H   UNL A   1      45.929  28.431  27.534  1.00  0.00     0.167 HD
ATOM     34  C   UNL A   1      47.141  25.931  26.767  1.00  0.00     0.074 A 
ATOM     35  C   UNL A   1      47.339  24.520  26.497  1.00  0.00     0.031 C 
ATOM     36  C   UNL A   1      48.131  26.856  26.779  1.00  0.00     0.037 A 
BRANCH  23  37
ATOM     37  C   UNL A   1      46.314  32.641  28.138  1.00  0.00     0.058 A 
ATOM     38  C   UNL A   1      46.186  33.515  27.046  1.00  0.00     0.135 A 
ATOM     39  C   UNL A   1      46.866  33.146  29.326  1.00  0.00     0.135 A 
ATOM     40  F   UNL A   1      45.695  33.071  25.878  1.00  0.00    -0.206 F 
ATOM     41  C   UNL A   1      46.656  34.823  27.107  1.00  0.00     0.059 A 
ATOM     42  C   UNL A   1      47.316  34.460  29.416  1.00  0.00     0.059 A 
ATOM     43  F   UNL A   1      47.019  32.350  30.395  1.00  0.00    -0.206 F 
ATOM     44  C   UNL A   1      47.238  35.278  28.290  1.00  0.00     0.060 A 
BRANCH  44  45
ATOM     45  S   UNL A   1      47.927  36.945  28.331  1.00  0.00     0.124 S 
ATOM     46  O   UNL A   1      49.083  36.800  27.451  1.00  0.00    -0.237 OA
ATOM     47  O   UNL A   1      46.830  37.753  27.806  1.00  0.00    -0.237 OA
ATOM     48  O   UNL A   1      48.231  37.151  29.743  1.00  0.00    -0.744 OA
ENDBRANCH  44  45
ENDBRANCH  23  37
BRANCH  24  49
ATOM     49  C   UNL A   1      43.312  23.162  26.657  1.00  0.00     0.058 A 
ATOM     50  C   UNL A   1      43.304  22.552  25.391  1.00  0.00     0.135 A 
ATOM     51  C   UNL A   1      42.958  22.363  27.756  1.00  0.00     0.135 A 
ATOM     52  F   UNL A   1      43.645  23.261  24.304  1.00  0.00    -0.206 F 
ATOM     53  C   UNL A   1      42.984  21.210  25.220  1.00  0.00     0.059 A 
ATOM     54  C   UNL A   1      42.665  21.008  27.616  1.00  0.00     0.059 A 
ATOM     55  F   UNL A   1      42.967  22.881  28.995  1.00  0.00    -0.206 F 
ATOM     56  C   UNL A   1      42.686  20.440  26.342  1.00  0.00     0.060 A 
BRANCH  56  57
ATOM     57  S   UNL A   1      42.446  18.663  26.119  1.00  0.00     0.124 S 
ATOM     58  O   UNL A   1      43.414  18.365  25.069  1.00  0.00    -0.237 OA
ATOM     59  O   UNL A   1      42.765  18.159  27.452  1.00  0.00    -0.237 OA
ATOM     60  O   UNL A   1      41.042  18.566  25.738  1.00  0.00    -0.744 OA
ENDBRANCH  56  57
ENDBRANCH  24  49
BRANCH  36  61
ATOM     61  C   UNL A   1      49.515  26.372  26.474  1.00  0.00     0.058 A 
ATOM     62  C   UNL A   1      50.027  26.413  25.169  1.00  0.00     0.135 A 
ATOM     63  C   UNL A   1      50.365  25.954  27.509  1.00  0.00     0.135 A 
ATOM     64  F   UNL A   1      49.243  26.795  24.147  1.00  0.00    -0.206 F 
ATOM     65  C   UNL A   1      51.341  26.056  24.897  1.00  0.00     0.059 A 
ATOM     66  C   UNL A   1      51.689  25.612  27.263  1.00  0.00     0.059 A 
ATOM     67  F   UNL A   1      49.917  25.902  28.773  1.00  0.00    -0.206 F 
ATOM     68  C   UNL A   1      52.167  25.668  25.954  1.00  0.00     0.060 A 
BRANCH  68  69
ATOM     69  S   UNL A   1      53.896  25.290  25.600  1.00  0.00     0.124 S 
ATOM     70  O   UNL A   1      54.426  25.064  26.941  1.00  0.00    -0.237 OA
ATOM     71  O   UNL A   1      53.789  24.106  24.754  1.00  0.00    -0.237 OA
ATOM     72  O   UNL A   1      54.374  26.494  24.928  1.00  0.00    -0.744 OA
ENDBRANCH  68  69
ENDBRANCH  36  61
ENDBRANCH  10  11
ENDBRANCH   3   5
ENDBRANCH   2   3
ENDBRANCH   1   2
BRANCH   1  73
ATOM     73  C   UNL A   1      34.107  29.414  27.473  1.00  0.00     0.275 C 
BRANCH  73  74
ATOM     74  O   UNL A   1      32.721  29.621  27.152  1.00  0.00    -0.458 OA
BRANCH  74  75
ATOM     75  C   UNL A   1      31.968  28.491  27.130  1.00  0.00     0.340 C 
ATOM     76  O   UNL A   1      31.647  27.821  28.100  1.00  0.00    -0.246 OA
BRANCH  75  77
ATOM     77  C   UNL A   1      31.456  28.218  25.765  1.00  0.00     0.083 A 
ATOM     78  C   UNL A   1      31.234  29.365  24.980  1.00  0.00     0.018 A 
ATOM     79  C   UNL A   1      31.176  26.927  25.263  1.00  0.00     0.056 A 
ATOM     80  C   UNL A   1      30.722  29.247  23.695  1.00  0.00     0.001 A 
ATOM     81  C   UNL A   1      30.536  26.850  24.021  1.00  0.00     0.027 A 
ATOM     82  C   UNL A   1      30.345  27.994  23.230  1.00  0.00     0.002 A 
BRANCH  79  83
ATOM     83  N   UNL A   1      31.658  25.794  25.964  1.00  0.00    -0.321 N 
ATOM     84  C   UNL A   1      32.688  24.911  25.795  1.00  0.00     0.263 C 
ATOM     85  H   UNL A   1      31.121  25.595  26.764  1.00  0.00     0.170 HD
ATOM     86  O   UNL A   1      32.992  24.197  26.754  1.00  0.00    -0.269 OA
BRANCH  84  87
ATOM     87  C   UNL A   1      33.364  24.758  24.480  1.00  0.00     0.126 A 
ATOM     88  C   UNL A   1      34.711  24.853  24.448  1.00  0.00     0.033 A 
ATOM     89  C   UNL A   1      32.859  23.595  23.709  1.00  0.00     0.349 A 
ATOM     90  C   UNL A   1      35.438  23.624  24.808  1.00  0.00     0.021 A 
ATOM     91  O   UNL A   1      33.530  22.397  23.948  1.00  0.00    -0.421 OA
ATOM     92  O   UNL A   1      31.855  23.680  23.011  1.00  0.00    -0.245 OA
ATOM     93  C   UNL A   1      36.736  23.652  25.321  1.00  0.00     0.032 A 
ATOM     94  C   UNL A   1      34.800  22.403  24.574  1.00  0.00     0.157 A 
ATOM     95  C   UNL A   1      37.372  22.446  25.615  1.00  0.00     0.043 A 
ATOM     96  C   UNL A   1      35.425  21.203  24.900  1.00  0.00     0.085 A 
ATOM     97  Cl  UNL A   1      38.979  22.458  26.233  1.00  0.00    -0.084 Cl
ATOM     98  C   UNL A   1      36.719  21.225  25.425  1.00  0.00     0.045 A 
ATOM     99  Cl  UNL A   1      34.624  19.691  24.701  1.00  0.00    -0.080 Cl
ENDBRANCH  84  87
ENDBRANCH  79  83
ENDBRANCH  75  77
ENDBRANCH  74  75
ENDBRANCH  73  74
ENDBRANCH   1  73
TORSDOF 16
ENDMDL
MODEL 2
REMARK VINA RESULT:     -12.8      0.407      8.102
REMARK SMILES O=C(OCCOC(=O)c1ccccc1NC(=O)c1cc2cc(Cl)cc(Cl)c2oc1=O)c1ccc(-c2c3nc(c(-c4c(F)cc(S(=O)(=O)[O-])cc4F)c4ccc([nH]4)c(-c4c(F)cc(S(=O)(=O)[O-])cc4F)c4nc(c(-c5c(F)cc(S(=O)(=O)[O-])cc5F)c5ccc2[nH]5)C=C4)C=C3)cc1
REMARK SMILES IDX 4 1 3 2 2 3 1 4 31 5 32 6 96 7 33 8 95 9 34 10 35 11 36 12
REMARK SMILES IDX 89 13 37 14 94 15 88 16 90 17 38 18 93 19 87 20 86 21 39 23
REMARK SMILES IDX 73 24 52 25 72 26 53 27 56 28 71 29 91 30 54 31 55 32 70 34
REMARK SMILES IDX 92 35 57 36 40 37 41 38 50 39 42 40 43 41 49 42 51 43 44 44
REMARK SMILES IDX 45 45 46 46 47 47 48 48 74 49 75 50 84 51 76 52 77 53 83 54
REMARK SMILES IDX 85 55 78 56 79 57 80 58 81 59 82 60 58 61 59 62 68 63 60 64
REMARK SMILES IDX 61 65 67 66 69 67 62 68 63 69 64 70 65 71 66 72 5 73 6 74
REMARK SMILES IDX 7 75 8 76 9 77 10 78 14 79 11 80 13 81 12 82 15 83 16 84
REMARK SMILES IDX 17 86 18 87 19 88 29 89 20 90 28 91 30 92 21 93 27 94 22 95
REMARK SMILES IDX 25 96 23 97 24 98 26 99
REMARK H PARENT 90 22 56 33 15 85
REMARK Flexibility Score: inf
ROOT
ATOM      1  C   UNL A   1      34.827  30.665  27.644  1.00  0.00     0.275 C 
ENDROOT
BRANCH   1   2
ATOM      2  O   UNL A   1      35.461  30.749  28.930  1.00  0.00    -0.458 OA
BRANCH   2   3
ATOM      3  C   UNL A   1      36.373  29.941  29.518  1.00  0.00     0.338 C 
ATOM      4  O   UNL A   1      36.054  29.402  30.579  1.00  0.00    -0.246 OA
BRANCH   3   5
ATOM      5  C   UNL A   1      37.783  29.730  29.036  1.00  0.00     0.060 A 
ATOM      6  C   UNL A   1      38.217  29.592  27.713  1.00  0.00     0.016 A 
ATOM      7  C   UNL A   1      38.766  29.663  30.047  1.00  0.00     0.016 A 
ATOM      8  C   UNL A   1      39.571  29.395  27.406  1.00  0.00     0.010 A 
ATOM      9  C   UNL A   1      40.117  29.466  29.748  1.00  0.00     0.010 A 
ATOM     10  C   UNL A   1      40.523  29.309  28.423  1.00  0.00    -0.014 A 
BRANCH  10  11
ATOM     11  C   UNL A   1      41.922  28.933  28.113  1.00  0.00     0.031 A 
ATOM     12  C   UNL A   1      42.202  27.546  27.649  1.00  0.00     0.074 A 
ATOM     13  C   UNL A   1      42.933  29.791  28.327  1.00  0.00     0.049 A 
ATOM     14  N   UNL A   1      43.346  27.003  27.340  1.00  0.00    -0.248 NA
ATOM     15  C   UNL A   1      41.048  26.638  27.576  1.00  0.00     0.031 C 
ATOM     16  C   UNL A   1      42.747  31.110  28.896  1.00  0.00     0.029 A 
ATOM     17  N   UNL A   1      44.287  29.703  28.134  1.00  0.00    -0.354 N 
ATOM     18  C   UNL A   1      43.063  25.669  27.095  1.00  0.00     0.074 A 
ATOM     19  C   UNL A   1      41.638  25.492  27.278  1.00  0.00     0.031 C 
ATOM     20  C   UNL A   1      43.935  31.722  29.005  1.00  0.00     0.029 A 
ATOM     21  C   UNL A   1      44.964  30.860  28.449  1.00  0.00     0.049 A 
ATOM     22  H   UNL A   1      44.733  28.890  27.803  1.00  0.00     0.167 HD
ATOM     23  C   UNL A   1      43.930  24.680  26.779  1.00  0.00     0.037 A 
ATOM     24  C   UNL A   1      46.258  31.196  28.263  1.00  0.00     0.037 A 
ATOM     25  C   UNL A   1      45.346  24.882  26.637  1.00  0.00     0.049 A 
ATOM     26  C   UNL A   1      47.172  30.137  27.715  1.00  0.00     0.074 A 
ATOM     27  C   UNL A   1      46.327  23.957  26.338  1.00  0.00     0.029 A 
ATOM     28  N   UNL A   1      45.984  26.108  26.796  1.00  0.00    -0.354 N 
ATOM     29  N   UNL A   1      46.880  28.894  27.408  1.00  0.00    -0.248 NA
ATOM     30  C   UNL A   1      48.579  30.497  27.511  1.00  0.00     0.031 C 
ATOM     31  C   UNL A   1      47.562  24.618  26.341  1.00  0.00     0.029 A 
ATOM     32  C   UNL A   1      47.346  25.965  26.600  1.00  0.00     0.049 A 
ATOM     33  H   UNL A   1      45.532  26.955  27.016  1.00  0.00     0.167 HD
ATOM     34  C   UNL A   1      48.071  28.317  26.994  1.00  0.00     0.074 A 
ATOM     35  C   UNL A   1      49.076  29.362  27.038  1.00  0.00     0.031 C 
ATOM     36  C   UNL A   1      48.317  27.032  26.646  1.00  0.00     0.037 A 
BRANCH  23  37
ATOM     37  C   UNL A   1      43.345  23.305  26.659  1.00  0.00     0.058 A 
ATOM     38  C   UNL A   1      43.045  22.530  27.792  1.00  0.00     0.135 A 
ATOM     39  C   UNL A   1      43.194  22.711  25.396  1.00  0.00     0.135 A 
ATOM     40  F   UNL A   1      43.206  23.041  29.023  1.00  0.00    -0.206 F 
ATOM     41  C   UNL A   1      42.681  21.192  27.678  1.00  0.00     0.059 A 
ATOM     42  C   UNL A   1      42.802  21.383  25.259  1.00  0.00     0.059 A 
ATOM     43  F   UNL A   1      43.475  23.406  24.283  1.00  0.00    -0.206 F 
ATOM     44  C   UNL A   1      42.582  20.624  26.408  1.00  0.00     0.060 A 
BRANCH  44  45
ATOM     45  S   UNL A   1      42.197  18.866  26.273  1.00  0.00     0.124 S 
ATOM     46  O   UNL A   1      42.368  18.428  27.655  1.00  0.00    -0.237 OA
ATOM     47  O   UNL A   1      40.824  18.881  25.779  1.00  0.00    -0.237 OA
ATOM     48  O   UNL A   1      43.195  18.373  25.329  1.00  0.00    -0.744 OA
ENDBRANCH  44  45
ENDBRANCH  23  37
BRANCH  24  49
ATOM     49  C   UNL A   1      46.718  32.601  28.466  1.00  0.00     0.058 A 
ATOM     50  C   UNL A   1      46.605  33.531  27.420  1.00  0.00     0.135 A 
ATOM     51  C   UNL A   1      47.188  33.077  29.700  1.00  0.00     0.135 A 
ATOM     52  F   UNL A   1      46.150  33.138  26.220  1.00  0.00    -0.206 F 
ATOM     53  C   UNL A   1      46.920  34.874  27.589  1.00  0.00     0.059 A 
ATOM     54  C   UNL A   1      47.480  34.424  29.905  1.00  0.00     0.059 A 
ATOM     55  F   UNL A   1      47.298  32.241  30.745  1.00  0.00    -0.206 F 
ATOM     56  C   UNL A   1      47.337  35.316  28.843  1.00  0.00     0.060 A 
BRANCH  56  57
ATOM     57  S   UNL A   1      47.571  37.091  29.089  1.00  0.00     0.124 S 
ATOM     58  O   UNL A   1      49.025  37.197  29.100  1.00  0.00    -0.237 OA
ATOM     59  O   UNL A   1      46.894  37.636  27.915  1.00  0.00    -0.237 OA
ATOM     60  O   UNL A   1      46.903  37.338  30.361  1.00  0.00    -0.744 OA
ENDBRANCH  56  57
ENDBRANCH  24  49
BRANCH  36  61
ATOM     61  C   UNL A   1      49.731  26.680  26.300  1.00  0.00     0.058 A 
ATOM     62  C   UNL A   1      50.576  26.069  27.239  1.00  0.00     0.135 A 
ATOM     63  C   UNL A   1      50.213  26.870  24.997  1.00  0.00     0.135 A 
ATOM     64  F   UNL A   1      50.159  25.879  28.502  1.00  0.00    -0.206 F 
ATOM     65  C   UNL A   1      51.856  25.654  26.895  1.00  0.00     0.059 A 
ATOM     66  C   UNL A   1      51.482  26.444  24.626  1.00  0.00     0.059 A 
ATOM     67  F   UNL A   1      49.437  27.450  24.068  1.00  0.00    -0.206 F 
ATOM     68  C   UNL A   1      52.295  25.837  25.583  1.00  0.00     0.060 A 
BRANCH  68  69
ATOM     69  S   UNL A   1      53.927  25.216  25.127  1.00  0.00     0.124 S 
ATOM     70  O   UNL A   1      54.706  25.541  26.318  1.00  0.00    -0.237 OA
ATOM     71  O   UNL A   1      53.670  23.797  24.906  1.00  0.00    -0.237 OA
ATOM     72  O   UNL A   1      54.258  25.982  23.930  1.00  0.00    -0.744 OA
ENDBRANCH  68  69
ENDBRANCH  36  61
ENDBRANCH  10  11
ENDBRANCH   3   5
ENDBRANCH   2   3
ENDBRANCH   1   2
BRANCH   1  73
ATOM     73  C   UNL A   1      34.159  29.311  27.390  1.00  0.00     0.275 C 
BRANCH  73  74
ATOM     74  O   UNL A   1      32.910  29.438  26.689  1.00  0.00    -0.458 OA
BRANCH  74  75
ATOM     75  C   UNL A   1      32.047  28.405  26.876  1.00  0.00     0.340 C 
ATOM     76  O   UNL A   1      31.771  27.882  27.945  1.00  0.00    -0.246 OA
BRANCH  75  77
ATOM     77  C   UNL A   1      31.358  28.053  25.611  1.00  0.00     0.083 A 
ATOM     78  C   UNL A   1      31.061  29.147  24.778  1.00  0.00     0.018 A 
ATOM     79  C   UNL A   1      30.988  26.738  25.245  1.00  0.00     0.056 A 
ATOM     80  C   UNL A   1      30.386  28.955  23.580  1.00  0.00     0.001 A 
ATOM     81  C   UNL A   1      30.193  26.594  24.103  1.00  0.00     0.027 A 
ATOM     82  C   UNL A   1      29.926  27.684  23.260  1.00  0.00     0.002 A 
BRANCH  79  83
ATOM     83  N   UNL A   1      31.532  25.644  25.961  1.00  0.00    -0.321 N 
ATOM     84  C   UNL A   1      32.611  24.819  25.805  1.00  0.00     0.263 C 
ATOM     85  H   UNL A   1      31.006  25.425  26.763  1.00  0.00     0.170 HD
ATOM     86  O   UNL A   1      32.953  24.135  26.773  1.00  0.00    -0.269 OA
BRANCH  84  87
ATOM     87  C   UNL A   1      33.298  24.687  24.493  1.00  0.00     0.126 A 
ATOM     88  C   UNL A   1      34.643  24.807  24.470  1.00  0.00     0.033 A 
ATOM     89  C   UNL A   1      32.817  23.522  23.710  1.00  0.00     0.349 A 
ATOM     90  C   UNL A   1      35.390  23.588  24.825  1.00  0.00     0.021 A 
ATOM     91  O   UNL A   1      33.509  22.334  23.944  1.00  0.00    -0.421 OA
ATOM     92  O   UNL A   1      31.817  23.594  23.007  1.00  0.00    -0.245 OA
ATOM     93  C   UNL A   1      36.683  23.634  25.347  1.00  0.00     0.032 A 
ATOM     94  C   UNL A   1      34.775  22.358  24.578  1.00  0.00     0.157 A 
ATOM     95  C   UNL A   1      37.339  22.437  25.635  1.00  0.00     0.043 A 
ATOM     96  C   UNL A   1      35.419  21.166  24.899  1.00  0.00     0.085 A 
ATOM     97  Cl  UNL A   1      38.942  22.473  26.264  1.00  0.00    -0.084 Cl
ATOM     98  C   UNL A   1      36.708  21.207  25.432  1.00  0.00     0.045 A 
ATOM     99  Cl  UNL A   1      34.646  19.642  24.684  1.00  0.00    -0.080 Cl
ENDBRANCH  84  87
ENDBRANCH  79  83
ENDBRANCH  75  77
ENDBRANCH  74  75
ENDBRANCH  73  74
ENDBRANCH   1  73
TORSDOF 16
ENDMDL
MODEL 3
REMARK VINA RESULT:     -12.7      6.745     12.177
REMARK SMILES O=C(OCCOC(=O)c1ccccc1NC(=O)c1cc2cc(Cl)cc(Cl)c2oc1=O)c1ccc(-c2c3nc(c(-c4c(F)cc(S(=O)(=O)[O-])cc4F)c4ccc([nH]4)c(-c4c(F)cc(S(=O)(=O)[O-])cc4F)c4nc(c(-c5c(F)cc(S(=O)(=O)[O-])cc5F)c5ccc2[nH]5)C=C4)C=C3)cc1
REMARK SMILES IDX 4 1 3 2 2 3 1 4 31 5 32 6 96 7 33 8 95 9 34 10 35 11 36 12
REMARK SMILES IDX 89 13 37 14 94 15 88 16 90 17 38 18 93 19 87 20 86 21 39 23
REMARK SMILES IDX 73 24 52 25 72 26 53 27 56 28 71 29 91 30 54 31 55 32 70 34
REMARK SMILES IDX 92 35 57 36 40 37 41 38 50 39 42 40 43 41 49 42 51 43 44 44
REMARK SMILES IDX 45 45 46 46 47 47 48 48 74 49 75 50 84 51 76 52 77 53 83 54
REMARK SMILES IDX 85 55 78 56 79 57 80 58 81 59 82 60 58 61 59 62 68 63 60 64
REMARK SMILES IDX 61 65 67 66 69 67 62 68 63 69 64 70 65 71 66 72 5 73 6 74
REMARK SMILES IDX 7 75 8 76 9 77 10 78 14 79 11 80 13 81 12 82 15 83 16 84
REMARK SMILES IDX 17 86 18 87 19 88 29 89 20 90 28 91 30 92 21 93 27 94 22 95
REMARK SMILES IDX 25 96 23 97 24 98 26 99
REMARK H PARENT 90 22 56 33 15 85
REMARK Flexibility Score: inf
ROOT
ATOM      1  C   UNL A   1      39.292  22.201  26.400  1.00  0.00     0.275 C 
ENDROOT
BRANCH   1   2
ATOM      2  O   UNL A   1      39.385  23.634  26.409  1.00  0.00    -0.458 OA
BRANCH   2   3
ATOM      3  C   UNL A   1      40.429  24.449  26.681  1.00  0.00     0.338 C 
ATOM      4  O   UNL A   1      41.521  24.158  26.189  1.00  0.00    -0.246 OA
BRANCH   3   5
ATOM      5  C   UNL A   1      40.391  25.624  27.621  1.00  0.00     0.060 A 
ATOM      6  C   UNL A   1      41.242  26.734  27.628  1.00  0.00     0.016 A 
ATOM      7  C   UNL A   1      39.376  25.583  28.600  1.00  0.00     0.016 A 
ATOM      8  C   UNL A   1      41.094  27.762  28.572  1.00  0.00     0.010 A 
ATOM      9  C   UNL A   1      39.222  26.603  29.544  1.00  0.00     0.010 A 
ATOM     10  C   UNL A   1      40.098  27.690  29.546  1.00  0.00    -0.014 A 
BRANCH  10  11
ATOM     11  C   UNL A   1      40.046  28.685  30.643  1.00  0.00     0.031 A 
ATOM     12  C   UNL A   1      41.043  28.585  31.744  1.00  0.00     0.074 A 
ATOM     13  C   UNL A   1      39.070  29.606  30.697  1.00  0.00     0.049 A 
ATOM     14  N   UNL A   1      41.169  29.336  32.803  1.00  0.00    -0.248 NA
ATOM     15  C   UNL A   1      41.988  27.461  31.668  1.00  0.00     0.031 C 
ATOM     16  C   UNL A   1      37.994  29.679  29.729  1.00  0.00     0.029 A 
ATOM     17  N   UNL A   1      38.790  30.618  31.577  1.00  0.00    -0.354 N 
ATOM     18  C   UNL A   1      42.167  28.740  33.556  1.00  0.00     0.074 A 
ATOM     19  C   UNL A   1      42.620  27.576  32.824  1.00  0.00     0.031 C 
ATOM     20  C   UNL A   1      37.167  30.683  30.053  1.00  0.00     0.029 A 
ATOM     21  C   UNL A   1      37.694  31.371  31.220  1.00  0.00     0.049 A 
ATOM     22  H   UNL A   1      39.321  30.789  32.388  1.00  0.00     0.167 HD
ATOM     23  C   UNL A   1      42.633  29.120  34.768  1.00  0.00     0.037 A 
ATOM     24  C   UNL A   1      37.204  32.511  31.750  1.00  0.00     0.037 A 
ATOM     25  C   UNL A   1      42.138  30.264  35.484  1.00  0.00     0.049 A 
ATOM     26  C   UNL A   1      37.869  33.033  32.992  1.00  0.00     0.074 A 
ATOM     27  C   UNL A   1      42.516  30.739  36.725  1.00  0.00     0.029 A 
ATOM     28  N   UNL A   1      41.139  31.111  35.016  1.00  0.00    -0.354 N 
ATOM     29  N   UNL A   1      38.870  32.507  33.658  1.00  0.00    -0.248 NA
ATOM     30  C   UNL A   1      37.341  34.273  33.572  1.00  0.00     0.031 C 
ATOM     31  C   UNL A   1      41.729  31.859  37.019  1.00  0.00     0.029 A 
ATOM     32  C   UNL A   1      40.888  32.108  35.942  1.00  0.00     0.049 A 
ATOM     33  H   UNL A   1      40.677  31.016  34.152  1.00  0.00     0.167 HD
ATOM     34  C   UNL A   1      39.078  33.338  34.748  1.00  0.00     0.074 A 
ATOM     35  C   UNL A   1      38.136  34.433  34.622  1.00  0.00     0.031 C 
ATOM     36  C   UNL A   1      39.945  33.187  35.778  1.00  0.00     0.037 A 
BRANCH  23  37
ATOM     37  C   UNL A   1      43.663  28.224  35.388  1.00  0.00     0.058 A 
ATOM     38  C   UNL A   1      45.024  28.329  35.061  1.00  0.00     0.135 A 
ATOM     39  C   UNL A   1      43.266  27.171  36.228  1.00  0.00     0.135 A 
ATOM     40  F   UNL A   1      45.450  29.298  34.234  1.00  0.00    -0.206 F 
ATOM     41  C   UNL A   1      45.948  27.381  35.491  1.00  0.00     0.059 A 
ATOM     42  C   UNL A   1      44.178  26.229  36.693  1.00  0.00     0.059 A 
ATOM     43  F   UNL A   1      41.975  27.022  36.563  1.00  0.00    -0.206 F 
ATOM     44  C   UNL A   1      45.510  26.324  36.290  1.00  0.00     0.060 A 
BRANCH  44  45
ATOM     45  S   UNL A   1      46.695  25.050  36.767  1.00  0.00     0.124 S 
ATOM     46  O   UNL A   1      47.183  25.574  38.040  1.00  0.00    -0.237 OA
ATOM     47  O   UNL A   1      45.858  23.857  36.853  1.00  0.00    -0.237 OA
ATOM     48  O   UNL A   1      47.659  25.058  35.671  1.00  0.00    -0.744 OA
ENDBRANCH  44  45
ENDBRANCH  23  37
BRANCH  24  49
ATOM     49  C   UNL A   1      36.138  33.283  31.047  1.00  0.00     0.058 A 
ATOM     50  C   UNL A   1      34.859  33.387  31.618  1.00  0.00     0.135 A 
ATOM     51  C   UNL A   1      36.372  33.999  29.863  1.00  0.00     0.135 A 
ATOM     52  F   UNL A   1      34.578  32.735  32.757  1.00  0.00    -0.206 F 
ATOM     53  C   UNL A   1      33.863  34.179  31.059  1.00  0.00     0.059 A 
ATOM     54  C   UNL A   1      35.401  34.825  29.299  1.00  0.00     0.059 A 
ATOM     55  F   UNL A   1      37.581  33.958  29.280  1.00  0.00    -0.206 F 
ATOM     56  C   UNL A   1      34.151  34.912  29.909  1.00  0.00     0.060 A 
BRANCH  56  57
ATOM     57  S   UNL A   1      32.903  36.068  29.300  1.00  0.00     0.124 S 
ATOM     58  O   UNL A   1      33.732  37.104  28.695  1.00  0.00    -0.237 OA
ATOM     59  O   UNL A   1      32.153  35.221  28.376  1.00  0.00    -0.237 OA
ATOM     60  O   UNL A   1      32.187  36.450  30.512  1.00  0.00    -0.744 OA
ENDBRANCH  56  57
ENDBRANCH  24  49
BRANCH  36  61
ATOM     61  C   UNL A   1      39.901  34.224  36.858  1.00  0.00     0.058 A 
ATOM     62  C   UNL A   1      40.567  35.451  36.712  1.00  0.00     0.135 A 
ATOM     63  C   UNL A   1      39.113  34.028  38.001  1.00  0.00     0.135 A 
ATOM     64  F   UNL A   1      41.342  35.677  35.638  1.00  0.00    -0.206 F 
ATOM     65  C   UNL A   1      40.451  36.453  37.667  1.00  0.00     0.059 A 
ATOM     66  C   UNL A   1      38.967  35.023  38.959  1.00  0.00     0.059 A 
ATOM     67  F   UNL A   1      38.459  32.870  38.180  1.00  0.00    -0.206 F 
ATOM     68  C   UNL A   1      39.639  36.232  38.781  1.00  0.00     0.060 A 
BRANCH  68  69
ATOM     69  S   UNL A   1      39.428  37.573  39.970  1.00  0.00     0.124 S 
ATOM     70  O   UNL A   1      38.901  36.857  41.128  1.00  0.00    -0.237 OA
ATOM     71  O   UNL A   1      40.788  38.085  40.107  1.00  0.00    -0.237 OA
ATOM     72  O   UNL A   1      38.490  38.471  39.304  1.00  0.00    -0.744 OA
ENDBRANCH  68  69
ENDBRANCH  36  61
ENDBRANCH  10  11
ENDBRANCH   3   5
ENDBRANCH   2   3
ENDBRANCH   1   2
BRANCH   1  73
ATOM     73  C   UNL A   1      38.280  21.670  25.382  1.00  0.00     0.275 C 
BRANCH  73  74
ATOM     74  O   UNL A   1      36.976  22.252  25.550  1.00  0.00    -0.458 OA
BRANCH  74  75
ATOM     75  C   UNL A   1      36.337  22.559  24.391  1.00  0.00     0.340 C 
ATOM     76  O   UNL A   1      36.819  23.157  23.441  1.00  0.00    -0.246 OA
BRANCH  75  77
ATOM     77  C   UNL A   1      34.982  21.959  24.355  1.00  0.00     0.083 A 
ATOM     78  C   UNL A   1      34.873  20.711  24.995  1.00  0.00     0.018 A 
ATOM     79  C   UNL A   1      33.866  22.548  23.716  1.00  0.00     0.056 A 
ATOM     80  C   UNL A   1      33.665  20.027  25.002  1.00  0.00     0.001 A 
ATOM     81  C   UNL A   1      32.703  21.776  23.623  1.00  0.00     0.027 A 
ATOM     82  C   UNL A   1      32.592  20.546  24.290  1.00  0.00     0.002 A 
BRANCH  79  83
ATOM     83  N   UNL A   1      33.935  23.907  23.322  1.00  0.00    -0.321 N 
ATOM     84  C   UNL A   1      33.566  25.101  23.877  1.00  0.00     0.263 C 
ATOM     85  H   UNL A   1      34.348  24.017  22.436  1.00  0.00     0.170 HD
ATOM     86  O   UNL A   1      34.026  26.131  23.378  1.00  0.00    -0.269 OA
BRANCH  84  87
ATOM     87  C   UNL A   1      32.579  25.162  24.988  1.00  0.00     0.126 A 
ATOM     88  C   UNL A   1      32.914  25.868  26.090  1.00  0.00     0.033 A 
ATOM     89  C   UNL A   1      31.205  25.460  24.517  1.00  0.00     0.349 A 
ATOM     90  C   UNL A   1      32.690  27.321  25.998  1.00  0.00     0.021 A 
ATOM     91  O   UNL A   1      30.889  26.817  24.454  1.00  0.00    -0.421 OA
ATOM     92  O   UNL A   1      30.462  24.574  24.111  1.00  0.00    -0.245 OA
ATOM     93  C   UNL A   1      33.413  28.234  26.767  1.00  0.00     0.032 A 
ATOM     94  C   UNL A   1      31.684  27.768  25.138  1.00  0.00     0.157 A 
ATOM     95  C   UNL A   1      33.129  29.594  26.646  1.00  0.00     0.043 A 
ATOM     96  C   UNL A   1      31.427  29.128  24.994  1.00  0.00     0.085 A 
ATOM     97  Cl  UNL A   1      33.999  30.735  27.599  1.00  0.00    -0.084 Cl
ATOM     98  C   UNL A   1      32.155  30.047  25.753  1.00  0.00     0.045 A 
ATOM     99  Cl  UNL A   1      30.250  29.706  23.876  1.00  0.00    -0.080 Cl
ENDBRANCH  84  87
ENDBRANCH  79  83
ENDBRANCH  75  77
ENDBRANCH  74  75
ENDBRANCH  73  74
ENDBRANCH   1  73
TORSDOF 16
ENDMDL
