MODEL 1
REMARK VINA RESULT:     -10.4      0.000      0.000
REMARK SMILES C[C@H](CCC(=O)OCCOC(=O)c1ccc(-c2c3nc(c(-c4c(F)cc(S(=O)(=O)[O-])cc4F)c4ccc([nH]4)c(-c4c(F)cc(S(=O)(=O)[O-])cc4F)c4nc(c(-c5c(F)cc(S(=O)(=O)[O-])cc5F)c5ccc2[nH]5)C=C4)C=C3)cc1)NC(=O)c1ccc(C[NH3+])o1
REMARK SMILES IDX 7 1 5 2 6 3 4 4 3 5 2 6 1 7 79 8 80 9 81 11 82 12 83 13
REMARK SMILES IDX 88 14 84 15 85 16 86 17 87 18 8 22 9 23 10 24 11 25 12 26
REMARK SMILES IDX 13 27 14 28 78 29 15 30 77 31 16 32 17 33 18 34 71 35 19 36
REMARK SMILES IDX 76 37 70 38 72 39 20 40 75 41 69 42 68 43 21 45 55 46 34 47
REMARK SMILES IDX 54 48 35 49 38 50 53 51 73 52 36 53 37 54 52 56 74 57 39 58
REMARK SMILES IDX 22 59 23 60 32 61 24 62 25 63 31 64 33 65 26 66 27 67 28 68
REMARK SMILES IDX 29 69 30 70 56 71 57 72 66 73 58 74 59 75 65 76 67 77 60 78
REMARK SMILES IDX 61 79 62 80 63 81 64 82 40 83 41 84 50 85 42 86 43 87 49 88
REMARK SMILES IDX 51 89 44 90 45 91 46 92 47 93 48 94
REMARK H PARENT 79 10 87 19 87 20 87 21 72 44 38 55
REMARK Flexibility Score: inf
ROOT
ATOM      1  O   UNL A   1      37.312  23.419  24.963  1.00  0.00    -0.462 OA
ENDROOT
BRANCH   1   2
ATOM      2  C   UNL A   1      36.446  23.071  23.984  1.00  0.00     0.305 C 
ATOM      3  O   UNL A   1      36.679  23.144  22.786  1.00  0.00    -0.252 OA
BRANCH   2   4
ATOM      4  C   UNL A   1      35.105  22.651  24.538  1.00  0.00     0.125 C 
BRANCH   4   5
ATOM      5  C   UNL A   1      34.385  23.662  25.438  1.00  0.00     0.036 C 
BRANCH   5   6
ATOM      6  C   UNL A   1      33.673  24.868  24.784  1.00  0.00     0.080 C 
ATOM      7  C   UNL A   1      34.081  26.225  25.347  1.00  0.00     0.031 C 
BRANCH   6   8
ATOM      8  N   UNL A   1      33.808  24.835  23.329  1.00  0.00    -0.347 N 
ATOM      9  C   UNL A   1      32.909  25.221  22.362  1.00  0.00     0.287 C 
ATOM     10  H   UNL A   1      34.664  24.487  22.993  1.00  0.00     0.164 HD
ATOM     11  O   UNL A   1      33.154  24.904  21.198  1.00  0.00    -0.266 OA
BRANCH   9  12
ATOM     12  C   UNL A   1      31.755  25.989  22.754  1.00  0.00     0.191 A 
ATOM     13  C   UNL A   1      30.592  25.636  23.412  1.00  0.00     0.057 A 
ATOM     14  O   UNL A   1      31.749  27.335  22.509  1.00  0.00    -0.450 OA
ATOM     15  C   UNL A   1      29.819  26.811  23.535  1.00  0.00     0.052 A 
ATOM     16  C   UNL A   1      30.564  27.826  22.974  1.00  0.00     0.159 A 
BRANCH  16  17
ATOM     17  C   UNL A   1      30.331  29.280  22.800  1.00  0.00     0.335 C 
BRANCH  17  18
ATOM     18  N   UNL A   1      31.117  29.796  21.684  1.00  0.00    -0.351 N 
ATOM     19  H   UNL A   1      30.519  29.899  20.864  1.00  0.00     0.344 HD
ATOM     20  H   UNL A   1      31.875  29.146  21.473  1.00  0.00     0.344 HD
ATOM     21  H   UNL A   1      31.509  30.704  21.935  1.00  0.00     0.344 HD
ENDBRANCH  17  18
ENDBRANCH  16  17
ENDBRANCH   9  12
ENDBRANCH   6   8
ENDBRANCH   5   6
ENDBRANCH   4   5
ENDBRANCH   2   4
ENDBRANCH   1   2
BRANCH   1  22
ATOM     22  C   UNL A   1      37.843  22.358  25.777  1.00  0.00     0.274 C 
BRANCH  22  23
ATOM     23  C   UNL A   1      39.217  22.728  26.337  1.00  0.00     0.275 C 
BRANCH  23  24
ATOM     24  O   UNL A   1      39.324  24.148  26.537  1.00  0.00    -0.458 OA
BRANCH  24  25
ATOM     25  C   UNL A   1      40.581  24.629  26.682  1.00  0.00     0.338 C 
ATOM     26  O   UNL A   1      41.554  24.370  25.998  1.00  0.00    -0.246 OA
BRANCH  25  27
ATOM     27  C   UNL A   1      40.580  25.652  27.737  1.00  0.00     0.060 A 
ATOM     28  C   UNL A   1      39.532  25.651  28.662  1.00  0.00     0.016 A 
ATOM     29  C   UNL A   1      41.580  26.623  27.794  1.00  0.00     0.016 A 
ATOM     30  C   UNL A   1      39.485  26.618  29.662  1.00  0.00     0.010 A 
ATOM     31  C   UNL A   1      41.532  27.594  28.798  1.00  0.00     0.010 A 
ATOM     32  C   UNL A   1      40.484  27.598  29.735  1.00  0.00    -0.014 A 
BRANCH  32  33
ATOM     33  C   UNL A   1      40.416  28.644  30.782  1.00  0.00     0.031 A 
ATOM     34  C   UNL A   1      41.323  28.563  31.975  1.00  0.00     0.074 A 
ATOM     35  C   UNL A   1      39.543  29.660  30.653  1.00  0.00     0.049 A 
ATOM     36  N   UNL A   1      41.365  29.329  33.033  1.00  0.00    -0.248 NA
ATOM     37  C   UNL A   1      42.312  27.474  31.977  1.00  0.00     0.031 C 
ATOM     38  C   UNL A   1      38.637  29.853  29.519  1.00  0.00     0.029 A 
ATOM     39  N   UNL A   1      39.269  30.715  31.484  1.00  0.00    -0.354 N 
ATOM     40  C   UNL A   1      42.373  28.810  33.836  1.00  0.00     0.074 A 
ATOM     41  C   UNL A   1      42.906  27.651  33.150  1.00  0.00     0.031 C 
ATOM     42  C   UNL A   1      37.903  30.958  29.730  1.00  0.00     0.029 A 
ATOM     43  C   UNL A   1      38.258  31.526  31.027  1.00  0.00     0.049 A 
ATOM     44  H   UNL A   1      39.750  30.876  32.327  1.00  0.00     0.167 HD
ATOM     45  C   UNL A   1      42.814  29.263  35.034  1.00  0.00     0.037 A 
ATOM     46  C   UNL A   1      37.667  32.590  31.605  1.00  0.00     0.037 A 
ATOM     47  C   UNL A   1      42.279  30.421  35.704  1.00  0.00     0.049 A 
ATOM     48  C   UNL A   1      38.142  33.045  32.958  1.00  0.00     0.074 A 
ATOM     49  C   UNL A   1      42.662  30.969  36.916  1.00  0.00     0.029 A 
ATOM     50  N   UNL A   1      41.246  31.209  35.219  1.00  0.00    -0.354 N 
ATOM     51  N   UNL A   1      39.099  32.546  33.706  1.00  0.00    -0.248 NA
ATOM     52  C   UNL A   1      37.460  34.204  33.548  1.00  0.00     0.031 C 
ATOM     53  C   UNL A   1      41.834  32.065  37.182  1.00  0.00     0.029 A 
ATOM     54  C   UNL A   1      40.965  32.227  36.115  1.00  0.00     0.049 A 
ATOM     55  H   UNL A   1      40.780  31.065  34.363  1.00  0.00     0.167 HD
ATOM     56  C   UNL A   1      39.144  33.341  34.846  1.00  0.00     0.074 A 
ATOM     57  C   UNL A   1      38.128  34.362  34.682  1.00  0.00     0.031 C 
ATOM     58  C   UNL A   1      39.951  33.236  35.930  1.00  0.00     0.037 A 
BRANCH  45  59
ATOM     59  C   UNL A   1      43.912  28.490  35.709  1.00  0.00     0.058 A 
ATOM     60  C   UNL A   1      45.266  28.765  35.465  1.00  0.00     0.135 A 
ATOM     61  C   UNL A   1      43.605  27.479  36.634  1.00  0.00     0.135 A 
ATOM     62  F   UNL A   1      45.615  29.708  34.576  1.00  0.00    -0.206 F 
ATOM     63  C   UNL A   1      46.279  28.050  36.098  1.00  0.00     0.059 A 
ATOM     64  C   UNL A   1      44.600  26.766  37.295  1.00  0.00     0.059 A 
ATOM     65  F   UNL A   1      42.325  27.173  36.901  1.00  0.00    -0.206 F 
ATOM     66  C   UNL A   1      45.935  27.050  37.010  1.00  0.00     0.060 A 
BRANCH  66  67
ATOM     67  S   UNL A   1      47.259  26.129  37.824  1.00  0.00     0.124 S 
ATOM     68  O   UNL A   1      48.437  26.646  37.135  1.00  0.00    -0.237 OA
ATOM     69  O   UNL A   1      47.112  26.536  39.218  1.00  0.00    -0.237 OA
ATOM     70  O   UNL A   1      46.927  24.737  37.542  1.00  0.00    -0.744 OA
ENDBRANCH  66  67
ENDBRANCH  45  59
BRANCH  46  71
ATOM     71  C   UNL A   1      36.549  33.285  30.914  1.00  0.00     0.058 A 
ATOM     72  C   UNL A   1      35.226  33.145  31.355  1.00  0.00     0.135 A 
ATOM     73  C   UNL A   1      36.784  34.111  29.803  1.00  0.00     0.135 A 
ATOM     74  F   UNL A   1      34.949  32.359  32.407  1.00  0.00    -0.206 F 
ATOM     75  C   UNL A   1      34.172  33.787  30.712  1.00  0.00     0.059 A 
ATOM     76  C   UNL A   1      35.750  34.782  29.158  1.00  0.00     0.059 A 
ATOM     77  F   UNL A   1      38.035  34.287  29.349  1.00  0.00    -0.206 F 
ATOM     78  C   UNL A   1      34.445  34.605  29.615  1.00  0.00     0.060 A 
BRANCH  78  79
ATOM     79  S   UNL A   1      33.077  35.470  28.813  1.00  0.00     0.124 S 
ATOM     80  O   UNL A   1      32.317  35.946  29.963  1.00  0.00    -0.237 OA
ATOM     81  O   UNL A   1      33.770  36.495  28.037  1.00  0.00    -0.237 OA
ATOM     82  O   UNL A   1      32.438  34.423  28.021  1.00  0.00    -0.744 OA
ENDBRANCH  78  79
ENDBRANCH  46  71
BRANCH  58  83
ATOM     83  C   UNL A   1      39.789  34.268  37.011  1.00  0.00     0.058 A 
ATOM     84  C   UNL A   1      39.074  33.994  38.188  1.00  0.00     0.135 A 
ATOM     85  C   UNL A   1      40.393  35.529  36.887  1.00  0.00     0.135 A 
ATOM     86  F   UNL A   1      38.471  32.806  38.351  1.00  0.00    -0.206 F 
ATOM     87  C   UNL A   1      38.944  34.944  39.195  1.00  0.00     0.059 A 
ATOM     88  C   UNL A   1      40.297  36.486  37.892  1.00  0.00     0.059 A 
ATOM     89  F   UNL A   1      41.095  35.836  35.786  1.00  0.00    -0.206 F 
ATOM     90  C   UNL A   1      39.559  36.188  39.038  1.00  0.00     0.060 A 
BRANCH  90  91
ATOM     91  S   UNL A   1      39.411  37.404  40.365  1.00  0.00     0.124 S 
ATOM     92  O   UNL A   1      38.614  36.673  41.344  1.00  0.00    -0.237 OA
ATOM     93  O   UNL A   1      40.804  37.639  40.731  1.00  0.00    -0.237 OA
ATOM     94  O   UNL A   1      38.741  38.529  39.721  1.00  0.00    -0.744 OA
ENDBRANCH  90  91
ENDBRANCH  58  83
ENDBRANCH  32  33
ENDBRANCH  25  27
ENDBRANCH  24  25
ENDBRANCH  23  24
ENDBRANCH  22  23
ENDBRANCH   1  22
TORSDOF 20
ENDMDL
MODEL 2
REMARK VINA RESULT:     -10.4      5.983      8.534
REMARK SMILES C[C@H](CCC(=O)OCCOC(=O)c1ccc(-c2c3nc(c(-c4c(F)cc(S(=O)(=O)[O-])cc4F)c4ccc([nH]4)c(-c4c(F)cc(S(=O)(=O)[O-])cc4F)c4nc(c(-c5c(F)cc(S(=O)(=O)[O-])cc5F)c5ccc2[nH]5)C=C4)C=C3)cc1)NC(=O)c1ccc(C[NH3+])o1
REMARK SMILES IDX 7 1 5 2 6 3 4 4 3 5 2 6 1 7 79 8 80 9 81 11 82 12 83 13
REMARK SMILES IDX 88 14 84 15 85 16 86 17 87 18 8 22 9 23 10 24 11 25 12 26
REMARK SMILES IDX 13 27 14 28 78 29 15 30 77 31 16 32 17 33 18 34 71 35 19 36
REMARK SMILES IDX 76 37 70 38 72 39 20 40 75 41 69 42 68 43 21 45 55 46 34 47
REMARK SMILES IDX 54 48 35 49 38 50 53 51 73 52 36 53 37 54 52 56 74 57 39 58
REMARK SMILES IDX 22 59 23 60 32 61 24 62 25 63 31 64 33 65 26 66 27 67 28 68
REMARK SMILES IDX 29 69 30 70 56 71 57 72 66 73 58 74 59 75 65 76 67 77 60 78
REMARK SMILES IDX 61 79 62 80 63 81 64 82 40 83 41 84 50 85 42 86 43 87 49 88
REMARK SMILES IDX 51 89 44 90 45 91 46 92 47 93 48 94
REMARK H PARENT 79 10 87 19 87 20 87 21 72 44 38 55
REMARK Flexibility Score: inf
ROOT
ATOM      1  O   UNL A   1      42.161  19.734  26.563  1.00  0.00    -0.462 OA
ENDROOT
BRANCH   1   2
ATOM      2  C   UNL A   1      42.836  18.647  26.126  1.00  0.00     0.305 C 
ATOM      3  O   UNL A   1      42.731  17.523  26.597  1.00  0.00    -0.252 OA
BRANCH   2   4
ATOM      4  C   UNL A   1      43.814  18.992  25.028  1.00  0.00     0.125 C 
BRANCH   4   5
ATOM      5  C   UNL A   1      44.294  20.447  24.965  1.00  0.00     0.036 C 
BRANCH   5   6
ATOM      6  C   UNL A   1      45.797  20.744  25.167  1.00  0.00     0.080 C 
ATOM      7  C   UNL A   1      46.721  19.569  24.865  1.00  0.00     0.031 C 
BRANCH   6   8
ATOM      8  N   UNL A   1      46.203  21.941  24.431  1.00  0.00    -0.347 N 
ATOM      9  C   UNL A   1      46.225  23.252  24.846  1.00  0.00     0.287 C 
ATOM     10  H   UNL A   1      46.502  21.786  23.507  1.00  0.00     0.164 HD
ATOM     11  O   UNL A   1      46.401  24.117  23.988  1.00  0.00    -0.266 OA
BRANCH   9  12
ATOM     12  C   UNL A   1      46.071  23.539  26.249  1.00  0.00     0.191 A 
ATOM     13  C   UNL A   1      46.838  24.279  27.129  1.00  0.00     0.057 A 
ATOM     14  O   UNL A   1      44.961  23.071  26.896  1.00  0.00    -0.450 OA
ATOM     15  C   UNL A   1      46.191  24.223  28.383  1.00  0.00     0.052 A 
ATOM     16  C   UNL A   1      45.047  23.479  28.195  1.00  0.00     0.159 A 
BRANCH  16  17
ATOM     17  C   UNL A   1      43.944  23.067  29.097  1.00  0.00     0.335 C 
BRANCH  17  18
ATOM     18  N   UNL A   1      43.153  22.002  28.490  1.00  0.00    -0.351 N 
ATOM     19  H   UNL A   1      43.672  21.125  28.532  1.00  0.00     0.344 HD
ATOM     20  H   UNL A   1      42.959  22.236  27.515  1.00  0.00     0.344 HD
ATOM     21  H   UNL A   1      42.273  21.900  28.995  1.00  0.00     0.344 HD
ENDBRANCH  17  18
ENDBRANCH  16  17
ENDBRANCH   9  12
ENDBRANCH   6   8
ENDBRANCH   5   6
ENDBRANCH   4   5
ENDBRANCH   2   4
ENDBRANCH   1   2
BRANCH   1  22
ATOM     22  C   UNL A   1      40.788  19.865  26.150  1.00  0.00     0.274 C 
BRANCH  22  23
ATOM     23  C   UNL A   1      40.136  21.094  26.783  1.00  0.00     0.275 C 
BRANCH  23  24
ATOM     24  O   UNL A   1      39.607  21.971  25.774  1.00  0.00    -0.458 OA
BRANCH  24  25
ATOM     25  C   UNL A   1      38.614  22.798  26.176  1.00  0.00     0.338 C 
ATOM     26  O   UNL A   1      37.424  22.548  26.240  1.00  0.00    -0.246 OA
BRANCH  25  27
ATOM     27  C   UNL A   1      39.209  24.046  26.678  1.00  0.00     0.060 A 
ATOM     28  C   UNL A   1      39.926  24.846  25.783  1.00  0.00     0.016 A 
ATOM     29  C   UNL A   1      39.092  24.405  28.021  1.00  0.00     0.016 A 
ATOM     30  C   UNL A   1      40.522  26.023  26.228  1.00  0.00     0.010 A 
ATOM     31  C   UNL A   1      39.690  25.587  28.465  1.00  0.00     0.010 A 
ATOM     32  C   UNL A   1      40.410  26.400  27.572  1.00  0.00    -0.014 A 
BRANCH  32  33
ATOM     33  C   UNL A   1      41.070  27.638  28.048  1.00  0.00     0.031 A 
ATOM     34  C   UNL A   1      42.563  27.765  27.966  1.00  0.00     0.074 A 
ATOM     35  C   UNL A   1      40.325  28.639  28.548  1.00  0.00     0.049 A 
ATOM     36  N   UNL A   1      43.336  28.726  28.399  1.00  0.00    -0.248 NA
ATOM     37  C   UNL A   1      43.283  26.661  27.312  1.00  0.00     0.031 C 
ATOM     38  C   UNL A   1      38.863  28.635  28.646  1.00  0.00     0.029 A 
ATOM     39  N   UNL A   1      40.691  29.851  29.075  1.00  0.00    -0.354 N 
ATOM     40  C   UNL A   1      44.633  28.342  28.084  1.00  0.00     0.074 A 
ATOM     41  C   UNL A   1      44.546  27.048  27.439  1.00  0.00     0.031 C 
ATOM     42  C   UNL A   1      38.458  29.788  29.205  1.00  0.00     0.029 A 
ATOM     43  C   UNL A   1      39.631  30.592  29.540  1.00  0.00     0.049 A 
ATOM     44  H   UNL A   1      41.624  30.160  29.117  1.00  0.00     0.167 HD
ATOM     45  C   UNL A   1      45.789  29.011  28.311  1.00  0.00     0.037 A 
ATOM     46  C   UNL A   1      39.611  31.773  30.187  1.00  0.00     0.037 A 
ATOM     47  C   UNL A   1      45.862  30.300  28.949  1.00  0.00     0.049 A 
ATOM     48  C   UNL A   1      40.912  32.474  30.470  1.00  0.00     0.074 A 
ATOM     49  C   UNL A   1      46.983  31.067  29.217  1.00  0.00     0.029 A 
ATOM     50  N   UNL A   1      44.769  31.013  29.419  1.00  0.00    -0.354 N 
ATOM     51  N   UNL A   1      42.133  32.100  30.165  1.00  0.00    -0.248 NA
ATOM     52  C   UNL A   1      40.837  33.754  31.186  1.00  0.00     0.031 C 
ATOM     53  C   UNL A   1      46.571  32.226  29.884  1.00  0.00     0.029 A 
ATOM     54  C   UNL A   1      45.190  32.202  29.992  1.00  0.00     0.049 A 
ATOM     55  H   UNL A   1      43.831  30.718  29.356  1.00  0.00     0.167 HD
ATOM     56  C   UNL A   1      42.968  33.106  30.635  1.00  0.00     0.074 A 
ATOM     57  C   UNL A   1      42.112  34.112  31.233  1.00  0.00     0.031 C 
ATOM     58  C   UNL A   1      44.320  33.191  30.579  1.00  0.00     0.037 A 
BRANCH  45  59
ATOM     59  C   UNL A   1      47.070  28.348  27.889  1.00  0.00     0.058 A 
ATOM     60  C   UNL A   1      47.801  27.531  28.765  1.00  0.00     0.135 A 
ATOM     61  C   UNL A   1      47.557  28.509  26.582  1.00  0.00     0.135 A 
ATOM     62  F   UNL A   1      47.390  27.359  30.031  1.00  0.00    -0.206 F 
ATOM     63  C   UNL A   1      48.983  26.914  28.367  1.00  0.00     0.059 A 
ATOM     64  C   UNL A   1      48.725  27.884  26.155  1.00  0.00     0.059 A 
ATOM     65  F   UNL A   1      46.899  29.283  25.706  1.00  0.00    -0.206 F 
ATOM     66  C   UNL A   1      49.439  27.099  27.059  1.00  0.00     0.060 A 
BRANCH  66  67
ATOM     67  S   UNL A   1      50.975  26.293  26.557  1.00  0.00     0.124 S 
ATOM     68  O   UNL A   1      50.879  26.369  25.102  1.00  0.00    -0.237 OA
ATOM     69  O   UNL A   1      51.991  27.144  27.169  1.00  0.00    -0.237 OA
ATOM     70  O   UNL A   1      50.858  24.954  27.125  1.00  0.00    -0.744 OA
ENDBRANCH  66  67
ENDBRANCH  45  59
BRANCH  46  71
ATOM     71  C   UNL A   1      38.316  32.357  30.629  1.00  0.00     0.058 A 
ATOM     72  C   UNL A   1      37.767  32.040  31.878  1.00  0.00     0.135 A 
ATOM     73  C   UNL A   1      37.607  33.251  29.811  1.00  0.00     0.135 A 
ATOM     74  F   UNL A   1      38.403  31.182  32.693  1.00  0.00    -0.206 F 
ATOM     75  C   UNL A   1      36.554  32.577  32.299  1.00  0.00     0.059 A 
ATOM     76  C   UNL A   1      36.405  33.820  30.218  1.00  0.00     0.059 A 
ATOM     77  F   UNL A   1      38.097  33.596  28.609  1.00  0.00    -0.206 F 
ATOM     78  C   UNL A   1      35.881  33.468  31.461  1.00  0.00     0.060 A 
BRANCH  78  79
ATOM     79  S   UNL A   1      34.330  34.195  32.032  1.00  0.00     0.124 S 
ATOM     80  O   UNL A   1      33.633  34.427  30.772  1.00  0.00    -0.237 OA
ATOM     81  O   UNL A   1      33.785  33.138  32.878  1.00  0.00    -0.237 OA
ATOM     82  O   UNL A   1      34.765  35.393  32.744  1.00  0.00    -0.744 OA
ENDBRANCH  78  79
ENDBRANCH  46  71
BRANCH  58  83
ATOM     83  C   UNL A   1      44.955  34.426  31.154  1.00  0.00     0.058 A 
ATOM     84  C   UNL A   1      45.385  34.479  32.490  1.00  0.00     0.135 A 
ATOM     85  C   UNL A   1      45.177  35.553  30.347  1.00  0.00     0.135 A 
ATOM     86  F   UNL A   1      45.189  33.430  33.304  1.00  0.00    -0.206 F 
ATOM     87  C   UNL A   1      45.993  35.616  33.012  1.00  0.00     0.059 A 
ATOM     88  C   UNL A   1      45.805  36.692  30.842  1.00  0.00     0.059 A 
ATOM     89  F   UNL A   1      44.794  35.550  29.061  1.00  0.00    -0.206 F 
ATOM     90  C   UNL A   1      46.198  36.718  32.180  1.00  0.00     0.060 A 
BRANCH  90  91
ATOM     91  S   UNL A   1      47.016  38.178  32.859  1.00  0.00     0.124 S 
ATOM     92  O   UNL A   1      46.064  38.597  33.882  1.00  0.00    -0.237 OA
ATOM     93  O   UNL A   1      48.276  37.631  33.352  1.00  0.00    -0.237 OA
ATOM     94  O   UNL A   1      47.135  39.066  31.707  1.00  0.00    -0.744 OA
ENDBRANCH  90  91
ENDBRANCH  58  83
ENDBRANCH  32  33
ENDBRANCH  25  27
ENDBRANCH  24  25
ENDBRANCH  23  24
ENDBRANCH  22  23
ENDBRANCH   1  22
TORSDOF 20
ENDMDL
MODEL 3
REMARK VINA RESULT:     -10.3      1.839      3.192
REMARK SMILES C[C@H](CCC(=O)OCCOC(=O)c1ccc(-c2c3nc(c(-c4c(F)cc(S(=O)(=O)[O-])cc4F)c4ccc([nH]4)c(-c4c(F)cc(S(=O)(=O)[O-])cc4F)c4nc(c(-c5c(F)cc(S(=O)(=O)[O-])cc5F)c5ccc2[nH]5)C=C4)C=C3)cc1)NC(=O)c1ccc(C[NH3+])o1
REMARK SMILES IDX 7 1 5 2 6 3 4 4 3 5 2 6 1 7 79 8 80 9 81 11 82 12 83 13
REMARK SMILES IDX 88 14 84 15 85 16 86 17 87 18 8 22 9 23 10 24 11 25 12 26
REMARK SMILES IDX 13 27 14 28 78 29 15 30 77 31 16 32 17 33 18 34 71 35 19 36
REMARK SMILES IDX 76 37 70 38 72 39 20 40 75 41 69 42 68 43 21 45 55 46 34 47
REMARK SMILES IDX 54 48 35 49 38 50 53 51 73 52 36 53 37 54 52 56 74 57 39 58
REMARK SMILES IDX 22 59 23 60 32 61 24 62 25 63 31 64 33 65 26 66 27 67 28 68
REMARK SMILES IDX 29 69 30 70 56 71 57 72 66 73 58 74 59 75 65 76 67 77 60 78
REMARK SMILES IDX 61 79 62 80 63 81 64 82 40 83 41 84 50 85 42 86 43 87 49 88
REMARK SMILES IDX 51 89 44 90 45 91 46 92 47 93 48 94
REMARK H PARENT 79 10 87 19 87 20 87 21 72 44 38 55
REMARK Flexibility Score: inf
ROOT
ATOM      1  O   UNL A   1      37.265  23.557  24.963  1.00  0.00    -0.462 OA
ENDROOT
BRANCH   1   2
ATOM      2  C   UNL A   1      35.920  23.696  24.927  1.00  0.00     0.305 C 
ATOM      3  O   UNL A   1      35.287  24.126  23.973  1.00  0.00    -0.252 OA
BRANCH   2   4
ATOM      4  C   UNL A   1      35.278  23.332  26.244  1.00  0.00     0.125 C 
BRANCH   4   5
ATOM      5  C   UNL A   1      33.858  23.858  26.486  1.00  0.00     0.036 C 
BRANCH   5   6
ATOM      6  C   UNL A   1      32.658  22.934  26.174  1.00  0.00     0.080 C 
ATOM      7  C   UNL A   1      31.401  23.235  26.982  1.00  0.00     0.031 C 
BRANCH   6   8
ATOM      8  N   UNL A   1      32.374  22.905  24.740  1.00  0.00    -0.347 N 
ATOM      9  C   UNL A   1      32.703  21.950  23.806  1.00  0.00     0.287 C 
ATOM     10  H   UNL A   1      31.876  23.679  24.394  1.00  0.00     0.164 HD
ATOM     11  O   UNL A   1      32.546  22.238  22.619  1.00  0.00    -0.266 OA
BRANCH   9  12
ATOM     12  C   UNL A   1      33.182  20.670  24.261  1.00  0.00     0.191 A 
ATOM     13  C   UNL A   1      34.441  20.234  24.627  1.00  0.00     0.057 A 
ATOM     14  O   UNL A   1      32.280  19.657  24.436  1.00  0.00    -0.450 OA
ATOM     15  C   UNL A   1      34.312  18.878  25.000  1.00  0.00     0.052 A 
ATOM     16  C   UNL A   1      32.975  18.568  24.873  1.00  0.00     0.159 A 
BRANCH  16  17
ATOM     17  C   UNL A   1      32.193  17.332  25.119  1.00  0.00     0.335 C 
BRANCH  17  18
ATOM     18  N   UNL A   1      32.744  16.215  24.357  1.00  0.00    -0.351 N 
ATOM     19  H   UNL A   1      33.321  15.638  24.968  1.00  0.00     0.344 HD
ATOM     20  H   UNL A   1      33.313  16.575  23.591  1.00  0.00     0.344 HD
ATOM     21  H   UNL A   1      31.982  15.652  23.978  1.00  0.00     0.344 HD
ENDBRANCH  17  18
ENDBRANCH  16  17
ENDBRANCH   9  12
ENDBRANCH   6   8
ENDBRANCH   5   6
ENDBRANCH   4   5
ENDBRANCH   2   4
ENDBRANCH   1   2
BRANCH   1  22
ATOM     22  C   UNL A   1      37.787  22.381  25.607  1.00  0.00     0.274 C 
BRANCH  22  23
ATOM     23  C   UNL A   1      39.022  22.713  26.444  1.00  0.00     0.275 C 
BRANCH  23  24
ATOM     24  O   UNL A   1      39.236  24.133  26.502  1.00  0.00    -0.458 OA
BRANCH  24  25
ATOM     25  C   UNL A   1      40.514  24.527  26.715  1.00  0.00     0.338 C 
ATOM     26  O   UNL A   1      41.503  24.196  26.087  1.00  0.00    -0.246 OA
BRANCH  25  27
ATOM     27  C   UNL A   1      40.525  25.557  27.763  1.00  0.00     0.060 A 
ATOM     28  C   UNL A   1      39.442  25.619  28.645  1.00  0.00     0.016 A 
ATOM     29  C   UNL A   1      41.573  26.474  27.855  1.00  0.00     0.016 A 
ATOM     30  C   UNL A   1      39.407  26.595  29.637  1.00  0.00     0.010 A 
ATOM     31  C   UNL A   1      41.537  27.453  28.852  1.00  0.00     0.010 A 
ATOM     32  C   UNL A   1      40.453  27.521  29.745  1.00  0.00    -0.014 A 
BRANCH  32  33
ATOM     33  C   UNL A   1      40.400  28.577  30.782  1.00  0.00     0.031 A 
ATOM     34  C   UNL A   1      41.306  28.494  31.976  1.00  0.00     0.074 A 
ATOM     35  C   UNL A   1      39.541  29.603  30.644  1.00  0.00     0.049 A 
ATOM     36  N   UNL A   1      41.358  29.269  33.028  1.00  0.00    -0.248 NA
ATOM     37  C   UNL A   1      42.280  27.392  31.988  1.00  0.00     0.031 C 
ATOM     38  C   UNL A   1      38.637  29.798  29.509  1.00  0.00     0.029 A 
ATOM     39  N   UNL A   1      39.281  30.669  31.466  1.00  0.00    -0.354 N 
ATOM     40  C   UNL A   1      42.360  28.743  33.835  1.00  0.00     0.074 A 
ATOM     41  C   UNL A   1      42.877  27.572  33.160  1.00  0.00     0.031 C 
ATOM     42  C   UNL A   1      37.918  30.915  29.709  1.00  0.00     0.029 A 
ATOM     43  C   UNL A   1      38.281  31.490  31.002  1.00  0.00     0.049 A 
ATOM     44  H   UNL A   1      39.764  30.831  32.308  1.00  0.00     0.167 HD
ATOM     45  C   UNL A   1      42.806  29.202  35.029  1.00  0.00     0.037 A 
ATOM     46  C   UNL A   1      37.704  32.567  31.570  1.00  0.00     0.037 A 
ATOM     47  C   UNL A   1      42.287  30.372  35.689  1.00  0.00     0.049 A 
ATOM     48  C   UNL A   1      38.185  33.027  32.919  1.00  0.00     0.074 A 
ATOM     49  C   UNL A   1      42.678  30.926  36.895  1.00  0.00     0.029 A 
ATOM     50  N   UNL A   1      41.264  31.169  35.196  1.00  0.00    -0.354 N 
ATOM     51  N   UNL A   1      39.135  32.522  33.672  1.00  0.00    -0.248 NA
ATOM     52  C   UNL A   1      37.519  34.200  33.499  1.00  0.00     0.031 C 
ATOM     53  C   UNL A   1      41.864  32.036  37.151  1.00  0.00     0.029 A 
ATOM     54  C   UNL A   1      40.998  32.200  36.083  1.00  0.00     0.049 A 
ATOM     55  H   UNL A   1      40.796  31.025  34.341  1.00  0.00     0.167 HD
ATOM     56  C   UNL A   1      39.191  33.327  34.805  1.00  0.00     0.074 A 
ATOM     57  C   UNL A   1      38.189  34.360  34.631  1.00  0.00     0.031 C 
ATOM     58  C   UNL A   1      39.997  33.220  35.890  1.00  0.00     0.037 A 
BRANCH  45  59
ATOM     59  C   UNL A   1      43.894  28.420  35.711  1.00  0.00     0.058 A 
ATOM     60  C   UNL A   1      45.251  28.689  35.481  1.00  0.00     0.135 A 
ATOM     61  C   UNL A   1      43.573  27.406  36.628  1.00  0.00     0.135 A 
ATOM     62  F   UNL A   1      45.614  29.635  34.601  1.00  0.00    -0.206 F 
ATOM     63  C   UNL A   1      46.254  27.967  36.121  1.00  0.00     0.059 A 
ATOM     64  C   UNL A   1      44.558  26.685  37.295  1.00  0.00     0.059 A 
ATOM     65  F   UNL A   1      42.289  27.105  36.880  1.00  0.00    -0.206 F 
ATOM     66  C   UNL A   1      45.897  26.963  37.025  1.00  0.00     0.060 A 
BRANCH  66  67
ATOM     67  S   UNL A   1      47.208  26.033  37.846  1.00  0.00     0.124 S 
ATOM     68  O   UNL A   1      47.941  27.099  38.522  1.00  0.00    -0.237 OA
ATOM     69  O   UNL A   1      46.457  25.133  38.716  1.00  0.00    -0.237 OA
ATOM     70  O   UNL A   1      47.912  25.389  36.742  1.00  0.00    -0.744 OA
ENDBRANCH  66  67
ENDBRANCH  45  59
BRANCH  46  71
ATOM     71  C   UNL A   1      36.595  33.271  30.873  1.00  0.00     0.058 A 
ATOM     72  C   UNL A   1      36.846  34.122  29.788  1.00  0.00     0.135 A 
ATOM     73  C   UNL A   1      35.261  33.098  31.274  1.00  0.00     0.135 A 
ATOM     74  F   UNL A   1      38.106  34.327  29.373  1.00  0.00    -0.206 F 
ATOM     75  C   UNL A   1      35.816  34.789  29.133  1.00  0.00     0.059 A 
ATOM     76  C   UNL A   1      34.212  33.735  30.620  1.00  0.00     0.059 A 
ATOM     77  F   UNL A   1      34.967  32.284  32.301  1.00  0.00    -0.206 F 
ATOM     78  C   UNL A   1      34.501  34.587  29.556  1.00  0.00     0.060 A 
BRANCH  78  79
ATOM     79  S   UNL A   1      33.165  35.422  28.671  1.00  0.00     0.124 S 
ATOM     80  O   UNL A   1      32.526  34.306  27.984  1.00  0.00    -0.237 OA
ATOM     81  O   UNL A   1      32.402  36.025  29.760  1.00  0.00    -0.237 OA
ATOM     82  O   UNL A   1      33.874  36.370  27.815  1.00  0.00    -0.744 OA
ENDBRANCH  78  79
ENDBRANCH  46  71
BRANCH  58  83
ATOM     83  C   UNL A   1      39.848  34.264  36.961  1.00  0.00     0.058 A 
ATOM     84  C   UNL A   1      40.544  35.482  36.903  1.00  0.00     0.135 A 
ATOM     85  C   UNL A   1      38.966  34.061  38.033  1.00  0.00     0.135 A 
ATOM     86  F   UNL A   1      41.406  35.720  35.902  1.00  0.00    -0.206 F 
ATOM     87  C   UNL A   1      40.387  36.454  37.885  1.00  0.00     0.059 A 
ATOM     88  C   UNL A   1      38.774  35.029  39.014  1.00  0.00     0.059 A 
ATOM     89  F   UNL A   1      38.269  32.918  38.128  1.00  0.00    -0.206 F 
ATOM     90  C   UNL A   1      39.499  36.218  38.937  1.00  0.00     0.060 A 
BRANCH  90  91
ATOM     91  S   UNL A   1      39.278  37.500  40.190  1.00  0.00     0.124 S 
ATOM     92  O   UNL A   1      38.920  36.706  41.361  1.00  0.00    -0.237 OA
ATOM     93  O   UNL A   1      40.594  38.129  40.231  1.00  0.00    -0.237 OA
ATOM     94  O   UNL A   1      38.210  38.330  39.642  1.00  0.00    -0.744 OA
ENDBRANCH  90  91
ENDBRANCH  58  83
ENDBRANCH  32  33
ENDBRANCH  25  27
ENDBRANCH  24  25
ENDBRANCH  23  24
ENDBRANCH  22  23
ENDBRANCH   1  22
TORSDOF 20
ENDMDL
