MODEL 1
REMARK VINA RESULT:     -11.5      0.000      0.000
REMARK SMILES Cc1c(Cl)cccc1NC(=O)C[C@](C)(C(=O)OCCOC(=O)c1ccc(-c2c3nc(c(-c4c(F)cc(S(=O)(=O)[O-])cc4F)c4ccc([nH]4)c(-c4c(F)cc(S(=O)(=O)[O-])cc4F)c4nc(c(-c5c(F)cc(S(=O)(=O)[O-])cc5F)c5ccc2[nH]5)C=C4)C=C3)cc1)c1ccccc1
REMARK SMILES IDX 18 1 17 2 15 3 16 4 13 5 14 6 12 7 10 8 9 9 11 11 8 12 1 13
REMARK SMILES IDX 2 14 3 15 4 16 5 17 7 18 6 19 89 20 90 21 94 22 91 23 93 24
REMARK SMILES IDX 92 25 19 26 20 27 21 28 22 29 23 30 24 31 88 32 25 33 87 34
REMARK SMILES IDX 26 35 27 36 28 37 81 38 29 39 86 40 80 41 82 42 30 43 85 44
REMARK SMILES IDX 79 45 78 46 31 48 65 49 44 50 64 51 45 52 48 53 63 54 83 55
REMARK SMILES IDX 46 56 47 57 62 59 84 60 49 61 32 62 33 63 42 64 34 65 35 66
REMARK SMILES IDX 41 67 43 68 36 69 37 70 38 71 39 72 40 73 66 74 67 75 76 76
REMARK SMILES IDX 68 77 69 78 75 79 77 80 70 81 71 82 72 83 73 84 74 85 50 86
REMARK SMILES IDX 51 87 60 88 52 89 53 90 59 91 61 92 54 93 55 94 56 95 57 96
REMARK SMILES IDX 58 97
REMARK H PARENT 9 10 82 47 48 58
REMARK Flexibility Score: inf
ROOT
ATOM      1  C   UNL A   1      32.157  29.304  25.322  1.00  0.00     0.274 C 
ENDROOT
BRANCH   1   2
ATOM      2  O   UNL A   1      32.410  28.011  24.727  1.00  0.00    -0.461 OA
BRANCH   2   3
ATOM      3  C   UNL A   1      31.326  27.239  24.423  1.00  0.00     0.316 C 
ATOM      4  O   UNL A   1      30.179  27.633  24.592  1.00  0.00    -0.251 OA
BRANCH   3   5
ATOM      5  C   UNL A   1      31.714  25.792  23.961  1.00  0.00     0.099 C 
ATOM      6  C   UNL A   1      30.600  25.219  23.032  1.00  0.00     0.029 C 
BRANCH   5   7
ATOM      7  C   UNL A   1      33.056  25.814  23.166  1.00  0.00     0.123 C 
BRANCH   7   8
ATOM      8  C   UNL A   1      33.181  24.933  21.938  1.00  0.00     0.225 C 
ATOM      9  N   UNL A   1      33.269  23.575  21.953  1.00  0.00    -0.326 N 
ATOM     10  H   UNL A   1      33.262  23.192  21.047  1.00  0.00     0.169 HD
ATOM     11  O   UNL A   1      33.190  25.460  20.819  1.00  0.00    -0.275 OA
BRANCH   9  12
ATOM     12  C   UNL A   1      33.368  22.585  22.950  1.00  0.00     0.045 A 
ATOM     13  C   UNL A   1      35.787  23.324  23.469  1.00  0.00     0.048 C 
ATOM     14  C   UNL A   1      34.589  22.420  23.655  1.00  0.00    -0.009 A 
ATOM     15  C   UNL A   1      34.719  21.316  24.532  1.00  0.00     0.046 A 
ATOM     16  Cl  UNL A   1      36.202  20.976  25.362  1.00  0.00    -0.084 Cl
ATOM     17  C   UNL A   1      33.668  20.426  24.741  1.00  0.00     0.021 A 
ATOM     18  C   UNL A   1      32.298  21.744  23.265  1.00  0.00     0.026 A 
ATOM     19  C   UNL A   1      32.448  20.656  24.128  1.00  0.00     0.004 A 
ENDBRANCH   9  12
ENDBRANCH   7   8
ENDBRANCH   5   7
BRANCH   5  20
ATOM     20  C   UNL A   1      31.907  24.811  25.171  1.00  0.00    -0.030 A 
ATOM     21  C   UNL A   1      33.138  24.703  25.857  1.00  0.00     0.005 A 
ATOM     22  C   UNL A   1      30.850  24.019  25.659  1.00  0.00     0.005 A 
ATOM     23  C   UNL A   1      33.323  23.800  26.911  1.00  0.00     0.000 A 
ATOM     24  C   UNL A   1      31.035  23.111  26.709  1.00  0.00     0.000 A 
ATOM     25  C   UNL A   1      32.274  22.992  27.328  1.00  0.00     0.000 A 
ENDBRANCH   5  20
ENDBRANCH   3   5
ENDBRANCH   2   3
ENDBRANCH   1   2
BRANCH   1  26
ATOM     26  C   UNL A   1      32.347  29.239  26.838  1.00  0.00     0.275 C 
BRANCH  26  27
ATOM     27  O   UNL A   1      33.749  29.123  27.128  1.00  0.00    -0.458 OA
BRANCH  27  28
ATOM     28  C   UNL A   1      34.291  30.222  27.712  1.00  0.00     0.338 C 
ATOM     29  O   UNL A   1      33.710  31.215  28.095  1.00  0.00    -0.246 OA
BRANCH  28  30
ATOM     30  C   UNL A   1      35.675  29.873  28.082  1.00  0.00     0.060 A 
ATOM     31  C   UNL A   1      36.624  29.924  27.063  1.00  0.00     0.016 A 
ATOM     32  C   UNL A   1      36.054  29.566  29.390  1.00  0.00     0.016 A 
ATOM     33  C   UNL A   1      37.964  29.704  27.341  1.00  0.00     0.010 A 
ATOM     34  C   UNL A   1      37.401  29.316  29.666  1.00  0.00     0.010 A 
ATOM     35  C   UNL A   1      38.360  29.395  28.642  1.00  0.00    -0.014 A 
BRANCH  35  36
ATOM     36  C   UNL A   1      39.771  29.039  28.884  1.00  0.00     0.031 A 
ATOM     37  C   UNL A   1      40.670  30.066  29.497  1.00  0.00     0.074 A 
ATOM     38  C   UNL A   1      40.217  27.794  28.639  1.00  0.00     0.049 A 
ATOM     39  N   UNL A   1      41.961  30.032  29.682  1.00  0.00    -0.248 NA
ATOM     40  C   UNL A   1      40.016  31.291  29.988  1.00  0.00     0.031 C 
ATOM     41  C   UNL A   1      39.390  26.669  28.205  1.00  0.00     0.029 A 
ATOM     42  N   UNL A   1      41.481  27.270  28.729  1.00  0.00    -0.354 N 
ATOM     43  C   UNL A   1      42.282  31.236  30.293  1.00  0.00     0.074 A 
ATOM     44  C   UNL A   1      41.050  31.977  30.452  1.00  0.00     0.031 C 
ATOM     45  C   UNL A   1      40.174  25.587  28.053  1.00  0.00     0.029 A 
ATOM     46  C   UNL A   1      41.562  25.962  28.315  1.00  0.00     0.049 A 
ATOM     47  H   UNL A   1      42.255  27.781  29.058  1.00  0.00     0.167 HD
ATOM     48  C   UNL A   1      43.501  31.684  30.671  1.00  0.00     0.037 A 
ATOM     49  C   UNL A   1      42.645  25.183  28.123  1.00  0.00     0.037 A 
ATOM     50  C   UNL A   1      44.717  30.942  30.475  1.00  0.00     0.049 A 
ATOM     51  C   UNL A   1      44.012  25.768  28.376  1.00  0.00     0.074 A 
ATOM     52  C   UNL A   1      46.016  31.325  30.750  1.00  0.00     0.029 A 
ATOM     53  N   UNL A   1      44.780  29.662  29.939  1.00  0.00    -0.354 N 
ATOM     54  N   UNL A   1      44.328  26.940  28.878  1.00  0.00    -0.248 NA
ATOM     55  C   UNL A   1      45.170  24.942  28.007  1.00  0.00     0.031 C 
ATOM     56  C   UNL A   1      46.869  30.298  30.330  1.00  0.00     0.029 A 
ATOM     57  C   UNL A   1      46.099  29.252  29.845  1.00  0.00     0.049 A 
ATOM     58  H   UNL A   1      44.001  29.125  29.667  1.00  0.00     0.167 HD
ATOM     59  C   UNL A   1      45.719  26.983  28.902  1.00  0.00     0.074 A 
ATOM     60  C   UNL A   1      46.183  25.716  28.375  1.00  0.00     0.031 C 
ATOM     61  C   UNL A   1      46.538  27.981  29.320  1.00  0.00     0.037 A 
BRANCH  48  62
ATOM     62  C   UNL A   1      43.569  33.071  31.243  1.00  0.00     0.058 A 
ATOM     63  C   UNL A   1      43.651  34.210  30.428  1.00  0.00     0.135 A 
ATOM     64  C   UNL A   1      43.591  33.256  32.635  1.00  0.00     0.135 A 
ATOM     65  F   UNL A   1      43.662  34.087  29.092  1.00  0.00    -0.206 F 
ATOM     66  C   UNL A   1      43.796  35.482  30.973  1.00  0.00     0.059 A 
ATOM     67  C   UNL A   1      43.707  34.520  33.202  1.00  0.00     0.059 A 
ATOM     68  F   UNL A   1      43.524  32.198  33.459  1.00  0.00    -0.206 F 
ATOM     69  C   UNL A   1      43.832  35.625  32.362  1.00  0.00     0.060 A 
BRANCH  69  70
ATOM     70  S   UNL A   1      44.068  37.275  33.055  1.00  0.00     0.124 S 
ATOM     71  O   UNL A   1      42.879  37.412  33.890  1.00  0.00    -0.237 OA
ATOM     72  O   UNL A   1      45.332  37.137  33.771  1.00  0.00    -0.237 OA
ATOM     73  O   UNL A   1      44.110  38.136  31.877  1.00  0.00    -0.744 OA
ENDBRANCH  69  70
ENDBRANCH  48  62
BRANCH  49  74
ATOM     74  C   UNL A   1      42.493  23.793  27.611  1.00  0.00     0.058 A 
ATOM     75  C   UNL A   1      42.468  22.697  28.486  1.00  0.00     0.135 A 
ATOM     76  C   UNL A   1      42.388  23.528  26.235  1.00  0.00     0.135 A 
ATOM     77  F   UNL A   1      42.585  22.893  29.808  1.00  0.00    -0.206 F 
ATOM     78  C   UNL A   1      42.353  21.391  28.018  1.00  0.00     0.059 A 
ATOM     79  C   UNL A   1      42.244  22.234  25.745  1.00  0.00     0.059 A 
ATOM     80  F   UNL A   1      42.412  24.539  25.351  1.00  0.00    -0.206 F 
ATOM     81  C   UNL A   1      42.237  21.170  26.644  1.00  0.00     0.060 A 
BRANCH  81  82
ATOM     82  S   UNL A   1      42.049  19.474  26.052  1.00  0.00     0.124 S 
ATOM     83  O   UNL A   1      40.626  19.426  25.741  1.00  0.00    -0.237 OA
ATOM     84  O   UNL A   1      42.954  19.447  24.907  1.00  0.00    -0.237 OA
ATOM     85  O   UNL A   1      42.472  18.670  27.196  1.00  0.00    -0.744 OA
ENDBRANCH  81  82
ENDBRANCH  49  74
BRANCH  61  86
ATOM     86  C   UNL A   1      48.022  27.744  29.250  1.00  0.00     0.058 A 
ATOM     87  C   UNL A   1      48.777  28.135  28.135  1.00  0.00     0.135 A 
ATOM     88  C   UNL A   1      48.707  27.208  30.352  1.00  0.00     0.135 A 
ATOM     89  F   UNL A   1      48.168  28.644  27.051  1.00  0.00    -0.206 F 
ATOM     90  C   UNL A   1      50.161  28.002  28.112  1.00  0.00     0.059 A 
ATOM     91  C   UNL A   1      50.094  27.090  30.363  1.00  0.00     0.059 A 
ATOM     92  F   UNL A   1      48.032  26.824  31.448  1.00  0.00    -0.206 F 
ATOM     93  C   UNL A   1      50.812  27.488  29.236  1.00  0.00     0.060 A 
BRANCH  93  94
ATOM     94  S   UNL A   1      52.615  27.395  29.224  1.00  0.00     0.124 S 
ATOM     95  O   UNL A   1      52.910  27.215  30.642  1.00  0.00    -0.237 OA
ATOM     96  O   UNL A   1      52.861  26.233  28.374  1.00  0.00    -0.237 OA
ATOM     97  O   UNL A   1      53.019  28.677  28.657  1.00  0.00    -0.744 OA
ENDBRANCH  93  94
ENDBRANCH  61  86
ENDBRANCH  35  36
ENDBRANCH  28  30
ENDBRANCH  27  28
ENDBRANCH  26  27
ENDBRANCH   1  26
TORSDOF 18
ENDMDL
MODEL 2
REMARK VINA RESULT:     -11.4      3.523      9.411
REMARK SMILES Cc1c(Cl)cccc1NC(=O)C[C@](C)(C(=O)OCCOC(=O)c1ccc(-c2c3nc(c(-c4c(F)cc(S(=O)(=O)[O-])cc4F)c4ccc([nH]4)c(-c4c(F)cc(S(=O)(=O)[O-])cc4F)c4nc(c(-c5c(F)cc(S(=O)(=O)[O-])cc5F)c5ccc2[nH]5)C=C4)C=C3)cc1)c1ccccc1
REMARK SMILES IDX 18 1 17 2 15 3 16 4 13 5 14 6 12 7 10 8 9 9 11 11 8 12 1 13
REMARK SMILES IDX 2 14 3 15 4 16 5 17 7 18 6 19 89 20 90 21 94 22 91 23 93 24
REMARK SMILES IDX 92 25 19 26 20 27 21 28 22 29 23 30 24 31 88 32 25 33 87 34
REMARK SMILES IDX 26 35 27 36 28 37 81 38 29 39 86 40 80 41 82 42 30 43 85 44
REMARK SMILES IDX 79 45 78 46 31 48 65 49 44 50 64 51 45 52 48 53 63 54 83 55
REMARK SMILES IDX 46 56 47 57 62 59 84 60 49 61 32 62 33 63 42 64 34 65 35 66
REMARK SMILES IDX 41 67 43 68 36 69 37 70 38 71 39 72 40 73 66 74 67 75 76 76
REMARK SMILES IDX 68 77 69 78 75 79 77 80 70 81 71 82 72 83 73 84 74 85 50 86
REMARK SMILES IDX 51 87 60 88 52 89 53 90 59 91 61 92 54 93 55 94 56 95 57 96
REMARK SMILES IDX 58 97
REMARK H PARENT 9 10 82 47 48 58
REMARK Flexibility Score: inf
ROOT
ATOM      1  C   UNL A   1      35.841  22.954  23.458  1.00  0.00     0.274 C 
ENDROOT
BRANCH   1   2
ATOM      2  O   UNL A   1      34.646  22.278  23.913  1.00  0.00    -0.461 OA
BRANCH   2   3
ATOM      3  C   UNL A   1      34.111  22.685  25.101  1.00  0.00     0.316 C 
ATOM      4  O   UNL A   1      34.578  22.335  26.178  1.00  0.00    -0.251 OA
BRANCH   3   5
ATOM      5  C   UNL A   1      32.798  23.523  24.927  1.00  0.00     0.099 C 
ATOM      6  C   UNL A   1      31.644  22.599  24.430  1.00  0.00     0.029 C 
BRANCH   5   7
ATOM      7  C   UNL A   1      32.371  24.156  26.288  1.00  0.00     0.123 C 
BRANCH   7   8
ATOM      8  C   UNL A   1      30.890  24.307  26.579  1.00  0.00     0.225 C 
ATOM      9  N   UNL A   1      30.078  25.258  26.042  1.00  0.00    -0.326 N 
ATOM     10  H   UNL A   1      29.137  25.132  26.299  1.00  0.00     0.169 HD
ATOM     11  O   UNL A   1      30.345  23.508  27.350  1.00  0.00    -0.275 OA
BRANCH   9  12
ATOM     12  C   UNL A   1      30.258  26.379  25.208  1.00  0.00     0.045 A 
ATOM     13  C   UNL A   1      31.686  27.526  27.027  1.00  0.00     0.048 C 
ATOM     14  C   UNL A   1      30.988  27.498  25.686  1.00  0.00    -0.009 A 
ATOM     15  C   UNL A   1      31.014  28.674  24.898  1.00  0.00     0.046 A 
ATOM     16  Cl  UNL A   1      31.798  30.122  25.440  1.00  0.00    -0.084 Cl
ATOM     17  C   UNL A   1      30.378  28.734  23.659  1.00  0.00     0.021 A 
ATOM     18  C   UNL A   1      29.727  26.432  23.917  1.00  0.00     0.026 A 
ATOM     19  C   UNL A   1      29.757  27.603  23.157  1.00  0.00     0.004 A 
ENDBRANCH   9  12
ENDBRANCH   7   8
ENDBRANCH   5   7
BRANCH   5  20
ATOM     20  C   UNL A   1      32.971  24.699  23.902  1.00  0.00    -0.030 A 
ATOM     21  C   UNL A   1      32.417  24.645  22.602  1.00  0.00     0.005 A 
ATOM     22  C   UNL A   1      33.652  25.884  24.241  1.00  0.00     0.005 A 
ATOM     23  C   UNL A   1      32.604  25.676  21.673  1.00  0.00     0.000 A 
ATOM     24  C   UNL A   1      33.845  26.912  23.310  1.00  0.00     0.000 A 
ATOM     25  C   UNL A   1      33.332  26.805  22.023  1.00  0.00     0.000 A 
ENDBRANCH   5  20
ENDBRANCH   3   5
ENDBRANCH   2   3
ENDBRANCH   1   2
BRANCH   1  26
ATOM     26  C   UNL A   1      37.070  22.409  24.187  1.00  0.00     0.275 C 
BRANCH  26  27
ATOM     27  O   UNL A   1      37.578  23.424  25.068  1.00  0.00    -0.458 OA
BRANCH  27  28
ATOM     28  C   UNL A   1      38.602  23.015  25.860  1.00  0.00     0.338 C 
ATOM     29  O   UNL A   1      39.199  21.961  25.806  1.00  0.00    -0.246 OA
BRANCH  28  30
ATOM     30  C   UNL A   1      39.069  24.198  26.604  1.00  0.00     0.060 A 
ATOM     31  C   UNL A   1      38.614  24.329  27.914  1.00  0.00     0.016 A 
ATOM     32  C   UNL A   1      39.968  25.121  26.069  1.00  0.00     0.016 A 
ATOM     33  C   UNL A   1      39.078  25.360  28.718  1.00  0.00     0.010 A 
ATOM     34  C   UNL A   1      40.414  26.177  26.870  1.00  0.00     0.010 A 
ATOM     35  C   UNL A   1      39.976  26.292  28.200  1.00  0.00    -0.014 A 
BRANCH  35  36
ATOM     36  C   UNL A   1      40.351  27.450  29.033  1.00  0.00     0.031 A 
ATOM     37  C   UNL A   1      41.666  27.418  29.746  1.00  0.00     0.074 A 
ATOM     38  C   UNL A   1      39.569  28.542  29.083  1.00  0.00     0.049 A 
ATOM     39  N   UNL A   1      42.150  28.248  30.629  1.00  0.00    -0.248 NA
ATOM     40  C   UNL A   1      42.567  26.306  29.398  1.00  0.00     0.031 C 
ATOM     41  C   UNL A   1      38.354  28.751  28.296  1.00  0.00     0.029 A 
ATOM     42  N   UNL A   1      39.689  29.687  29.828  1.00  0.00    -0.354 N 
ATOM     43  C   UNL A   1      43.403  27.753  30.959  1.00  0.00     0.074 A 
ATOM     44  C   UNL A   1      43.609  26.552  30.178  1.00  0.00     0.031 C 
ATOM     45  C   UNL A   1      37.833  29.949  28.611  1.00  0.00     0.029 A 
ATOM     46  C   UNL A   1      38.639  30.559  29.667  1.00  0.00     0.049 A 
ATOM     47  H   UNL A   1      40.453  29.867  30.421  1.00  0.00     0.167 HD
ATOM     48  C   UNL A   1      44.293  28.252  31.847  1.00  0.00     0.037 A 
ATOM     49  C   UNL A   1      38.344  31.690  30.336  1.00  0.00     0.037 A 
ATOM     50  C   UNL A   1      44.055  29.431  32.635  1.00  0.00     0.049 A 
ATOM     51  C   UNL A   1      39.259  32.129  31.453  1.00  0.00     0.074 A 
ATOM     52  C   UNL A   1      44.850  29.989  33.618  1.00  0.00     0.029 A 
ATOM     53  N   UNL A   1      42.922  30.229  32.534  1.00  0.00    -0.354 N 
ATOM     54  N   UNL A   1      40.410  31.617  31.827  1.00  0.00    -0.248 NA
ATOM     55  C   UNL A   1      38.823  33.276  32.261  1.00  0.00     0.031 C 
ATOM     56  C   UNL A   1      44.174  31.092  34.150  1.00  0.00     0.029 A 
ATOM     57  C   UNL A   1      42.982  31.256  33.460  1.00  0.00     0.049 A 
ATOM     58  H   UNL A   1      42.185  30.085  31.898  1.00  0.00     0.167 HD
ATOM     59  C   UNL A   1      40.842  32.391  32.900  1.00  0.00     0.074 A 
ATOM     60  C   UNL A   1      39.836  33.413  33.107  1.00  0.00     0.031 C 
ATOM     61  C   UNL A   1      41.969  32.267  33.646  1.00  0.00     0.037 A 
BRANCH  48  62
ATOM     62  C   UNL A   1      45.552  27.463  32.065  1.00  0.00     0.058 A 
ATOM     63  C   UNL A   1      45.632  26.436  33.019  1.00  0.00     0.135 A 
ATOM     64  C   UNL A   1      46.709  27.770  31.332  1.00  0.00     0.135 A 
ATOM     65  F   UNL A   1      44.563  26.122  33.767  1.00  0.00    -0.206 F 
ATOM     66  C   UNL A   1      46.828  25.770  33.267  1.00  0.00     0.059 A 
ATOM     67  C   UNL A   1      47.908  27.097  31.543  1.00  0.00     0.059 A 
ATOM     68  F   UNL A   1      46.688  28.749  30.414  1.00  0.00    -0.206 F 
ATOM     69  C   UNL A   1      47.963  26.114  32.529  1.00  0.00     0.060 A 
BRANCH  69  70
ATOM     70  S   UNL A   1      49.518  25.274  32.894  1.00  0.00     0.124 S 
ATOM     71  O   UNL A   1      49.964  24.894  31.558  1.00  0.00    -0.237 OA
ATOM     72  O   UNL A   1      50.296  26.324  33.546  1.00  0.00    -0.237 OA
ATOM     73  O   UNL A   1      49.114  24.170  33.759  1.00  0.00    -0.744 OA
ENDBRANCH  69  70
ENDBRANCH  48  62
BRANCH  49  74
ATOM     74  C   UNL A   1      37.107  32.455  30.021  1.00  0.00     0.058 A 
ATOM     75  C   UNL A   1      37.134  33.547  29.141  1.00  0.00     0.135 A 
ATOM     76  C   UNL A   1      35.872  32.122  30.604  1.00  0.00     0.135 A 
ATOM     77  F   UNL A   1      38.291  33.919  28.572  1.00  0.00    -0.206 F 
ATOM     78  C   UNL A   1      35.989  34.285  28.857  1.00  0.00     0.059 A 
ATOM     79  C   UNL A   1      34.709  32.828  30.314  1.00  0.00     0.059 A 
ATOM     80  F   UNL A   1      35.788  31.089  31.458  1.00  0.00    -0.206 F 
ATOM     81  C   UNL A   1      34.779  33.914  29.446  1.00  0.00     0.060 A 
BRANCH  81  82
ATOM     82  S   UNL A   1      33.292  34.857  29.041  1.00  0.00     0.124 S 
ATOM     83  O   UNL A   1      32.629  34.933  30.336  1.00  0.00    -0.237 OA
ATOM     84  O   UNL A   1      33.850  36.107  28.534  1.00  0.00    -0.237 OA
ATOM     85  O   UNL A   1      32.629  34.024  28.041  1.00  0.00    -0.744 OA
ENDBRANCH  81  82
ENDBRANCH  49  74
BRANCH  61  86
ATOM     86  C   UNL A   1      42.193  33.270  34.745  1.00  0.00     0.058 A 
ATOM     87  C   UNL A   1      42.921  34.448  34.526  1.00  0.00     0.135 A 
ATOM     88  C   UNL A   1      41.590  33.094  36.001  1.00  0.00     0.135 A 
ATOM     89  F   UNL A   1      43.526  34.661  33.346  1.00  0.00    -0.206 F 
ATOM     90  C   UNL A   1      43.045  35.419  35.515  1.00  0.00     0.059 A 
ATOM     91  C   UNL A   1      41.679  34.063  36.995  1.00  0.00     0.059 A 
ATOM     92  F   UNL A   1      40.876  31.986  36.259  1.00  0.00    -0.206 F 
ATOM     93  C   UNL A   1      42.411  35.221  36.743  1.00  0.00     0.060 A 
BRANCH  93  94
ATOM     94  S   UNL A   1      42.515  36.523  37.990  1.00  0.00     0.124 S 
ATOM     95  O   UNL A   1      43.180  35.829  39.087  1.00  0.00    -0.237 OA
ATOM     96  O   UNL A   1      43.311  37.542  37.310  1.00  0.00    -0.237 OA
ATOM     97  O   UNL A   1      41.120  36.881  38.226  1.00  0.00    -0.744 OA
ENDBRANCH  93  94
ENDBRANCH  61  86
ENDBRANCH  35  36
ENDBRANCH  28  30
ENDBRANCH  27  28
ENDBRANCH  26  27
ENDBRANCH   1  26
TORSDOF 18
ENDMDL
MODEL 3
REMARK VINA RESULT:     -11.3      4.776     10.271
REMARK SMILES Cc1c(Cl)cccc1NC(=O)C[C@](C)(C(=O)OCCOC(=O)c1ccc(-c2c3nc(c(-c4c(F)cc(S(=O)(=O)[O-])cc4F)c4ccc([nH]4)c(-c4c(F)cc(S(=O)(=O)[O-])cc4F)c4nc(c(-c5c(F)cc(S(=O)(=O)[O-])cc5F)c5ccc2[nH]5)C=C4)C=C3)cc1)c1ccccc1
REMARK SMILES IDX 18 1 17 2 15 3 16 4 13 5 14 6 12 7 10 8 9 9 11 11 8 12 1 13
REMARK SMILES IDX 2 14 3 15 4 16 5 17 7 18 6 19 89 20 90 21 94 22 91 23 93 24
REMARK SMILES IDX 92 25 19 26 20 27 21 28 22 29 23 30 24 31 88 32 25 33 87 34
REMARK SMILES IDX 26 35 27 36 28 37 81 38 29 39 86 40 80 41 82 42 30 43 85 44
REMARK SMILES IDX 79 45 78 46 31 48 65 49 44 50 64 51 45 52 48 53 63 54 83 55
REMARK SMILES IDX 46 56 47 57 62 59 84 60 49 61 32 62 33 63 42 64 34 65 35 66
REMARK SMILES IDX 41 67 43 68 36 69 37 70 38 71 39 72 40 73 66 74 67 75 76 76
REMARK SMILES IDX 68 77 69 78 75 79 77 80 70 81 71 82 72 83 73 84 74 85 50 86
REMARK SMILES IDX 51 87 60 88 52 89 53 90 59 91 61 92 54 93 55 94 56 95 57 96
REMARK SMILES IDX 58 97
REMARK H PARENT 9 10 82 47 48 58
REMARK Flexibility Score: inf
ROOT
ATOM      1  C   UNL A   1      36.946  23.454  25.001  1.00  0.00     0.274 C 
ENDROOT
BRANCH   1   2
ATOM      2  O   UNL A   1      35.642  23.563  25.616  1.00  0.00    -0.461 OA
BRANCH   2   3
ATOM      3  C   UNL A   1      34.627  22.838  25.064  1.00  0.00     0.316 C 
ATOM      4  O   UNL A   1      34.808  21.724  24.586  1.00  0.00    -0.251 OA
BRANCH   3   5
ATOM      5  C   UNL A   1      33.272  23.625  25.005  1.00  0.00     0.099 C 
ATOM      6  C   UNL A   1      32.126  22.667  24.555  1.00  0.00     0.029 C 
BRANCH   5   7
ATOM      7  C   UNL A   1      32.913  24.198  26.411  1.00  0.00     0.123 C 
BRANCH   7   8
ATOM      8  C   UNL A   1      31.451  24.276  26.804  1.00  0.00     0.225 C 
ATOM      9  N   UNL A   1      30.625  25.327  26.549  1.00  0.00    -0.326 N 
ATOM     10  H   UNL A   1      29.696  25.144  26.817  1.00  0.00     0.169 HD
ATOM     11  O   UNL A   1      30.934  23.317  27.391  1.00  0.00    -0.275 OA
BRANCH   9  12
ATOM     12  C   UNL A   1      30.776  26.614  25.996  1.00  0.00     0.045 A 
ATOM     13  C   UNL A   1      29.478  25.881  23.888  1.00  0.00     0.048 C 
ATOM     14  C   UNL A   1      30.272  26.882  24.697  1.00  0.00    -0.009 A 
ATOM     15  C   UNL A   1      30.581  28.127  24.097  1.00  0.00     0.046 A 
ATOM     16  Cl  UNL A   1      30.093  28.509  22.478  1.00  0.00    -0.084 Cl
ATOM     17  C   UNL A   1      31.325  29.094  24.769  1.00  0.00     0.021 A 
ATOM     18  C   UNL A   1      31.422  27.643  26.686  1.00  0.00     0.026 A 
ATOM     19  C   UNL A   1      31.722  28.862  26.075  1.00  0.00     0.004 A 
ENDBRANCH   9  12
ENDBRANCH   7   8
ENDBRANCH   5   7
BRANCH   5  20
ATOM     20  C   UNL A   1      33.329  24.837  24.009  1.00  0.00    -0.030 A 
ATOM     21  C   UNL A   1      32.786  24.759  22.706  1.00  0.00     0.005 A 
ATOM     22  C   UNL A   1      33.886  26.075  24.380  1.00  0.00     0.005 A 
ATOM     23  C   UNL A   1      32.870  25.827  21.803  1.00  0.00     0.000 A 
ATOM     24  C   UNL A   1      33.977  27.141  23.476  1.00  0.00     0.000 A 
ATOM     25  C   UNL A   1      33.480  27.014  22.184  1.00  0.00     0.000 A 
ENDBRANCH   5  20
ENDBRANCH   3   5
ENDBRANCH   2   3
ENDBRANCH   1   2
BRANCH   1  26
ATOM     26  C   UNL A   1      38.027  23.289  26.070  1.00  0.00     0.275 C 
BRANCH  26  27
ATOM     27  O   UNL A   1      38.821  24.484  26.120  1.00  0.00    -0.458 OA
BRANCH  27  28
ATOM     28  C   UNL A   1      40.014  24.336  26.749  1.00  0.00     0.338 C 
ATOM     29  O   UNL A   1      40.908  23.568  26.462  1.00  0.00    -0.246 OA
BRANCH  28  30
ATOM     30  C   UNL A   1      40.166  25.485  27.659  1.00  0.00     0.060 A 
ATOM     31  C   UNL A   1      39.273  25.558  28.726  1.00  0.00     0.016 A 
ATOM     32  C   UNL A   1      41.182  26.432  27.519  1.00  0.00     0.016 A 
ATOM     33  C   UNL A   1      39.403  26.551  29.684  1.00  0.00     0.010 A 
ATOM     34  C   UNL A   1      41.297  27.451  28.469  1.00  0.00     0.010 A 
ATOM     35  C   UNL A   1      40.412  27.506  29.559  1.00  0.00    -0.014 A 
BRANCH  35  36
ATOM     36  C   UNL A   1      40.446  28.626  30.519  1.00  0.00     0.031 A 
ATOM     37  C   UNL A   1      41.524  28.641  31.556  1.00  0.00     0.074 A 
ATOM     38  C   UNL A   1      39.582  29.650  30.410  1.00  0.00     0.049 A 
ATOM     39  N   UNL A   1      41.680  29.440  32.576  1.00  0.00    -0.248 NA
ATOM     40  C   UNL A   1      42.583  27.628  31.408  1.00  0.00     0.031 C 
ATOM     41  C   UNL A   1      38.604  29.823  29.337  1.00  0.00     0.029 A 
ATOM     42  N   UNL A   1      39.397  30.744  31.216  1.00  0.00    -0.354 N 
ATOM     43  C   UNL A   1      42.843  29.018  33.206  1.00  0.00     0.074 A 
ATOM     44  C   UNL A   1      43.355  27.895  32.451  1.00  0.00     0.031 C 
ATOM     45  C   UNL A   1      37.911  30.954  29.559  1.00  0.00     0.029 A 
ATOM     46  C   UNL A   1      38.351  31.544  30.822  1.00  0.00     0.049 A 
ATOM     47  H   UNL A   1      39.958  30.938  32.001  1.00  0.00     0.167 HD
ATOM     48  C   UNL A   1      43.418  29.517  34.324  1.00  0.00     0.037 A 
ATOM     49  C   UNL A   1      37.788  32.599  31.443  1.00  0.00     0.037 A 
ATOM     50  C   UNL A   1      42.874  30.615  35.076  1.00  0.00     0.049 A 
ATOM     51  C   UNL A   1      38.333  33.023  32.784  1.00  0.00     0.074 A 
ATOM     52  C   UNL A   1      43.328  31.158  36.263  1.00  0.00     0.029 A 
ATOM     53  N   UNL A   1      41.739  31.331  34.714  1.00  0.00    -0.354 N 
ATOM     54  N   UNL A   1      39.386  32.574  33.428  1.00  0.00    -0.248 NA
ATOM     55  C   UNL A   1      37.596  34.074  33.501  1.00  0.00     0.031 C 
ATOM     56  C   UNL A   1      42.437  32.167  36.647  1.00  0.00     0.029 A 
ATOM     57  C   UNL A   1      41.459  32.290  35.672  1.00  0.00     0.049 A 
ATOM     58  H   UNL A   1      41.212  31.178  33.897  1.00  0.00     0.167 HD
ATOM     59  C   UNL A   1      39.448  33.299  34.614  1.00  0.00     0.074 A 
ATOM     60  C   UNL A   1      38.334  34.225  34.594  1.00  0.00     0.031 C 
ATOM     61  C   UNL A   1      40.345  33.206  35.629  1.00  0.00     0.037 A 
BRANCH  48  62
ATOM     62  C   UNL A   1      44.641  28.811  34.833  1.00  0.00     0.058 A 
ATOM     63  C   UNL A   1      45.936  29.185  34.439  1.00  0.00     0.135 A 
ATOM     64  C   UNL A   1      44.510  27.714  35.699  1.00  0.00     0.135 A 
ATOM     65  F   UNL A   1      46.116  30.209  33.590  1.00  0.00    -0.206 F 
ATOM     66  C   UNL A   1      47.054  28.469  34.853  1.00  0.00     0.059 A 
ATOM     67  C   UNL A   1      45.616  27.001  36.148  1.00  0.00     0.059 A 
ATOM     68  F   UNL A   1      43.294  27.310  36.099  1.00  0.00    -0.206 F 
ATOM     69  C   UNL A   1      46.882  27.372  35.702  1.00  0.00     0.060 A 
BRANCH  69  70
ATOM     70  S   UNL A   1      48.337  26.424  36.194  1.00  0.00     0.124 S 
ATOM     71  O   UNL A   1      48.099  25.154  35.517  1.00  0.00    -0.237 OA
ATOM     72  O   UNL A   1      49.432  27.230  35.660  1.00  0.00    -0.237 OA
ATOM     73  O   UNL A   1      48.243  26.387  37.650  1.00  0.00    -0.744 OA
ENDBRANCH  69  70
ENDBRANCH  48  62
BRANCH  49  74
ATOM     74  C   UNL A   1      36.613  33.289  30.844  1.00  0.00     0.058 A 
ATOM     75  C   UNL A   1      35.329  33.136  31.388  1.00  0.00     0.135 A 
ATOM     76  C   UNL A   1      36.744  34.103  29.706  1.00  0.00     0.135 A 
ATOM     77  F   UNL A   1      35.146  32.354  32.462  1.00  0.00    -0.206 F 
ATOM     78  C   UNL A   1      34.218  33.756  30.823  1.00  0.00     0.059 A 
ATOM     79  C   UNL A   1      35.652  34.755  29.140  1.00  0.00     0.059 A 
ATOM     80  F   UNL A   1      37.948  34.281  29.141  1.00  0.00    -0.206 F 
ATOM     81  C   UNL A   1      34.391  34.567  29.700  1.00  0.00     0.060 A 
BRANCH  81  82
ATOM     82  S   UNL A   1      32.948  35.397  28.999  1.00  0.00     0.124 S 
ATOM     83  O   UNL A   1      33.550  36.580  28.399  1.00  0.00    -0.237 OA
ATOM     84  O   UNL A   1      32.442  34.395  28.066  1.00  0.00    -0.237 OA
ATOM     85  O   UNL A   1      32.102  35.642  30.164  1.00  0.00    -0.744 OA
ENDBRANCH  81  82
ENDBRANCH  49  74
BRANCH  61  86
ATOM     86  C   UNL A   1      40.179  34.141  36.795  1.00  0.00     0.058 A 
ATOM     87  C   UNL A   1      40.657  35.459  36.754  1.00  0.00     0.135 A 
ATOM     88  C   UNL A   1      39.449  33.743  37.926  1.00  0.00     0.135 A 
ATOM     89  F   UNL A   1      41.370  35.888  35.699  1.00  0.00    -0.206 F 
ATOM     90  C   UNL A   1      40.418  36.351  37.795  1.00  0.00     0.059 A 
ATOM     91  C   UNL A   1      39.175  34.625  38.967  1.00  0.00     0.059 A 
ATOM     92  F   UNL A   1      38.963  32.493  38.012  1.00  0.00    -0.206 F 
ATOM     93  C   UNL A   1      39.667  35.927  38.893  1.00  0.00     0.060 A 
BRANCH  93  94
ATOM     94  S   UNL A   1      39.297  37.117  40.199  1.00  0.00     0.124 S 
ATOM     95  O   UNL A   1      40.632  37.434  40.696  1.00  0.00    -0.237 OA
ATOM     96  O   UNL A   1      38.624  38.185  39.466  1.00  0.00    -0.237 OA
ATOM     97  O   UNL A   1      38.449  36.364  41.117  1.00  0.00    -0.744 OA
ENDBRANCH  93  94
ENDBRANCH  61  86
ENDBRANCH  35  36
ENDBRANCH  28  30
ENDBRANCH  27  28
ENDBRANCH  26  27
ENDBRANCH   1  26
TORSDOF 18
ENDMDL
