MODEL 1
REMARK VINA RESULT:     -11.3      0.000      0.000
REMARK SMILES CCN(Cc1ccccn1)c1nc(C)cc(C)c1C(=O)OCCOC(=O)c1ccc(-c2c3nc(c(-c4c(F)cc(S(=O)(=O)[O-])cc4F)c4ccc([nH]4)c(-c4c(F)cc(S(=O)(=O)[O-])cc4F)c4nc(c(-c5c(F)cc(S(=O)(=O)[O-])cc5F)c5ccc2[nH]5)C=C4)C=C3)cc1
REMARK SMILES IDX 22 1 21 2 19 3 20 4 18 5 11 6 12 7 13 8 16 9 14 10 15 11
REMARK SMILES IDX 17 12 3 13 2 14 1 15 4 16 5 17 6 18 10 19 7 20 9 21 8 22
REMARK SMILES IDX 23 23 24 24 25 25 26 26 27 27 28 28 92 29 29 30 91 31 30 32
REMARK SMILES IDX 31 33 32 34 85 35 33 36 90 37 84 38 86 39 34 40 89 41 83 42
REMARK SMILES IDX 82 43 35 45 69 46 48 47 68 48 49 49 52 50 67 51 87 52 50 53
REMARK SMILES IDX 51 54 66 56 88 57 53 58 36 59 37 60 46 61 38 62 39 63 45 64
REMARK SMILES IDX 47 65 40 66 41 67 42 68 43 69 44 70 70 71 71 72 80 73 72 74
REMARK SMILES IDX 73 75 79 76 81 77 74 78 75 79 76 80 77 81 78 82 54 83 55 84
REMARK SMILES IDX 64 85 56 86 57 87 63 88 65 89 58 90 59 91 60 92 61 93 62 94
REMARK H PARENT 86 44 52 55
REMARK Flexibility Score: inf
ROOT
ATOM      1  C   UNL A   1      32.787  29.089  27.548  1.00  0.00     0.275 C 
ENDROOT
BRANCH   1   2
ATOM      2  O   UNL A   1      32.866  28.340  26.309  1.00  0.00    -0.458 OA
BRANCH   2   3
ATOM      3  C   UNL A   1      31.842  27.472  26.071  1.00  0.00     0.342 C 
ATOM      4  O   UNL A   1      31.034  27.080  26.899  1.00  0.00    -0.246 OA
BRANCH   3   5
ATOM      5  C   UNL A   1      31.888  26.970  24.676  1.00  0.00     0.105 A 
ATOM      6  C   UNL A   1      32.613  25.818  24.303  1.00  0.00     0.144 A 
ATOM      7  N   UNL A   1      32.808  25.550  22.995  1.00  0.00    -0.235 NA
ATOM      8  C   UNL A   1      32.168  26.255  22.047  1.00  0.00     0.040 A 
ATOM      9  C   UNL A   1      31.296  27.774  23.679  1.00  0.00    -0.031 A 
ATOM     10  C   UNL A   1      32.232  25.678  20.669  1.00  0.00     0.067 C 
ATOM     11  C   UNL A   1      31.399  27.367  22.347  1.00  0.00     0.028 A 
ATOM     12  C   UNL A   1      30.530  29.020  24.020  1.00  0.00     0.045 C 
BRANCH   6  13
ATOM     13  N   UNL A   1      33.101  24.859  25.159  1.00  0.00    -0.350 N 
BRANCH  13  14
ATOM     14  C   UNL A   1      32.366  23.646  25.395  1.00  0.00     0.115 C 
ATOM     15  C   UNL A   1      31.753  23.761  26.785  1.00  0.00     0.027 C 
ENDBRANCH  13  14
BRANCH  13  16
ATOM     16  C   UNL A   1      34.467  24.919  25.698  1.00  0.00     0.174 C 
BRANCH  16  17
ATOM     17  C   UNL A   1      35.488  23.871  25.254  1.00  0.00     0.060 A 
ATOM     18  C   UNL A   1      35.669  23.703  23.875  1.00  0.00     0.026 A 
ATOM     19  N   UNL A   1      36.118  23.074  26.154  1.00  0.00    -0.259 NA
ATOM     20  C   UNL A   1      36.461  22.658  23.407  1.00  0.00     0.004 A 
ATOM     21  C   UNL A   1      36.870  22.060  25.670  1.00  0.00     0.111 A 
ATOM     22  C   UNL A   1      37.058  21.805  24.321  1.00  0.00     0.020 A 
ENDBRANCH  16  17
ENDBRANCH  13  16
ENDBRANCH   6  13
ENDBRANCH   3   5
ENDBRANCH   2   3
ENDBRANCH   1   2
BRANCH   1  23
ATOM     23  C   UNL A   1      32.666  30.600  27.256  1.00  0.00     0.275 C 
BRANCH  23  24
ATOM     24  O   UNL A   1      33.968  31.233  27.232  1.00  0.00    -0.458 OA
BRANCH  24  25
ATOM     25  C   UNL A   1      34.666  31.303  28.404  1.00  0.00     0.338 C 
ATOM     26  O   UNL A   1      34.342  31.965  29.380  1.00  0.00    -0.246 OA
BRANCH  25  27
ATOM     27  C   UNL A   1      35.818  30.342  28.396  1.00  0.00     0.060 A 
ATOM     28  C   UNL A   1      36.284  29.810  29.579  1.00  0.00     0.016 A 
ATOM     29  C   UNL A   1      36.565  30.075  27.251  1.00  0.00     0.016 A 
ATOM     30  C   UNL A   1      37.614  29.388  29.685  1.00  0.00     0.010 A 
ATOM     31  C   UNL A   1      37.819  29.413  27.345  1.00  0.00     0.010 A 
ATOM     32  C   UNL A   1      38.443  29.166  28.586  1.00  0.00    -0.014 A 
BRANCH  32  33
ATOM     33  C   UNL A   1      39.910  28.753  28.724  1.00  0.00     0.031 A 
ATOM     34  C   UNL A   1      40.939  29.768  29.215  1.00  0.00     0.074 A 
ATOM     35  C   UNL A   1      40.399  27.504  28.491  1.00  0.00     0.049 A 
ATOM     36  N   UNL A   1      42.226  29.845  28.966  1.00  0.00    -0.248 NA
ATOM     37  C   UNL A   1      40.448  30.857  30.076  1.00  0.00     0.031 C 
ATOM     38  C   UNL A   1      39.637  26.301  28.154  1.00  0.00     0.029 A 
ATOM     39  N   UNL A   1      41.703  27.031  28.509  1.00  0.00    -0.354 N 
ATOM     40  C   UNL A   1      42.654  31.060  29.503  1.00  0.00     0.074 A 
ATOM     41  C   UNL A   1      41.497  31.668  30.124  1.00  0.00     0.031 C 
ATOM     42  C   UNL A   1      40.446  25.236  28.101  1.00  0.00     0.029 A 
ATOM     43  C   UNL A   1      41.818  25.700  28.156  1.00  0.00     0.049 A 
ATOM     44  H   UNL A   1      42.476  27.590  28.752  1.00  0.00     0.167 HD
ATOM     45  C   UNL A   1      43.891  31.620  29.460  1.00  0.00     0.037 A 
ATOM     46  C   UNL A   1      42.865  24.938  27.774  1.00  0.00     0.037 A 
ATOM     47  C   UNL A   1      45.063  30.933  28.976  1.00  0.00     0.049 A 
ATOM     48  C   UNL A   1      44.219  25.570  27.657  1.00  0.00     0.074 A 
ATOM     49  C   UNL A   1      46.363  31.402  28.872  1.00  0.00     0.029 A 
ATOM     50  N   UNL A   1      45.088  29.609  28.560  1.00  0.00    -0.354 N 
ATOM     51  N   UNL A   1      44.580  26.796  27.945  1.00  0.00    -0.248 NA
ATOM     52  C   UNL A   1      45.298  24.731  27.118  1.00  0.00     0.031 C 
ATOM     53  C   UNL A   1      47.162  30.375  28.354  1.00  0.00     0.029 A 
ATOM     54  C   UNL A   1      46.373  29.249  28.190  1.00  0.00     0.049 A 
ATOM     55  H   UNL A   1      44.305  29.013  28.532  1.00  0.00     0.167 HD
ATOM     56  C   UNL A   1      45.931  26.876  27.631  1.00  0.00     0.074 A 
ATOM     57  C   UNL A   1      46.327  25.567  27.150  1.00  0.00     0.031 C 
ATOM     58  C   UNL A   1      46.763  27.941  27.727  1.00  0.00     0.037 A 
BRANCH  45  59
ATOM     59  C   UNL A   1      44.029  33.070  29.864  1.00  0.00     0.058 A 
ATOM     60  C   UNL A   1      43.805  34.143  28.991  1.00  0.00     0.135 A 
ATOM     61  C   UNL A   1      44.396  33.383  31.188  1.00  0.00     0.135 A 
ATOM     62  F   UNL A   1      43.455  33.914  27.715  1.00  0.00    -0.206 F 
ATOM     63  C   UNL A   1      43.991  35.466  29.394  1.00  0.00     0.059 A 
ATOM     64  C   UNL A   1      44.554  34.697  31.623  1.00  0.00     0.059 A 
ATOM     65  F   UNL A   1      44.611  32.402  32.080  1.00  0.00    -0.206 F 
ATOM     66  C   UNL A   1      44.376  35.732  30.711  1.00  0.00     0.060 A 
BRANCH  66  67
ATOM     67  S   UNL A   1      44.654  37.446  31.210  1.00  0.00     0.124 S 
ATOM     68  O   UNL A   1      44.125  37.442  32.570  1.00  0.00    -0.237 OA
ATOM     69  O   UNL A   1      46.104  37.575  31.095  1.00  0.00    -0.237 OA
ATOM     70  O   UNL A   1      43.881  38.215  30.239  1.00  0.00    -0.744 OA
ENDBRANCH  66  67
ENDBRANCH  45  59
BRANCH  46  71
ATOM     71  C   UNL A   1      42.641  23.525  27.337  1.00  0.00     0.058 A 
ATOM     72  C   UNL A   1      42.587  23.180  25.979  1.00  0.00     0.135 A 
ATOM     73  C   UNL A   1      42.517  22.481  28.274  1.00  0.00     0.135 A 
ATOM     74  F   UNL A   1      42.672  24.137  25.042  1.00  0.00    -0.206 F 
ATOM     75  C   UNL A   1      42.436  21.858  25.565  1.00  0.00     0.059 A 
ATOM     76  C   UNL A   1      42.408  21.150  27.885  1.00  0.00     0.059 A 
ATOM     77  F   UNL A   1      42.562  22.748  29.589  1.00  0.00    -0.206 F 
ATOM     78  C   UNL A   1      42.362  20.848  26.527  1.00  0.00     0.060 A 
BRANCH  78  79
ATOM     79  S   UNL A   1      42.265  19.129  25.981  1.00  0.00     0.124 S 
ATOM     80  O   UNL A   1      40.834  18.973  25.752  1.00  0.00    -0.237 OA
ATOM     81  O   UNL A   1      43.106  19.139  24.789  1.00  0.00    -0.237 OA
ATOM     82  O   UNL A   1      42.808  18.386  27.114  1.00  0.00    -0.744 OA
ENDBRANCH  78  79
ENDBRANCH  46  71
BRANCH  58  83
ATOM     83  C   UNL A   1      48.203  27.722  27.362  1.00  0.00     0.058 A 
ATOM     84  C   UNL A   1      48.670  27.888  26.048  1.00  0.00     0.135 A 
ATOM     85  C   UNL A   1      49.136  27.376  28.353  1.00  0.00     0.135 A 
ATOM     86  F   UNL A   1      47.816  28.202  25.062  1.00  0.00    -0.206 F 
ATOM     87  C   UNL A   1      50.011  27.702  25.727  1.00  0.00     0.059 A 
ATOM     88  C   UNL A   1      50.485  27.213  28.059  1.00  0.00     0.059 A 
ATOM     89  F   UNL A   1      48.740  27.207  29.624  1.00  0.00    -0.206 F 
ATOM     90  C   UNL A   1      50.911  27.369  26.741  1.00  0.00     0.060 A 
BRANCH  90  91
ATOM     91  S   UNL A   1      52.654  27.169  26.318  1.00  0.00     0.124 S 
ATOM     92  O   UNL A   1      52.569  26.459  25.046  1.00  0.00    -0.237 OA
ATOM     93  O   UNL A   1      53.118  28.551  26.243  1.00  0.00    -0.237 OA
ATOM     94  O   UNL A   1      53.188  26.394  27.435  1.00  0.00    -0.744 OA
ENDBRANCH  90  91
ENDBRANCH  58  83
ENDBRANCH  32  33
ENDBRANCH  25  27
ENDBRANCH  24  25
ENDBRANCH  23  24
ENDBRANCH   1  23
TORSDOF 18
ENDMDL
MODEL 2
REMARK VINA RESULT:     -10.9      1.199      3.395
REMARK SMILES CCN(Cc1ccccn1)c1nc(C)cc(C)c1C(=O)OCCOC(=O)c1ccc(-c2c3nc(c(-c4c(F)cc(S(=O)(=O)[O-])cc4F)c4ccc([nH]4)c(-c4c(F)cc(S(=O)(=O)[O-])cc4F)c4nc(c(-c5c(F)cc(S(=O)(=O)[O-])cc5F)c5ccc2[nH]5)C=C4)C=C3)cc1
REMARK SMILES IDX 22 1 21 2 19 3 20 4 18 5 11 6 12 7 13 8 16 9 14 10 15 11
REMARK SMILES IDX 17 12 3 13 2 14 1 15 4 16 5 17 6 18 10 19 7 20 9 21 8 22
REMARK SMILES IDX 23 23 24 24 25 25 26 26 27 27 28 28 92 29 29 30 91 31 30 32
REMARK SMILES IDX 31 33 32 34 85 35 33 36 90 37 84 38 86 39 34 40 89 41 83 42
REMARK SMILES IDX 82 43 35 45 69 46 48 47 68 48 49 49 52 50 67 51 87 52 50 53
REMARK SMILES IDX 51 54 66 56 88 57 53 58 36 59 37 60 46 61 38 62 39 63 45 64
REMARK SMILES IDX 47 65 40 66 41 67 42 68 43 69 44 70 70 71 71 72 80 73 72 74
REMARK SMILES IDX 73 75 79 76 81 77 74 78 75 79 76 80 77 81 78 82 54 83 55 84
REMARK SMILES IDX 64 85 56 86 57 87 63 88 65 89 58 90 59 91 60 92 61 93 62 94
REMARK H PARENT 86 44 52 55
REMARK Flexibility Score: inf
ROOT
ATOM      1  C   UNL A   1      32.939  28.659  27.131  1.00  0.00     0.275 C 
ENDROOT
BRANCH   1   2
ATOM      2  O   UNL A   1      33.486  27.556  26.365  1.00  0.00    -0.458 OA
BRANCH   2   3
ATOM      3  C   UNL A   1      32.610  26.561  26.047  1.00  0.00     0.342 C 
ATOM      4  O   UNL A   1      31.876  25.979  26.831  1.00  0.00    -0.246 OA
BRANCH   3   5
ATOM      5  C   UNL A   1      32.731  26.189  24.615  1.00  0.00     0.105 A 
ATOM      6  C   UNL A   1      31.804  26.606  23.636  1.00  0.00     0.144 A 
ATOM      7  N   UNL A   1      31.836  26.046  22.409  1.00  0.00    -0.235 NA
ATOM      8  C   UNL A   1      32.848  25.239  22.049  1.00  0.00     0.040 A 
ATOM      9  C   UNL A   1      33.739  25.263  24.271  1.00  0.00    -0.031 A 
ATOM     10  C   UNL A   1      32.927  24.927  20.589  1.00  0.00     0.067 C 
ATOM     11  C   UNL A   1      33.822  24.831  22.946  1.00  0.00     0.028 A 
ATOM     12  C   UNL A   1      34.739  24.772  25.279  1.00  0.00     0.045 C 
BRANCH   6  13
ATOM     13  N   UNL A   1      30.879  27.613  23.779  1.00  0.00    -0.350 N 
BRANCH  13  14
ATOM     14  C   UNL A   1      29.719  27.429  24.608  1.00  0.00     0.115 C 
ATOM     15  C   UNL A   1      28.789  26.476  23.868  1.00  0.00     0.027 C 
ENDBRANCH  13  14
BRANCH  13  16
ATOM     16  C   UNL A   1      31.126  28.973  23.281  1.00  0.00     0.174 C 
BRANCH  16  17
ATOM     17  C   UNL A   1      29.939  29.834  22.848  1.00  0.00     0.060 A 
ATOM     18  C   UNL A   1      29.456  30.766  23.777  1.00  0.00     0.026 A 
ATOM     19  N   UNL A   1      29.320  29.636  21.657  1.00  0.00    -0.259 NA
ATOM     20  C   UNL A   1      28.283  31.463  23.506  1.00  0.00     0.004 A 
ATOM     21  C   UNL A   1      28.175  30.318  21.427  1.00  0.00     0.111 A 
ATOM     22  C   UNL A   1      27.615  31.221  22.316  1.00  0.00     0.020 A 
ENDBRANCH  16  17
ENDBRANCH  13  16
ENDBRANCH   6  13
ENDBRANCH   3   5
ENDBRANCH   2   3
ENDBRANCH   1   2
BRANCH   1  23
ATOM     23  C   UNL A   1      33.805  29.923  26.946  1.00  0.00     0.275 C 
BRANCH  23  24
ATOM     24  O   UNL A   1      33.561  30.883  28.002  1.00  0.00    -0.458 OA
BRANCH  24  25
ATOM     25  C   UNL A   1      34.638  31.361  28.692  1.00  0.00     0.338 C 
ATOM     26  O   UNL A   1      34.635  32.352  29.408  1.00  0.00    -0.246 OA
BRANCH  25  27
ATOM     27  C   UNL A   1      35.805  30.424  28.575  1.00  0.00     0.060 A 
ATOM     28  C   UNL A   1      36.222  29.698  29.670  1.00  0.00     0.016 A 
ATOM     29  C   UNL A   1      36.610  30.366  27.440  1.00  0.00     0.016 A 
ATOM     30  C   UNL A   1      37.552  29.273  29.768  1.00  0.00     0.010 A 
ATOM     31  C   UNL A   1      37.868  29.707  27.481  1.00  0.00     0.010 A 
ATOM     32  C   UNL A   1      38.436  29.252  28.690  1.00  0.00    -0.014 A 
BRANCH  32  33
ATOM     33  C   UNL A   1      39.900  28.831  28.828  1.00  0.00     0.031 A 
ATOM     34  C   UNL A   1      40.935  29.842  29.318  1.00  0.00     0.074 A 
ATOM     35  C   UNL A   1      40.383  27.579  28.596  1.00  0.00     0.049 A 
ATOM     36  N   UNL A   1      42.222  29.912  29.068  1.00  0.00    -0.248 NA
ATOM     37  C   UNL A   1      40.450  30.934  30.178  1.00  0.00     0.031 C 
ATOM     38  C   UNL A   1      39.615  26.380  28.260  1.00  0.00     0.029 A 
ATOM     39  N   UNL A   1      41.685  27.100  28.613  1.00  0.00    -0.354 N 
ATOM     40  C   UNL A   1      42.657  31.125  29.604  1.00  0.00     0.074 A 
ATOM     41  C   UNL A   1      41.503  31.739  30.225  1.00  0.00     0.031 C 
ATOM     42  C   UNL A   1      40.418  25.311  28.208  1.00  0.00     0.029 A 
ATOM     43  C   UNL A   1      41.793  25.769  28.262  1.00  0.00     0.049 A 
ATOM     44  H   UNL A   1      42.460  27.656  28.855  1.00  0.00     0.167 HD
ATOM     45  C   UNL A   1      43.896  31.679  29.560  1.00  0.00     0.037 A 
ATOM     46  C   UNL A   1      42.835  25.001  27.880  1.00  0.00     0.037 A 
ATOM     47  C   UNL A   1      45.065  30.986  29.076  1.00  0.00     0.049 A 
ATOM     48  C   UNL A   1      44.193  25.626  27.761  1.00  0.00     0.074 A 
ATOM     49  C   UNL A   1      46.367  31.448  28.970  1.00  0.00     0.029 A 
ATOM     50  N   UNL A   1      45.083  29.661  28.661  1.00  0.00    -0.354 N 
ATOM     51  N   UNL A   1      44.560  26.850  28.048  1.00  0.00    -0.248 NA
ATOM     52  C   UNL A   1      45.267  24.781  27.223  1.00  0.00     0.031 C 
ATOM     53  C   UNL A   1      47.160  30.417  28.453  1.00  0.00     0.029 A 
ATOM     54  C   UNL A   1      46.366  29.294  28.291  1.00  0.00     0.049 A 
ATOM     55  H   UNL A   1      44.297  29.069  28.634  1.00  0.00     0.167 HD
ATOM     56  C   UNL A   1      45.911  26.923  27.734  1.00  0.00     0.074 A 
ATOM     57  C   UNL A   1      46.301  25.612  27.253  1.00  0.00     0.031 C 
ATOM     58  C   UNL A   1      46.749  27.984  27.828  1.00  0.00     0.037 A 
BRANCH  45  59
ATOM     59  C   UNL A   1      44.042  33.128  29.963  1.00  0.00     0.058 A 
ATOM     60  C   UNL A   1      44.408  33.542  31.251  1.00  0.00     0.135 A 
ATOM     61  C   UNL A   1      43.810  34.135  29.005  1.00  0.00     0.135 A 
ATOM     62  F   UNL A   1      44.642  32.634  32.212  1.00  0.00    -0.206 F 
ATOM     63  C   UNL A   1      44.485  34.894  31.592  1.00  0.00     0.059 A 
ATOM     64  C   UNL A   1      43.914  35.490  29.312  1.00  0.00     0.059 A 
ATOM     65  F   UNL A   1      43.470  33.807  27.748  1.00  0.00    -0.206 F 
ATOM     66  C   UNL A   1      44.226  35.860  30.617  1.00  0.00     0.060 A 
BRANCH  66  67
ATOM     67  S   UNL A   1      44.288  37.606  31.079  1.00  0.00     0.124 S 
ATOM     68  O   UNL A   1      43.460  38.211  30.041  1.00  0.00    -0.237 OA
ATOM     69  O   UNL A   1      43.713  37.595  32.421  1.00  0.00    -0.237 OA
ATOM     70  O   UNL A   1      45.711  37.927  31.013  1.00  0.00    -0.744 OA
ENDBRANCH  66  67
ENDBRANCH  45  59
BRANCH  46  71
ATOM     71  C   UNL A   1      42.605  23.589  27.444  1.00  0.00     0.058 A 
ATOM     72  C   UNL A   1      42.410  23.263  26.094  1.00  0.00     0.135 A 
ATOM     73  C   UNL A   1      42.615  22.527  28.369  1.00  0.00     0.135 A 
ATOM     74  F   UNL A   1      42.363  24.236  25.172  1.00  0.00    -0.206 F 
ATOM     75  C   UNL A   1      42.250  21.944  25.675  1.00  0.00     0.059 A 
ATOM     76  C   UNL A   1      42.501  21.199  27.970  1.00  0.00     0.059 A 
ATOM     77  F   UNL A   1      42.799  22.776  29.676  1.00  0.00    -0.206 F 
ATOM     78  C   UNL A   1      42.313  20.917  26.620  1.00  0.00     0.060 A 
BRANCH  78  79
ATOM     79  S   UNL A   1      42.203  19.205  26.057  1.00  0.00     0.124 S 
ATOM     80  O   UNL A   1      43.153  19.197  24.951  1.00  0.00    -0.237 OA
ATOM     81  O   UNL A   1      42.603  18.465  27.249  1.00  0.00    -0.237 OA
ATOM     82  O   UNL A   1      40.798  19.063  25.684  1.00  0.00    -0.744 OA
ENDBRANCH  78  79
ENDBRANCH  46  71
BRANCH  58  83
ATOM     83  C   UNL A   1      48.188  27.757  27.462  1.00  0.00     0.058 A 
ATOM     84  C   UNL A   1      48.649  27.890  26.143  1.00  0.00     0.135 A 
ATOM     85  C   UNL A   1      49.125  27.439  28.459  1.00  0.00     0.135 A 
ATOM     86  F   UNL A   1      47.789  28.176  25.153  1.00  0.00    -0.206 F 
ATOM     87  C   UNL A   1      49.988  27.697  25.821  1.00  0.00     0.059 A 
ATOM     88  C   UNL A   1      50.474  27.270  28.163  1.00  0.00     0.059 A 
ATOM     89  F   UNL A   1      48.735  27.303  29.736  1.00  0.00    -0.206 F 
ATOM     90  C   UNL A   1      50.893  27.392  26.839  1.00  0.00     0.060 A 
BRANCH  90  91
ATOM     91  S   UNL A   1      52.635  27.183  26.414  1.00  0.00     0.124 S 
ATOM     92  O   UNL A   1      53.211  28.428  26.915  1.00  0.00    -0.237 OA
ATOM     93  O   UNL A   1      52.994  25.976  27.151  1.00  0.00    -0.237 OA
ATOM     94  O   UNL A   1      52.615  27.041  24.961  1.00  0.00    -0.744 OA
ENDBRANCH  90  91
ENDBRANCH  58  83
ENDBRANCH  32  33
ENDBRANCH  25  27
ENDBRANCH  24  25
ENDBRANCH  23  24
ENDBRANCH   1  23
TORSDOF 18
ENDMDL
MODEL 3
REMARK VINA RESULT:     -10.8      5.275      9.821
REMARK SMILES CCN(Cc1ccccn1)c1nc(C)cc(C)c1C(=O)OCCOC(=O)c1ccc(-c2c3nc(c(-c4c(F)cc(S(=O)(=O)[O-])cc4F)c4ccc([nH]4)c(-c4c(F)cc(S(=O)(=O)[O-])cc4F)c4nc(c(-c5c(F)cc(S(=O)(=O)[O-])cc5F)c5ccc2[nH]5)C=C4)C=C3)cc1
REMARK SMILES IDX 22 1 21 2 19 3 20 4 18 5 11 6 12 7 13 8 16 9 14 10 15 11
REMARK SMILES IDX 17 12 3 13 2 14 1 15 4 16 5 17 6 18 10 19 7 20 9 21 8 22
REMARK SMILES IDX 23 23 24 24 25 25 26 26 27 27 28 28 92 29 29 30 91 31 30 32
REMARK SMILES IDX 31 33 32 34 85 35 33 36 90 37 84 38 86 39 34 40 89 41 83 42
REMARK SMILES IDX 82 43 35 45 69 46 48 47 68 48 49 49 52 50 67 51 87 52 50 53
REMARK SMILES IDX 51 54 66 56 88 57 53 58 36 59 37 60 46 61 38 62 39 63 45 64
REMARK SMILES IDX 47 65 40 66 41 67 42 68 43 69 44 70 70 71 71 72 80 73 72 74
REMARK SMILES IDX 73 75 79 76 81 77 74 78 75 79 76 80 77 81 78 82 54 83 55 84
REMARK SMILES IDX 64 85 56 86 57 87 63 88 65 89 58 90 59 91 60 92 61 93 62 94
REMARK H PARENT 86 44 52 55
REMARK Flexibility Score: inf
ROOT
ATOM      1  C   UNL A   1      31.638  28.197  26.772  1.00  0.00     0.275 C 
ENDROOT
BRANCH   1   2
ATOM      2  O   UNL A   1      31.503  26.770  26.989  1.00  0.00    -0.458 OA
BRANCH   2   3
ATOM      3  C   UNL A   1      31.009  26.052  25.940  1.00  0.00     0.342 C 
ATOM      4  O   UNL A   1      29.827  25.919  25.662  1.00  0.00    -0.246 OA
BRANCH   3   5
ATOM      5  C   UNL A   1      32.099  25.350  25.220  1.00  0.00     0.105 A 
ATOM      6  C   UNL A   1      32.565  25.761  23.952  1.00  0.00     0.144 A 
ATOM      7  N   UNL A   1      33.386  24.951  23.252  1.00  0.00    -0.235 NA
ATOM      8  C   UNL A   1      33.912  23.851  23.817  1.00  0.00     0.040 A 
ATOM      9  C   UNL A   1      32.571  24.143  25.779  1.00  0.00    -0.031 A 
ATOM     10  C   UNL A   1      35.024  23.209  23.050  1.00  0.00     0.067 C 
ATOM     11  C   UNL A   1      33.538  23.418  25.078  1.00  0.00     0.028 A 
ATOM     12  C   UNL A   1      32.094  23.651  27.115  1.00  0.00     0.045 C 
BRANCH   6  13
ATOM     13  N   UNL A   1      32.324  26.977  23.359  1.00  0.00    -0.350 N 
BRANCH  13  14
ATOM     14  C   UNL A   1      33.178  28.103  23.624  1.00  0.00     0.115 C 
ATOM     15  C   UNL A   1      34.002  28.342  22.365  1.00  0.00     0.027 C 
ENDBRANCH  13  14
BRANCH  13  16
ATOM     16  C   UNL A   1      31.338  27.136  22.282  1.00  0.00     0.174 C 
BRANCH  16  17
ATOM     17  C   UNL A   1      30.249  28.202  22.420  1.00  0.00     0.060 A 
ATOM     18  C   UNL A   1      29.099  27.847  23.137  1.00  0.00     0.026 A 
ATOM     19  N   UNL A   1      30.352  29.401  21.792  1.00  0.00    -0.259 NA
ATOM     20  C   UNL A   1      28.009  28.712  23.161  1.00  0.00     0.004 A 
ATOM     21  C   UNL A   1      29.271  30.214  21.822  1.00  0.00     0.111 A 
ATOM     22  C   UNL A   1      28.087  29.912  22.473  1.00  0.00     0.020 A 
ENDBRANCH  16  17
ENDBRANCH  13  16
ENDBRANCH   6  13
ENDBRANCH   3   5
ENDBRANCH   2   3
ENDBRANCH   1   2
BRANCH   1  23
ATOM     23  C   UNL A   1      32.778  28.767  27.643  1.00  0.00     0.275 C 
BRANCH  23  24
ATOM     24  O   UNL A   1      33.726  29.510  26.840  1.00  0.00    -0.458 OA
BRANCH  24  25
ATOM     25  C   UNL A   1      34.202  30.689  27.341  1.00  0.00     0.338 C 
ATOM     26  O   UNL A   1      33.524  31.675  27.588  1.00  0.00    -0.246 OA
BRANCH  25  27
ATOM     27  C   UNL A   1      35.657  30.571  27.689  1.00  0.00     0.060 A 
ATOM     28  C   UNL A   1      36.261  29.333  27.732  1.00  0.00     0.016 A 
ATOM     29  C   UNL A   1      36.410  31.653  28.140  1.00  0.00     0.016 A 
ATOM     30  C   UNL A   1      37.381  29.125  28.544  1.00  0.00     0.010 A 
ATOM     31  C   UNL A   1      37.677  31.446  28.748  1.00  0.00     0.010 A 
ATOM     32  C   UNL A   1      38.143  30.159  29.087  1.00  0.00    -0.014 A 
BRANCH  32  33
ATOM     33  C   UNL A   1      39.336  29.910  30.013  1.00  0.00     0.031 A 
ATOM     34  C   UNL A   1      40.461  28.981  29.565  1.00  0.00     0.074 A 
ATOM     35  C   UNL A   1      39.523  30.500  31.226  1.00  0.00     0.049 A 
ATOM     36  N   UNL A   1      41.276  28.244  30.284  1.00  0.00    -0.248 NA
ATOM     37  C   UNL A   1      40.676  28.840  28.116  1.00  0.00     0.031 C 
ATOM     38  C   UNL A   1      38.696  31.534  31.849  1.00  0.00     0.029 A 
ATOM     39  N   UNL A   1      40.513  30.300  32.179  1.00  0.00    -0.354 N 
ATOM     40  C   UNL A   1      41.981  27.448  29.380  1.00  0.00     0.074 A 
ATOM     41  C   UNL A   1      41.523  27.820  28.058  1.00  0.00     0.031 C 
ATOM     42  C   UNL A   1      39.249  31.945  32.996  1.00  0.00     0.029 A 
ATOM     43  C   UNL A   1      40.337  31.047  33.328  1.00  0.00     0.049 A 
ATOM     44  H   UNL A   1      41.270  29.686  32.049  1.00  0.00     0.167 HD
ATOM     45  C   UNL A   1      42.904  26.485  29.635  1.00  0.00     0.037 A 
ATOM     46  C   UNL A   1      40.863  30.961  34.568  1.00  0.00     0.037 A 
ATOM     47  C   UNL A   1      43.461  26.237  30.942  1.00  0.00     0.049 A 
ATOM     48  C   UNL A   1      41.829  29.856  34.873  1.00  0.00     0.074 A 
ATOM     49  C   UNL A   1      44.390  25.282  31.323  1.00  0.00     0.029 A 
ATOM     50  N   UNL A   1      43.176  26.983  32.077  1.00  0.00    -0.354 N 
ATOM     51  N   UNL A   1      42.321  28.950  34.065  1.00  0.00    -0.248 NA
ATOM     52  C   UNL A   1      42.275  29.731  36.267  1.00  0.00     0.031 C 
ATOM     53  C   UNL A   1      44.633  25.426  32.694  1.00  0.00     0.029 A 
ATOM     54  C   UNL A   1      43.901  26.506  33.156  1.00  0.00     0.049 A 
ATOM     55  H   UNL A   1      42.550  27.742  32.109  1.00  0.00     0.167 HD
ATOM     56  C   UNL A   1      43.142  28.150  34.849  1.00  0.00     0.074 A 
ATOM     57  C   UNL A   1      43.097  28.692  36.192  1.00  0.00     0.031 C 
ATOM     58  C   UNL A   1      43.862  27.061  34.487  1.00  0.00     0.037 A 
BRANCH  45  59
ATOM     59  C   UNL A   1      43.309  25.570  28.502  1.00  0.00     0.058 A 
ATOM     60  C   UNL A   1      44.466  25.753  27.732  1.00  0.00     0.135 A 
ATOM     61  C   UNL A   1      42.496  24.462  28.189  1.00  0.00     0.135 A 
ATOM     62  F   UNL A   1      45.283  26.790  27.976  1.00  0.00    -0.206 F 
ATOM     63  C   UNL A   1      44.776  24.910  26.664  1.00  0.00     0.059 A 
ATOM     64  C   UNL A   1      42.803  23.587  27.150  1.00  0.00     0.059 A 
ATOM     65  F   UNL A   1      41.381  24.221  28.897  1.00  0.00    -0.206 F 
ATOM     66  C   UNL A   1      43.932  23.835  26.375  1.00  0.00     0.060 A 
BRANCH  66  67
ATOM     67  S   UNL A   1      44.320  22.774  24.964  1.00  0.00     0.124 S 
ATOM     68  O   UNL A   1      45.266  21.835  25.559  1.00  0.00    -0.237 OA
ATOM     69  O   UNL A   1      43.014  22.223  24.617  1.00  0.00    -0.237 OA
ATOM     70  O   UNL A   1      44.887  23.699  23.987  1.00  0.00    -0.744 OA
ENDBRANCH  66  67
ENDBRANCH  45  59
BRANCH  46  71
ATOM     71  C   UNL A   1      40.374  31.868  35.653  1.00  0.00     0.058 A 
ATOM     72  C   UNL A   1      39.183  31.604  36.345  1.00  0.00     0.135 A 
ATOM     73  C   UNL A   1      41.113  33.000  36.047  1.00  0.00     0.135 A 
ATOM     74  F   UNL A   1      38.424  30.555  35.993  1.00  0.00    -0.206 F 
ATOM     75  C   UNL A   1      38.751  32.414  37.393  1.00  0.00     0.059 A 
ATOM     76  C   UNL A   1      40.724  33.799  37.118  1.00  0.00     0.059 A 
ATOM     77  F   UNL A   1      42.262  33.304  35.424  1.00  0.00    -0.206 F 
ATOM     78  C   UNL A   1      39.537  33.501  37.782  1.00  0.00     0.060 A 
BRANCH  78  79
ATOM     79  S   UNL A   1      39.020  34.487  39.204  1.00  0.00     0.124 S 
ATOM     80  O   UNL A   1      38.890  35.812  38.613  1.00  0.00    -0.237 OA
ATOM     81  O   UNL A   1      37.773  33.834  39.591  1.00  0.00    -0.237 OA
ATOM     82  O   UNL A   1      40.123  34.320  40.147  1.00  0.00    -0.744 OA
ENDBRANCH  78  79
ENDBRANCH  46  71
BRANCH  58  83
ATOM     83  C   UNL A   1      44.711  26.416  35.545  1.00  0.00     0.058 A 
ATOM     84  C   UNL A   1      46.028  26.832  35.797  1.00  0.00     0.135 A 
ATOM     85  C   UNL A   1      44.180  25.389  36.343  1.00  0.00     0.135 A 
ATOM     86  F   UNL A   1      46.586  27.797  35.051  1.00  0.00    -0.206 F 
ATOM     87  C   UNL A   1      46.796  26.239  36.794  1.00  0.00     0.059 A 
ATOM     88  C   UNL A   1      44.921  24.803  37.363  1.00  0.00     0.059 A 
ATOM     89  F   UNL A   1      42.926  24.957  36.142  1.00  0.00    -0.206 F 
ATOM     90  C   UNL A   1      46.231  25.228  37.574  1.00  0.00     0.060 A 
BRANCH  90  91
ATOM     91  S   UNL A   1      47.225  24.495  38.890  1.00  0.00     0.124 S 
ATOM     92  O   UNL A   1      47.211  25.554  39.895  1.00  0.00    -0.237 OA
ATOM     93  O   UNL A   1      46.465  23.295  39.224  1.00  0.00    -0.237 OA
ATOM     94  O   UNL A   1      48.515  24.256  38.249  1.00  0.00    -0.744 OA
ENDBRANCH  90  91
ENDBRANCH  58  83
ENDBRANCH  32  33
ENDBRANCH  25  27
ENDBRANCH  24  25
ENDBRANCH  23  24
ENDBRANCH   1  23
TORSDOF 18
ENDMDL
