MODEL 1
REMARK VINA RESULT:     -11.6      0.000      0.000
REMARK SMILES CCOc1ccc(CNC(=O)Cc2c(C(=O)OCCOC(=O)c3ccc(-c4c5nc(c(-c6c(F)cc(S(=O)(=O)[O-])cc6F)c6ccc([nH]6)c(-c6c(F)cc(S(=O)(=O)[O-])cc6F)c6nc(c(-c7c(F)cc(S(=O)(=O)[O-])cc7F)c7ccc4[nH]7)C=C6)C=C5)cc3)c(C)cn2C)cc1
REMARK SMILES IDX 17 1 15 2 16 3 14 4 13 5 92 6 89 7 91 8 93 9 90 10 12 11
REMARK SMILES IDX 10 12 9 13 11 15 8 16 7 17 4 18 5 19 95 20 6 21 94 22 3 23
REMARK SMILES IDX 2 24 1 25 18 26 19 27 20 28 21 29 22 30 23 31 24 32 88 33
REMARK SMILES IDX 25 34 87 35 26 36 27 37 28 38 81 39 29 40 86 41 80 42 82 43
REMARK SMILES IDX 30 44 85 45 79 46 78 47 31 49 65 50 44 51 64 52 45 53 48 54
REMARK SMILES IDX 63 55 83 56 46 57 47 58 62 60 84 61 49 62 32 63 33 64 42 65
REMARK SMILES IDX 34 66 35 67 41 68 43 69 36 70 37 71 38 72 39 73 40 74 66 75
REMARK SMILES IDX 67 76 76 77 68 78 69 79 75 80 77 81 70 82 71 83 72 84 73 85
REMARK SMILES IDX 74 86 50 87 51 88 60 89 52 90 53 91 59 92 61 93 54 94 55 95
REMARK SMILES IDX 56 96 57 97 58 98
REMARK H PARENT 9 14 82 48 48 59
REMARK Flexibility Score: inf
ROOT
ATOM      1  O   UNL A   1      36.624  24.061  24.703  1.00  0.00    -0.458 OA
ENDROOT
BRANCH   1   2
ATOM      2  C   UNL A   1      36.160  23.109  23.826  1.00  0.00     0.340 C 
ATOM      3  O   UNL A   1      36.636  22.965  22.716  1.00  0.00    -0.246 OA
BRANCH   2   4
ATOM      4  C   UNL A   1      35.036  22.303  24.355  1.00  0.00     0.084 A 
ATOM      5  C   UNL A   1      33.730  22.755  24.637  1.00  0.00     0.041 A 
ATOM      6  N   UNL A   1      33.038  21.681  25.172  1.00  0.00    -0.353 N 
ATOM      7  C   UNL A   1      35.097  20.925  24.795  1.00  0.00    -0.019 A 
ATOM      8  C   UNL A   1      33.859  20.601  25.301  1.00  0.00     0.089 A 
ATOM      9  C   UNL A   1      31.646  21.665  25.581  1.00  0.00     0.149 C 
ATOM     10  C   UNL A   1      36.275  20.012  24.784  1.00  0.00     0.047 C 
BRANCH   5  11
ATOM     11  C   UNL A   1      33.019  24.082  24.440  1.00  0.00     0.154 C 
BRANCH  11  12
ATOM     12  C   UNL A   1      32.780  24.537  23.013  1.00  0.00     0.226 C 
ATOM     13  N   UNL A   1      31.799  25.441  22.713  1.00  0.00    -0.352 N 
ATOM     14  H   UNL A   1      31.847  25.827  21.808  1.00  0.00     0.163 HD
ATOM     15  O   UNL A   1      33.403  24.029  22.076  1.00  0.00    -0.275 OA
BRANCH  13  16
ATOM     16  C   UNL A   1      30.702  25.915  23.526  1.00  0.00     0.151 C 
BRANCH  16  17
ATOM     17  C   UNL A   1      31.116  26.949  24.547  1.00  0.00    -0.029 A 
ATOM     18  C   UNL A   1      31.893  28.932  26.379  1.00  0.00     0.119 A 
ATOM     19  C   UNL A   1      31.786  29.251  25.038  1.00  0.00     0.047 A 
ATOM     20  C   UNL A   1      31.591  27.646  26.824  1.00  0.00     0.047 A 
ATOM     21  C   UNL A   1      31.452  28.244  24.139  1.00  0.00     0.009 A 
ATOM     22  C   UNL A   1      31.193  26.659  25.912  1.00  0.00     0.009 A 
BRANCH  18  23
ATOM     23  O   UNL A   1      32.261  29.897  27.272  1.00  0.00    -0.494 OA
BRANCH  23  24
ATOM     24  C   UNL A   1      33.564  30.411  26.967  1.00  0.00     0.226 C 
ATOM     25  C   UNL A   1      34.627  29.431  27.431  1.00  0.00     0.049 C 
ENDBRANCH  23  24
ENDBRANCH  18  23
ENDBRANCH  16  17
ENDBRANCH  13  16
ENDBRANCH  11  12
ENDBRANCH   5  11
ENDBRANCH   2   4
ENDBRANCH   1   2
BRANCH   1  26
ATOM     26  C   UNL A   1      36.934  23.593  26.031  1.00  0.00     0.275 C 
BRANCH  26  27
ATOM     27  C   UNL A   1      38.318  22.950  26.126  1.00  0.00     0.275 C 
BRANCH  27  28
ATOM     28  O   UNL A   1      39.120  23.634  27.078  1.00  0.00    -0.458 OA
BRANCH  28  29
ATOM     29  C   UNL A   1      40.437  23.329  27.031  1.00  0.00     0.338 C 
ATOM     30  O   UNL A   1      40.928  22.212  27.084  1.00  0.00    -0.246 OA
BRANCH  29  31
ATOM     31  C   UNL A   1      41.218  24.566  26.939  1.00  0.00     0.060 A 
ATOM     32  C   UNL A   1      42.185  24.761  27.927  1.00  0.00     0.016 A 
ATOM     33  C   UNL A   1      40.739  25.608  26.137  1.00  0.00     0.016 A 
ATOM     34  C   UNL A   1      42.384  26.045  28.367  1.00  0.00     0.010 A 
ATOM     35  C   UNL A   1      40.944  26.887  26.569  1.00  0.00     0.010 A 
ATOM     36  C   UNL A   1      41.629  27.055  27.766  1.00  0.00    -0.014 A 
BRANCH  36  37
ATOM     37  C   UNL A   1      41.470  28.304  28.465  1.00  0.00     0.031 A 
ATOM     38  C   UNL A   1      42.596  29.221  28.245  1.00  0.00     0.074 A 
ATOM     39  C   UNL A   1      40.343  28.578  29.151  1.00  0.00     0.049 A 
ATOM     40  N   UNL A   1      43.574  29.461  29.052  1.00  0.00    -0.248 NA
ATOM     41  C   UNL A   1      42.794  29.735  26.882  1.00  0.00     0.031 C 
ATOM     42  C   UNL A   1      39.087  27.826  29.227  1.00  0.00     0.029 A 
ATOM     43  N   UNL A   1      40.084  29.677  29.906  1.00  0.00    -0.354 N 
ATOM     44  C   UNL A   1      44.381  30.362  28.374  1.00  0.00     0.074 A 
ATOM     45  C   UNL A   1      44.008  30.275  26.989  1.00  0.00     0.031 C 
ATOM     46  C   UNL A   1      38.134  28.598  29.805  1.00  0.00     0.029 A 
ATOM     47  C   UNL A   1      38.745  29.834  30.257  1.00  0.00     0.049 A 
ATOM     48  H   UNL A   1      40.785  30.311  30.183  1.00  0.00     0.167 HD
ATOM     49  C   UNL A   1      45.076  31.321  29.042  1.00  0.00     0.037 A 
ATOM     50  C   UNL A   1      38.218  30.966  30.798  1.00  0.00     0.037 A 
ATOM     51  C   UNL A   1      45.156  31.020  30.452  1.00  0.00     0.049 A 
ATOM     52  C   UNL A   1      39.364  31.692  31.426  1.00  0.00     0.074 A 
ATOM     53  C   UNL A   1      45.696  29.979  31.184  1.00  0.00     0.029 A 
ATOM     54  N   UNL A   1      44.256  31.640  31.290  1.00  0.00    -0.354 N 
ATOM     55  N   UNL A   1      40.038  31.213  32.442  1.00  0.00    -0.248 NA
ATOM     56  C   UNL A   1      40.090  32.652  30.601  1.00  0.00     0.031 C 
ATOM     57  C   UNL A   1      44.757  29.735  32.231  1.00  0.00     0.029 A 
ATOM     58  C   UNL A   1      43.735  30.680  32.125  1.00  0.00     0.049 A 
ATOM     59  H   UNL A   1      44.027  32.597  31.290  1.00  0.00     0.167 HD
ATOM     60  C   UNL A   1      41.373  31.486  32.158  1.00  0.00     0.074 A 
ATOM     61  C   UNL A   1      41.335  32.414  31.028  1.00  0.00     0.031 C 
ATOM     62  C   UNL A   1      42.386  30.711  32.654  1.00  0.00     0.037 A 
BRANCH  49  63
ATOM     63  C   UNL A   1      45.334  32.696  28.482  1.00  0.00     0.058 A 
ATOM     64  C   UNL A   1      46.663  33.135  28.339  1.00  0.00     0.135 A 
ATOM     65  C   UNL A   1      44.340  33.690  28.325  1.00  0.00     0.135 A 
ATOM     66  F   UNL A   1      47.685  32.276  28.471  1.00  0.00    -0.206 F 
ATOM     67  C   UNL A   1      46.981  34.477  28.129  1.00  0.00     0.059 A 
ATOM     68  C   UNL A   1      44.633  35.019  28.055  1.00  0.00     0.059 A 
ATOM     69  F   UNL A   1      43.039  33.453  28.525  1.00  0.00    -0.206 F 
ATOM     70  C   UNL A   1      45.957  35.412  28.004  1.00  0.00     0.060 A 
BRANCH  70  71
ATOM     71  S   UNL A   1      46.363  37.157  27.854  1.00  0.00     0.124 S 
ATOM     72  O   UNL A   1      46.065  37.405  26.448  1.00  0.00    -0.237 OA
ATOM     73  O   UNL A   1      45.450  37.762  28.819  1.00  0.00    -0.237 OA
ATOM     74  O   UNL A   1      47.775  37.208  28.219  1.00  0.00    -0.744 OA
ENDBRANCH  70  71
ENDBRANCH  49  63
BRANCH  50  75
ATOM     75  C   UNL A   1      36.942  31.626  30.392  1.00  0.00     0.058 A 
ATOM     76  C   UNL A   1      35.996  32.073  31.332  1.00  0.00     0.135 A 
ATOM     77  C   UNL A   1      36.742  32.068  29.066  1.00  0.00     0.135 A 
ATOM     78  F   UNL A   1      36.118  31.731  32.624  1.00  0.00    -0.206 F 
ATOM     79  C   UNL A   1      34.936  32.926  30.984  1.00  0.00     0.059 A 
ATOM     80  C   UNL A   1      35.695  32.910  28.696  1.00  0.00     0.059 A 
ATOM     81  F   UNL A   1      37.617  31.762  28.096  1.00  0.00    -0.206 F 
ATOM     82  C   UNL A   1      34.804  33.353  29.662  1.00  0.00     0.060 A 
BRANCH  82  83
ATOM     83  S   UNL A   1      33.536  34.571  29.225  1.00  0.00     0.124 S 
ATOM     84  O   UNL A   1      34.336  35.653  28.664  1.00  0.00    -0.237 OA
ATOM     85  O   UNL A   1      32.710  33.831  28.277  1.00  0.00    -0.237 OA
ATOM     86  O   UNL A   1      32.895  34.869  30.503  1.00  0.00    -0.744 OA
ENDBRANCH  82  83
ENDBRANCH  50  75
BRANCH  62  87
ATOM     87  C   UNL A   1      42.037  29.647  33.669  1.00  0.00     0.058 A 
ATOM     88  C   UNL A   1      41.770  28.305  33.339  1.00  0.00     0.135 A 
ATOM     89  C   UNL A   1      42.161  29.949  35.032  1.00  0.00     0.135 A 
ATOM     90  F   UNL A   1      41.744  27.908  32.060  1.00  0.00    -0.206 F 
ATOM     91  C   UNL A   1      41.598  27.317  34.313  1.00  0.00     0.059 A 
ATOM     92  C   UNL A   1      42.020  28.977  36.022  1.00  0.00     0.059 A 
ATOM     93  F   UNL A   1      42.486  31.194  35.416  1.00  0.00    -0.206 F 
ATOM     94  C   UNL A   1      41.727  27.663  35.656  1.00  0.00     0.060 A 
BRANCH  94  95
ATOM     95  S   UNL A   1      41.589  26.375  36.917  1.00  0.00     0.124 S 
ATOM     96  O   UNL A   1      40.362  26.753  37.610  1.00  0.00    -0.237 OA
ATOM     97  O   UNL A   1      41.516  25.154  36.120  1.00  0.00    -0.237 OA
ATOM     98  O   UNL A   1      42.817  26.526  37.695  1.00  0.00    -0.744 OA
ENDBRANCH  94  95
ENDBRANCH  62  87
ENDBRANCH  36  37
ENDBRANCH  29  31
ENDBRANCH  28  29
ENDBRANCH  27  28
ENDBRANCH  26  27
ENDBRANCH   1  26
TORSDOF 20
ENDMDL
MODEL 2
REMARK VINA RESULT:     -11.4      1.194      2.178
REMARK SMILES CCOc1ccc(CNC(=O)Cc2c(C(=O)OCCOC(=O)c3ccc(-c4c5nc(c(-c6c(F)cc(S(=O)(=O)[O-])cc6F)c6ccc([nH]6)c(-c6c(F)cc(S(=O)(=O)[O-])cc6F)c6nc(c(-c7c(F)cc(S(=O)(=O)[O-])cc7F)c7ccc4[nH]7)C=C6)C=C5)cc3)c(C)cn2C)cc1
REMARK SMILES IDX 17 1 15 2 16 3 14 4 13 5 92 6 89 7 91 8 93 9 90 10 12 11
REMARK SMILES IDX 10 12 9 13 11 15 8 16 7 17 4 18 5 19 95 20 6 21 94 22 3 23
REMARK SMILES IDX 2 24 1 25 18 26 19 27 20 28 21 29 22 30 23 31 24 32 88 33
REMARK SMILES IDX 25 34 87 35 26 36 27 37 28 38 81 39 29 40 86 41 80 42 82 43
REMARK SMILES IDX 30 44 85 45 79 46 78 47 31 49 65 50 44 51 64 52 45 53 48 54
REMARK SMILES IDX 63 55 83 56 46 57 47 58 62 60 84 61 49 62 32 63 33 64 42 65
REMARK SMILES IDX 34 66 35 67 41 68 43 69 36 70 37 71 38 72 39 73 40 74 66 75
REMARK SMILES IDX 67 76 76 77 68 78 69 79 75 80 77 81 70 82 71 83 72 84 73 85
REMARK SMILES IDX 74 86 50 87 51 88 60 89 52 90 53 91 59 92 61 93 54 94 55 95
REMARK SMILES IDX 56 96 57 97 58 98
REMARK H PARENT 9 14 82 48 48 59
REMARK Flexibility Score: inf
ROOT
ATOM      1  O   UNL A   1      35.999  24.247  25.871  1.00  0.00    -0.458 OA
ENDROOT
BRANCH   1   2
ATOM      2  C   UNL A   1      34.969  24.462  24.986  1.00  0.00     0.340 C 
ATOM      3  O   UNL A   1      35.142  24.476  23.781  1.00  0.00    -0.246 OA
BRANCH   2   4
ATOM      4  C   UNL A   1      33.656  24.682  25.635  1.00  0.00     0.084 A 
ATOM      5  C   UNL A   1      32.642  23.725  25.838  1.00  0.00     0.041 A 
ATOM      6  N   UNL A   1      31.572  24.387  26.419  1.00  0.00    -0.353 N 
ATOM      7  C   UNL A   1      33.117  25.952  26.076  1.00  0.00    -0.019 A 
ATOM      8  C   UNL A   1      31.839  25.719  26.528  1.00  0.00     0.089 A 
ATOM      9  C   UNL A   1      30.315  23.799  26.840  1.00  0.00     0.149 C 
ATOM     10  C   UNL A   1      33.763  27.293  26.010  1.00  0.00     0.047 C 
BRANCH   5  11
ATOM     11  C   UNL A   1      32.548  22.232  25.583  1.00  0.00     0.154 C 
BRANCH  11  12
ATOM     12  C   UNL A   1      32.792  21.753  24.164  1.00  0.00     0.226 C 
ATOM     13  N   UNL A   1      32.030  22.205  23.123  1.00  0.00    -0.352 N 
ATOM     14  H   UNL A   1      32.383  22.002  22.226  1.00  0.00     0.163 HD
ATOM     15  O   UNL A   1      33.624  20.871  23.931  1.00  0.00    -0.275 OA
BRANCH  13  16
ATOM     16  C   UNL A   1      30.784  22.936  23.142  1.00  0.00     0.151 C 
BRANCH  16  17
ATOM     17  C   UNL A   1      30.962  24.428  22.982  1.00  0.00    -0.029 A 
ATOM     18  C   UNL A   1      31.371  27.186  22.640  1.00  0.00     0.119 A 
ATOM     19  C   UNL A   1      32.291  26.294  22.124  1.00  0.00     0.047 A 
ATOM     20  C   UNL A   1      30.234  26.723  23.301  1.00  0.00     0.047 A 
ATOM     21  C   UNL A   1      32.101  24.935  22.348  1.00  0.00     0.009 A 
ATOM     22  C   UNL A   1      30.024  25.346  23.463  1.00  0.00     0.009 A 
BRANCH  18  23
ATOM     23  O   UNL A   1      31.563  28.527  22.467  1.00  0.00    -0.494 OA
BRANCH  23  24
ATOM     24  C   UNL A   1      30.609  29.286  23.219  1.00  0.00     0.226 C 
ATOM     25  C   UNL A   1      29.618  29.949  22.277  1.00  0.00     0.049 C 
ENDBRANCH  23  24
ENDBRANCH  18  23
ENDBRANCH  16  17
ENDBRANCH  13  16
ENDBRANCH  11  12
ENDBRANCH   5  11
ENDBRANCH   2   4
ENDBRANCH   1   2
BRANCH   1  26
ATOM     26  C   UNL A   1      36.450  22.883  25.990  1.00  0.00     0.275 C 
BRANCH  26  27
ATOM     27  C   UNL A   1      37.960  22.739  25.799  1.00  0.00     0.275 C 
BRANCH  27  28
ATOM     28  O   UNL A   1      38.657  23.654  26.633  1.00  0.00    -0.458 OA
BRANCH  28  29
ATOM     29  C   UNL A   1      39.898  23.257  26.995  1.00  0.00     0.338 C 
ATOM     30  O   UNL A   1      40.235  22.129  27.325  1.00  0.00    -0.246 OA
BRANCH  29  31
ATOM     31  C   UNL A   1      40.803  24.409  26.969  1.00  0.00     0.060 A 
ATOM     32  C   UNL A   1      41.679  24.532  28.050  1.00  0.00     0.016 A 
ATOM     33  C   UNL A   1      40.514  25.474  26.109  1.00  0.00     0.016 A 
ATOM     34  C   UNL A   1      41.958  25.800  28.492  1.00  0.00     0.010 A 
ATOM     35  C   UNL A   1      40.800  26.736  26.544  1.00  0.00     0.010 A 
ATOM     36  C   UNL A   1      41.372  26.864  27.804  1.00  0.00    -0.014 A 
BRANCH  36  37
ATOM     37  C   UNL A   1      41.267  28.138  28.467  1.00  0.00     0.031 A 
ATOM     38  C   UNL A   1      42.403  29.023  28.172  1.00  0.00     0.074 A 
ATOM     39  C   UNL A   1      40.174  28.460  29.186  1.00  0.00     0.049 A 
ATOM     40  N   UNL A   1      43.416  29.267  28.932  1.00  0.00    -0.248 NA
ATOM     41  C   UNL A   1      42.557  29.489  26.786  1.00  0.00     0.031 C 
ATOM     42  C   UNL A   1      38.906  27.739  29.335  1.00  0.00     0.029 A 
ATOM     43  N   UNL A   1      39.968  29.588  29.914  1.00  0.00    -0.354 N 
ATOM     44  C   UNL A   1      44.215  30.128  28.195  1.00  0.00     0.074 A 
ATOM     45  C   UNL A   1      43.785  30.004  26.828  1.00  0.00     0.031 C 
ATOM     46  C   UNL A   1      37.993  28.550  29.925  1.00  0.00     0.029 A 
ATOM     47  C   UNL A   1      38.648  29.786  30.311  1.00  0.00     0.049 A 
ATOM     48  H   UNL A   1      40.693  30.214  30.142  1.00  0.00     0.167 HD
ATOM     49  C   UNL A   1      44.955  31.092  28.803  1.00  0.00     0.037 A 
ATOM     50  C   UNL A   1      38.166  30.946  30.834  1.00  0.00     0.037 A 
ATOM     51  C   UNL A   1      45.085  30.835  30.218  1.00  0.00     0.049 A 
ATOM     52  C   UNL A   1      39.351  31.667  31.393  1.00  0.00     0.074 A 
ATOM     53  C   UNL A   1      45.631  29.806  30.962  1.00  0.00     0.029 A 
ATOM     54  N   UNL A   1      44.232  31.501  31.069  1.00  0.00    -0.354 N 
ATOM     55  N   UNL A   1      40.054  31.206  32.397  1.00  0.00    -0.248 NA
ATOM     56  C   UNL A   1      40.063  32.583  30.509  1.00  0.00     0.031 C 
ATOM     57  C   UNL A   1      44.729  29.617  32.052  1.00  0.00     0.029 A 
ATOM     58  C   UNL A   1      43.724  30.581  31.955  1.00  0.00     0.049 A 
ATOM     59  H   UNL A   1      44.023  32.463  31.046  1.00  0.00     0.167 HD
ATOM     60  C   UNL A   1      41.382  31.439  32.053  1.00  0.00     0.074 A 
ATOM     61  C   UNL A   1      41.319  32.332  30.895  1.00  0.00     0.031 C 
ATOM     62  C   UNL A   1      42.398  30.659  32.535  1.00  0.00     0.037 A 
BRANCH  49  63
ATOM     63  C   UNL A   1      45.220  32.442  28.188  1.00  0.00     0.058 A 
ATOM     64  C   UNL A   1      46.541  32.793  27.856  1.00  0.00     0.135 A 
ATOM     65  C   UNL A   1      44.278  33.497  28.150  1.00  0.00     0.135 A 
ATOM     66  F   UNL A   1      47.516  31.871  27.863  1.00  0.00    -0.206 F 
ATOM     67  C   UNL A   1      46.911  34.109  27.581  1.00  0.00     0.059 A 
ATOM     68  C   UNL A   1      44.614  34.801  27.818  1.00  0.00     0.059 A 
ATOM     69  F   UNL A   1      43.004  33.346  28.529  1.00  0.00    -0.206 F 
ATOM     70  C   UNL A   1      45.940  35.108  27.580  1.00  0.00     0.060 A 
BRANCH  70  71
ATOM     71  S   UNL A   1      46.430  36.822  27.345  1.00  0.00     0.124 S 
ATOM     72  O   UNL A   1      45.137  37.471  27.168  1.00  0.00    -0.237 OA
ATOM     73  O   UNL A   1      47.127  37.109  28.594  1.00  0.00    -0.237 OA
ATOM     74  O   UNL A   1      47.278  36.770  26.158  1.00  0.00    -0.744 OA
ENDBRANCH  70  71
ENDBRANCH  49  63
BRANCH  50  75
ATOM     75  C   UNL A   1      36.890  31.621  30.456  1.00  0.00     0.058 A 
ATOM     76  C   UNL A   1      36.038  32.206  31.411  1.00  0.00     0.135 A 
ATOM     77  C   UNL A   1      36.604  31.934  29.110  1.00  0.00     0.135 A 
ATOM     78  F   UNL A   1      36.248  31.991  32.720  1.00  0.00    -0.206 F 
ATOM     79  C   UNL A   1      34.989  33.068  31.055  1.00  0.00     0.059 A 
ATOM     80  C   UNL A   1      35.565  32.783  28.731  1.00  0.00     0.059 A 
ATOM     81  F   UNL A   1      37.387  31.490  28.116  1.00  0.00    -0.206 F 
ATOM     82  C   UNL A   1      34.770  33.364  29.709  1.00  0.00     0.060 A 
BRANCH  82  83
ATOM     83  S   UNL A   1      33.520  34.589  29.241  1.00  0.00     0.124 S 
ATOM     84  O   UNL A   1      32.729  33.855  28.261  1.00  0.00    -0.237 OA
ATOM     85  O   UNL A   1      32.863  34.863  30.514  1.00  0.00    -0.237 OA
ATOM     86  O   UNL A   1      34.310  35.692  28.702  1.00  0.00    -0.744 OA
ENDBRANCH  82  83
ENDBRANCH  50  75
BRANCH  62  87
ATOM     87  C   UNL A   1      42.067  29.636  33.597  1.00  0.00     0.058 A 
ATOM     88  C   UNL A   1      41.673  28.314  33.318  1.00  0.00     0.135 A 
ATOM     89  C   UNL A   1      42.339  29.944  34.937  1.00  0.00     0.135 A 
ATOM     90  F   UNL A   1      41.499  27.905  32.055  1.00  0.00    -0.206 F 
ATOM     91  C   UNL A   1      41.519  27.354  34.322  1.00  0.00     0.059 A 
ATOM     92  C   UNL A   1      42.218  28.997  35.954  1.00  0.00     0.059 A 
ATOM     93  F   UNL A   1      42.789  31.166  35.266  1.00  0.00    -0.206 F 
ATOM     94  C   UNL A   1      41.798  27.705  35.641  1.00  0.00     0.060 A 
BRANCH  94  95
ATOM     95  S   UNL A   1      41.683  26.446  36.933  1.00  0.00     0.124 S 
ATOM     96  O   UNL A   1      42.868  26.721  37.738  1.00  0.00    -0.237 OA
ATOM     97  O   UNL A   1      40.403  26.754  37.567  1.00  0.00    -0.237 OA
ATOM     98  O   UNL A   1      41.710  25.189  36.189  1.00  0.00    -0.744 OA
ENDBRANCH  94  95
ENDBRANCH  62  87
ENDBRANCH  36  37
ENDBRANCH  29  31
ENDBRANCH  28  29
ENDBRANCH  27  28
ENDBRANCH  26  27
ENDBRANCH   1  26
TORSDOF 20
ENDMDL
MODEL 3
REMARK VINA RESULT:     -10.9      4.142      8.055
REMARK SMILES CCOc1ccc(CNC(=O)Cc2c(C(=O)OCCOC(=O)c3ccc(-c4c5nc(c(-c6c(F)cc(S(=O)(=O)[O-])cc6F)c6ccc([nH]6)c(-c6c(F)cc(S(=O)(=O)[O-])cc6F)c6nc(c(-c7c(F)cc(S(=O)(=O)[O-])cc7F)c7ccc4[nH]7)C=C6)C=C5)cc3)c(C)cn2C)cc1
REMARK SMILES IDX 17 1 15 2 16 3 14 4 13 5 92 6 89 7 91 8 93 9 90 10 12 11
REMARK SMILES IDX 10 12 9 13 11 15 8 16 7 17 4 18 5 19 95 20 6 21 94 22 3 23
REMARK SMILES IDX 2 24 1 25 18 26 19 27 20 28 21 29 22 30 23 31 24 32 88 33
REMARK SMILES IDX 25 34 87 35 26 36 27 37 28 38 81 39 29 40 86 41 80 42 82 43
REMARK SMILES IDX 30 44 85 45 79 46 78 47 31 49 65 50 44 51 64 52 45 53 48 54
REMARK SMILES IDX 63 55 83 56 46 57 47 58 62 60 84 61 49 62 32 63 33 64 42 65
REMARK SMILES IDX 34 66 35 67 41 68 43 69 36 70 37 71 38 72 39 73 40 74 66 75
REMARK SMILES IDX 67 76 76 77 68 78 69 79 75 80 77 81 70 82 71 83 72 84 73 85
REMARK SMILES IDX 74 86 50 87 51 88 60 89 52 90 53 91 59 92 61 93 54 94 55 95
REMARK SMILES IDX 56 96 57 97 58 98
REMARK H PARENT 9 14 82 48 48 59
REMARK Flexibility Score: inf
ROOT
ATOM      1  O   UNL A   1      46.530  26.715  25.480  1.00  0.00    -0.458 OA
ENDROOT
BRANCH   1   2
ATOM      2  C   UNL A   1      47.187  27.702  24.786  1.00  0.00     0.340 C 
ATOM      3  O   UNL A   1      46.648  28.750  24.483  1.00  0.00    -0.246 OA
BRANCH   2   4
ATOM      4  C   UNL A   1      48.586  27.362  24.439  1.00  0.00     0.084 A 
ATOM      5  C   UNL A   1      49.627  27.046  25.335  1.00  0.00     0.041 A 
ATOM      6  N   UNL A   1      50.772  26.863  24.577  1.00  0.00    -0.353 N 
ATOM      7  C   UNL A   1      49.181  27.407  23.119  1.00  0.00    -0.019 A 
ATOM      8  C   UNL A   1      50.517  27.113  23.261  1.00  0.00     0.089 A 
ATOM      9  C   UNL A   1      52.085  26.489  25.067  1.00  0.00     0.149 C 
ATOM     10  C   UNL A   1      48.523  27.766  21.830  1.00  0.00     0.047 C 
BRANCH   5  11
ATOM     11  C   UNL A   1      49.689  26.859  26.840  1.00  0.00     0.154 C 
BRANCH  11  12
ATOM     12  C   UNL A   1      49.221  25.526  27.394  1.00  0.00     0.226 C 
ATOM     13  N   UNL A   1      48.011  25.404  28.018  1.00  0.00    -0.352 N 
ATOM     14  H   UNL A   1      47.706  24.478  28.162  1.00  0.00     0.163 HD
ATOM     15  O   UNL A   1      49.966  24.541  27.379  1.00  0.00    -0.275 OA
BRANCH  13  16
ATOM     16  C   UNL A   1      47.113  26.429  28.499  1.00  0.00     0.151 C 
BRANCH  16  17
ATOM     17  C   UNL A   1      46.370  26.033  29.753  1.00  0.00    -0.029 A 
ATOM     18  C   UNL A   1      44.911  25.291  32.037  1.00  0.00     0.119 A 
ATOM     19  C   UNL A   1      44.260  25.408  30.823  1.00  0.00     0.047 A 
ATOM     20  C   UNL A   1      46.285  25.511  32.124  1.00  0.00     0.047 A 
ATOM     21  C   UNL A   1      44.987  25.828  29.714  1.00  0.00     0.009 A 
ATOM     22  C   UNL A   1      47.015  25.871  30.983  1.00  0.00     0.009 A 
BRANCH  18  23
ATOM     23  O   UNL A   1      44.205  24.922  33.145  1.00  0.00    -0.494 OA
BRANCH  23  24
ATOM     24  C   UNL A   1      44.995  24.092  34.007  1.00  0.00     0.226 C 
ATOM     25  C   UNL A   1      44.114  23.040  34.660  1.00  0.00     0.049 C 
ENDBRANCH  23  24
ENDBRANCH  18  23
ENDBRANCH  16  17
ENDBRANCH  13  16
ENDBRANCH  11  12
ENDBRANCH   5  11
ENDBRANCH   2   4
ENDBRANCH   1   2
BRANCH   1  26
ATOM     26  C   UNL A   1      45.159  26.485  25.098  1.00  0.00     0.275 C 
BRANCH  26  27
ATOM     27  C   UNL A   1      44.705  25.046  25.348  1.00  0.00     0.275 C 
BRANCH  27  28
ATOM     28  O   UNL A   1      43.367  24.863  24.907  1.00  0.00    -0.458 OA
BRANCH  28  29
ATOM     29  C   UNL A   1      42.675  23.917  25.582  1.00  0.00     0.338 C 
ATOM     30  O   UNL A   1      42.811  22.707  25.486  1.00  0.00    -0.246 OA
BRANCH  29  31
ATOM     31  C   UNL A   1      41.685  24.565  26.446  1.00  0.00     0.060 A 
ATOM     32  C   UNL A   1      40.846  25.500  25.833  1.00  0.00     0.016 A 
ATOM     33  C   UNL A   1      41.856  24.503  27.833  1.00  0.00     0.016 A 
ATOM     34  C   UNL A   1      40.490  26.602  26.568  1.00  0.00     0.010 A 
ATOM     35  C   UNL A   1      41.493  25.596  28.567  1.00  0.00     0.010 A 
ATOM     36  C   UNL A   1      40.965  26.682  27.879  1.00  0.00    -0.014 A 
BRANCH  36  37
ATOM     37  C   UNL A   1      41.000  27.970  28.521  1.00  0.00     0.031 A 
ATOM     38  C   UNL A   1      42.185  28.754  28.148  1.00  0.00     0.074 A 
ATOM     39  C   UNL A   1      39.978  28.391  29.292  1.00  0.00     0.049 A 
ATOM     40  N   UNL A   1      43.256  28.926  28.847  1.00  0.00    -0.248 NA
ATOM     41  C   UNL A   1      42.299  29.184  26.746  1.00  0.00     0.031 C 
ATOM     42  C   UNL A   1      38.666  27.778  29.524  1.00  0.00     0.029 A 
ATOM     43  N   UNL A   1      39.905  29.543  30.008  1.00  0.00    -0.354 N 
ATOM     44  C   UNL A   1      44.079  29.707  28.050  1.00  0.00     0.074 A 
ATOM     45  C   UNL A   1      43.565  29.598  26.712  1.00  0.00     0.031 C 
ATOM     46  C   UNL A   1      37.856  28.670  30.146  1.00  0.00     0.029 A 
ATOM     47  C   UNL A   1      38.629  29.854  30.472  1.00  0.00     0.049 A 
ATOM     48  H   UNL A   1      40.689  30.112  30.183  1.00  0.00     0.167 HD
ATOM     49  C   UNL A   1      44.928  30.617  28.598  1.00  0.00     0.037 A 
ATOM     50  C   UNL A   1      38.272  31.058  30.996  1.00  0.00     0.037 A 
ATOM     51  C   UNL A   1      45.115  30.372  30.009  1.00  0.00     0.049 A 
ATOM     52  C   UNL A   1      39.542  31.688  31.476  1.00  0.00     0.074 A 
ATOM     53  C   UNL A   1      45.616  29.313  30.743  1.00  0.00     0.029 A 
ATOM     54  N   UNL A   1      44.367  31.118  30.891  1.00  0.00    -0.354 N 
ATOM     55  N   UNL A   1      40.260  31.186  32.450  1.00  0.00    -0.248 NA
ATOM     56  C   UNL A   1      40.275  32.529  30.537  1.00  0.00     0.031 C 
ATOM     57  C   UNL A   1      44.764  29.215  31.884  1.00  0.00     0.029 A 
ATOM     58  C   UNL A   1      43.837  30.257  31.822  1.00  0.00     0.049 A 
ATOM     59  H   UNL A   1      44.236  32.094  30.861  1.00  0.00     0.167 HD
ATOM     60  C   UNL A   1      41.581  31.305  32.030  1.00  0.00     0.074 A 
ATOM     61  C   UNL A   1      41.526  32.182  30.859  1.00  0.00     0.031 C 
ATOM     62  C   UNL A   1      42.555  30.452  32.471  1.00  0.00     0.037 A 
BRANCH  49  63
ATOM     63  C   UNL A   1      45.266  31.930  27.943  1.00  0.00     0.058 A 
ATOM     64  C   UNL A   1      46.582  32.152  27.497  1.00  0.00     0.135 A 
ATOM     65  C   UNL A   1      44.429  33.071  27.968  1.00  0.00     0.135 A 
ATOM     66  F   UNL A   1      47.462  31.140  27.437  1.00  0.00    -0.206 F 
ATOM     67  C   UNL A   1      47.050  33.424  27.172  1.00  0.00     0.059 A 
ATOM     68  C   UNL A   1      44.858  34.334  27.590  1.00  0.00     0.059 A 
ATOM     69  F   UNL A   1      43.183  33.045  28.455  1.00  0.00    -0.206 F 
ATOM     70  C   UNL A   1      46.182  34.511  27.238  1.00  0.00     0.060 A 
BRANCH  70  71
ATOM     71  S   UNL A   1      46.810  36.169  26.936  1.00  0.00     0.124 S 
ATOM     72  O   UNL A   1      45.579  36.902  26.668  1.00  0.00    -0.237 OA
ATOM     73  O   UNL A   1      47.475  36.472  28.199  1.00  0.00    -0.237 OA
ATOM     74  O   UNL A   1      47.700  35.989  25.793  1.00  0.00    -0.744 OA
ENDBRANCH  70  71
ENDBRANCH  49  63
BRANCH  50  75
ATOM     75  C   UNL A   1      37.036  31.830  30.675  1.00  0.00     0.058 A 
ATOM     76  C   UNL A   1      36.129  32.243  31.668  1.00  0.00     0.135 A 
ATOM     77  C   UNL A   1      36.849  32.405  29.400  1.00  0.00     0.135 A 
ATOM     78  F   UNL A   1      36.244  31.773  32.921  1.00  0.00    -0.206 F 
ATOM     79  C   UNL A   1      35.120  33.187  31.419  1.00  0.00     0.059 A 
ATOM     80  C   UNL A   1      35.852  33.340  29.127  1.00  0.00     0.059 A 
ATOM     81  F   UNL A   1      37.693  32.139  28.391  1.00  0.00    -0.206 F 
ATOM     82  C   UNL A   1      35.000  33.744  30.145  1.00  0.00     0.060 A 
BRANCH  82  83
ATOM     83  S   UNL A   1      33.805  35.071  29.844  1.00  0.00     0.124 S 
ATOM     84  O   UNL A   1      34.450  35.822  28.773  1.00  0.00    -0.237 OA
ATOM     85  O   UNL A   1      32.606  34.330  29.470  1.00  0.00    -0.237 OA
ATOM     86  O   UNL A   1      33.731  35.760  31.130  1.00  0.00    -0.744 OA
ENDBRANCH  82  83
ENDBRANCH  50  75
BRANCH  62  87
ATOM     87  C   UNL A   1      42.203  29.476  33.570  1.00  0.00     0.058 A 
ATOM     88  C   UNL A   1      41.696  28.183  33.338  1.00  0.00     0.135 A 
ATOM     89  C   UNL A   1      42.564  29.786  34.888  1.00  0.00     0.135 A 
ATOM     90  F   UNL A   1      41.429  27.767  32.094  1.00  0.00    -0.206 F 
ATOM     91  C   UNL A   1      41.522  27.255  34.369  1.00  0.00     0.059 A 
ATOM     92  C   UNL A   1      42.424  28.869  35.929  1.00  0.00     0.059 A 
ATOM     93  F   UNL A   1      43.120  30.975  35.168  1.00  0.00    -0.206 F 
ATOM     94  C   UNL A   1      41.892  27.607  35.665  1.00  0.00     0.060 A 
BRANCH  94  95
ATOM     95  S   UNL A   1      41.748  26.384  36.988  1.00  0.00     0.124 S 
ATOM     96  O   UNL A   1      40.451  26.710  37.570  1.00  0.00    -0.237 OA
ATOM     97  O   UNL A   1      41.816  25.118  36.262  1.00  0.00    -0.237 OA
ATOM     98  O   UNL A   1      42.902  26.663  37.839  1.00  0.00    -0.744 OA
ENDBRANCH  94  95
ENDBRANCH  62  87
ENDBRANCH  36  37
ENDBRANCH  29  31
ENDBRANCH  28  29
ENDBRANCH  27  28
ENDBRANCH  26  27
ENDBRANCH   1  26
TORSDOF 20
ENDMDL
