MODEL 1
REMARK VINA RESULT:     -11.6      0.000      0.000
REMARK SMILES O=C(CCN1C(=O)/C(=C/C=C/c2ccco2)SC1=S)Nc1ccc(C(=O)OCCOC(=O)c2ccc(-c3c4nc(c(-c5c(F)cc(S(=O)(=O)[O-])cc5F)c5ccc([nH]5)c(-c5c(F)cc(S(=O)(=O)[O-])cc5F)c5nc(c(-c6c(F)cc(S(=O)(=O)[O-])cc6F)c6ccc3[nH]6)C=C5)C=C4)cc2)c(O)c1
REMARK SMILES IDX 27 1 25 2 26 3 24 4 21 5 22 6 101 7 23 8 99 9 20 10 1 11
REMARK SMILES IDX 2 12 3 14 4 15 5 16 6 17 18 18 7 19 8 20 17 21 19 22 9 23
REMARK SMILES IDX 10 24 11 25 12 26 13 27 16 28 14 29 15 30 100 31 28 33 29 34
REMARK SMILES IDX 30 35 31 36 32 37 33 38 34 39 98 40 35 41 97 42 36 43 37 44
REMARK SMILES IDX 38 45 91 46 39 47 96 48 90 49 92 50 40 51 95 52 89 53 88 54
REMARK SMILES IDX 41 56 75 57 54 58 74 59 55 60 58 61 73 62 93 63 56 64 57 65
REMARK SMILES IDX 72 67 94 68 59 69 42 70 43 71 52 72 44 73 45 74 51 75 53 76
REMARK SMILES IDX 46 77 47 78 48 79 49 80 50 81 76 82 77 83 86 84 78 85 79 86
REMARK SMILES IDX 85 87 87 88 80 89 81 90 82 91 83 92 84 93 60 94 61 95 70 96
REMARK SMILES IDX 62 97 63 98 69 99 71 100 64 101 65 102 66 103 67 104 68 105
REMARK H PARENT 20 13 100 32 92 55 58 66
REMARK Flexibility Score: inf
ROOT
ATOM      1  O   UNL A   1      41.407  21.821  25.629  1.00  0.00    -0.458 OA
ENDROOT
BRANCH   1   2
ATOM      2  C   UNL A   1      40.469  21.784  26.617  1.00  0.00     0.342 C 
ATOM      3  O   UNL A   1      40.666  21.927  27.805  1.00  0.00    -0.246 OA
BRANCH   2   4
ATOM      4  C   UNL A   1      39.115  21.661  26.021  1.00  0.00     0.101 A 
ATOM      5  C   UNL A   1      36.577  21.635  24.841  1.00  0.00     0.044 A 
ATOM      6  C   UNL A   1      37.050  22.803  25.421  1.00  0.00     0.027 A 
ATOM      7  C   UNL A   1      37.347  20.467  24.890  1.00  0.00     0.073 A 
ATOM      8  C   UNL A   1      38.287  22.791  26.066  1.00  0.00     0.022 A 
ATOM      9  C   UNL A   1      38.632  20.493  25.432  1.00  0.00     0.132 A 
BRANCH   5  10
ATOM     10  N   UNL A   1      35.307  21.562  24.256  1.00  0.00    -0.326 N 
ATOM     11  O   UNL A   1      34.041  20.848  26.051  1.00  0.00    -0.275 OA
ATOM     12  C   UNL A   1      34.148  21.132  24.861  1.00  0.00     0.226 C 
ATOM     13  H   UNL A   1      35.236  21.847  23.317  1.00  0.00     0.169 HD
BRANCH  12  14
ATOM     14  C   UNL A   1      32.974  20.957  23.911  1.00  0.00     0.122 C 
BRANCH  14  15
ATOM     15  C   UNL A   1      32.335  22.238  23.357  1.00  0.00     0.137 C 
BRANCH  15  16
ATOM     16  N   UNL A   1      32.543  23.440  24.189  1.00  0.00    -0.292 N 
ATOM     17  C   UNL A   1      33.516  24.361  23.827  1.00  0.00     0.266 C 
ATOM     18  C   UNL A   1      31.862  23.714  25.363  1.00  0.00     0.148 C 
ATOM     19  O   UNL A   1      34.281  24.259  22.880  1.00  0.00    -0.268 OA
ATOM     20  C   UNL A   1      33.401  25.585  24.658  1.00  0.00     0.080 C 
ATOM     21  S   UNL A   1      32.324  25.303  25.963  1.00  0.00    -0.054 SA
ATOM     22  S   UNL A   1      30.755  22.762  26.167  1.00  0.00    -0.052 S 
ATOM     23  C   UNL A   1      33.976  26.739  24.287  1.00  0.00     0.021 C 
BRANCH  23  24
ATOM     24  C   UNL A   1      33.840  28.012  24.963  1.00  0.00     0.005 C 
ATOM     25  C   UNL A   1      34.258  28.229  26.221  1.00  0.00     0.047 C 
BRANCH  25  26
ATOM     26  C   UNL A   1      34.087  29.492  26.855  1.00  0.00     0.126 A 
ATOM     27  C   UNL A   1      34.998  30.300  27.530  1.00  0.00     0.050 A 
ATOM     28  O   UNL A   1      32.877  30.154  26.863  1.00  0.00    -0.465 OA
ATOM     29  C   UNL A   1      34.320  31.459  27.969  1.00  0.00     0.042 A 
ATOM     30  C   UNL A   1      33.025  31.315  27.544  1.00  0.00     0.195 A 
ENDBRANCH  25  26
ENDBRANCH  23  24
ENDBRANCH  15  16
ENDBRANCH  14  15
ENDBRANCH  12  14
ENDBRANCH   5  10
BRANCH   9  31
ATOM     31  O   UNL A   1      39.346  19.329  25.348  1.00  0.00    -0.507 OA
ATOM     32  H   UNL A   1      38.935  18.550  25.031  1.00  0.00     0.293 HD
ENDBRANCH   9  31
ENDBRANCH   2   4
ENDBRANCH   1   2
BRANCH   1  33
ATOM     33  C   UNL A   1      42.635  22.500  25.967  1.00  0.00     0.275 C 
BRANCH  33  34
ATOM     34  C   UNL A   1      42.695  23.886  25.323  1.00  0.00     0.275 C 
BRANCH  34  35
ATOM     35  O   UNL A   1      41.764  24.774  25.968  1.00  0.00    -0.458 OA
BRANCH  35  36
ATOM     36  C   UNL A   1      41.976  26.095  25.763  1.00  0.00     0.338 C 
ATOM     37  O   UNL A   1      42.502  26.613  24.791  1.00  0.00    -0.246 OA
BRANCH  36  38
ATOM     38  C   UNL A   1      41.421  26.879  26.879  1.00  0.00     0.060 A 
ATOM     39  C   UNL A   1      41.793  28.212  27.004  1.00  0.00     0.016 A 
ATOM     40  C   UNL A   1      40.690  26.269  27.892  1.00  0.00     0.016 A 
ATOM     41  C   UNL A   1      41.573  28.897  28.199  1.00  0.00     0.010 A 
ATOM     42  C   UNL A   1      40.347  27.003  29.036  1.00  0.00     0.010 A 
ATOM     43  C   UNL A   1      40.834  28.311  29.235  1.00  0.00    -0.014 A 
BRANCH  43  44
ATOM     44  C   UNL A   1      40.617  29.031  30.531  1.00  0.00     0.031 A 
ATOM     45  C   UNL A   1      39.499  30.043  30.659  1.00  0.00     0.074 A 
ATOM     46  C   UNL A   1      41.395  28.785  31.607  1.00  0.00     0.049 A 
ATOM     47  N   UNL A   1      39.284  30.929  31.599  1.00  0.00    -0.248 NA
ATOM     48  C   UNL A   1      38.506  30.078  29.575  1.00  0.00     0.031 C 
ATOM     49  C   UNL A   1      42.483  27.807  31.669  1.00  0.00     0.029 A 
ATOM     50  N   UNL A   1      41.389  29.340  32.867  1.00  0.00    -0.354 N 
ATOM     51  C   UNL A   1      38.183  31.672  31.183  1.00  0.00     0.074 A 
ATOM     52  C   UNL A   1      37.775  31.133  29.904  1.00  0.00     0.031 C 
ATOM     53  C   UNL A   1      43.002  27.794  32.905  1.00  0.00     0.029 A 
ATOM     54  C   UNL A   1      42.363  28.838  33.698  1.00  0.00     0.049 A 
ATOM     55  H   UNL A   1      40.747  30.032  33.147  1.00  0.00     0.167 HD
ATOM     56  C   UNL A   1      37.568  32.706  31.809  1.00  0.00     0.037 A 
ATOM     57  C   UNL A   1      42.745  29.201  34.939  1.00  0.00     0.037 A 
ATOM     58  C   UNL A   1      37.922  33.183  33.123  1.00  0.00     0.049 A 
ATOM     59  C   UNL A   1      42.059  30.356  35.612  1.00  0.00     0.074 A 
ATOM     60  C   UNL A   1      37.344  34.210  33.850  1.00  0.00     0.029 A 
ATOM     61  N   UNL A   1      38.925  32.649  33.917  1.00  0.00    -0.354 N 
ATOM     62  N   UNL A   1      41.073  31.099  35.170  1.00  0.00    -0.248 NA
ATOM     63  C   UNL A   1      42.552  30.739  36.943  1.00  0.00     0.031 C 
ATOM     64  C   UNL A   1      38.019  34.317  35.071  1.00  0.00     0.029 A 
ATOM     65  C   UNL A   1      38.990  33.330  35.123  1.00  0.00     0.049 A 
ATOM     66  H   UNL A   1      39.508  31.897  33.662  1.00  0.00     0.167 HD
ATOM     67  C   UNL A   1      40.819  32.028  36.172  1.00  0.00     0.074 A 
ATOM     68  C   UNL A   1      41.743  31.743  37.250  1.00  0.00     0.031 C 
ATOM     69  C   UNL A   1      39.907  33.031  36.193  1.00  0.00     0.037 A 
BRANCH  56  70
ATOM     70  C   UNL A   1      36.466  33.421  31.071  1.00  0.00     0.058 A 
ATOM     71  C   UNL A   1      36.707  34.191  29.924  1.00  0.00     0.135 A 
ATOM     72  C   UNL A   1      35.134  33.297  31.504  1.00  0.00     0.135 A 
ATOM     73  F   UNL A   1      37.961  34.355  29.471  1.00  0.00    -0.206 F 
ATOM     74  C   UNL A   1      35.674  34.839  29.251  1.00  0.00     0.059 A 
ATOM     75  C   UNL A   1      34.083  33.912  30.831  1.00  0.00     0.059 A 
ATOM     76  F   UNL A   1      34.843  32.566  32.592  1.00  0.00    -0.206 F 
ATOM     77  C   UNL A   1      34.365  34.696  29.713  1.00  0.00     0.060 A 
BRANCH  77  78
ATOM     78  S   UNL A   1      33.034  35.539  28.831  1.00  0.00     0.124 S 
ATOM     79  O   UNL A   1      32.413  34.430  28.112  1.00  0.00    -0.237 OA
ATOM     80  O   UNL A   1      32.245  36.106  29.920  1.00  0.00    -0.237 OA
ATOM     81  O   UNL A   1      33.736  36.510  28.000  1.00  0.00    -0.744 OA
ENDBRANCH  77  78
ENDBRANCH  56  70
BRANCH  57  82
ATOM     82  C   UNL A   1      43.873  28.492  35.605  1.00  0.00     0.058 A 
ATOM     83  C   UNL A   1      43.639  27.416  36.473  1.00  0.00     0.135 A 
ATOM     84  C   UNL A   1      45.206  28.863  35.371  1.00  0.00     0.135 A 
ATOM     85  F   UNL A   1      42.382  27.032  36.743  1.00  0.00    -0.206 F 
ATOM     86  C   UNL A   1      44.685  26.735  37.089  1.00  0.00     0.059 A 
ATOM     87  C   UNL A   1      46.270  28.179  35.949  1.00  0.00     0.059 A 
ATOM     88  F   UNL A   1      45.485  29.880  34.541  1.00  0.00    -0.206 F 
ATOM     89  C   UNL A   1      45.999  27.122  36.816  1.00  0.00     0.060 A 
BRANCH  89  90
ATOM     90  S   UNL A   1      47.354  26.193  37.567  1.00  0.00     0.124 S 
ATOM     91  O   UNL A   1      46.633  25.131  38.258  1.00  0.00    -0.237 OA
ATOM     92  O   UNL A   1      48.131  25.784  36.401  1.00  0.00    -0.237 OA
ATOM     93  O   UNL A   1      48.001  27.181  38.426  1.00  0.00    -0.744 OA
ENDBRANCH  89  90
ENDBRANCH  57  82
BRANCH  69  94
ATOM     94  C   UNL A   1      39.835  33.871  37.436  1.00  0.00     0.058 A 
ATOM     95  C   UNL A   1      40.581  35.052  37.573  1.00  0.00     0.135 A 
ATOM     96  C   UNL A   1      38.977  33.511  38.488  1.00  0.00     0.135 A 
ATOM     97  F   UNL A   1      41.421  35.436  36.599  1.00  0.00    -0.206 F 
ATOM     98  C   UNL A   1      40.496  35.837  38.719  1.00  0.00     0.059 A 
ATOM     99  C   UNL A   1      38.858  34.292  39.633  1.00  0.00     0.059 A 
ATOM    100  F   UNL A   1      38.236  32.395  38.404  1.00  0.00    -0.206 F 
ATOM    101  C   UNL A   1      39.631  35.448  39.744  1.00  0.00     0.060 A 
BRANCH 101 102
ATOM    102  S   UNL A   1      39.507  36.488  41.215  1.00  0.00     0.124 S 
ATOM    103  O   UNL A   1      40.898  36.550  41.649  1.00  0.00    -0.237 OA
ATOM    104  O   UNL A   1      38.955  37.727  40.676  1.00  0.00    -0.237 OA
ATOM    105  O   UNL A   1      38.609  35.736  42.087  1.00  0.00    -0.744 OA
ENDBRANCH 101 102
ENDBRANCH  69  94
ENDBRANCH  43  44
ENDBRANCH  36  38
ENDBRANCH  35  36
ENDBRANCH  34  35
ENDBRANCH  33  34
ENDBRANCH   1  33
TORSDOF 21
ENDMDL
MODEL 2
REMARK VINA RESULT:     -11.5      1.504      8.746
REMARK SMILES O=C(CCN1C(=O)/C(=C/C=C/c2ccco2)SC1=S)Nc1ccc(C(=O)OCCOC(=O)c2ccc(-c3c4nc(c(-c5c(F)cc(S(=O)(=O)[O-])cc5F)c5ccc([nH]5)c(-c5c(F)cc(S(=O)(=O)[O-])cc5F)c5nc(c(-c6c(F)cc(S(=O)(=O)[O-])cc6F)c6ccc3[nH]6)C=C5)C=C4)cc2)c(O)c1
REMARK SMILES IDX 27 1 25 2 26 3 24 4 21 5 22 6 101 7 23 8 99 9 20 10 1 11
REMARK SMILES IDX 2 12 3 14 4 15 5 16 6 17 18 18 7 19 8 20 17 21 19 22 9 23
REMARK SMILES IDX 10 24 11 25 12 26 13 27 16 28 14 29 15 30 100 31 28 33 29 34
REMARK SMILES IDX 30 35 31 36 32 37 33 38 34 39 98 40 35 41 97 42 36 43 37 44
REMARK SMILES IDX 38 45 91 46 39 47 96 48 90 49 92 50 40 51 95 52 89 53 88 54
REMARK SMILES IDX 41 56 75 57 54 58 74 59 55 60 58 61 73 62 93 63 56 64 57 65
REMARK SMILES IDX 72 67 94 68 59 69 42 70 43 71 52 72 44 73 45 74 51 75 53 76
REMARK SMILES IDX 46 77 47 78 48 79 49 80 50 81 76 82 77 83 86 84 78 85 79 86
REMARK SMILES IDX 85 87 87 88 80 89 81 90 82 91 83 92 84 93 60 94 61 95 70 96
REMARK SMILES IDX 62 97 63 98 69 99 71 100 64 101 65 102 66 103 67 104 68 105
REMARK H PARENT 20 13 100 32 92 55 58 66
REMARK Flexibility Score: inf
ROOT
ATOM      1  O   UNL A   1      39.208  21.375  26.349  1.00  0.00    -0.458 OA
ENDROOT
BRANCH   1   2
ATOM      2  C   UNL A   1      38.309  20.985  25.401  1.00  0.00     0.342 C 
ATOM      3  O   UNL A   1      38.162  19.864  24.964  1.00  0.00    -0.246 OA
BRANCH   2   4
ATOM      4  C   UNL A   1      37.426  22.124  25.047  1.00  0.00     0.101 A 
ATOM      5  C   UNL A   1      35.628  24.131  24.286  1.00  0.00     0.044 A 
ATOM      6  C   UNL A   1      35.765  22.998  23.496  1.00  0.00     0.027 A 
ATOM      7  C   UNL A   1      36.420  24.285  25.430  1.00  0.00     0.073 A 
ATOM      8  C   UNL A   1      36.710  22.033  23.845  1.00  0.00     0.022 A 
ATOM      9  C   UNL A   1      37.277  23.264  25.836  1.00  0.00     0.132 A 
BRANCH   5  10
ATOM     10  N   UNL A   1      34.759  25.172  23.941  1.00  0.00    -0.326 N 
ATOM     11  O   UNL A   1      34.010  25.827  26.025  1.00  0.00    -0.275 OA
ATOM     12  C   UNL A   1      33.976  25.908  24.801  1.00  0.00     0.226 C 
ATOM     13  H   UNL A   1      34.702  25.401  22.985  1.00  0.00     0.169 HD
BRANCH  12  14
ATOM     14  C   UNL A   1      32.975  26.821  24.109  1.00  0.00     0.122 C 
BRANCH  14  15
ATOM     15  C   UNL A   1      31.711  26.158  23.544  1.00  0.00     0.137 C 
BRANCH  15  16
ATOM     16  N   UNL A   1      31.504  24.760  23.972  1.00  0.00    -0.292 N 
ATOM     17  C   UNL A   1      31.945  23.726  23.159  1.00  0.00     0.266 C 
ATOM     18  C   UNL A   1      30.844  24.379  25.127  1.00  0.00     0.148 C 
ATOM     19  O   UNL A   1      32.468  23.849  22.062  1.00  0.00    -0.268 OA
ATOM     20  C   UNL A   1      31.843  22.429  23.875  1.00  0.00     0.080 C 
ATOM     21  S   UNL A   1      30.935  22.631  25.315  1.00  0.00    -0.054 SA
ATOM     22  S   UNL A   1      30.057  25.340  26.238  1.00  0.00    -0.052 S 
ATOM     23  C   UNL A   1      32.515  21.345  23.459  1.00  0.00     0.021 C 
BRANCH  23  24
ATOM     24  C   UNL A   1      32.572  20.068  24.138  1.00  0.00     0.005 C 
ATOM     25  C   UNL A   1      32.894  18.918  23.523  1.00  0.00     0.047 C 
BRANCH  25  26
ATOM     26  C   UNL A   1      32.920  17.680  24.225  1.00  0.00     0.126 A 
ATOM     27  C   UNL A   1      33.731  16.560  24.060  1.00  0.00     0.050 A 
ATOM     28  O   UNL A   1      32.072  17.414  25.279  1.00  0.00    -0.465 OA
ATOM     29  C   UNL A   1      33.350  15.595  25.020  1.00  0.00     0.042 A 
ATOM     30  C   UNL A   1      32.327  16.164  25.732  1.00  0.00     0.195 A 
ENDBRANCH  25  26
ENDBRANCH  23  24
ENDBRANCH  15  16
ENDBRANCH  14  15
ENDBRANCH  12  14
ENDBRANCH   5  10
BRANCH   9  31
ATOM     31  O   UNL A   1      37.938  23.465  27.018  1.00  0.00    -0.507 OA
ATOM     32  H   UNL A   1      38.367  24.281  27.181  1.00  0.00     0.293 HD
ENDBRANCH   9  31
ENDBRANCH   2   4
ENDBRANCH   1   2
BRANCH   1  33
ATOM     33  C   UNL A   1      40.559  20.906  26.150  1.00  0.00     0.275 C 
BRANCH  33  34
ATOM     34  C   UNL A   1      41.576  22.012  26.436  1.00  0.00     0.275 C 
BRANCH  34  35
ATOM     35  O   UNL A   1      40.903  23.273  26.605  1.00  0.00    -0.458 OA
BRANCH  35  36
ATOM     36  C   UNL A   1      41.647  24.373  26.343  1.00  0.00     0.338 C 
ATOM     37  O   UNL A   1      42.507  24.492  25.484  1.00  0.00    -0.246 OA
BRANCH  36  38
ATOM     38  C   UNL A   1      41.242  25.484  27.221  1.00  0.00     0.060 A 
ATOM     39  C   UNL A   1      41.888  26.706  27.088  1.00  0.00     0.016 A 
ATOM     40  C   UNL A   1      40.368  25.277  28.283  1.00  0.00     0.016 A 
ATOM     41  C   UNL A   1      41.786  27.672  28.089  1.00  0.00     0.010 A 
ATOM     42  C   UNL A   1      40.158  26.304  29.215  1.00  0.00     0.010 A 
ATOM     43  C   UNL A   1      40.909  27.496  29.167  1.00  0.00    -0.014 A 
BRANCH  43  44
ATOM     44  C   UNL A   1      40.814  28.517  30.260  1.00  0.00     0.031 A 
ATOM     45  C   UNL A   1      41.780  28.474  31.424  1.00  0.00     0.074 A 
ATOM     46  C   UNL A   1      39.886  29.497  30.224  1.00  0.00     0.049 A 
ATOM     47  N   UNL A   1      41.730  29.108  32.569  1.00  0.00    -0.248 NA
ATOM     48  C   UNL A   1      42.942  27.582  31.291  1.00  0.00     0.031 C 
ATOM     49  C   UNL A   1      38.912  29.712  29.151  1.00  0.00     0.029 A 
ATOM     50  N   UNL A   1      39.608  30.506  31.117  1.00  0.00    -0.354 N 
ATOM     51  C   UNL A   1      42.805  28.636  33.317  1.00  0.00     0.074 A 
ATOM     52  C   UNL A   1      43.489  27.661  32.496  1.00  0.00     0.031 C 
ATOM     53  C   UNL A   1      38.184  30.805  29.422  1.00  0.00     0.029 A 
ATOM     54  C   UNL A   1      38.559  31.310  30.738  1.00  0.00     0.049 A 
ATOM     55  H   UNL A   1      40.115  30.641  31.951  1.00  0.00     0.167 HD
ATOM     56  C   UNL A   1      43.187  28.984  34.570  1.00  0.00     0.037 A 
ATOM     57  C   UNL A   1      37.925  32.309  31.385  1.00  0.00     0.037 A 
ATOM     58  C   UNL A   1      42.556  30.019  35.352  1.00  0.00     0.049 A 
ATOM     59  C   UNL A   1      38.356  32.672  32.779  1.00  0.00     0.074 A 
ATOM     60  C   UNL A   1      42.886  30.459  36.623  1.00  0.00     0.029 A 
ATOM     61  N   UNL A   1      41.488  30.794  34.926  1.00  0.00    -0.354 N 
ATOM     62  N   UNL A   1      39.323  32.160  33.501  1.00  0.00    -0.248 NA
ATOM     63  C   UNL A   1      37.596  33.733  33.454  1.00  0.00     0.031 C 
ATOM     64  C   UNL A   1      41.995  31.478  36.978  1.00  0.00     0.029 A 
ATOM     65  C   UNL A   1      41.138  31.702  35.913  1.00  0.00     0.049 A 
ATOM     66  H   UNL A   1      41.042  30.710  34.052  1.00  0.00     0.167 HD
ATOM     67  C   UNL A   1      39.296  32.844  34.711  1.00  0.00     0.074 A 
ATOM     68  C   UNL A   1      38.229  33.818  34.616  1.00  0.00     0.031 C 
ATOM     69  C   UNL A   1      40.081  32.674  35.803  1.00  0.00     0.037 A 
BRANCH  56  70
ATOM     70  C   UNL A   1      44.324  28.219  35.198  1.00  0.00     0.058 A 
ATOM     71  C   UNL A   1      44.124  27.023  35.904  1.00  0.00     0.135 A 
ATOM     72  C   UNL A   1      45.644  28.677  35.053  1.00  0.00     0.135 A 
ATOM     73  F   UNL A   1      42.883  26.543  36.084  1.00  0.00    -0.206 F 
ATOM     74  C   UNL A   1      45.188  26.325  36.471  1.00  0.00     0.059 A 
ATOM     75  C   UNL A   1      46.726  27.982  35.586  1.00  0.00     0.059 A 
ATOM     76  F   UNL A   1      45.896  29.812  34.382  1.00  0.00    -0.206 F 
ATOM     77  C   UNL A   1      46.485  26.815  36.309  1.00  0.00     0.060 A 
BRANCH  77  78
ATOM     78  S   UNL A   1      47.858  25.901  37.047  1.00  0.00     0.124 S 
ATOM     79  O   UNL A   1      48.958  26.847  36.887  1.00  0.00    -0.237 OA
ATOM     80  O   UNL A   1      47.397  25.693  38.416  1.00  0.00    -0.237 OA
ATOM     81  O   UNL A   1      47.943  24.695  36.230  1.00  0.00    -0.744 OA
ENDBRANCH  77  78
ENDBRANCH  56  70
BRANCH  57  82
ATOM     82  C   UNL A   1      36.776  33.001  30.738  1.00  0.00     0.058 A 
ATOM     83  C   UNL A   1      35.454  32.669  31.065  1.00  0.00     0.135 A 
ATOM     84  C   UNL A   1      36.979  34.021  29.796  1.00  0.00     0.135 A 
ATOM     85  F   UNL A   1      35.207  31.690  31.949  1.00  0.00    -0.206 F 
ATOM     86  C   UNL A   1      34.372  33.320  30.479  1.00  0.00     0.059 A 
ATOM     87  C   UNL A   1      35.915  34.708  29.219  1.00  0.00     0.059 A 
ATOM     88  F   UNL A   1      38.225  34.385  29.454  1.00  0.00    -0.206 F 
ATOM     89  C   UNL A   1      34.614  34.343  29.560  1.00  0.00     0.060 A 
BRANCH  89  90
ATOM     90  S   UNL A   1      33.208  35.228  28.851  1.00  0.00     0.124 S 
ATOM     91  O   UNL A   1      33.876  36.275  28.088  1.00  0.00    -0.237 OA
ATOM     92  O   UNL A   1      32.551  34.187  28.068  1.00  0.00    -0.237 OA
ATOM     93  O   UNL A   1      32.468  35.677  30.028  1.00  0.00    -0.744 OA
ENDBRANCH  89  90
ENDBRANCH  57  82
BRANCH  69  94
ATOM     94  C   UNL A   1      39.841  33.588  36.972  1.00  0.00     0.058 A 
ATOM     95  C   UNL A   1      40.503  34.820  37.093  1.00  0.00     0.135 A 
ATOM     96  C   UNL A   1      38.908  33.244  37.963  1.00  0.00     0.135 A 
ATOM     97  F   UNL A   1      41.410  35.192  36.176  1.00  0.00    -0.206 F 
ATOM     98  C   UNL A   1      40.263  35.671  38.167  1.00  0.00     0.059 A 
ATOM     99  C   UNL A   1      38.635  34.088  39.033  1.00  0.00     0.059 A 
ATOM    100  F   UNL A   1      38.244  32.080  37.891  1.00  0.00    -0.206 F 
ATOM    101  C   UNL A   1      39.326  35.296  39.134  1.00  0.00     0.060 A 
BRANCH 101 102
ATOM    102  S   UNL A   1      39.002  36.420  40.509  1.00  0.00     0.124 S 
ATOM    103  O   UNL A   1      38.613  37.638  39.808  1.00  0.00    -0.237 OA
ATOM    104  O   UNL A   1      37.934  35.733  41.229  1.00  0.00    -0.237 OA
ATOM    105  O   UNL A   1      40.283  36.478  41.208  1.00  0.00    -0.744 OA
ENDBRANCH 101 102
ENDBRANCH  69  94
ENDBRANCH  43  44
ENDBRANCH  36  38
ENDBRANCH  35  36
ENDBRANCH  34  35
ENDBRANCH  33  34
ENDBRANCH   1  33
TORSDOF 21
ENDMDL
MODEL 3
REMARK VINA RESULT:     -11.3      6.170     12.359
REMARK SMILES O=C(CCN1C(=O)/C(=C/C=C/c2ccco2)SC1=S)Nc1ccc(C(=O)OCCOC(=O)c2ccc(-c3c4nc(c(-c5c(F)cc(S(=O)(=O)[O-])cc5F)c5ccc([nH]5)c(-c5c(F)cc(S(=O)(=O)[O-])cc5F)c5nc(c(-c6c(F)cc(S(=O)(=O)[O-])cc6F)c6ccc3[nH]6)C=C5)C=C4)cc2)c(O)c1
REMARK SMILES IDX 27 1 25 2 26 3 24 4 21 5 22 6 101 7 23 8 99 9 20 10 1 11
REMARK SMILES IDX 2 12 3 14 4 15 5 16 6 17 18 18 7 19 8 20 17 21 19 22 9 23
REMARK SMILES IDX 10 24 11 25 12 26 13 27 16 28 14 29 15 30 100 31 28 33 29 34
REMARK SMILES IDX 30 35 31 36 32 37 33 38 34 39 98 40 35 41 97 42 36 43 37 44
REMARK SMILES IDX 38 45 91 46 39 47 96 48 90 49 92 50 40 51 95 52 89 53 88 54
REMARK SMILES IDX 41 56 75 57 54 58 74 59 55 60 58 61 73 62 93 63 56 64 57 65
REMARK SMILES IDX 72 67 94 68 59 69 42 70 43 71 52 72 44 73 45 74 51 75 53 76
REMARK SMILES IDX 46 77 47 78 48 79 49 80 50 81 76 82 77 83 86 84 78 85 79 86
REMARK SMILES IDX 85 87 87 88 80 89 81 90 82 91 83 92 84 93 60 94 61 95 70 96
REMARK SMILES IDX 62 97 63 98 69 99 71 100 64 101 65 102 66 103 67 104 68 105
REMARK H PARENT 20 13 100 32 92 55 58 66
REMARK Flexibility Score: inf
ROOT
ATOM      1  O   UNL A   1      34.420  32.597  29.464  1.00  0.00    -0.458 OA
ENDROOT
BRANCH   1   2
ATOM      2  C   UNL A   1      34.883  32.202  28.245  1.00  0.00     0.342 C 
ATOM      3  O   UNL A   1      35.852  32.640  27.664  1.00  0.00    -0.246 OA
BRANCH   2   4
ATOM      4  C   UNL A   1      34.089  31.047  27.756  1.00  0.00     0.101 A 
ATOM      5  C   UNL A   1      32.479  29.007  26.713  1.00  0.00     0.044 A 
ATOM      6  C   UNL A   1      31.955  30.283  26.867  1.00  0.00     0.027 A 
ATOM      7  C   UNL A   1      33.790  28.736  27.122  1.00  0.00     0.073 A 
ATOM      8  C   UNL A   1      32.740  31.277  27.449  1.00  0.00     0.022 A 
ATOM      9  C   UNL A   1      34.608  29.763  27.593  1.00  0.00     0.132 A 
BRANCH   5  10
ATOM     10  N   UNL A   1      31.712  27.947  26.216  1.00  0.00    -0.326 N 
ATOM     11  O   UNL A   1      31.433  28.602  24.019  1.00  0.00    -0.275 OA
ATOM     12  C   UNL A   1      31.197  27.831  24.945  1.00  0.00     0.226 C 
ATOM     13  H   UNL A   1      31.521  27.210  26.840  1.00  0.00     0.169 HD
BRANCH  12  14
ATOM     14  C   UNL A   1      30.223  26.677  24.768  1.00  0.00     0.122 C 
BRANCH  14  15
ATOM     15  C   UNL A   1      30.260  25.941  23.421  1.00  0.00     0.137 C 
BRANCH  15  16
ATOM     16  N   UNL A   1      31.205  24.807  23.364  1.00  0.00    -0.292 N 
ATOM     17  C   UNL A   1      31.116  23.796  24.310  1.00  0.00     0.266 C 
ATOM     18  C   UNL A   1      32.235  24.686  22.448  1.00  0.00     0.148 C 
ATOM     19  O   UNL A   1      30.337  23.762  25.251  1.00  0.00    -0.268 OA
ATOM     20  C   UNL A   1      31.997  22.662  23.936  1.00  0.00     0.080 C 
ATOM     21  S   UNL A   1      33.034  23.130  22.653  1.00  0.00    -0.054 SA
ATOM     22  S   UNL A   1      32.726  25.777  21.287  1.00  0.00    -0.052 S 
ATOM     23  C   UNL A   1      31.838  21.445  24.476  1.00  0.00     0.021 C 
BRANCH  23  24
ATOM     24  C   UNL A   1      32.567  20.249  24.107  1.00  0.00     0.005 C 
ATOM     25  C   UNL A   1      32.599  19.140  24.864  1.00  0.00     0.047 C 
BRANCH  25  26
ATOM     26  C   UNL A   1      33.345  17.993  24.473  1.00  0.00     0.126 A 
ATOM     27  C   UNL A   1      33.650  17.497  23.209  1.00  0.00     0.050 A 
ATOM     28  O   UNL A   1      33.938  17.152  25.392  1.00  0.00    -0.465 OA
ATOM     29  C   UNL A   1      34.425  16.326  23.369  1.00  0.00     0.042 A 
ATOM     30  C   UNL A   1      34.563  16.155  24.722  1.00  0.00     0.195 A 
ENDBRANCH  25  26
ENDBRANCH  23  24
ENDBRANCH  15  16
ENDBRANCH  14  15
ENDBRANCH  12  14
ENDBRANCH   5  10
BRANCH   9  31
ATOM     31  O   UNL A   1      35.902  29.422  27.876  1.00  0.00    -0.507 OA
ATOM     32  H   UNL A   1      36.095  28.905  28.633  1.00  0.00     0.293 HD
ENDBRANCH   9  31
ENDBRANCH   2   4
ENDBRANCH   1   2
BRANCH   1  33
ATOM     33  C   UNL A   1      35.432  33.020  30.403  1.00  0.00     0.275 C 
BRANCH  33  34
ATOM     34  C   UNL A   1      35.386  32.182  31.681  1.00  0.00     0.275 C 
BRANCH  34  35
ATOM     35  O   UNL A   1      36.654  31.538  31.899  1.00  0.00    -0.458 OA
BRANCH  35  36
ATOM     36  C   UNL A   1      36.885  30.431  31.155  1.00  0.00     0.338 C 
ATOM     37  O   UNL A   1      36.076  29.570  30.847  1.00  0.00    -0.246 OA
BRANCH  36  38
ATOM     38  C   UNL A   1      38.282  30.410  30.691  1.00  0.00     0.060 A 
ATOM     39  C   UNL A   1      38.556  30.797  29.386  1.00  0.00     0.016 A 
ATOM     40  C   UNL A   1      39.289  29.847  31.469  1.00  0.00     0.016 A 
ATOM     41  C   UNL A   1      39.782  30.487  28.799  1.00  0.00     0.010 A 
ATOM     42  C   UNL A   1      40.566  29.663  30.920  1.00  0.00     0.010 A 
ATOM     43  C   UNL A   1      40.818  29.926  29.558  1.00  0.00    -0.014 A 
BRANCH  43  44
ATOM     44  C   UNL A   1      42.129  29.565  28.928  1.00  0.00     0.031 A 
ATOM     45  C   UNL A   1      42.338  28.182  28.351  1.00  0.00     0.074 A 
ATOM     46  C   UNL A   1      43.136  30.461  28.847  1.00  0.00     0.049 A 
ATOM     47  N   UNL A   1      43.449  27.599  27.975  1.00  0.00    -0.248 NA
ATOM     48  C   UNL A   1      41.145  27.336  28.200  1.00  0.00     0.031 C 
ATOM     49  C   UNL A   1      43.083  31.850  29.308  1.00  0.00     0.029 A 
ATOM     50  N   UNL A   1      44.410  30.338  28.341  1.00  0.00    -0.354 N 
ATOM     51  C   UNL A   1      43.099  26.300  27.618  1.00  0.00     0.074 A 
ATOM     52  C   UNL A   1      41.672  26.180  27.823  1.00  0.00     0.031 C 
ATOM     53  C   UNL A   1      44.242  32.460  29.021  1.00  0.00     0.029 A 
ATOM     54  C   UNL A   1      45.165  31.483  28.456  1.00  0.00     0.049 A 
ATOM     55  H   UNL A   1      44.750  29.508  27.934  1.00  0.00     0.167 HD
ATOM     56  C   UNL A   1      43.892  25.300  27.159  1.00  0.00     0.037 A 
ATOM     57  C   UNL A   1      46.466  31.719  28.191  1.00  0.00     0.037 A 
ATOM     58  C   UNL A   1      45.297  25.449  26.871  1.00  0.00     0.049 A 
ATOM     59  C   UNL A   1      47.331  30.595  27.694  1.00  0.00     0.074 A 
ATOM     60  C   UNL A   1      46.181  24.501  26.382  1.00  0.00     0.029 A 
ATOM     61  N   UNL A   1      46.017  26.625  27.018  1.00  0.00    -0.354 N 
ATOM     62  N   UNL A   1      47.001  29.352  27.439  1.00  0.00    -0.248 NA
ATOM     63  C   UNL A   1      48.752  30.899  27.471  1.00  0.00     0.031 C 
ATOM     64  C   UNL A   1      47.442  25.095  26.265  1.00  0.00     0.029 A 
ATOM     65  C   UNL A   1      47.335  26.425  26.639  1.00  0.00     0.049 A 
ATOM     66  H   UNL A   1      45.646  27.477  27.345  1.00  0.00     0.167 HD
ATOM     67  C   UNL A   1      48.168  28.729  27.013  1.00  0.00     0.074 A 
ATOM     68  C   UNL A   1      49.209  29.736  27.028  1.00  0.00     0.031 C 
ATOM     69  C   UNL A   1      48.360  27.437  26.649  1.00  0.00     0.037 A 
BRANCH  56  70
ATOM     70  C   UNL A   1      43.272  23.940  26.968  1.00  0.00     0.058 A 
ATOM     71  C   UNL A   1      42.943  23.436  25.700  1.00  0.00     0.135 A 
ATOM     72  C   UNL A   1      43.039  23.111  28.078  1.00  0.00     0.135 A 
ATOM     73  F   UNL A   1      43.133  24.188  24.603  1.00  0.00    -0.206 F 
ATOM     74  C   UNL A   1      42.377  22.173  25.543  1.00  0.00     0.059 A 
ATOM     75  C   UNL A   1      42.500  21.836  27.943  1.00  0.00     0.059 A 
ATOM     76  F   UNL A   1      43.339  23.539  29.315  1.00  0.00    -0.206 F 
ATOM     77  C   UNL A   1      42.157  21.381  26.671  1.00  0.00     0.060 A 
BRANCH  77  78
ATOM     78  S   UNL A   1      41.424  19.745  26.454  1.00  0.00     0.124 S 
ATOM     79  O   UNL A   1      42.248  19.196  25.381  1.00  0.00    -0.237 OA
ATOM     80  O   UNL A   1      41.613  19.139  27.769  1.00  0.00    -0.237 OA
ATOM     81  O   UNL A   1      40.040  20.035  26.096  1.00  0.00    -0.744 OA
ENDBRANCH  77  78
ENDBRANCH  56  70
BRANCH  57  82
ATOM     82  C   UNL A   1      47.041  33.069  28.443  1.00  0.00     0.058 A 
ATOM     83  C   UNL A   1      47.606  33.395  29.684  1.00  0.00     0.135 A 
ATOM     84  C   UNL A   1      47.054  34.053  27.441  1.00  0.00     0.135 A 
ATOM     85  F   UNL A   1      47.604  32.496  30.679  1.00  0.00    -0.206 F 
ATOM     86  C   UNL A   1      48.160  34.649  29.926  1.00  0.00     0.059 A 
ATOM     87  C   UNL A   1      47.630  35.302  27.648  1.00  0.00     0.059 A 
ATOM     88  F   UNL A   1      46.535  33.789  26.232  1.00  0.00    -0.206 F 
ATOM     89  C   UNL A   1      48.172  35.594  28.898  1.00  0.00     0.060 A 
BRANCH  89  90
ATOM     90  S   UNL A   1      48.951  37.196  29.198  1.00  0.00     0.124 S 
ATOM     91  O   UNL A   1      48.930  37.264  30.655  1.00  0.00    -0.237 OA
ATOM     92  O   UNL A   1      50.264  37.021  28.586  1.00  0.00    -0.237 OA
ATOM     93  O   UNL A   1      48.067  38.132  28.509  1.00  0.00    -0.744 OA
ENDBRANCH  89  90
ENDBRANCH  57  82
BRANCH  69  94
ATOM     94  C   UNL A   1      49.740  27.046  26.199  1.00  0.00     0.058 A 
ATOM     95  C   UNL A   1      50.707  26.584  27.105  1.00  0.00     0.135 A 
ATOM     96  C   UNL A   1      50.084  27.096  24.839  1.00  0.00     0.135 A 
ATOM     97  F   UNL A   1      50.431  26.525  28.417  1.00  0.00    -0.206 F 
ATOM     98  C   UNL A   1      51.977  26.205  26.681  1.00  0.00     0.059 A 
ATOM     99  C   UNL A   1      51.339  26.700  24.389  1.00  0.00     0.059 A 
ATOM    100  F   UNL A   1      49.193  27.523  23.931  1.00  0.00    -0.206 F 
ATOM    101  C   UNL A   1      52.284  26.266  25.319  1.00  0.00     0.060 A 
BRANCH 101 102
ATOM    102  S   UNL A   1      53.925  25.745  24.776  1.00  0.00     0.124 S 
ATOM    103  O   UNL A   1      53.832  24.295  24.908  1.00  0.00    -0.237 OA
ATOM    104  O   UNL A   1      53.977  26.254  23.408  1.00  0.00    -0.237 OA
ATOM    105  O   UNL A   1      54.821  26.407  25.719  1.00  0.00    -0.744 OA
ENDBRANCH 101 102
ENDBRANCH  69  94
ENDBRANCH  43  44
ENDBRANCH  36  38
ENDBRANCH  35  36
ENDBRANCH  34  35
ENDBRANCH  33  34
ENDBRANCH   1  33
TORSDOF 21
ENDMDL
