MODEL 1
REMARK VINA RESULT:     -10.2      0.000      0.000
REMARK SMILES O=C(COc1csc(C(=O)OCCOC(=O)c2ccc(-c3c4nc(c(-c5c(F)cc(S(=O)(=O)[O-])cc5F)c5ccc([nH]5)c(-c5c(F)cc(S(=O)(=O)[O-])cc5F)c5nc(c(-c6c(F)cc(S(=O)(=O)[O-])cc6F)c6ccc3[nH]6)C=C5)C=C4)cc2)c1)Nc1nccs1
REMARK SMILES IDX 12 1 11 2 9 3 10 4 8 5 5 6 6 7 83 8 7 9 4 10 3 11 2 12 1 13
REMARK SMILES IDX 84 14 85 16 86 17 89 18 87 19 88 20 13 21 14 22 15 23 16 24
REMARK SMILES IDX 17 25 18 26 82 27 19 28 81 29 20 30 21 31 22 32 75 33 23 34
REMARK SMILES IDX 80 35 74 36 76 37 24 38 79 39 73 40 72 41 25 43 59 44 38 45
REMARK SMILES IDX 58 46 39 47 42 48 57 49 77 50 40 51 41 52 56 54 78 55 43 56
REMARK SMILES IDX 26 57 27 58 36 59 28 60 29 61 35 62 37 63 30 64 31 65 32 66
REMARK SMILES IDX 33 67 34 68 60 69 61 70 70 71 62 72 63 73 69 74 71 75 64 76
REMARK SMILES IDX 65 77 66 78 67 79 68 80 44 81 45 82 54 83 46 84 47 85 53 86
REMARK SMILES IDX 55 87 48 88 49 89 50 90 51 91 52 92
REMARK H PARENT 84 15 76 42 42 53
REMARK Flexibility Score: inf
ROOT
ATOM      1  C   UNL A   1      37.888  34.099  33.799  1.00  0.00     0.275 C 
ENDROOT
BRANCH   1   2
ATOM      2  O   UNL A   1      36.944  34.946  33.108  1.00  0.00    -0.458 OA
BRANCH   2   3
ATOM      3  C   UNL A   1      35.662  34.890  33.580  1.00  0.00     0.348 C 
ATOM      4  O   UNL A   1      35.380  34.653  34.748  1.00  0.00    -0.245 OA
BRANCH   3   5
ATOM      5  C   UNL A   1      34.702  35.200  32.531  1.00  0.00     0.116 A 
ATOM      6  C   UNL A   1      33.386  35.262  30.597  1.00  0.00     0.131 A 
ATOM      7  C   UNL A   1      33.074  36.468  31.174  1.00  0.00     0.112 A 
ATOM      8  C   UNL A   1      34.355  34.538  31.363  1.00  0.00     0.074 A 
ATOM      9  S   UNL A   1      33.740  36.613  32.730  1.00  0.00    -0.133 S 
BRANCH   6  10
ATOM     10  O   UNL A   1      32.740  34.767  29.511  1.00  0.00    -0.483 OA
BRANCH  10  11
ATOM     11  C   UNL A   1      33.522  34.741  28.324  1.00  0.00     0.329 C 
BRANCH  11  12
ATOM     12  C   UNL A   1      34.328  33.473  27.990  1.00  0.00     0.264 C 
ATOM     13  O   UNL A   1      35.465  33.576  27.538  1.00  0.00    -0.271 OA
ATOM     14  N   UNL A   1      33.655  32.304  28.272  1.00  0.00    -0.299 N 
ATOM     15  H   UNL A   1      32.817  32.347  28.787  1.00  0.00     0.172 HD
BRANCH  14  16
ATOM     16  C   UNL A   1      34.117  31.086  27.857  1.00  0.00     0.189 A 
ATOM     17  N   UNL A   1      35.271  30.516  28.084  1.00  0.00    -0.229 NA
ATOM     18  S   UNL A   1      33.046  30.241  26.827  1.00  0.00    -0.105 S 
ATOM     19  C   UNL A   1      35.360  29.349  27.352  1.00  0.00     0.125 A 
ATOM     20  C   UNL A   1      34.255  29.046  26.582  1.00  0.00     0.088 A 
ENDBRANCH  14  16
ENDBRANCH  11  12
ENDBRANCH  10  11
ENDBRANCH   6  10
ENDBRANCH   3   5
ENDBRANCH   2   3
ENDBRANCH   1   2
BRANCH   1  21
ATOM     21  C   UNL A   1      37.991  32.700  33.177  1.00  0.00     0.275 C 
BRANCH  21  22
ATOM     22  O   UNL A   1      37.448  32.648  31.844  1.00  0.00    -0.458 OA
BRANCH  22  23
ATOM     23  C   UNL A   1      37.115  31.408  31.417  1.00  0.00     0.338 C 
ATOM     24  O   UNL A   1      36.002  30.906  31.427  1.00  0.00    -0.246 OA
BRANCH  23  25
ATOM     25  C   UNL A   1      38.273  30.751  30.792  1.00  0.00     0.060 A 
ATOM     26  C   UNL A   1      39.162  30.094  31.639  1.00  0.00     0.016 A 
ATOM     27  C   UNL A   1      38.572  30.891  29.440  1.00  0.00     0.016 A 
ATOM     28  C   UNL A   1      40.382  29.627  31.168  1.00  0.00     0.010 A 
ATOM     29  C   UNL A   1      39.780  30.370  28.950  1.00  0.00     0.010 A 
ATOM     30  C   UNL A   1      40.708  29.758  29.815  1.00  0.00    -0.014 A 
BRANCH  30  31
ATOM     31  C   UNL A   1      42.036  29.295  29.329  1.00  0.00     0.031 A 
ATOM     32  C   UNL A   1      43.198  30.251  29.295  1.00  0.00     0.074 A 
ATOM     33  C   UNL A   1      42.208  28.014  28.946  1.00  0.00     0.049 A 
ATOM     34  N   UNL A   1      44.390  30.089  28.781  1.00  0.00    -0.248 NA
ATOM     35  C   UNL A   1      42.987  31.569  29.914  1.00  0.00     0.031 C 
ATOM     36  C   UNL A   1      41.181  26.971  28.991  1.00  0.00     0.029 A 
ATOM     37  N   UNL A   1      43.311  27.367  28.441  1.00  0.00    -0.354 N 
ATOM     38  C   UNL A   1      45.058  31.293  28.978  1.00  0.00     0.074 A 
ATOM     39  C   UNL A   1      44.131  32.183  29.643  1.00  0.00     0.031 C 
ATOM     40  C   UNL A   1      41.701  25.819  28.544  1.00  0.00     0.029 A 
ATOM     41  C   UNL A   1      43.074  26.054  28.108  1.00  0.00     0.049 A 
ATOM     42  H   UNL A   1      44.186  27.803  28.327  1.00  0.00     0.167 HD
ATOM     43  C   UNL A   1      46.326  31.622  28.635  1.00  0.00     0.037 A 
ATOM     44  C   UNL A   1      43.856  25.152  27.483  1.00  0.00     0.037 A 
ATOM     45  C   UNL A   1      47.249  30.714  28.001  1.00  0.00     0.049 A 
ATOM     46  C   UNL A   1      45.241  25.558  27.056  1.00  0.00     0.074 A 
ATOM     47  C   UNL A   1      48.560  30.945  27.622  1.00  0.00     0.029 A 
ATOM     48  N   UNL A   1      46.960  29.400  27.658  1.00  0.00    -0.354 N 
ATOM     49  N   UNL A   1      45.847  26.710  27.220  1.00  0.00    -0.248 NA
ATOM     50  C   UNL A   1      46.043  24.549  26.354  1.00  0.00     0.031 C 
ATOM     51  C   UNL A   1      49.047  29.788  27.003  1.00  0.00     0.029 A 
ATOM     52  C   UNL A   1      48.061  28.815  27.053  1.00  0.00     0.049 A 
ATOM     53  H   UNL A   1      46.100  28.949  27.821  1.00  0.00     0.167 HD
ATOM     54  C   UNL A   1      47.114  26.553  26.668  1.00  0.00     0.074 A 
ATOM     55  C   UNL A   1      47.188  25.194  26.173  1.00  0.00     0.031 C 
ATOM     56  C   UNL A   1      48.125  27.453  26.580  1.00  0.00     0.037 A 
BRANCH  43  57
ATOM     57  C   UNL A   1      46.784  33.033  28.899  1.00  0.00     0.058 A 
ATOM     58  C   UNL A   1      47.428  33.400  30.092  1.00  0.00     0.135 A 
ATOM     59  C   UNL A   1      46.603  34.028  27.923  1.00  0.00     0.135 A 
ATOM     60  F   UNL A   1      47.614  32.495  31.066  1.00  0.00    -0.206 F 
ATOM     61  C   UNL A   1      47.849  34.707  30.319  1.00  0.00     0.059 A 
ATOM     62  C   UNL A   1      47.043  35.334  28.117  1.00  0.00     0.059 A 
ATOM     63  F   UNL A   1      45.994  33.735  26.763  1.00  0.00    -0.206 F 
ATOM     64  C   UNL A   1      47.652  35.668  29.325  1.00  0.00     0.060 A 
BRANCH  64  65
ATOM     65  S   UNL A   1      48.206  37.359  29.634  1.00  0.00     0.124 S 
ATOM     66  O   UNL A   1      47.297  37.774  30.697  1.00  0.00    -0.237 OA
ATOM     67  O   UNL A   1      49.597  37.164  30.030  1.00  0.00    -0.237 OA
ATOM     68  O   UNL A   1      48.010  38.022  28.349  1.00  0.00    -0.744 OA
ENDBRANCH  64  65
ENDBRANCH  43  57
BRANCH  44  69
ATOM     69  C   UNL A   1      43.333  23.788  27.193  1.00  0.00     0.058 A 
ATOM     70  C   UNL A   1      42.911  23.431  25.904  1.00  0.00     0.135 A 
ATOM     71  C   UNL A   1      43.255  22.810  28.199  1.00  0.00     0.135 A 
ATOM     72  F   UNL A   1      42.955  24.331  24.910  1.00  0.00    -0.206 F 
ATOM     73  C   UNL A   1      42.417  22.160  25.625  1.00  0.00     0.059 A 
ATOM     74  C   UNL A   1      42.796  21.523  27.937  1.00  0.00     0.059 A 
ATOM     75  F   UNL A   1      43.656  23.094  29.448  1.00  0.00    -0.206 F 
ATOM     76  C   UNL A   1      42.368  21.211  26.648  1.00  0.00     0.060 A 
BRANCH  76  77
ATOM     77  S   UNL A   1      41.768  19.552  26.262  1.00  0.00     0.124 S 
ATOM     78  O   UNL A   1      42.491  19.257  25.032  1.00  0.00    -0.237 OA
ATOM     79  O   UNL A   1      42.178  18.796  27.442  1.00  0.00    -0.237 OA
ATOM     80  O   UNL A   1      40.327  19.740  26.119  1.00  0.00    -0.744 OA
ENDBRANCH  76  77
ENDBRANCH  44  69
BRANCH  56  81
ATOM     81  C   UNL A   1      49.421  26.987  25.976  1.00  0.00     0.058 A 
ATOM     82  C   UNL A   1      49.711  27.158  24.613  1.00  0.00     0.135 A 
ATOM     83  C   UNL A   1      50.412  26.413  26.790  1.00  0.00     0.135 A 
ATOM     84  F   UNL A   1      48.795  27.691  23.790  1.00  0.00    -0.206 F 
ATOM     85  C   UNL A   1      50.931  26.759  24.075  1.00  0.00     0.059 A 
ATOM     86  C   UNL A   1      51.649  26.036  26.280  1.00  0.00     0.059 A 
ATOM     87  F   UNL A   1      50.190  26.234  28.102  1.00  0.00    -0.206 F 
ATOM     88  C   UNL A   1      51.896  26.205  24.918  1.00  0.00     0.060 A 
BRANCH  88  89
ATOM     89  S   UNL A   1      53.490  25.733  24.214  1.00  0.00     0.124 S 
ATOM     90  O   UNL A   1      53.263  25.957  22.791  1.00  0.00    -0.237 OA
ATOM     91  O   UNL A   1      54.406  26.665  24.866  1.00  0.00    -0.237 OA
ATOM     92  O   UNL A   1      53.639  24.336  24.614  1.00  0.00    -0.744 OA
ENDBRANCH  88  89
ENDBRANCH  56  81
ENDBRANCH  30  31
ENDBRANCH  23  25
ENDBRANCH  22  23
ENDBRANCH  21  22
ENDBRANCH   1  21
TORSDOF 18
ENDMDL
MODEL 2
REMARK VINA RESULT:     -10.1      3.034      4.773
REMARK SMILES O=C(COc1csc(C(=O)OCCOC(=O)c2ccc(-c3c4nc(c(-c5c(F)cc(S(=O)(=O)[O-])cc5F)c5ccc([nH]5)c(-c5c(F)cc(S(=O)(=O)[O-])cc5F)c5nc(c(-c6c(F)cc(S(=O)(=O)[O-])cc6F)c6ccc3[nH]6)C=C5)C=C4)cc2)c1)Nc1nccs1
REMARK SMILES IDX 12 1 11 2 9 3 10 4 8 5 5 6 6 7 83 8 7 9 4 10 3 11 2 12 1 13
REMARK SMILES IDX 84 14 85 16 86 17 89 18 87 19 88 20 13 21 14 22 15 23 16 24
REMARK SMILES IDX 17 25 18 26 82 27 19 28 81 29 20 30 21 31 22 32 75 33 23 34
REMARK SMILES IDX 80 35 74 36 76 37 24 38 79 39 73 40 72 41 25 43 59 44 38 45
REMARK SMILES IDX 58 46 39 47 42 48 57 49 77 50 40 51 41 52 56 54 78 55 43 56
REMARK SMILES IDX 26 57 27 58 36 59 28 60 29 61 35 62 37 63 30 64 31 65 32 66
REMARK SMILES IDX 33 67 34 68 60 69 61 70 70 71 62 72 63 73 69 74 71 75 64 76
REMARK SMILES IDX 65 77 66 78 67 79 68 80 44 81 45 82 54 83 46 84 47 85 53 86
REMARK SMILES IDX 55 87 48 88 49 89 50 90 51 91 52 92
REMARK H PARENT 84 15 76 42 42 53
REMARK Flexibility Score: inf
ROOT
ATOM      1  C   UNL A   1      33.978  32.090  27.811  1.00  0.00     0.275 C 
ENDROOT
BRANCH   1   2
ATOM      2  O   UNL A   1      33.562  30.788  27.348  1.00  0.00    -0.458 OA
BRANCH   2   3
ATOM      3  C   UNL A   1      32.280  30.722  26.877  1.00  0.00     0.348 C 
ATOM      4  O   UNL A   1      31.555  31.701  26.746  1.00  0.00    -0.245 OA
BRANCH   3   5
ATOM      5  C   UNL A   1      31.923  29.359  26.510  1.00  0.00     0.116 A 
ATOM      6  C   UNL A   1      31.430  27.073  26.456  1.00  0.00     0.131 A 
ATOM      7  C   UNL A   1      31.516  27.361  25.117  1.00  0.00     0.112 A 
ATOM      8  C   UNL A   1      31.700  28.221  27.269  1.00  0.00     0.074 A 
ATOM      9  S   UNL A   1      31.666  29.031  24.841  1.00  0.00    -0.133 S 
BRANCH   6  10
ATOM     10  O   UNL A   1      31.000  25.878  26.934  1.00  0.00    -0.483 OA
BRANCH  10  11
ATOM     11  C   UNL A   1      30.468  25.007  25.944  1.00  0.00     0.329 C 
BRANCH  11  12
ATOM     12  C   UNL A   1      30.945  23.545  25.904  1.00  0.00     0.264 C 
ATOM     13  O   UNL A   1      30.533  22.746  26.740  1.00  0.00    -0.271 OA
ATOM     14  N   UNL A   1      31.809  23.277  24.864  1.00  0.00    -0.299 N 
ATOM     15  H   UNL A   1      31.935  23.954  24.160  1.00  0.00     0.172 HD
BRANCH  14  16
ATOM     16  C   UNL A   1      32.498  22.099  24.781  1.00  0.00     0.189 A 
ATOM     17  N   UNL A   1      32.094  20.931  24.358  1.00  0.00    -0.229 NA
ATOM     18  S   UNL A   1      34.089  22.169  25.403  1.00  0.00    -0.105 S 
ATOM     19  C   UNL A   1      33.080  19.992  24.586  1.00  0.00     0.125 A 
ATOM     20  C   UNL A   1      34.231  20.472  25.175  1.00  0.00     0.088 A 
ENDBRANCH  14  16
ENDBRANCH  11  12
ENDBRANCH  10  11
ENDBRANCH   6  10
ENDBRANCH   3   5
ENDBRANCH   2   3
ENDBRANCH   1   2
BRANCH   1  21
ATOM     21  C   UNL A   1      34.838  32.019  29.079  1.00  0.00     0.275 C 
BRANCH  21  22
ATOM     22  O   UNL A   1      35.670  30.844  29.116  1.00  0.00    -0.458 OA
BRANCH  22  23
ATOM     23  C   UNL A   1      36.355  30.671  30.270  1.00  0.00     0.338 C 
ATOM     24  O   UNL A   1      35.883  30.563  31.390  1.00  0.00    -0.246 OA
BRANCH  23  25
ATOM     25  C   UNL A   1      37.788  30.489  29.995  1.00  0.00     0.060 A 
ATOM     26  C   UNL A   1      38.160  30.315  28.665  1.00  0.00     0.016 A 
ATOM     27  C   UNL A   1      38.731  30.344  31.009  1.00  0.00     0.016 A 
ATOM     28  C   UNL A   1      39.453  29.932  28.331  1.00  0.00     0.010 A 
ATOM     29  C   UNL A   1      40.052  30.012  30.670  1.00  0.00     0.010 A 
ATOM     30  C   UNL A   1      40.419  29.776  29.330  1.00  0.00    -0.014 A 
BRANCH  30  31
ATOM     31  C   UNL A   1      41.789  29.322  28.967  1.00  0.00     0.031 A 
ATOM     32  C   UNL A   1      42.933  30.300  28.987  1.00  0.00     0.074 A 
ATOM     33  C   UNL A   1      42.012  28.032  28.649  1.00  0.00     0.049 A 
ATOM     34  N   UNL A   1      44.164  30.143  28.574  1.00  0.00    -0.248 NA
ATOM     35  C   UNL A   1      42.651  31.636  29.536  1.00  0.00     0.031 C 
ATOM     36  C   UNL A   1      41.004  26.971  28.654  1.00  0.00     0.029 A 
ATOM     37  N   UNL A   1      43.162  27.390  28.257  1.00  0.00    -0.354 N 
ATOM     38  C   UNL A   1      44.793  31.368  28.775  1.00  0.00     0.074 A 
ATOM     39  C   UNL A   1      43.801  32.263  29.331  1.00  0.00     0.031 C 
ATOM     40  C   UNL A   1      41.577  25.813  28.293  1.00  0.00     0.029 A 
ATOM     41  C   UNL A   1      42.976  26.060  27.958  1.00  0.00     0.049 A 
ATOM     42  H   UNL A   1      44.037  27.839  28.195  1.00  0.00     0.167 HD
ATOM     43  C   UNL A   1      46.079  31.709  28.520  1.00  0.00     0.037 A 
ATOM     44  C   UNL A   1      43.820  25.151  27.431  1.00  0.00     0.037 A 
ATOM     45  C   UNL A   1      47.064  30.797  27.996  1.00  0.00     0.049 A 
ATOM     46  C   UNL A   1      45.227  25.570  27.098  1.00  0.00     0.074 A 
ATOM     47  C   UNL A   1      48.397  31.040  27.712  1.00  0.00     0.029 A 
ATOM     48  N   UNL A   1      46.827  29.466  27.683  1.00  0.00    -0.354 N 
ATOM     49  N   UNL A   1      45.799  26.739  27.264  1.00  0.00    -0.248 NA
ATOM     50  C   UNL A   1      46.099  24.551  26.500  1.00  0.00     0.031 C 
ATOM     51  C   UNL A   1      48.951  29.872  27.178  1.00  0.00     0.029 A 
ATOM     52  C   UNL A   1      47.982  28.881  27.189  1.00  0.00     0.049 A 
ATOM     53  H   UNL A   1      45.964  29.004  27.796  1.00  0.00     0.167 HD
ATOM     54  C   UNL A   1      47.108  26.587  26.819  1.00  0.00     0.074 A 
ATOM     55  C   UNL A   1      47.244  25.212  26.385  1.00  0.00     0.031 C 
ATOM     56  C   UNL A   1      48.106  27.504  26.775  1.00  0.00     0.037 A 
BRANCH  43  57
ATOM     57  C   UNL A   1      46.489  33.138  28.765  1.00  0.00     0.058 A 
ATOM     58  C   UNL A   1      47.023  33.564  29.991  1.00  0.00     0.135 A 
ATOM     59  C   UNL A   1      46.377  34.090  27.737  1.00  0.00     0.135 A 
ATOM     60  F   UNL A   1      47.140  32.702  31.013  1.00  0.00    -0.206 F 
ATOM     61  C   UNL A   1      47.403  34.887  30.200  1.00  0.00     0.059 A 
ATOM     62  C   UNL A   1      46.778  35.412  27.914  1.00  0.00     0.059 A 
ATOM     63  F   UNL A   1      45.874  33.740  26.542  1.00  0.00    -0.206 F 
ATOM     64  C   UNL A   1      47.276  35.804  29.154  1.00  0.00     0.060 A 
BRANCH  64  65
ATOM     65  S   UNL A   1      47.775  37.516  29.439  1.00  0.00     0.124 S 
ATOM     66  O   UNL A   1      49.126  37.343  29.964  1.00  0.00    -0.237 OA
ATOM     67  O   UNL A   1      47.684  38.094  28.103  1.00  0.00    -0.237 OA
ATOM     68  O   UNL A   1      46.789  38.004  30.398  1.00  0.00    -0.744 OA
ENDBRANCH  64  65
ENDBRANCH  43  57
BRANCH  44  69
ATOM     69  C   UNL A   1      43.346  23.768  27.155  1.00  0.00     0.058 A 
ATOM     70  C   UNL A   1      43.187  22.834  28.189  1.00  0.00     0.135 A 
ATOM     71  C   UNL A   1      43.030  23.354  25.849  1.00  0.00     0.135 A 
ATOM     72  F   UNL A   1      43.485  23.174  29.452  1.00  0.00    -0.206 F 
ATOM     73  C   UNL A   1      42.747  21.537  27.939  1.00  0.00     0.059 A 
ATOM     74  C   UNL A   1      42.558  22.074  25.579  1.00  0.00     0.059 A 
ATOM     75  F   UNL A   1      43.153  24.210  24.823  1.00  0.00    -0.206 F 
ATOM     76  C   UNL A   1      42.431  21.167  26.630  1.00  0.00     0.060 A 
BRANCH  76  77
ATOM     77  S   UNL A   1      41.818  19.497  26.326  1.00  0.00     0.124 S 
ATOM     78  O   UNL A   1      40.384  19.726  26.209  1.00  0.00    -0.237 OA
ATOM     79  O   UNL A   1      42.511  19.136  25.093  1.00  0.00    -0.237 OA
ATOM     80  O   UNL A   1      42.245  18.760  27.513  1.00  0.00    -0.744 OA
ENDBRANCH  76  77
ENDBRANCH  44  69
BRANCH  56  81
ATOM     81  C   UNL A   1      49.454  27.042  26.293  1.00  0.00     0.058 A 
ATOM     82  C   UNL A   1      50.394  26.461  27.159  1.00  0.00     0.135 A 
ATOM     83  C   UNL A   1      49.784  27.128  24.930  1.00  0.00     0.135 A 
ATOM     84  F   UNL A   1      50.133  26.363  28.472  1.00  0.00    -0.206 F 
ATOM     85  C   UNL A   1      51.621  25.998  26.693  1.00  0.00     0.059 A 
ATOM     86  C   UNL A   1      50.991  26.645  24.438  1.00  0.00     0.059 A 
ATOM     87  F   UNL A   1      48.917  27.668  24.058  1.00  0.00    -0.206 F 
ATOM     88  C   UNL A   1      51.908  26.090  25.330  1.00  0.00     0.060 A 
BRANCH  88  89
ATOM     89  S   UNL A   1      53.485  25.447  24.733  1.00  0.00     0.124 S 
ATOM     90  O   UNL A   1      54.437  26.198  25.543  1.00  0.00    -0.237 OA
ATOM     91  O   UNL A   1      53.377  24.023  25.038  1.00  0.00    -0.237 OA
ATOM     92  O   UNL A   1      53.472  25.779  23.311  1.00  0.00    -0.744 OA
ENDBRANCH  88  89
ENDBRANCH  56  81
ENDBRANCH  30  31
ENDBRANCH  23  25
ENDBRANCH  22  23
ENDBRANCH  21  22
ENDBRANCH   1  21
TORSDOF 18
ENDMDL
MODEL 3
REMARK VINA RESULT:     -10.1      4.518      6.958
REMARK SMILES O=C(COc1csc(C(=O)OCCOC(=O)c2ccc(-c3c4nc(c(-c5c(F)cc(S(=O)(=O)[O-])cc5F)c5ccc([nH]5)c(-c5c(F)cc(S(=O)(=O)[O-])cc5F)c5nc(c(-c6c(F)cc(S(=O)(=O)[O-])cc6F)c6ccc3[nH]6)C=C5)C=C4)cc2)c1)Nc1nccs1
REMARK SMILES IDX 12 1 11 2 9 3 10 4 8 5 5 6 6 7 83 8 7 9 4 10 3 11 2 12 1 13
REMARK SMILES IDX 84 14 85 16 86 17 89 18 87 19 88 20 13 21 14 22 15 23 16 24
REMARK SMILES IDX 17 25 18 26 82 27 19 28 81 29 20 30 21 31 22 32 75 33 23 34
REMARK SMILES IDX 80 35 74 36 76 37 24 38 79 39 73 40 72 41 25 43 59 44 38 45
REMARK SMILES IDX 58 46 39 47 42 48 57 49 77 50 40 51 41 52 56 54 78 55 43 56
REMARK SMILES IDX 26 57 27 58 36 59 28 60 29 61 35 62 37 63 30 64 31 65 32 66
REMARK SMILES IDX 33 67 34 68 60 69 61 70 70 71 62 72 63 73 69 74 71 75 64 76
REMARK SMILES IDX 65 77 66 78 67 79 68 80 44 81 45 82 54 83 46 84 47 85 53 86
REMARK SMILES IDX 55 87 48 88 49 89 50 90 51 91 52 92
REMARK H PARENT 84 15 76 42 42 53
REMARK Flexibility Score: inf
ROOT
ATOM      1  C   UNL A   1      31.785  28.180  26.388  1.00  0.00     0.275 C 
ENDROOT
BRANCH   1   2
ATOM      2  O   UNL A   1      31.120  27.925  25.132  1.00  0.00    -0.458 OA
BRANCH   2   3
ATOM      3  C   UNL A   1      31.624  26.878  24.411  1.00  0.00     0.348 C 
ATOM      4  O   UNL A   1      32.076  26.992  23.278  1.00  0.00    -0.245 OA
BRANCH   3   5
ATOM      5  C   UNL A   1      31.598  25.646  25.184  1.00  0.00     0.116 A 
ATOM      6  C   UNL A   1      32.079  23.622  26.256  1.00  0.00     0.131 A 
ATOM      7  C   UNL A   1      30.715  23.688  26.404  1.00  0.00     0.112 A 
ATOM      8  C   UNL A   1      32.591  24.738  25.520  1.00  0.00     0.074 A 
ATOM      9  S   UNL A   1      30.097  25.184  25.889  1.00  0.00    -0.133 S 
BRANCH   6  10
ATOM     10  O   UNL A   1      32.849  22.685  26.864  1.00  0.00    -0.483 OA
BRANCH  10  11
ATOM     11  C   UNL A   1      33.595  21.869  25.969  1.00  0.00     0.329 C 
BRANCH  11  12
ATOM     12  C   UNL A   1      32.977  20.552  25.469  1.00  0.00     0.264 C 
ATOM     13  O   UNL A   1      31.824  20.542  25.049  1.00  0.00    -0.271 OA
ATOM     14  N   UNL A   1      33.841  19.481  25.533  1.00  0.00    -0.299 N 
ATOM     15  H   UNL A   1      34.792  19.644  25.730  1.00  0.00     0.172 HD
BRANCH  14  16
ATOM     16  C   UNL A   1      33.417  18.196  25.330  1.00  0.00     0.189 A 
ATOM     17  N   UNL A   1      32.501  17.516  25.967  1.00  0.00    -0.229 NA
ATOM     18  S   UNL A   1      34.280  17.353  24.120  1.00  0.00    -0.105 S 
ATOM     19  C   UNL A   1      32.503  16.210  25.520  1.00  0.00     0.125 A 
ATOM     20  C   UNL A   1      33.425  15.922  24.534  1.00  0.00     0.088 A 
ENDBRANCH  14  16
ENDBRANCH  11  12
ENDBRANCH  10  11
ENDBRANCH   6  10
ENDBRANCH   3   5
ENDBRANCH   2   3
ENDBRANCH   1   2
BRANCH   1  21
ATOM     21  C   UNL A   1      33.118  28.920  26.211  1.00  0.00     0.275 C 
BRANCH  21  22
ATOM     22  O   UNL A   1      33.958  28.828  27.377  1.00  0.00    -0.458 OA
BRANCH  22  23
ATOM     23  C   UNL A   1      34.403  30.016  27.848  1.00  0.00     0.338 C 
ATOM     24  O   UNL A   1      33.739  31.024  28.032  1.00  0.00    -0.246 OA
BRANCH  23  25
ATOM     25  C   UNL A   1      35.812  29.912  28.256  1.00  0.00     0.060 A 
ATOM     26  C   UNL A   1      36.772  30.079  27.262  1.00  0.00     0.016 A 
ATOM     27  C   UNL A   1      36.193  29.518  29.535  1.00  0.00     0.016 A 
ATOM     28  C   UNL A   1      38.110  29.796  27.507  1.00  0.00     0.010 A 
ATOM     29  C   UNL A   1      37.551  29.285  29.802  1.00  0.00     0.010 A 
ATOM     30  C   UNL A   1      38.519  29.395  28.782  1.00  0.00    -0.014 A 
BRANCH  30  31
ATOM     31  C   UNL A   1      39.946  29.050  29.025  1.00  0.00     0.031 A 
ATOM     32  C   UNL A   1      40.878  30.079  29.606  1.00  0.00     0.074 A 
ATOM     33  C   UNL A   1      40.398  27.810  28.752  1.00  0.00     0.049 A 
ATOM     34  N   UNL A   1      42.176  30.027  29.763  1.00  0.00    -0.248 NA
ATOM     35  C   UNL A   1      40.269  31.338  30.064  1.00  0.00     0.031 C 
ATOM     36  C   UNL A   1      39.584  26.704  28.246  1.00  0.00     0.029 A 
ATOM     37  N   UNL A   1      41.657  27.269  28.860  1.00  0.00    -0.354 N 
ATOM     38  C   UNL A   1      42.545  31.256  30.299  1.00  0.00     0.074 A 
ATOM     39  C   UNL A   1      41.335  32.040  30.424  1.00  0.00     0.031 C 
ATOM     40  C   UNL A   1      40.358  25.618  28.097  1.00  0.00     0.029 A 
ATOM     41  C   UNL A   1      41.737  25.968  28.422  1.00  0.00     0.049 A 
ATOM     42  H   UNL A   1      42.429  27.767  29.215  1.00  0.00     0.167 HD
ATOM     43  C   UNL A   1      43.780  31.687  30.654  1.00  0.00     0.037 A 
ATOM     44  C   UNL A   1      42.802  25.160  28.258  1.00  0.00     0.037 A 
ATOM     45  C   UNL A   1      44.971  30.882  30.553  1.00  0.00     0.049 A 
ATOM     46  C   UNL A   1      44.172  25.681  28.601  1.00  0.00     0.074 A 
ATOM     47  C   UNL A   1      46.269  31.220  30.896  1.00  0.00     0.029 A 
ATOM     48  N   UNL A   1      45.011  29.578  30.080  1.00  0.00    -0.354 N 
ATOM     49  N   UNL A   1      44.510  26.855  29.077  1.00  0.00    -0.248 NA
ATOM     50  C   UNL A   1      45.304  24.772  28.378  1.00  0.00     0.031 C 
ATOM     51  C   UNL A   1      47.101  30.140  30.581  1.00  0.00     0.029 A 
ATOM     52  C   UNL A   1      46.313  29.105  30.103  1.00  0.00     0.049 A 
ATOM     53  H   UNL A   1      44.229  29.063  29.775  1.00  0.00     0.167 HD
ATOM     54  C   UNL A   1      45.891  26.816  29.239  1.00  0.00     0.074 A 
ATOM     55  C   UNL A   1      46.323  25.499  28.818  1.00  0.00     0.031 C 
ATOM     56  C   UNL A   1      46.726  27.783  29.695  1.00  0.00     0.037 A 
BRANCH  43  57
ATOM     57  C   UNL A   1      43.916  33.104  31.146  1.00  0.00     0.058 A 
ATOM     58  C   UNL A   1      43.898  33.426  32.513  1.00  0.00     0.135 A 
ATOM     59  C   UNL A   1      44.104  34.154  30.231  1.00  0.00     0.135 A 
ATOM     60  F   UNL A   1      43.708  32.466  33.431  1.00  0.00    -0.206 F 
ATOM     61  C   UNL A   1      44.031  34.741  32.952  1.00  0.00     0.059 A 
ATOM     62  C   UNL A   1      44.268  35.472  30.650  1.00  0.00     0.059 A 
ATOM     63  F   UNL A   1      44.130  33.906  28.912  1.00  0.00    -0.206 F 
ATOM     64  C   UNL A   1      44.215  35.757  32.012  1.00  0.00     0.060 A 
BRANCH  64  65
ATOM     65  S   UNL A   1      44.388  37.456  32.598  1.00  0.00     0.124 S 
ATOM     66  O   UNL A   1      43.348  37.519  33.621  1.00  0.00    -0.237 OA
ATOM     67  O   UNL A   1      45.761  37.479  33.090  1.00  0.00    -0.237 OA
ATOM     68  O   UNL A   1      44.139  38.256  31.403  1.00  0.00    -0.744 OA
ENDBRANCH  64  65
ENDBRANCH  43  57
BRANCH  44  69
ATOM     69  C   UNL A   1      42.618  23.787  27.712  1.00  0.00     0.058 A 
ATOM     70  C   UNL A   1      42.545  22.672  28.559  1.00  0.00     0.135 A 
ATOM     71  C   UNL A   1      42.500  23.564  26.329  1.00  0.00     0.135 A 
ATOM     72  F   UNL A   1      42.662  22.828  29.886  1.00  0.00    -0.206 F 
ATOM     73  C   UNL A   1      42.376  21.384  28.057  1.00  0.00     0.059 A 
ATOM     74  C   UNL A   1      42.299  22.291  25.806  1.00  0.00     0.059 A 
ATOM     75  F   UNL A   1      42.552  24.597  25.474  1.00  0.00    -0.206 F 
ATOM     76  C   UNL A   1      42.250  21.205  26.678  1.00  0.00     0.060 A 
BRANCH  76  77
ATOM     77  S   UNL A   1      41.986  19.536  26.042  1.00  0.00     0.124 S 
ATOM     78  O   UNL A   1      42.414  18.720  27.171  1.00  0.00    -0.237 OA
ATOM     79  O   UNL A   1      40.553  19.538  25.761  1.00  0.00    -0.237 OA
ATOM     80  O   UNL A   1      42.847  19.485  24.863  1.00  0.00    -0.744 OA
ENDBRANCH  76  77
ENDBRANCH  44  69
BRANCH  56  81
ATOM     81  C   UNL A   1      48.185  27.440  29.820  1.00  0.00     0.058 A 
ATOM     82  C   UNL A   1      49.119  27.795  28.835  1.00  0.00     0.135 A 
ATOM     83  C   UNL A   1      48.662  26.797  30.975  1.00  0.00     0.135 A 
ATOM     84  F   UNL A   1      48.715  28.401  27.708  1.00  0.00    -0.206 F 
ATOM     85  C   UNL A   1      50.473  27.509  28.982  1.00  0.00     0.059 A 
ATOM     86  C   UNL A   1      50.014  26.529  31.157  1.00  0.00     0.059 A 
ATOM     87  F   UNL A   1      47.811  26.443  31.952  1.00  0.00    -0.206 F 
ATOM     88  C   UNL A   1      50.911  26.880  30.150  1.00  0.00     0.060 A 
BRANCH  88  89
ATOM     89  S   UNL A   1      52.676  26.555  30.346  1.00  0.00     0.124 S 
ATOM     90  O   UNL A   1      52.672  25.505  31.359  1.00  0.00    -0.237 OA
ATOM     91  O   UNL A   1      53.068  26.140  29.003  1.00  0.00    -0.237 OA
ATOM     92  O   UNL A   1      53.213  27.842  30.779  1.00  0.00    -0.744 OA
ENDBRANCH  88  89
ENDBRANCH  56  81
ENDBRANCH  30  31
ENDBRANCH  23  25
ENDBRANCH  22  23
ENDBRANCH  21  22
ENDBRANCH   1  21
TORSDOF 18
ENDMDL
