MODEL 1
REMARK VINA RESULT:     -12.6      0.000      0.000
REMARK SMILES Cc1ccc(C(=O)OCCOC(=O)c2ccc(-c3c4nc(c(-c5c(F)cc(S(=O)(=O)[O-])cc5F)c5ccc([nH]5)c(-c5c(F)cc(S(=O)(=O)[O-])cc5F)c5nc(c(-c6c(F)cc(S(=O)(=O)[O-])cc6F)c6ccc3[nH]6)C=C5)C=C4)cc2)cc1S(=O)(=O)N(C)[C@H]1CCSC1
REMARK SMILES IDX 9 1 8 2 6 3 7 4 5 5 1 6 2 7 3 8 81 9 4 10 80 11 82 12 83 13
REMARK SMILES IDX 84 14 85 15 86 16 87 17 88 18 91 19 89 20 90 21 10 22 11 23
REMARK SMILES IDX 12 24 13 25 14 26 15 27 79 28 16 29 78 30 17 31 18 32 19 33
REMARK SMILES IDX 72 34 20 35 77 36 71 37 73 38 21 39 76 40 70 41 69 42 22 44
REMARK SMILES IDX 56 45 35 46 55 47 36 48 39 49 54 50 74 51 37 52 38 53 53 55
REMARK SMILES IDX 75 56 40 57 23 58 24 59 33 60 25 61 26 62 32 63 34 64 27 65
REMARK SMILES IDX 28 66 29 67 30 68 31 69 57 70 58 71 67 72 59 73 60 74 66 75
REMARK SMILES IDX 68 76 61 77 62 78 63 79 64 80 65 81 41 82 42 83 51 84 43 85
REMARK SMILES IDX 44 86 50 87 52 88 45 89 46 90 47 91 48 92 49 93
REMARK H PARENT 73 43 39 54
REMARK Flexibility Score: inf
ROOT
ATOM      1  C   UNL A   1      32.963  29.941  27.192  1.00  0.00     0.275 C 
ENDROOT
BRANCH   1   2
ATOM      2  O   UNL A   1      31.982  29.281  26.376  1.00  0.00    -0.458 OA
BRANCH   2   3
ATOM      3  C   UNL A   1      31.591  28.091  26.881  1.00  0.00     0.338 C 
ATOM      4  O   UNL A   1      31.412  27.844  28.067  1.00  0.00    -0.246 OA
BRANCH   3   5
ATOM      5  C   UNL A   1      31.520  27.030  25.861  1.00  0.00     0.061 A 
ATOM      6  C   UNL A   1      30.553  23.850  23.112  1.00  0.00     0.046 C 
ATOM      7  C   UNL A   1      31.001  24.840  24.141  1.00  0.00    -0.031 A 
ATOM      8  C   UNL A   1      31.078  26.168  23.661  1.00  0.00     0.006 A 
ATOM      9  C   UNL A   1      31.277  24.627  25.504  1.00  0.00     0.086 A 
ATOM     10  C   UNL A   1      31.396  27.242  24.497  1.00  0.00     0.016 A 
ATOM     11  C   UNL A   1      31.480  25.731  26.350  1.00  0.00     0.037 A 
BRANCH   9  12
ATOM     12  S   UNL A   1      31.505  23.100  26.395  1.00  0.00     0.243 S 
ATOM     13  O   UNL A   1      32.088  23.469  27.670  1.00  0.00    -0.207 OA
ATOM     14  O   UNL A   1      30.236  22.401  26.342  1.00  0.00    -0.207 OA
BRANCH  12  15
ATOM     15  N   UNL A   1      32.609  22.146  25.574  1.00  0.00    -0.197 NA
ATOM     16  C   UNL A   1      32.137  20.856  25.069  1.00  0.00     0.125 C 
BRANCH  15  17
ATOM     17  C   UNL A   1      33.985  22.658  25.404  1.00  0.00     0.083 C 
ATOM     18  C   UNL A   1      35.059  21.905  26.181  1.00  0.00     0.032 C 
ATOM     19  C   UNL A   1      34.438  22.636  23.939  1.00  0.00     0.089 C 
ATOM     20  C   UNL A   1      36.366  22.581  25.806  1.00  0.00     0.071 C 
ATOM     21  S   UNL A   1      36.259  22.742  24.004  1.00  0.00    -0.160 SA
ENDBRANCH  15  17
ENDBRANCH  12  15
ENDBRANCH   9  12
ENDBRANCH   3   5
ENDBRANCH   2   3
ENDBRANCH   1   2
BRANCH   1  22
ATOM     22  C   UNL A   1      34.382  29.399  26.935  1.00  0.00     0.275 C 
BRANCH  22  23
ATOM     23  O   UNL A   1      35.310  29.389  28.041  1.00  0.00    -0.458 OA
BRANCH  23  24
ATOM     24  C   UNL A   1      36.422  30.168  27.900  1.00  0.00     0.338 C 
ATOM     25  O   UNL A   1      36.412  31.376  27.925  1.00  0.00    -0.246 OA
BRANCH  24  26
ATOM     26  C   UNL A   1      37.612  29.282  28.058  1.00  0.00     0.060 A 
ATOM     27  C   UNL A   1      38.697  29.420  27.185  1.00  0.00     0.016 A 
ATOM     28  C   UNL A   1      37.756  28.584  29.262  1.00  0.00     0.016 A 
ATOM     29  C   UNL A   1      39.960  28.982  27.563  1.00  0.00     0.010 A 
ATOM     30  C   UNL A   1      39.011  28.269  29.700  1.00  0.00     0.010 A 
ATOM     31  C   UNL A   1      40.099  28.427  28.830  1.00  0.00    -0.014 A 
BRANCH  31  32
ATOM     32  C   UNL A   1      41.206  27.567  29.195  1.00  0.00     0.031 A 
ATOM     33  C   UNL A   1      41.286  26.167  28.768  1.00  0.00     0.074 A 
ATOM     34  C   UNL A   1      42.206  28.332  29.685  1.00  0.00     0.049 A 
ATOM     35  N   UNL A   1      42.122  25.318  29.250  1.00  0.00    -0.248 NA
ATOM     36  C   UNL A   1      40.391  25.570  27.779  1.00  0.00     0.031 C 
ATOM     37  C   UNL A   1      43.635  28.122  29.775  1.00  0.00     0.029 A 
ATOM     38  N   UNL A   1      42.009  29.560  30.336  1.00  0.00    -0.354 N 
ATOM     39  C   UNL A   1      42.141  24.231  28.395  1.00  0.00     0.074 A 
ATOM     40  C   UNL A   1      40.942  24.361  27.605  1.00  0.00     0.031 C 
ATOM     41  C   UNL A   1      44.132  28.992  30.680  1.00  0.00     0.029 A 
ATOM     42  C   UNL A   1      42.999  29.679  31.300  1.00  0.00     0.049 A 
ATOM     43  H   UNL A   1      41.297  30.214  30.144  1.00  0.00     0.167 HD
ATOM     44  C   UNL A   1      43.290  23.493  28.315  1.00  0.00     0.037 A 
ATOM     45  C   UNL A   1      42.600  29.545  32.601  1.00  0.00     0.037 A 
ATOM     46  C   UNL A   1      44.261  24.027  29.274  1.00  0.00     0.049 A 
ATOM     47  C   UNL A   1      43.157  28.260  33.167  1.00  0.00     0.074 A 
ATOM     48  C   UNL A   1      45.284  24.948  29.109  1.00  0.00     0.029 A 
ATOM     49  N   UNL A   1      43.995  23.970  30.640  1.00  0.00    -0.354 N 
ATOM     50  N   UNL A   1      43.313  27.154  32.487  1.00  0.00    -0.248 NA
ATOM     51  C   UNL A   1      43.726  28.193  34.507  1.00  0.00     0.031 C 
ATOM     52  C   UNL A   1      45.555  25.527  30.375  1.00  0.00     0.029 A 
ATOM     53  C   UNL A   1      44.696  24.962  31.303  1.00  0.00     0.049 A 
ATOM     54  H   UNL A   1      43.394  23.319  31.070  1.00  0.00     0.167 HD
ATOM     55  C   UNL A   1      44.084  26.290  33.220  1.00  0.00     0.074 A 
ATOM     56  C   UNL A   1      44.281  26.970  34.492  1.00  0.00     0.031 C 
ATOM     57  C   UNL A   1      44.590  25.113  32.743  1.00  0.00     0.037 A 
BRANCH  44  58
ATOM     58  C   UNL A   1      43.683  22.588  27.154  1.00  0.00     0.058 A 
ATOM     59  C   UNL A   1      42.995  21.370  26.939  1.00  0.00     0.135 A 
ATOM     60  C   UNL A   1      44.740  22.819  26.250  1.00  0.00     0.135 A 
ATOM     61  F   UNL A   1      41.905  21.041  27.645  1.00  0.00    -0.206 F 
ATOM     62  C   UNL A   1      43.382  20.420  25.993  1.00  0.00     0.059 A 
ATOM     63  C   UNL A   1      45.166  21.870  25.307  1.00  0.00     0.059 A 
ATOM     64  F   UNL A   1      45.378  23.996  26.211  1.00  0.00    -0.206 F 
ATOM     65  C   UNL A   1      44.487  20.664  25.194  1.00  0.00     0.060 A 
BRANCH  65  66
ATOM     66  S   UNL A   1      44.976  19.404  24.001  1.00  0.00     0.124 S 
ATOM     67  O   UNL A   1      44.233  18.236  24.465  1.00  0.00    -0.237 OA
ATOM     68  O   UNL A   1      44.521  19.981  22.740  1.00  0.00    -0.237 OA
ATOM     69  O   UNL A   1      46.425  19.321  24.162  1.00  0.00    -0.744 OA
ENDBRANCH  65  66
ENDBRANCH  44  58
BRANCH  45  70
ATOM     70  C   UNL A   1      41.251  30.148  32.903  1.00  0.00     0.058 A 
ATOM     71  C   UNL A   1      41.146  31.558  32.959  1.00  0.00     0.135 A 
ATOM     72  C   UNL A   1      40.041  29.440  32.865  1.00  0.00     0.135 A 
ATOM     73  F   UNL A   1      42.259  32.311  33.004  1.00  0.00    -0.206 F 
ATOM     74  C   UNL A   1      39.926  32.231  32.874  1.00  0.00     0.059 A 
ATOM     75  C   UNL A   1      38.799  30.094  32.796  1.00  0.00     0.059 A 
ATOM     76  F   UNL A   1      40.040  28.100  32.814  1.00  0.00    -0.206 F 
ATOM     77  C   UNL A   1      38.754  31.490  32.769  1.00  0.00     0.060 A 
BRANCH  77  78
ATOM     78  S   UNL A   1      37.208  32.369  32.405  1.00  0.00     0.124 S 
ATOM     79  O   UNL A   1      37.439  33.664  33.033  1.00  0.00    -0.237 OA
ATOM     80  O   UNL A   1      37.196  32.366  30.945  1.00  0.00    -0.237 OA
ATOM     81  O   UNL A   1      36.193  31.528  33.035  1.00  0.00    -0.744 OA
ENDBRANCH  77  78
ENDBRANCH  45  70
BRANCH  57  82
ATOM     82  C   UNL A   1      45.175  24.027  33.603  1.00  0.00     0.058 A 
ATOM     83  C   UNL A   1      46.515  24.024  34.017  1.00  0.00     0.135 A 
ATOM     84  C   UNL A   1      44.343  23.040  34.187  1.00  0.00     0.135 A 
ATOM     85  F   UNL A   1      47.371  24.981  33.625  1.00  0.00    -0.206 F 
ATOM     86  C   UNL A   1      47.019  23.060  34.884  1.00  0.00     0.059 A 
ATOM     87  C   UNL A   1      44.810  22.114  35.108  1.00  0.00     0.059 A 
ATOM     88  F   UNL A   1      43.037  22.953  33.897  1.00  0.00    -0.206 F 
ATOM     89  C   UNL A   1      46.159  22.110  35.423  1.00  0.00     0.060 A 
BRANCH  89  90
ATOM     90  S   UNL A   1      46.803  20.885  36.570  1.00  0.00     0.124 S 
ATOM     91  O   UNL A   1      45.677  19.961  36.660  1.00  0.00    -0.237 OA
ATOM     92  O   UNL A   1      47.981  20.380  35.870  1.00  0.00    -0.237 OA
ATOM     93  O   UNL A   1      47.081  21.664  37.771  1.00  0.00    -0.744 OA
ENDBRANCH  89  90
ENDBRANCH  57  82
ENDBRANCH  31  32
ENDBRANCH  24  26
ENDBRANCH  23  24
ENDBRANCH  22  23
ENDBRANCH   1  22
TORSDOF 17
ENDMDL
MODEL 2
REMARK VINA RESULT:     -12.5      1.289      1.907
REMARK SMILES Cc1ccc(C(=O)OCCOC(=O)c2ccc(-c3c4nc(c(-c5c(F)cc(S(=O)(=O)[O-])cc5F)c5ccc([nH]5)c(-c5c(F)cc(S(=O)(=O)[O-])cc5F)c5nc(c(-c6c(F)cc(S(=O)(=O)[O-])cc6F)c6ccc3[nH]6)C=C5)C=C4)cc2)cc1S(=O)(=O)N(C)[C@H]1CCSC1
REMARK SMILES IDX 9 1 8 2 6 3 7 4 5 5 1 6 2 7 3 8 81 9 4 10 80 11 82 12 83 13
REMARK SMILES IDX 84 14 85 15 86 16 87 17 88 18 91 19 89 20 90 21 10 22 11 23
REMARK SMILES IDX 12 24 13 25 14 26 15 27 79 28 16 29 78 30 17 31 18 32 19 33
REMARK SMILES IDX 72 34 20 35 77 36 71 37 73 38 21 39 76 40 70 41 69 42 22 44
REMARK SMILES IDX 56 45 35 46 55 47 36 48 39 49 54 50 74 51 37 52 38 53 53 55
REMARK SMILES IDX 75 56 40 57 23 58 24 59 33 60 25 61 26 62 32 63 34 64 27 65
REMARK SMILES IDX 28 66 29 67 30 68 31 69 57 70 58 71 67 72 59 73 60 74 66 75
REMARK SMILES IDX 68 76 61 77 62 78 63 79 64 80 65 81 41 82 42 83 51 84 43 85
REMARK SMILES IDX 44 86 50 87 52 88 45 89 46 90 47 91 48 92 49 93
REMARK H PARENT 73 43 39 54
REMARK Flexibility Score: inf
ROOT
ATOM      1  C   UNL A   1      33.082  28.542  27.071  1.00  0.00     0.275 C 
ENDROOT
BRANCH   1   2
ATOM      2  O   UNL A   1      32.652  27.778  25.933  1.00  0.00    -0.458 OA
BRANCH   2   3
ATOM      3  C   UNL A   1      32.220  26.541  26.261  1.00  0.00     0.338 C 
ATOM      4  O   UNL A   1      31.256  26.289  26.972  1.00  0.00    -0.246 OA
BRANCH   3   5
ATOM      5  C   UNL A   1      33.116  25.474  25.783  1.00  0.00     0.061 A 
ATOM      6  C   UNL A   1      35.409  22.492  23.670  1.00  0.00     0.046 C 
ATOM      7  C   UNL A   1      34.542  23.393  24.493  1.00  0.00    -0.031 A 
ATOM      8  C   UNL A   1      35.155  24.621  24.835  1.00  0.00     0.006 A 
ATOM      9  C   UNL A   1      33.208  23.202  24.894  1.00  0.00     0.086 A 
ATOM     10  C   UNL A   1      34.470  25.624  25.527  1.00  0.00     0.016 A 
ATOM     11  C   UNL A   1      32.503  24.265  25.486  1.00  0.00     0.037 A 
BRANCH   9  12
ATOM     12  S   UNL A   1      32.206  21.728  24.852  1.00  0.00     0.243 S 
ATOM     13  O   UNL A   1      31.022  22.030  25.633  1.00  0.00    -0.207 OA
ATOM     14  O   UNL A   1      32.088  21.352  23.457  1.00  0.00    -0.207 OA
BRANCH  12  15
ATOM     15  N   UNL A   1      33.027  20.484  25.614  1.00  0.00    -0.197 NA
ATOM     16  C   UNL A   1      33.630  20.775  26.915  1.00  0.00     0.125 C 
BRANCH  15  17
ATOM     17  C   UNL A   1      33.092  19.172  24.937  1.00  0.00     0.083 C 
ATOM     18  C   UNL A   1      34.484  18.743  24.483  1.00  0.00     0.032 C 
ATOM     19  C   UNL A   1      32.575  18.032  25.823  1.00  0.00     0.089 C 
ATOM     20  C   UNL A   1      34.293  17.366  23.873  1.00  0.00     0.071 C 
ATOM     21  S   UNL A   1      33.246  16.508  25.078  1.00  0.00    -0.160 SA
ENDBRANCH  15  17
ENDBRANCH  12  15
ENDBRANCH   9  12
ENDBRANCH   3   5
ENDBRANCH   2   3
ENDBRANCH   1   2
BRANCH   1  22
ATOM     22  C   UNL A   1      34.480  29.151  26.860  1.00  0.00     0.275 C 
BRANCH  22  23
ATOM     23  O   UNL A   1      35.265  29.460  28.032  1.00  0.00    -0.458 OA
BRANCH  23  24
ATOM     24  C   UNL A   1      36.383  30.214  27.825  1.00  0.00     0.338 C 
ATOM     25  O   UNL A   1      36.390  31.422  27.787  1.00  0.00    -0.246 OA
BRANCH  24  26
ATOM     26  C   UNL A   1      37.565  29.320  28.003  1.00  0.00     0.060 A 
ATOM     27  C   UNL A   1      38.661  29.444  27.140  1.00  0.00     0.016 A 
ATOM     28  C   UNL A   1      37.691  28.631  29.213  1.00  0.00     0.016 A 
ATOM     29  C   UNL A   1      39.916  29.000  27.535  1.00  0.00     0.010 A 
ATOM     30  C   UNL A   1      38.939  28.310  29.667  1.00  0.00     0.010 A 
ATOM     31  C   UNL A   1      40.038  28.453  28.807  1.00  0.00    -0.014 A 
BRANCH  31  32
ATOM     32  C   UNL A   1      41.134  27.588  29.191  1.00  0.00     0.031 A 
ATOM     33  C   UNL A   1      41.218  26.190  28.757  1.00  0.00     0.074 A 
ATOM     34  C   UNL A   1      42.126  28.347  29.705  1.00  0.00     0.049 A 
ATOM     35  N   UNL A   1      42.041  25.335  29.253  1.00  0.00    -0.248 NA
ATOM     36  C   UNL A   1      40.343  25.601  27.747  1.00  0.00     0.031 C 
ATOM     37  C   UNL A   1      43.552  28.132  29.825  1.00  0.00     0.029 A 
ATOM     38  N   UNL A   1      41.918  29.572  30.359  1.00  0.00    -0.354 N 
ATOM     39  C   UNL A   1      42.076  24.253  28.391  1.00  0.00     0.074 A 
ATOM     40  C   UNL A   1      40.894  24.391  27.578  1.00  0.00     0.031 C 
ATOM     41  C   UNL A   1      44.032  28.996  30.744  1.00  0.00     0.029 A 
ATOM     42  C   UNL A   1      42.889  29.683  31.344  1.00  0.00     0.049 A 
ATOM     43  H   UNL A   1      41.213  30.229  30.156  1.00  0.00     0.167 HD
ATOM     44  C   UNL A   1      43.223  23.512  28.332  1.00  0.00     0.037 A 
ATOM     45  C   UNL A   1      42.462  29.543  32.636  1.00  0.00     0.037 A 
ATOM     46  C   UNL A   1      44.176  24.038  29.314  1.00  0.00     0.049 A 
ATOM     47  C   UNL A   1      43.004  28.253  33.206  1.00  0.00     0.074 A 
ATOM     48  C   UNL A   1      45.205  24.956  29.176  1.00  0.00     0.029 A 
ATOM     49  N   UNL A   1      43.882  23.974  30.673  1.00  0.00    -0.354 N 
ATOM     50  N   UNL A   1      43.170  27.150  32.524  1.00  0.00    -0.248 NA
ATOM     51  C   UNL A   1      43.544  28.176  34.557  1.00  0.00     0.031 C 
ATOM     52  C   UNL A   1      45.451  25.528  30.449  1.00  0.00     0.029 A 
ATOM     53  C   UNL A   1      44.571  24.960  31.357  1.00  0.00     0.049 A 
ATOM     54  H   UNL A   1      43.270  23.323  31.087  1.00  0.00     0.167 HD
ATOM     55  C   UNL A   1      43.923  26.280  33.268  1.00  0.00     0.074 A 
ATOM     56  C   UNL A   1      44.096  26.952  34.547  1.00  0.00     0.031 C 
ATOM     57  C   UNL A   1      44.436  25.104  32.795  1.00  0.00     0.037 A 
BRANCH  44  58
ATOM     58  C   UNL A   1      43.638  22.613  27.174  1.00  0.00     0.058 A 
ATOM     59  C   UNL A   1      42.980  21.376  26.965  1.00  0.00     0.135 A 
ATOM     60  C   UNL A   1      44.688  22.866  26.268  1.00  0.00     0.135 A 
ATOM     61  F   UNL A   1      41.900  21.024  27.674  1.00  0.00    -0.206 F 
ATOM     62  C   UNL A   1      43.391  20.432  26.023  1.00  0.00     0.059 A 
ATOM     63  C   UNL A   1      45.136  21.924  25.328  1.00  0.00     0.059 A 
ATOM     64  F   UNL A   1      45.296  24.059  26.223  1.00  0.00    -0.206 F 
ATOM     65  C   UNL A   1      44.489  20.701  25.222  1.00  0.00     0.060 A 
BRANCH  65  66
ATOM     66  S   UNL A   1      45.008  19.448  24.033  1.00  0.00     0.124 S 
ATOM     67  O   UNL A   1      46.461  19.486  24.162  1.00  0.00    -0.237 OA
ATOM     68  O   UNL A   1      44.359  18.246  24.550  1.00  0.00    -0.237 OA
ATOM     69  O   UNL A   1      44.484  19.942  22.763  1.00  0.00    -0.744 OA
ENDBRANCH  65  66
ENDBRANCH  44  58
BRANCH  45  70
ATOM     70  C   UNL A   1      41.110  30.148  32.913  1.00  0.00     0.058 A 
ATOM     71  C   UNL A   1      40.997  31.559  32.923  1.00  0.00     0.135 A 
ATOM     72  C   UNL A   1      39.903  29.433  32.894  1.00  0.00     0.135 A 
ATOM     73  F   UNL A   1      42.105  32.319  32.946  1.00  0.00    -0.206 F 
ATOM     74  C   UNL A   1      39.774  32.222  32.811  1.00  0.00     0.059 A 
ATOM     75  C   UNL A   1      38.658  30.078  32.799  1.00  0.00     0.059 A 
ATOM     76  F   UNL A   1      39.910  28.092  32.887  1.00  0.00    -0.206 F 
ATOM     77  C   UNL A   1      38.606  31.472  32.726  1.00  0.00     0.060 A 
BRANCH  77  78
ATOM     78  S   UNL A   1      37.057  32.331  32.328  1.00  0.00     0.124 S 
ATOM     79  O   UNL A   1      36.606  31.613  31.142  1.00  0.00    -0.237 OA
ATOM     80  O   UNL A   1      36.271  32.111  33.538  1.00  0.00    -0.237 OA
ATOM     81  O   UNL A   1      37.490  33.710  32.111  1.00  0.00    -0.744 OA
ENDBRANCH  77  78
ENDBRANCH  45  70
BRANCH  57  82
ATOM     82  C   UNL A   1      44.999  24.012  33.661  1.00  0.00     0.058 A 
ATOM     83  C   UNL A   1      46.338  23.989  34.081  1.00  0.00     0.135 A 
ATOM     84  C   UNL A   1      44.149  23.039  34.243  1.00  0.00     0.135 A 
ATOM     85  F   UNL A   1      47.210  24.931  33.691  1.00  0.00    -0.206 F 
ATOM     86  C   UNL A   1      46.822  23.020  34.954  1.00  0.00     0.059 A 
ATOM     87  C   UNL A   1      44.597  22.109  35.169  1.00  0.00     0.059 A 
ATOM     88  F   UNL A   1      42.843  22.972  33.946  1.00  0.00    -0.206 F 
ATOM     89  C   UNL A   1      45.944  22.084  35.491  1.00  0.00     0.060 A 
BRANCH  89  90
ATOM     90  S   UNL A   1      46.563  20.853  36.644  1.00  0.00     0.124 S 
ATOM     91  O   UNL A   1      46.297  21.502  37.923  1.00  0.00    -0.237 OA
ATOM     92  O   UNL A   1      45.737  19.688  36.342  1.00  0.00    -0.237 OA
ATOM     93  O   UNL A   1      47.970  20.727  36.278  1.00  0.00    -0.744 OA
ENDBRANCH  89  90
ENDBRANCH  57  82
ENDBRANCH  31  32
ENDBRANCH  24  26
ENDBRANCH  23  24
ENDBRANCH  22  23
ENDBRANCH   1  22
TORSDOF 17
ENDMDL
MODEL 3
REMARK VINA RESULT:     -12.5      0.922      1.800
REMARK SMILES Cc1ccc(C(=O)OCCOC(=O)c2ccc(-c3c4nc(c(-c5c(F)cc(S(=O)(=O)[O-])cc5F)c5ccc([nH]5)c(-c5c(F)cc(S(=O)(=O)[O-])cc5F)c5nc(c(-c6c(F)cc(S(=O)(=O)[O-])cc6F)c6ccc3[nH]6)C=C5)C=C4)cc2)cc1S(=O)(=O)N(C)[C@H]1CCSC1
REMARK SMILES IDX 9 1 8 2 6 3 7 4 5 5 1 6 2 7 3 8 81 9 4 10 80 11 82 12 83 13
REMARK SMILES IDX 84 14 85 15 86 16 87 17 88 18 91 19 89 20 90 21 10 22 11 23
REMARK SMILES IDX 12 24 13 25 14 26 15 27 79 28 16 29 78 30 17 31 18 32 19 33
REMARK SMILES IDX 72 34 20 35 77 36 71 37 73 38 21 39 76 40 70 41 69 42 22 44
REMARK SMILES IDX 56 45 35 46 55 47 36 48 39 49 54 50 74 51 37 52 38 53 53 55
REMARK SMILES IDX 75 56 40 57 23 58 24 59 33 60 25 61 26 62 32 63 34 64 27 65
REMARK SMILES IDX 28 66 29 67 30 68 31 69 57 70 58 71 67 72 59 73 60 74 66 75
REMARK SMILES IDX 68 76 61 77 62 78 63 79 64 80 65 81 41 82 42 83 51 84 43 85
REMARK SMILES IDX 44 86 50 87 52 88 45 89 46 90 47 91 48 92 49 93
REMARK H PARENT 73 43 39 54
REMARK Flexibility Score: inf
ROOT
ATOM      1  C   UNL A   1      33.238  29.883  27.311  1.00  0.00     0.275 C 
ENDROOT
BRANCH   1   2
ATOM      2  O   UNL A   1      32.369  29.293  26.330  1.00  0.00    -0.458 OA
BRANCH   2   3
ATOM      3  C   UNL A   1      31.708  28.211  26.796  1.00  0.00     0.338 C 
ATOM      4  O   UNL A   1      31.330  28.049  27.949  1.00  0.00    -0.246 OA
BRANCH   3   5
ATOM      5  C   UNL A   1      31.585  27.138  25.794  1.00  0.00     0.061 A 
ATOM      6  C   UNL A   1      30.465  23.957  23.103  1.00  0.00     0.046 C 
ATOM      7  C   UNL A   1      30.962  24.944  24.113  1.00  0.00    -0.031 A 
ATOM      8  C   UNL A   1      31.093  26.260  23.611  1.00  0.00     0.006 A 
ATOM      9  C   UNL A   1      31.237  24.742  25.477  1.00  0.00     0.086 A 
ATOM     10  C   UNL A   1      31.461  27.333  24.427  1.00  0.00     0.016 A 
ATOM     11  C   UNL A   1      31.493  25.850  26.304  1.00  0.00     0.037 A 
BRANCH   9  12
ATOM     12  S   UNL A   1      31.406  23.221  26.392  1.00  0.00     0.243 S 
ATOM     13  O   UNL A   1      31.773  23.608  27.740  1.00  0.00    -0.207 OA
ATOM     14  O   UNL A   1      30.196  22.461  26.150  1.00  0.00    -0.207 OA
BRANCH  12  15
ATOM     15  N   UNL A   1      32.667  22.329  25.746  1.00  0.00    -0.197 NA
ATOM     16  C   UNL A   1      34.008  22.910  25.821  1.00  0.00     0.125 C 
BRANCH  15  17
ATOM     17  C   UNL A   1      32.357  21.014  25.146  1.00  0.00     0.083 C 
ATOM     18  C   UNL A   1      32.589  20.915  23.642  1.00  0.00     0.032 C 
ATOM     19  C   UNL A   1      33.181  19.880  25.769  1.00  0.00     0.089 C 
ATOM     20  C   UNL A   1      32.252  19.479  23.284  1.00  0.00     0.071 C 
ATOM     21  S   UNL A   1      33.093  18.512  24.565  1.00  0.00    -0.160 SA
ENDBRANCH  15  17
ENDBRANCH  12  15
ENDBRANCH   9  12
ENDBRANCH   3   5
ENDBRANCH   2   3
ENDBRANCH   1   2
BRANCH   1  22
ATOM     22  C   UNL A   1      34.613  29.192  27.350  1.00  0.00     0.275 C 
BRANCH  22  23
ATOM     23  O   UNL A   1      35.757  29.938  26.882  1.00  0.00    -0.458 OA
BRANCH  23  24
ATOM     24  C   UNL A   1      36.573  30.455  27.845  1.00  0.00     0.338 C 
ATOM     25  O   UNL A   1      36.264  31.361  28.584  1.00  0.00    -0.246 OA
BRANCH  24  26
ATOM     26  C   UNL A   1      37.709  29.504  28.028  1.00  0.00     0.060 A 
ATOM     27  C   UNL A   1      38.714  29.433  27.056  1.00  0.00     0.016 A 
ATOM     28  C   UNL A   1      37.916  28.968  29.303  1.00  0.00     0.016 A 
ATOM     29  C   UNL A   1      39.973  28.948  27.386  1.00  0.00     0.010 A 
ATOM     30  C   UNL A   1      39.183  28.613  29.675  1.00  0.00     0.010 A 
ATOM     31  C   UNL A   1      40.192  28.561  28.703  1.00  0.00    -0.014 A 
BRANCH  31  32
ATOM     32  C   UNL A   1      41.266  27.671  29.093  1.00  0.00     0.031 A 
ATOM     33  C   UNL A   1      41.286  26.254  28.717  1.00  0.00     0.074 A 
ATOM     34  C   UNL A   1      42.299  28.412  29.549  1.00  0.00     0.049 A 
ATOM     35  N   UNL A   1      42.090  25.390  29.226  1.00  0.00    -0.248 NA
ATOM     36  C   UNL A   1      40.361  25.658  27.756  1.00  0.00     0.031 C 
ATOM     37  C   UNL A   1      43.719  28.147  29.640  1.00  0.00     0.029 A 
ATOM     38  N   UNL A   1      42.156  29.670  30.156  1.00  0.00    -0.354 N 
ATOM     39  C   UNL A   1      42.060  24.272  28.411  1.00  0.00     0.074 A 
ATOM     40  C   UNL A   1      40.862  24.423  27.624  1.00  0.00     0.031 C 
ATOM     41  C   UNL A   1      44.257  29.029  30.509  1.00  0.00     0.029 A 
ATOM     42  C   UNL A   1      43.157  29.784  31.109  1.00  0.00     0.049 A 
ATOM     43  H   UNL A   1      41.470  30.345  29.945  1.00  0.00     0.167 HD
ATOM     44  C   UNL A   1      43.177  23.487  28.352  1.00  0.00     0.037 A 
ATOM     45  C   UNL A   1      42.762  29.713  32.417  1.00  0.00     0.037 A 
ATOM     46  C   UNL A   1      44.176  24.015  29.286  1.00  0.00     0.049 A 
ATOM     47  C   UNL A   1      43.271  28.429  33.027  1.00  0.00     0.074 A 
ATOM     48  C   UNL A   1      45.233  24.887  29.082  1.00  0.00     0.029 A 
ATOM     49  N   UNL A   1      43.917  24.019  30.654  1.00  0.00    -0.354 N 
ATOM     50  N   UNL A   1      43.377  27.293  32.387  1.00  0.00    -0.248 NA
ATOM     51  C   UNL A   1      43.846  28.387  34.365  1.00  0.00     0.031 C 
ATOM     52  C   UNL A   1      45.537  25.500  30.323  1.00  0.00     0.029 A 
ATOM     53  C   UNL A   1      44.662  25.005  31.277  1.00  0.00     0.049 A 
ATOM     54  H   UNL A   1      43.294  23.409  31.111  1.00  0.00     0.167 HD
ATOM     55  C   UNL A   1      44.118  26.426  33.147  1.00  0.00     0.074 A 
ATOM     56  C   UNL A   1      44.351  27.143  34.392  1.00  0.00     0.031 C 
ATOM     57  C   UNL A   1      44.572  25.213  32.711  1.00  0.00     0.037 A 
BRANCH  44  58
ATOM     58  C   UNL A   1      43.525  22.525  27.223  1.00  0.00     0.058 A 
ATOM     59  C   UNL A   1      42.781  21.332  27.051  1.00  0.00     0.135 A 
ATOM     60  C   UNL A   1      44.590  22.675  26.311  1.00  0.00     0.135 A 
ATOM     61  F   UNL A   1      41.680  21.079  27.770  1.00  0.00    -0.206 F 
ATOM     62  C   UNL A   1      43.123  20.333  26.138  1.00  0.00     0.059 A 
ATOM     63  C   UNL A   1      44.969  21.675  25.400  1.00  0.00     0.059 A 
ATOM     64  F   UNL A   1      45.280  23.820  26.230  1.00  0.00    -0.206 F 
ATOM     65  C   UNL A   1      44.236  20.498  25.331  1.00  0.00     0.060 A 
BRANCH  65  66
ATOM     66  S   UNL A   1      44.663  19.176  24.181  1.00  0.00     0.124 S 
ATOM     67  O   UNL A   1      43.742  18.115  24.578  1.00  0.00    -0.237 OA
ATOM     68  O   UNL A   1      44.394  19.795  22.887  1.00  0.00    -0.237 OA
ATOM     69  O   UNL A   1      46.071  18.915  24.467  1.00  0.00    -0.744 OA
ENDBRANCH  65  66
ENDBRANCH  44  58
BRANCH  45  70
ATOM     70  C   UNL A   1      41.441  30.381  32.704  1.00  0.00     0.058 A 
ATOM     71  C   UNL A   1      40.358  29.572  33.123  1.00  0.00     0.135 A 
ATOM     72  C   UNL A   1      41.269  31.765  32.851  1.00  0.00     0.135 A 
ATOM     73  F   UNL A   1      40.440  28.234  33.011  1.00  0.00    -0.206 F 
ATOM     74  C   UNL A   1      39.223  30.089  33.747  1.00  0.00     0.059 A 
ATOM     75  C   UNL A   1      40.126  32.312  33.461  1.00  0.00     0.059 A 
ATOM     76  F   UNL A   1      42.239  32.613  32.478  1.00  0.00    -0.206 F 
ATOM     77  C   UNL A   1      39.123  31.463  33.935  1.00  0.00     0.060 A 
BRANCH  77  78
ATOM     78  S   UNL A   1      37.772  32.097  34.967  1.00  0.00     0.124 S 
ATOM     79  O   UNL A   1      38.223  33.451  35.263  1.00  0.00    -0.237 OA
ATOM     80  O   UNL A   1      36.629  31.993  34.065  1.00  0.00    -0.237 OA
ATOM     81  O   UNL A   1      37.757  31.171  36.097  1.00  0.00    -0.744 OA
ENDBRANCH  77  78
ENDBRANCH  45  70
BRANCH  57  82
ATOM     82  C   UNL A   1      45.119  24.136  33.607  1.00  0.00     0.058 A 
ATOM     83  C   UNL A   1      44.371  23.012  33.989  1.00  0.00     0.135 A 
ATOM     84  C   UNL A   1      46.490  24.121  33.966  1.00  0.00     0.135 A 
ATOM     85  F   UNL A   1      43.095  22.858  33.605  1.00  0.00    -0.206 F 
ATOM     86  C   UNL A   1      44.920  21.983  34.746  1.00  0.00     0.059 A 
ATOM     87  C   UNL A   1      47.072  23.070  34.659  1.00  0.00     0.059 A 
ATOM     88  F   UNL A   1      47.319  25.122  33.637  1.00  0.00    -0.206 F 
ATOM     89  C   UNL A   1      46.270  22.021  35.077  1.00  0.00     0.060 A 
BRANCH  89  90
ATOM     90  S   UNL A   1      46.986  20.674  36.026  1.00  0.00     0.124 S 
ATOM     91  O   UNL A   1      47.420  19.775  34.962  1.00  0.00    -0.237 OA
ATOM     92  O   UNL A   1      48.054  21.338  36.768  1.00  0.00    -0.237 OA
ATOM     93  O   UNL A   1      45.868  20.204  36.837  1.00  0.00    -0.744 OA
ENDBRANCH  89  90
ENDBRANCH  57  82
ENDBRANCH  31  32
ENDBRANCH  24  26
ENDBRANCH  23  24
ENDBRANCH  22  23
ENDBRANCH   1  22
TORSDOF 17
ENDMDL
