MODEL 1
REMARK VINA RESULT:      -6.9      0.000      0.000
REMARK SMILES CCCC[C@@H](Sc1nc(OCCC2CCCCC2)cc(OCCC2CCCCC2)n1)C(=O)OCCOC(=O)c1ccc(-c2c3nc(c(-c4c(F)cc(S(=O)(=O)[O-])cc4F)c4ccc([nH]4)c(-c4c(F)cc(S(=O)(=O)[O-])cc4F)c4nc(c(-c5c(F)cc(S(=O)(=O)[O-])cc5F)c5ccc2[nH]5)C=C4)C=C3)cc1
REMARK SMILES IDX 33 1 31 2 32 3 5 4 4 5 3 6 2 7 1 8 6 9 7 10 8 11 30 12 9 13
REMARK SMILES IDX 20 14 19 15 10 16 11 17 12 18 13 19 14 20 18 21 15 22 17 23
REMARK SMILES IDX 16 24 21 25 22 26 23 27 24 28 25 29 29 30 26 31 28 32 27 33
REMARK SMILES IDX 34 34 35 35 36 36 37 37 38 38 39 39 40 40 104 41 41 42
REMARK SMILES IDX 103 43 42 44 43 45 44 46 97 47 45 48 102 49 96 50 98 51
REMARK SMILES IDX 46 52 101 53 95 54 94 55 47 57 81 58 60 59 80 60 61 61 64 62
REMARK SMILES IDX 79 63 99 64 62 65 63 66 78 68 100 69 65 70 48 71 49 72 58 73
REMARK SMILES IDX 50 74 51 75 57 76 59 77 52 78 53 79 54 80 55 81 56 82 82 83
REMARK SMILES IDX 83 84 92 85 84 86 85 87 91 88 93 89 86 90 87 91 88 92 89 93
REMARK SMILES IDX 90 94 66 95 67 96 76 97 68 98 69 99 75 100 77 101 70 102
REMARK SMILES IDX 71 103 72 104 73 105 74 106
REMARK H PARENT 98 56 64 67
REMARK Flexibility Score: inf
ROOT
ATOM      1  O   UNL A   1      35.712  33.416  33.949  1.00  0.00    -0.461 OA
ENDROOT
BRANCH   1   2
ATOM      2  C   UNL A   1      35.916  34.106  32.792  1.00  0.00     0.319 C 
ATOM      3  O   UNL A   1      36.803  34.937  32.628  1.00  0.00    -0.251 OA
BRANCH   2   4
ATOM      4  C   UNL A   1      34.910  33.739  31.706  1.00  0.00     0.164 C 
BRANCH   4   5
ATOM      5  C   UNL A   1      35.041  34.654  30.468  1.00  0.00     0.027 C 
BRANCH   5   6
ATOM      6  C   UNL A   1      33.771  34.892  29.642  1.00  0.00     0.001 C 
BRANCH   6   7
ATOM      7  C   UNL A   1      33.074  36.240  29.872  1.00  0.00    -0.003 C 
ATOM      8  C   UNL A   1      32.525  36.412  31.279  1.00  0.00     0.004 C 
ENDBRANCH   6   7
ENDBRANCH   5   6
ENDBRANCH   4   5
BRANCH   4   9
ATOM      9  S   UNL A   1      35.146  31.941  31.342  1.00  0.00    -0.071 SA
BRANCH   9  10
ATOM     10  C   UNL A   1      36.799  31.951  30.690  1.00  0.00     0.195 A 
ATOM     11  N   UNL A   1      37.569  30.867  30.901  1.00  0.00    -0.187 NA
ATOM     12  N   UNL A   1      37.213  33.092  30.122  1.00  0.00    -0.187 NA
ATOM     13  C   UNL A   1      38.840  30.978  30.500  1.00  0.00     0.221 A 
ATOM     14  C   UNL A   1      38.489  33.182  29.763  1.00  0.00     0.221 A 
ATOM     15  C   UNL A   1      39.326  32.124  29.920  1.00  0.00     0.136 A 
BRANCH  13  16
ATOM     16  O   UNL A   1      39.625  29.844  30.593  1.00  0.00    -0.477 OA
BRANCH  16  17
ATOM     17  C   UNL A   1      39.414  28.855  29.571  1.00  0.00     0.231 C 
BRANCH  17  18
ATOM     18  C   UNL A   1      40.660  28.589  28.673  1.00  0.00     0.045 C 
BRANCH  18  19
ATOM     19  C   UNL A   1      40.635  27.192  28.039  1.00  0.00    -0.008 C 
ATOM     20  C   UNL A   1      40.805  27.072  26.523  1.00  0.00     0.004 C 
ATOM     21  C   UNL A   1      41.618  26.231  28.724  1.00  0.00     0.004 C 
ATOM     22  C   UNL A   1      40.405  25.638  26.119  1.00  0.00     0.000 C 
ATOM     23  C   UNL A   1      41.314  24.782  28.359  1.00  0.00     0.000 C 
ATOM     24  C   UNL A   1      41.215  24.564  26.851  1.00  0.00     0.000 C 
ENDBRANCH  18  19
ENDBRANCH  17  18
ENDBRANCH  16  17
ENDBRANCH  13  16
BRANCH  14  25
ATOM     25  O   UNL A   1      38.850  34.426  29.331  1.00  0.00    -0.477 OA
BRANCH  25  26
ATOM     26  C   UNL A   1      40.184  34.911  29.489  1.00  0.00     0.231 C 
BRANCH  26  27
ATOM     27  C   UNL A   1      40.871  35.334  28.174  1.00  0.00     0.045 C 
BRANCH  27  28
ATOM     28  C   UNL A   1      42.323  35.880  28.194  1.00  0.00    -0.008 C 
ATOM     29  C   UNL A   1      43.152  35.356  27.016  1.00  0.00     0.004 C 
ATOM     30  C   UNL A   1      42.389  37.404  28.376  1.00  0.00     0.004 C 
ATOM     31  C   UNL A   1      44.528  35.991  26.874  1.00  0.00     0.000 C 
ATOM     32  C   UNL A   1      43.793  37.981  28.191  1.00  0.00     0.000 C 
ATOM     33  C   UNL A   1      44.432  37.509  26.891  1.00  0.00     0.000 C 
ENDBRANCH  27  28
ENDBRANCH  26  27
ENDBRANCH  25  26
ENDBRANCH  14  25
ENDBRANCH   9  10
ENDBRANCH   4   9
ENDBRANCH   2   4
ENDBRANCH   1   2
BRANCH   1  34
ATOM     34  C   UNL A   1      35.864  34.170  35.165  1.00  0.00     0.274 C 
BRANCH  34  35
ATOM     35  C   UNL A   1      36.728  33.412  36.173  1.00  0.00     0.275 C 
BRANCH  35  36
ATOM     36  O   UNL A   1      37.411  32.309  35.550  1.00  0.00    -0.458 OA
BRANCH  36  37
ATOM     37  C   UNL A   1      38.645  32.040  36.028  1.00  0.00     0.338 C 
ATOM     38  O   UNL A   1      38.931  31.572  37.121  1.00  0.00    -0.246 OA
BRANCH  37  39
ATOM     39  C   UNL A   1      39.653  32.341  35.003  1.00  0.00     0.060 A 
ATOM     40  C   UNL A   1      40.992  32.040  35.259  1.00  0.00     0.016 A 
ATOM     41  C   UNL A   1      39.289  33.024  33.843  1.00  0.00     0.016 A 
ATOM     42  C   UNL A   1      41.984  32.447  34.367  1.00  0.00     0.010 A 
ATOM     43  C   UNL A   1      40.282  33.409  32.937  1.00  0.00     0.010 A 
ATOM     44  C   UNL A   1      41.637  33.141  33.201  1.00  0.00    -0.014 A 
BRANCH  44  45
ATOM     45  C   UNL A   1      42.687  33.618  32.267  1.00  0.00     0.031 A 
ATOM     46  C   UNL A   1      43.261  32.681  31.241  1.00  0.00     0.074 A 
ATOM     47  C   UNL A   1      43.136  34.884  32.353  1.00  0.00     0.049 A 
ATOM     48  N   UNL A   1      44.268  32.863  30.425  1.00  0.00    -0.248 NA
ATOM     49  C   UNL A   1      42.621  31.362  31.121  1.00  0.00     0.031 C 
ATOM     50  C   UNL A   1      42.634  35.898  33.281  1.00  0.00     0.029 A 
ATOM     51  N   UNL A   1      44.126  35.530  31.656  1.00  0.00    -0.354 N 
ATOM     52  C   UNL A   1      44.397  31.678  29.711  1.00  0.00     0.074 A 
ATOM     53  C   UNL A   1      43.374  30.777  30.200  1.00  0.00     0.031 C 
ATOM     54  C   UNL A   1      43.324  37.036  33.102  1.00  0.00     0.029 A 
ATOM     55  C   UNL A   1      44.346  36.819  32.082  1.00  0.00     0.049 A 
ATOM     56  H   UNL A   1      44.631  35.111  30.922  1.00  0.00     0.167 HD
ATOM     57  C   UNL A   1      45.287  31.372  28.735  1.00  0.00     0.037 A 
ATOM     58  C   UNL A   1      45.285  37.712  31.715  1.00  0.00     0.037 A 
ATOM     59  C   UNL A   1      46.291  32.279  28.242  1.00  0.00     0.049 A 
ATOM     60  C   UNL A   1      46.294  37.332  30.665  1.00  0.00     0.074 A 
ATOM     61  C   UNL A   1      47.228  32.067  27.245  1.00  0.00     0.029 A 
ATOM     62  N   UNL A   1      46.492  33.570  28.710  1.00  0.00    -0.354 N 
ATOM     63  N   UNL A   1      46.409  36.205  30.003  1.00  0.00    -0.248 NA
ATOM     64  C   UNL A   1      47.305  38.340  30.319  1.00  0.00     0.031 C 
ATOM     65  C   UNL A   1      48.016  33.219  27.133  1.00  0.00     0.029 A 
ATOM     66  C   UNL A   1      47.546  34.161  28.033  1.00  0.00     0.049 A 
ATOM     67  H   UNL A   1      45.962  34.003  29.418  1.00  0.00     0.167 HD
ATOM     68  C   UNL A   1      47.494  36.376  29.149  1.00  0.00     0.074 A 
ATOM     69  C   UNL A   1      47.992  37.719  29.371  1.00  0.00     0.031 C 
ATOM     70  C   UNL A   1      48.028  35.500  28.263  1.00  0.00     0.037 A 
BRANCH  57  71
ATOM     71  C   UNL A   1      45.227  29.989  28.150  1.00  0.00     0.058 A 
ATOM     72  C   UNL A   1      45.972  28.928  28.687  1.00  0.00     0.135 A 
ATOM     73  C   UNL A   1      44.387  29.714  27.058  1.00  0.00     0.135 A 
ATOM     74  F   UNL A   1      46.801  29.139  29.722  1.00  0.00    -0.206 F 
ATOM     75  C   UNL A   1      45.906  27.648  28.146  1.00  0.00     0.059 A 
ATOM     76  C   UNL A   1      44.289  28.437  26.515  1.00  0.00     0.059 A 
ATOM     77  F   UNL A   1      43.653  30.694  26.507  1.00  0.00    -0.206 F 
ATOM     78  C   UNL A   1      45.063  27.413  27.057  1.00  0.00     0.060 A 
BRANCH  78  79
ATOM     79  S   UNL A   1      44.988  25.746  26.366  1.00  0.00     0.124 S 
ATOM     80  O   UNL A   1      43.923  25.889  25.378  1.00  0.00    -0.237 OA
ATOM     81  O   UNL A   1      46.332  25.568  25.825  1.00  0.00    -0.237 OA
ATOM     82  O   UNL A   1      44.665  24.914  27.521  1.00  0.00    -0.744 OA
ENDBRANCH  78  79
ENDBRANCH  57  71
BRANCH  58  83
ATOM     83  C   UNL A   1      45.327  39.049  32.362  1.00  0.00     0.058 A 
ATOM     84  C   UNL A   1      44.575  40.118  31.857  1.00  0.00     0.135 A 
ATOM     85  C   UNL A   1      46.111  39.279  33.502  1.00  0.00     0.135 A 
ATOM     86  F   UNL A   1      43.818  39.949  30.761  1.00  0.00    -0.206 F 
ATOM     87  C   UNL A   1      44.606  41.375  32.453  1.00  0.00     0.059 A 
ATOM     88  C   UNL A   1      46.141  40.520  34.130  1.00  0.00     0.059 A 
ATOM     89  F   UNL A   1      46.841  38.283  34.029  1.00  0.00    -0.206 F 
ATOM     90  C   UNL A   1      45.391  41.566  33.591  1.00  0.00     0.060 A 
BRANCH  90  91
ATOM     91  S   UNL A   1      45.390  43.186  34.387  1.00  0.00     0.124 S 
ATOM     92  O   UNL A   1      45.143  44.070  33.255  1.00  0.00    -0.237 OA
ATOM     93  O   UNL A   1      44.297  43.058  35.347  1.00  0.00    -0.237 OA
ATOM     94  O   UNL A   1      46.723  43.270  34.977  1.00  0.00    -0.744 OA
ENDBRANCH  90  91
ENDBRANCH  58  83
BRANCH  70  95
ATOM     95  C   UNL A   1      49.196  35.976  27.446  1.00  0.00     0.058 A 
ATOM     96  C   UNL A   1      50.508  35.931  27.944  1.00  0.00     0.135 A 
ATOM     97  C   UNL A   1      49.006  36.438  26.135  1.00  0.00     0.135 A 
ATOM     98  F   UNL A   1      50.741  35.505  29.195  1.00  0.00    -0.206 F 
ATOM     99  C   UNL A   1      51.590  36.349  27.175  1.00  0.00     0.059 A 
ATOM    100  C   UNL A   1      50.075  36.840  25.340  1.00  0.00     0.059 A 
ATOM    101  F   UNL A   1      47.771  36.491  25.608  1.00  0.00    -0.206 F 
ATOM    102  C   UNL A   1      51.363  36.802  25.874  1.00  0.00     0.060 A 
BRANCH 102 103
ATOM    103  S   UNL A   1      52.776  37.312  24.873  1.00  0.00     0.124 S 
ATOM    104  O   UNL A   1      53.805  36.379  25.320  1.00  0.00    -0.237 OA
ATOM    105  O   UNL A   1      52.288  37.112  23.512  1.00  0.00    -0.237 OA
ATOM    106  O   UNL A   1      52.979  38.705  25.259  1.00  0.00    -0.744 OA
ENDBRANCH 102 103
ENDBRANCH  70  95
ENDBRANCH  44  45
ENDBRANCH  37  39
ENDBRANCH  36  37
ENDBRANCH  35  36
ENDBRANCH  34  35
ENDBRANCH   1  34
TORSDOF 27
ENDMDL
MODEL 2
REMARK VINA RESULT:      -6.8      9.208     12.796
REMARK SMILES CCCC[C@@H](Sc1nc(OCCC2CCCCC2)cc(OCCC2CCCCC2)n1)C(=O)OCCOC(=O)c1ccc(-c2c3nc(c(-c4c(F)cc(S(=O)(=O)[O-])cc4F)c4ccc([nH]4)c(-c4c(F)cc(S(=O)(=O)[O-])cc4F)c4nc(c(-c5c(F)cc(S(=O)(=O)[O-])cc5F)c5ccc2[nH]5)C=C4)C=C3)cc1
REMARK SMILES IDX 33 1 31 2 32 3 5 4 4 5 3 6 2 7 1 8 6 9 7 10 8 11 30 12 9 13
REMARK SMILES IDX 20 14 19 15 10 16 11 17 12 18 13 19 14 20 18 21 15 22 17 23
REMARK SMILES IDX 16 24 21 25 22 26 23 27 24 28 25 29 29 30 26 31 28 32 27 33
REMARK SMILES IDX 34 34 35 35 36 36 37 37 38 38 39 39 40 40 104 41 41 42
REMARK SMILES IDX 103 43 42 44 43 45 44 46 97 47 45 48 102 49 96 50 98 51
REMARK SMILES IDX 46 52 101 53 95 54 94 55 47 57 81 58 60 59 80 60 61 61 64 62
REMARK SMILES IDX 79 63 99 64 62 65 63 66 78 68 100 69 65 70 48 71 49 72 58 73
REMARK SMILES IDX 50 74 51 75 57 76 59 77 52 78 53 79 54 80 55 81 56 82 82 83
REMARK SMILES IDX 83 84 92 85 84 86 85 87 91 88 93 89 86 90 87 91 88 92 89 93
REMARK SMILES IDX 90 94 66 95 67 96 76 97 68 98 69 99 75 100 77 101 70 102
REMARK SMILES IDX 71 103 72 104 73 105 74 106
REMARK H PARENT 98 56 64 67
REMARK Flexibility Score: inf
ROOT
ATOM      1  O   UNL A   1      45.480  21.039  40.962  1.00  0.00    -0.461 OA
ENDROOT
BRANCH   1   2
ATOM      2  C   UNL A   1      46.231  20.036  41.496  1.00  0.00     0.319 C 
ATOM      3  O   UNL A   1      46.121  19.626  42.647  1.00  0.00    -0.251 OA
BRANCH   2   4
ATOM      4  C   UNL A   1      47.242  19.470  40.505  1.00  0.00     0.164 C 
BRANCH   4   5
ATOM      5  C   UNL A   1      48.667  20.006  40.768  1.00  0.00     0.027 C 
BRANCH   5   6
ATOM      6  C   UNL A   1      49.534  20.308  39.539  1.00  0.00     0.001 C 
BRANCH   6   7
ATOM      7  C   UNL A   1      50.346  19.125  38.995  1.00  0.00    -0.003 C 
ATOM      8  C   UNL A   1      50.787  19.300  37.550  1.00  0.00     0.004 C 
ENDBRANCH   6   7
ENDBRANCH   5   6
ENDBRANCH   4   5
BRANCH   4   9
ATOM      9  S   UNL A   1      47.104  17.627  40.592  1.00  0.00    -0.071 SA
BRANCH   9  10
ATOM     10  C   UNL A   1      45.763  17.344  39.460  1.00  0.00     0.195 A 
ATOM     11  N   UNL A   1      44.932  16.314  39.709  1.00  0.00    -0.187 NA
ATOM     12  N   UNL A   1      45.732  18.112  38.363  1.00  0.00    -0.187 NA
ATOM     13  C   UNL A   1      44.020  16.070  38.761  1.00  0.00     0.221 A 
ATOM     14  C   UNL A   1      44.833  17.825  37.427  1.00  0.00     0.221 A 
ATOM     15  C   UNL A   1      43.944  16.816  37.611  1.00  0.00     0.136 A 
BRANCH  13  16
ATOM     16  O   UNL A   1      43.078  15.098  39.039  1.00  0.00    -0.477 OA
BRANCH  16  17
ATOM     17  C   UNL A   1      42.372  15.250  40.281  1.00  0.00     0.231 C 
BRANCH  17  18
ATOM     18  C   UNL A   1      41.483  14.029  40.665  1.00  0.00     0.045 C 
BRANCH  18  19
ATOM     19  C   UNL A   1      42.073  13.219  41.827  1.00  0.00    -0.008 C 
ATOM     20  C   UNL A   1      42.593  13.971  43.054  1.00  0.00     0.004 C 
ATOM     21  C   UNL A   1      41.125  12.106  42.295  1.00  0.00     0.004 C 
ATOM     22  C   UNL A   1      43.423  12.980  43.894  1.00  0.00     0.000 C 
ATOM     23  C   UNL A   1      41.858  11.086  43.160  1.00  0.00     0.000 C 
ATOM     24  C   UNL A   1      42.630  11.735  44.305  1.00  0.00     0.000 C 
ENDBRANCH  18  19
ENDBRANCH  17  18
ENDBRANCH  16  17
ENDBRANCH  13  16
BRANCH  14  25
ATOM     25  O   UNL A   1      44.973  18.566  36.288  1.00  0.00    -0.477 OA
BRANCH  25  26
ATOM     26  C   UNL A   1      45.814  19.720  36.249  1.00  0.00     0.231 C 
BRANCH  26  27
ATOM     27  C   UNL A   1      46.648  19.860  34.959  1.00  0.00     0.045 C 
BRANCH  27  28
ATOM     28  C   UNL A   1      48.031  20.561  34.998  1.00  0.00    -0.008 C 
ATOM     29  C   UNL A   1      49.098  19.775  34.226  1.00  0.00     0.004 C 
ATOM     30  C   UNL A   1      47.961  22.049  34.625  1.00  0.00     0.004 C 
ATOM     31  C   UNL A   1      50.430  20.493  34.072  1.00  0.00     0.000 C 
ATOM     32  C   UNL A   1      49.334  22.702  34.457  1.00  0.00     0.000 C 
ATOM     33  C   UNL A   1      50.233  21.898  33.527  1.00  0.00     0.000 C 
ENDBRANCH  27  28
ENDBRANCH  26  27
ENDBRANCH  25  26
ENDBRANCH  14  25
ENDBRANCH   9  10
ENDBRANCH   4   9
ENDBRANCH   2   4
ENDBRANCH   1   2
BRANCH   1  34
ATOM     34  C   UNL A   1      45.976  21.613  39.740  1.00  0.00     0.274 C 
BRANCH  34  35
ATOM     35  C   UNL A   1      45.749  23.125  39.713  1.00  0.00     0.275 C 
BRANCH  35  36
ATOM     36  O   UNL A   1      45.189  23.545  38.456  1.00  0.00    -0.458 OA
BRANCH  36  37
ATOM     37  C   UNL A   1      46.081  23.922  37.515  1.00  0.00     0.338 C 
ATOM     38  O   UNL A   1      47.115  23.349  37.202  1.00  0.00    -0.246 OA
BRANCH  37  39
ATOM     39  C   UNL A   1      45.609  25.136  36.837  1.00  0.00     0.060 A 
ATOM     40  C   UNL A   1      44.496  25.057  35.998  1.00  0.00     0.016 A 
ATOM     41  C   UNL A   1      46.335  26.322  36.941  1.00  0.00     0.016 A 
ATOM     42  C   UNL A   1      44.118  26.158  35.231  1.00  0.00     0.010 A 
ATOM     43  C   UNL A   1      45.940  27.434  36.191  1.00  0.00     0.010 A 
ATOM     44  C   UNL A   1      44.840  27.355  35.318  1.00  0.00    -0.014 A 
BRANCH  44  45
ATOM     45  C   UNL A   1      44.474  28.519  34.473  1.00  0.00     0.031 A 
ATOM     46  C   UNL A   1      44.889  28.560  33.029  1.00  0.00     0.074 A 
ATOM     47  C   UNL A   1      43.784  29.545  35.007  1.00  0.00     0.049 A 
ATOM     48  N   UNL A   1      44.781  29.534  32.163  1.00  0.00    -0.248 NA
ATOM     49  C   UNL A   1      45.515  27.342  32.489  1.00  0.00     0.031 C 
ATOM     50  C   UNL A   1      43.294  29.607  36.385  1.00  0.00     0.029 A 
ATOM     51  N   UNL A   1      43.389  30.738  34.457  1.00  0.00    -0.354 N 
ATOM     52  C   UNL A   1      45.342  29.060  30.984  1.00  0.00     0.074 A 
ATOM     53  C   UNL A   1      45.805  27.714  31.249  1.00  0.00     0.031 C 
ATOM     54  C   UNL A   1      42.671  30.781  36.575  1.00  0.00     0.029 A 
ATOM     55  C   UNL A   1      42.757  31.572  35.350  1.00  0.00     0.049 A 
ATOM     56  H   UNL A   1      43.544  30.975  33.514  1.00  0.00     0.167 HD
ATOM     57  C   UNL A   1      45.459  29.691  29.790  1.00  0.00     0.037 A 
ATOM     58  C   UNL A   1      42.326  32.839  35.207  1.00  0.00     0.037 A 
ATOM     59  C   UNL A   1      44.983  31.025  29.529  1.00  0.00     0.049 A 
ATOM     60  C   UNL A   1      42.513  33.537  33.886  1.00  0.00     0.074 A 
ATOM     61  C   UNL A   1      45.040  31.744  28.347  1.00  0.00     0.029 A 
ATOM     62  N   UNL A   1      44.362  31.842  30.463  1.00  0.00    -0.354 N 
ATOM     63  N   UNL A   1      43.052  33.079  32.782  1.00  0.00    -0.248 NA
ATOM     64  C   UNL A   1      42.039  34.925  33.795  1.00  0.00     0.031 C 
ATOM     65  C   UNL A   1      44.483  33.008  28.576  1.00  0.00     0.029 A 
ATOM     66  C   UNL A   1      44.046  33.062  29.890  1.00  0.00     0.049 A 
ATOM     67  H   UNL A   1      44.174  31.591  31.396  1.00  0.00     0.167 HD
ATOM     68  C   UNL A   1      42.966  34.117  31.859  1.00  0.00     0.074 A 
ATOM     69  C   UNL A   1      42.313  35.221  32.533  1.00  0.00     0.031 C 
ATOM     70  C   UNL A   1      43.391  34.150  30.572  1.00  0.00     0.037 A 
BRANCH  57  71
ATOM     71  C   UNL A   1      46.149  28.951  28.679  1.00  0.00     0.058 A 
ATOM     72  C   UNL A   1      45.451  28.088  27.821  1.00  0.00     0.135 A 
ATOM     73  C   UNL A   1      47.523  29.134  28.448  1.00  0.00     0.135 A 
ATOM     74  F   UNL A   1      44.139  27.866  28.005  1.00  0.00    -0.206 F 
ATOM     75  C   UNL A   1      46.094  27.412  26.788  1.00  0.00     0.059 A 
ATOM     76  C   UNL A   1      48.183  28.486  27.409  1.00  0.00     0.059 A 
ATOM     77  F   UNL A   1      48.238  29.949  29.240  1.00  0.00    -0.206 F 
ATOM     78  C   UNL A   1      47.462  27.616  26.592  1.00  0.00     0.060 A 
BRANCH  78  79
ATOM     79  S   UNL A   1      48.284  26.732  25.249  1.00  0.00     0.124 S 
ATOM     80  O   UNL A   1      48.958  25.660  25.976  1.00  0.00    -0.237 OA
ATOM     81  O   UNL A   1      47.164  26.319  24.410  1.00  0.00    -0.237 OA
ATOM     82  O   UNL A   1      49.161  27.742  24.666  1.00  0.00    -0.744 OA
ENDBRANCH  78  79
ENDBRANCH  57  71
BRANCH  58  83
ATOM     83  C   UNL A   1      41.694  33.540  36.354  1.00  0.00     0.058 A 
ATOM     84  C   UNL A   1      40.315  33.443  36.588  1.00  0.00     0.135 A 
ATOM     85  C   UNL A   1      42.457  34.310  37.245  1.00  0.00     0.135 A 
ATOM     86  F   UNL A   1      39.543  32.726  35.756  1.00  0.00    -0.206 F 
ATOM     87  C   UNL A   1      39.711  34.094  37.659  1.00  0.00     0.059 A 
ATOM     88  C   UNL A   1      41.881  34.952  38.335  1.00  0.00     0.059 A 
ATOM     89  F   UNL A   1      43.783  34.424  37.069  1.00  0.00    -0.206 F 
ATOM     90  C   UNL A   1      40.503  34.845  38.529  1.00  0.00     0.060 A 
BRANCH  90  91
ATOM     91  S   UNL A   1      39.720  35.648  39.943  1.00  0.00     0.124 S 
ATOM     92  O   UNL A   1      40.827  35.725  40.888  1.00  0.00    -0.237 OA
ATOM     93  O   UNL A   1      39.279  36.918  39.373  1.00  0.00    -0.237 OA
ATOM     94  O   UNL A   1      38.647  34.725  40.300  1.00  0.00    -0.744 OA
ENDBRANCH  90  91
ENDBRANCH  58  83
BRANCH  70  95
ATOM     95  C   UNL A   1      43.138  35.414  29.798  1.00  0.00     0.058 A 
ATOM     96  C   UNL A   1      44.074  36.459  29.772  1.00  0.00     0.135 A 
ATOM     97  C   UNL A   1      41.967  35.560  29.039  1.00  0.00     0.135 A 
ATOM     98  F   UNL A   1      45.206  36.371  30.488  1.00  0.00    -0.206 F 
ATOM     99  C   UNL A   1      43.847  37.617  29.034  1.00  0.00     0.059 A 
ATOM    100  C   UNL A   1      41.729  36.699  28.276  1.00  0.00     0.059 A 
ATOM    101  F   UNL A   1      41.045  34.584  29.023  1.00  0.00    -0.206 F 
ATOM    102  C   UNL A   1      42.671  37.728  28.289  1.00  0.00     0.060 A 
BRANCH 102 103
ATOM    103  S   UNL A   1      42.400  39.220  27.310  1.00  0.00     0.124 S 
ATOM    104  O   UNL A   1      43.742  39.489  26.807  1.00  0.00    -0.237 OA
ATOM    105  O   UNL A   1      41.429  38.772  26.315  1.00  0.00    -0.237 OA
ATOM    106  O   UNL A   1      41.889  40.177  28.286  1.00  0.00    -0.744 OA
ENDBRANCH 102 103
ENDBRANCH  70  95
ENDBRANCH  44  45
ENDBRANCH  37  39
ENDBRANCH  36  37
ENDBRANCH  35  36
ENDBRANCH  34  35
ENDBRANCH   1  34
TORSDOF 27
ENDMDL
MODEL 3
REMARK VINA RESULT:      -6.6      4.533     12.359
REMARK SMILES CCCC[C@@H](Sc1nc(OCCC2CCCCC2)cc(OCCC2CCCCC2)n1)C(=O)OCCOC(=O)c1ccc(-c2c3nc(c(-c4c(F)cc(S(=O)(=O)[O-])cc4F)c4ccc([nH]4)c(-c4c(F)cc(S(=O)(=O)[O-])cc4F)c4nc(c(-c5c(F)cc(S(=O)(=O)[O-])cc5F)c5ccc2[nH]5)C=C4)C=C3)cc1
REMARK SMILES IDX 33 1 31 2 32 3 5 4 4 5 3 6 2 7 1 8 6 9 7 10 8 11 30 12 9 13
REMARK SMILES IDX 20 14 19 15 10 16 11 17 12 18 13 19 14 20 18 21 15 22 17 23
REMARK SMILES IDX 16 24 21 25 22 26 23 27 24 28 25 29 29 30 26 31 28 32 27 33
REMARK SMILES IDX 34 34 35 35 36 36 37 37 38 38 39 39 40 40 104 41 41 42
REMARK SMILES IDX 103 43 42 44 43 45 44 46 97 47 45 48 102 49 96 50 98 51
REMARK SMILES IDX 46 52 101 53 95 54 94 55 47 57 81 58 60 59 80 60 61 61 64 62
REMARK SMILES IDX 79 63 99 64 62 65 63 66 78 68 100 69 65 70 48 71 49 72 58 73
REMARK SMILES IDX 50 74 51 75 57 76 59 77 52 78 53 79 54 80 55 81 56 82 82 83
REMARK SMILES IDX 83 84 92 85 84 86 85 87 91 88 93 89 86 90 87 91 88 92 89 93
REMARK SMILES IDX 90 94 66 95 67 96 76 97 68 98 69 99 75 100 77 101 70 102
REMARK SMILES IDX 71 103 72 104 73 105 74 106
REMARK H PARENT 98 56 64 67
REMARK Flexibility Score: inf
ROOT
ATOM      1  O   UNL A   1      49.271  26.500  28.018  1.00  0.00    -0.461 OA
ENDROOT
BRANCH   1   2
ATOM      2  C   UNL A   1      48.674  25.316  27.705  1.00  0.00     0.319 C 
ATOM      3  O   UNL A   1      49.263  24.243  27.623  1.00  0.00    -0.251 OA
BRANCH   2   4
ATOM      4  C   UNL A   1      47.177  25.462  27.456  1.00  0.00     0.164 C 
BRANCH   4   5
ATOM      5  C   UNL A   1      46.425  25.919  28.727  1.00  0.00     0.027 C 
BRANCH   5   6
ATOM      6  C   UNL A   1      44.980  25.432  28.893  1.00  0.00     0.001 C 
BRANCH   6   7
ATOM      7  C   UNL A   1      43.957  26.509  29.277  1.00  0.00    -0.003 C 
ATOM      8  C   UNL A   1      43.748  26.646  30.777  1.00  0.00     0.004 C 
ENDBRANCH   6   7
ENDBRANCH   5   6
ENDBRANCH   4   5
BRANCH   4   9
ATOM      9  S   UNL A   1      46.982  26.605  26.015  1.00  0.00    -0.071 SA
BRANCH   9  10
ATOM     10  C   UNL A   1      45.326  26.213  25.505  1.00  0.00     0.195 A 
ATOM     11  N   UNL A   1      44.468  27.231  25.303  1.00  0.00    -0.187 NA
ATOM     12  N   UNL A   1      45.003  24.914  25.462  1.00  0.00    -0.187 NA
ATOM     13  C   UNL A   1      43.205  26.876  25.044  1.00  0.00     0.221 A 
ATOM     14  C   UNL A   1      43.733  24.594  25.232  1.00  0.00     0.221 A 
ATOM     15  C   UNL A   1      42.811  25.562  24.996  1.00  0.00     0.136 A 
BRANCH  13  16
ATOM     16  O   UNL A   1      42.327  27.892  24.715  1.00  0.00    -0.477 OA
BRANCH  16  17
ATOM     17  C   UNL A   1      42.028  28.823  25.767  1.00  0.00     0.231 C 
BRANCH  17  18
ATOM     18  C   UNL A   1      41.479  28.164  27.068  1.00  0.00     0.045 C 
BRANCH  18  19
ATOM     19  C   UNL A   1      41.335  29.170  28.217  1.00  0.00    -0.008 C 
ATOM     20  C   UNL A   1      40.581  28.741  29.477  1.00  0.00     0.004 C 
ATOM     21  C   UNL A   1      42.686  29.771  28.630  1.00  0.00     0.004 C 
ATOM     22  C   UNL A   1      40.289  30.010  30.304  1.00  0.00     0.000 C 
ATOM     23  C   UNL A   1      42.496  31.023  29.479  1.00  0.00     0.000 C 
ATOM     24  C   UNL A   1      41.556  30.795  30.660  1.00  0.00     0.000 C 
ENDBRANCH  18  19
ENDBRANCH  17  18
ENDBRANCH  16  17
ENDBRANCH  13  16
BRANCH  14  25
ATOM     25  O   UNL A   1      43.474  23.259  25.352  1.00  0.00    -0.477 OA
BRANCH  25  26
ATOM     26  C   UNL A   1      43.657  22.574  26.592  1.00  0.00     0.231 C 
BRANCH  26  27
ATOM     27  C   UNL A   1      42.936  23.221  27.793  1.00  0.00     0.045 C 
BRANCH  27  28
ATOM     28  C   UNL A   1      41.387  23.303  27.820  1.00  0.00    -0.008 C 
ATOM     29  C   UNL A   1      40.888  24.744  27.975  1.00  0.00     0.004 C 
ATOM     30  C   UNL A   1      40.725  22.533  26.668  1.00  0.00     0.004 C 
ATOM     31  C   UNL A   1      39.383  24.916  27.829  1.00  0.00     0.000 C 
ATOM     32  C   UNL A   1      39.218  22.773  26.559  1.00  0.00     0.000 C 
ATOM     33  C   UNL A   1      38.880  24.258  26.554  1.00  0.00     0.000 C 
ENDBRANCH  27  28
ENDBRANCH  26  27
ENDBRANCH  25  26
ENDBRANCH  14  25
ENDBRANCH   9  10
ENDBRANCH   4   9
ENDBRANCH   2   4
ENDBRANCH   1   2
BRANCH   1  34
ATOM     34  C   UNL A   1      50.694  26.559  27.816  1.00  0.00     0.274 C 
BRANCH  34  35
ATOM     35  C   UNL A   1      51.082  27.804  27.018  1.00  0.00     0.275 C 
BRANCH  35  36
ATOM     36  O   UNL A   1      50.484  28.988  27.576  1.00  0.00    -0.458 OA
BRANCH  36  37
ATOM     37  C   UNL A   1      49.444  29.500  26.883  1.00  0.00     0.338 C 
ATOM     38  O   UNL A   1      49.178  29.319  25.703  1.00  0.00    -0.246 OA
BRANCH  37  39
ATOM     39  C   UNL A   1      48.593  30.297  27.776  1.00  0.00     0.060 A 
ATOM     40  C   UNL A   1      49.162  30.895  28.902  1.00  0.00     0.016 A 
ATOM     41  C   UNL A   1      47.216  30.354  27.562  1.00  0.00     0.016 A 
ATOM     42  C   UNL A   1      48.352  31.532  29.841  1.00  0.00     0.010 A 
ATOM     43  C   UNL A   1      46.407  31.016  28.491  1.00  0.00     0.010 A 
ATOM     44  C   UNL A   1      46.966  31.592  29.646  1.00  0.00    -0.014 A 
BRANCH  44  45
ATOM     45  C   UNL A   1      46.089  32.228  30.661  1.00  0.00     0.031 A 
ATOM     46  C   UNL A   1      45.990  33.727  30.733  1.00  0.00     0.074 A 
ATOM     47  C   UNL A   1      45.398  31.462  31.526  1.00  0.00     0.049 A 
ATOM     48  N   UNL A   1      45.386  34.475  31.621  1.00  0.00    -0.248 NA
ATOM     49  C   UNL A   1      46.663  34.485  29.667  1.00  0.00     0.031 C 
ATOM     50  C   UNL A   1      45.385  29.999  31.534  1.00  0.00     0.029 A 
ATOM     51  N   UNL A   1      44.585  31.810  32.575  1.00  0.00    -0.354 N 
ATOM     52  C   UNL A   1      45.623  35.788  31.237  1.00  0.00     0.074 A 
ATOM     53  C   UNL A   1      46.440  35.737  30.042  1.00  0.00     0.031 C 
ATOM     54  C   UNL A   1      44.608  29.574  32.544  1.00  0.00     0.029 A 
ATOM     55  C   UNL A   1      44.108  30.731  33.281  1.00  0.00     0.049 A 
ATOM     56  H   UNL A   1      44.365  32.743  32.801  1.00  0.00     0.167 HD
ATOM     57  C   UNL A   1      45.197  36.932  31.826  1.00  0.00     0.037 A 
ATOM     58  C   UNL A   1      43.378  30.680  34.411  1.00  0.00     0.037 A 
ATOM     59  C   UNL A   1      44.372  36.975  33.006  1.00  0.00     0.049 A 
ATOM     60  C   UNL A   1      42.959  31.964  35.077  1.00  0.00     0.074 A 
ATOM     61  C   UNL A   1      43.875  38.084  33.669  1.00  0.00     0.029 A 
ATOM     62  N   UNL A   1      43.922  35.861  33.700  1.00  0.00    -0.354 N 
ATOM     63  N   UNL A   1      43.196  33.199  34.706  1.00  0.00    -0.248 NA
ATOM     64  C   UNL A   1      42.180  31.846  36.317  1.00  0.00     0.031 C 
ATOM     65  C   UNL A   1      43.152  37.641  34.784  1.00  0.00     0.029 A 
ATOM     66  C   UNL A   1      43.167  36.256  34.793  1.00  0.00     0.049 A 
ATOM     67  H   UNL A   1      44.111  34.928  33.453  1.00  0.00     0.167 HD
ATOM     68  C   UNL A   1      42.581  34.006  35.658  1.00  0.00     0.074 A 
ATOM     69  C   UNL A   1      41.952  33.118  36.614  1.00  0.00     0.031 C 
ATOM     70  C   UNL A   1      42.543  35.359  35.733  1.00  0.00     0.037 A 
BRANCH  57  71
ATOM     71  C   UNL A   1      45.635  38.233  31.215  1.00  0.00     0.058 A 
ATOM     72  C   UNL A   1      44.857  38.897  30.255  1.00  0.00     0.135 A 
ATOM     73  C   UNL A   1      46.834  38.842  31.622  1.00  0.00     0.135 A 
ATOM     74  F   UNL A   1      43.709  38.352  29.820  1.00  0.00    -0.206 F 
ATOM     75  C   UNL A   1      45.264  40.106  29.699  1.00  0.00     0.059 A 
ATOM     76  C   UNL A   1      47.251  40.060  31.096  1.00  0.00     0.059 A 
ATOM     77  F   UNL A   1      47.616  38.248  32.538  1.00  0.00    -0.206 F 
ATOM     78  C   UNL A   1      46.465  40.678  30.124  1.00  0.00     0.060 A 
BRANCH  78  79
ATOM     79  S   UNL A   1      46.981  42.247  29.394  1.00  0.00     0.124 S 
ATOM     80  O   UNL A   1      48.277  41.890  28.824  1.00  0.00    -0.237 OA
ATOM     81  O   UNL A   1      45.918  42.512  28.430  1.00  0.00    -0.237 OA
ATOM     82  O   UNL A   1      47.027  43.154  30.537  1.00  0.00    -0.744 OA
ENDBRANCH  78  79
ENDBRANCH  57  71
BRANCH  58  83
ATOM     83  C   UNL A   1      43.014  29.365  34.999  1.00  0.00     0.058 A 
ATOM     84  C   UNL A   1      41.895  28.656  34.541  1.00  0.00     0.135 A 
ATOM     85  C   UNL A   1      43.784  28.788  36.020  1.00  0.00     0.135 A 
ATOM     86  F   UNL A   1      41.122  29.174  33.574  1.00  0.00    -0.206 F 
ATOM     87  C   UNL A   1      41.543  27.424  35.083  1.00  0.00     0.059 A 
ATOM     88  C   UNL A   1      43.466  27.547  36.562  1.00  0.00     0.059 A 
ATOM     89  F   UNL A   1      44.871  29.424  36.484  1.00  0.00    -0.206 F 
ATOM     90  C   UNL A   1      42.337  26.876  36.092  1.00  0.00     0.060 A 
BRANCH  90  91
ATOM     91  S   UNL A   1      41.902  25.255  36.758  1.00  0.00     0.124 S 
ATOM     92  O   UNL A   1      43.136  24.874  37.434  1.00  0.00    -0.237 OA
ATOM     93  O   UNL A   1      40.771  25.570  37.624  1.00  0.00    -0.237 OA
ATOM     94  O   UNL A   1      41.570  24.482  35.565  1.00  0.00    -0.744 OA
ENDBRANCH  90  91
ENDBRANCH  58  83
BRANCH  70  95
ATOM     95  C   UNL A   1      41.771  35.962  36.872  1.00  0.00     0.058 A 
ATOM     96  C   UNL A   1      42.410  36.403  38.041  1.00  0.00     0.135 A 
ATOM     97  C   UNL A   1      40.383  36.142  36.774  1.00  0.00     0.135 A 
ATOM     98  F   UNL A   1      43.735  36.246  38.187  1.00  0.00    -0.206 F 
ATOM     99  C   UNL A   1      41.696  36.984  39.084  1.00  0.00     0.059 A 
ATOM    100  C   UNL A   1      39.650  36.741  37.795  1.00  0.00     0.059 A 
ATOM    101  F   UNL A   1      39.725  35.747  35.672  1.00  0.00    -0.206 F 
ATOM    102  C   UNL A   1      40.315  37.148  38.952  1.00  0.00     0.060 A 
BRANCH 102 103
ATOM    103  S   UNL A   1      39.400  37.932  40.296  1.00  0.00     0.124 S 
ATOM    104  O   UNL A   1      38.176  38.343  39.617  1.00  0.00    -0.237 OA
ATOM    105  O   UNL A   1      39.256  36.843  41.257  1.00  0.00    -0.237 OA
ATOM    106  O   UNL A   1      40.281  39.018  40.717  1.00  0.00    -0.744 OA
ENDBRANCH 102 103
ENDBRANCH  70  95
ENDBRANCH  44  45
ENDBRANCH  37  39
ENDBRANCH  36  37
ENDBRANCH  35  36
ENDBRANCH  34  35
ENDBRANCH   1  34
TORSDOF 27
ENDMDL
