MODEL 1
REMARK VINA RESULT:     -11.7      0.000      0.000
REMARK SMILES C=CCn1nc(C(=O)OCCOC(=O)c2ccc(-c3c4nc(c(-c5c(F)cc(S(=O)(=O)[O-])cc5F)c5ccc([nH]5)c(-c5c(F)cc(S(=O)(=O)[O-])cc5F)c5nc(c(-c6c(F)cc(S(=O)(=O)[O-])cc6F)c6ccc3[nH]6)C=C5)C=C4)cc2)c2c1CC[C@@H]([NH+]1CCC(C(C)(C)O)CC1)C2
REMARK SMILES IDX 10 1 9 2 7 3 8 4 6 5 4 6 5 7 82 8 81 9 83 10 96 11 84 12
REMARK SMILES IDX 85 13 3 14 2 15 1 16 86 17 87 18 95 19 88 21 94 22 89 23
REMARK SMILES IDX 90 24 91 25 92 26 93 27 11 29 12 30 13 31 14 32 15 33 16 34
REMARK SMILES IDX 80 35 17 36 79 37 18 38 19 39 20 40 73 41 21 42 78 43 72 44
REMARK SMILES IDX 74 45 22 46 77 47 71 48 70 49 23 51 57 52 36 53 56 54 37 55
REMARK SMILES IDX 40 56 55 57 75 58 38 59 39 60 54 62 76 63 41 64 24 65 25 66
REMARK SMILES IDX 34 67 26 68 27 69 33 70 35 71 28 72 29 73 30 74 31 75 32 76
REMARK SMILES IDX 58 77 59 78 68 79 60 80 61 81 67 82 69 83 62 84 63 85 64 86
REMARK SMILES IDX 65 87 66 88 42 89 43 90 52 91 44 92 45 93 51 94 53 95 46 96
REMARK SMILES IDX 47 97 48 98 49 99 50 100
REMARK H PARENT 86 20 93 28 74 50 40 61
REMARK Flexibility Score: inf
ROOT
ATOM      1  C   UNL A   1      39.407  21.897  26.363  1.00  0.00     0.275 C 
ENDROOT
BRANCH   1   2
ATOM      2  O   UNL A   1      38.244  21.763  25.536  1.00  0.00    -0.457 OA
BRANCH   2   3
ATOM      3  C   UNL A   1      37.264  22.722  25.601  1.00  0.00     0.359 C 
ATOM      4  O   UNL A   1      37.479  23.898  25.891  1.00  0.00    -0.244 OA
BRANCH   3   5
ATOM      5  C   UNL A   1      35.948  22.152  25.263  1.00  0.00     0.174 A 
ATOM      6  N   UNL A   1      34.347  20.781  24.906  1.00  0.00    -0.265 N 
ATOM      7  N   UNL A   1      35.603  20.851  25.424  1.00  0.00    -0.165 NA
ATOM      8  C   UNL A   1      34.059  21.898  24.174  1.00  0.00     0.043 A 
ATOM      9  C   UNL A   1      34.864  22.874  24.704  1.00  0.00     0.014 A 
ATOM     10  C   UNL A   1      33.048  22.107  23.122  1.00  0.00     0.062 C 
ATOM     11  C   UNL A   1      34.627  24.331  24.512  1.00  0.00     0.105 C 
ATOM     12  C   UNL A   1      32.944  23.611  22.787  1.00  0.00     0.072 C 
ATOM     13  C   UNL A   1      33.199  24.613  23.948  1.00  0.00     0.189 C 
BRANCH   6  14
ATOM     14  C   UNL A   1      33.491  19.619  25.156  1.00  0.00     0.171 C 
BRANCH  14  15
ATOM     15  C   UNL A   1      33.621  18.544  24.102  1.00  0.00    -0.011 C 
ATOM     16  C   UNL A   1      32.770  17.522  23.914  1.00  0.00     0.006 C 
ENDBRANCH  14  15
ENDBRANCH   6  14
BRANCH  13  17
ATOM     17  N   UNL A   1      32.194  24.852  25.006  1.00  0.00    -0.332 N 
ATOM     18  C   UNL A   1      30.808  25.128  24.672  1.00  0.00     0.262 C 
ATOM     19  C   UNL A   1      32.601  25.684  26.125  1.00  0.00     0.262 C 
ATOM     20  H   UNL A   1      32.186  23.872  25.289  1.00  0.00     0.348 HD
ATOM     21  C   UNL A   1      30.496  26.590  24.352  1.00  0.00     0.068 C 
ATOM     22  C   UNL A   1      32.582  27.171  25.812  1.00  0.00     0.068 C 
ATOM     23  C   UNL A   1      31.317  27.686  25.081  1.00  0.00     0.031 C 
BRANCH  23  24
ATOM     24  C   UNL A   1      31.648  28.949  24.194  1.00  0.00     0.062 C 
ATOM     25  C   UNL A   1      33.145  29.275  24.111  1.00  0.00     0.042 C 
ATOM     26  C   UNL A   1      31.083  28.777  22.779  1.00  0.00     0.042 C 
BRANCH  24  27
ATOM     27  O   UNL A   1      31.010  30.115  24.727  1.00  0.00    -0.390 OA
ATOM     28  H   UNL A   1      30.985  30.055  25.695  1.00  0.00     0.211 HD
ENDBRANCH  24  27
ENDBRANCH  23  24
ENDBRANCH  13  17
ENDBRANCH   3   5
ENDBRANCH   2   3
ENDBRANCH   1   2
BRANCH   1  29
ATOM     29  C   UNL A   1      40.367  20.740  26.124  1.00  0.00     0.275 C 
BRANCH  29  30
ATOM     30  O   UNL A   1      41.637  21.085  26.656  1.00  0.00    -0.458 OA
BRANCH  30  31
ATOM     31  C   UNL A   1      42.671  21.114  25.786  1.00  0.00     0.338 C 
ATOM     32  O   UNL A   1      43.104  20.184  25.130  1.00  0.00    -0.246 OA
BRANCH  31  33
ATOM     33  C   UNL A   1      43.279  22.446  25.849  1.00  0.00     0.060 A 
ATOM     34  C   UNL A   1      44.308  22.641  26.775  1.00  0.00     0.016 A 
ATOM     35  C   UNL A   1      42.573  23.507  25.271  1.00  0.00     0.016 A 
ATOM     36  C   UNL A   1      44.433  23.890  27.342  1.00  0.00     0.010 A 
ATOM     37  C   UNL A   1      42.663  24.729  25.866  1.00  0.00     0.010 A 
ATOM     38  C   UNL A   1      43.516  24.868  26.958  1.00  0.00    -0.014 A 
BRANCH  38  39
ATOM     39  C   UNL A   1      43.399  26.083  27.728  1.00  0.00     0.031 A 
ATOM     40  C   UNL A   1      44.434  27.080  27.386  1.00  0.00     0.074 A 
ATOM     41  C   UNL A   1      42.301  26.286  28.483  1.00  0.00     0.049 A 
ATOM     42  N   UNL A   1      45.428  27.465  28.116  1.00  0.00    -0.248 NA
ATOM     43  C   UNL A   1      44.519  27.523  25.983  1.00  0.00     0.031 C 
ATOM     44  C   UNL A   1      41.101  25.449  28.592  1.00  0.00     0.029 A 
ATOM     45  N   UNL A   1      41.971  27.385  29.208  1.00  0.00    -0.354 N 
ATOM     46  C   UNL A   1      46.119  28.382  27.329  1.00  0.00     0.074 A 
ATOM     47  C   UNL A   1      45.694  28.149  25.979  1.00  0.00     0.031 C 
ATOM     48  C   UNL A   1      40.097  26.176  29.133  1.00  0.00     0.029 A 
ATOM     49  C   UNL A   1      40.613  27.480  29.507  1.00  0.00     0.049 A 
ATOM     50  H   UNL A   1      42.632  28.055  29.497  1.00  0.00     0.167 HD
ATOM     51  C   UNL A   1      46.756  29.452  27.877  1.00  0.00     0.037 A 
ATOM     52  C   UNL A   1      39.994  28.629  29.886  1.00  0.00     0.037 A 
ATOM     53  C   UNL A   1      46.882  29.292  29.304  1.00  0.00     0.049 A 
ATOM     54  C   UNL A   1      41.078  29.540  30.378  1.00  0.00     0.074 A 
ATOM     55  C   UNL A   1      47.506  28.363  30.114  1.00  0.00     0.029 A 
ATOM     56  N   UNL A   1      45.957  29.932  30.097  1.00  0.00    -0.354 N 
ATOM     57  N   UNL A   1      41.814  29.281  31.431  1.00  0.00    -0.248 NA
ATOM     58  C   UNL A   1      41.691  30.436  29.403  1.00  0.00     0.031 C 
ATOM     59  C   UNL A   1      46.608  28.162  31.201  1.00  0.00     0.029 A 
ATOM     60  C   UNL A   1      45.528  29.034  31.042  1.00  0.00     0.049 A 
ATOM     61  H   UNL A   1      45.657  30.866  30.004  1.00  0.00     0.167 HD
ATOM     62  C   UNL A   1      43.109  29.638  31.067  1.00  0.00     0.074 A 
ATOM     63  C   UNL A   1      42.961  30.388  29.821  1.00  0.00     0.031 C 
ATOM     64  C   UNL A   1      44.205  29.047  31.632  1.00  0.00     0.037 A 
BRANCH  51  65
ATOM     65  C   UNL A   1      46.922  30.794  27.201  1.00  0.00     0.058 A 
ATOM     66  C   UNL A   1      48.213  31.355  27.131  1.00  0.00     0.135 A 
ATOM     67  C   UNL A   1      45.863  31.667  26.861  1.00  0.00     0.135 A 
ATOM     68  F   UNL A   1      49.298  30.616  27.413  1.00  0.00    -0.206 F 
ATOM     69  C   UNL A   1      48.426  32.704  26.851  1.00  0.00     0.059 A 
ATOM     70  C   UNL A   1      46.059  32.998  26.521  1.00  0.00     0.059 A 
ATOM     71  F   UNL A   1      44.575  31.316  26.935  1.00  0.00    -0.206 F 
ATOM     72  C   UNL A   1      47.337  33.522  26.570  1.00  0.00     0.060 A 
BRANCH  72  73
ATOM     73  S   UNL A   1      47.590  35.288  26.344  1.00  0.00     0.124 S 
ATOM     74  O   UNL A   1      48.933  35.316  25.774  1.00  0.00    -0.237 OA
ATOM     75  O   UNL A   1      46.501  35.636  25.439  1.00  0.00    -0.237 OA
ATOM     76  O   UNL A   1      47.468  35.822  27.698  1.00  0.00    -0.744 OA
ENDBRANCH  72  73
ENDBRANCH  51  65
BRANCH  52  77
ATOM     77  C   UNL A   1      38.659  29.109  29.420  1.00  0.00     0.058 A 
ATOM     78  C   UNL A   1      37.607  29.366  30.318  1.00  0.00     0.135 A 
ATOM     79  C   UNL A   1      38.461  29.565  28.099  1.00  0.00     0.135 A 
ATOM     80  F   UNL A   1      37.713  28.996  31.603  1.00  0.00    -0.206 F 
ATOM     81  C   UNL A   1      36.446  30.057  29.935  1.00  0.00     0.059 A 
ATOM     82  C   UNL A   1      37.312  30.241  27.692  1.00  0.00     0.059 A 
ATOM     83  F   UNL A   1      39.421  29.446  27.170  1.00  0.00    -0.206 F 
ATOM     84  C   UNL A   1      36.315  30.505  28.619  1.00  0.00     0.060 A 
BRANCH  84  85
ATOM     85  S   UNL A   1      34.901  31.531  28.148  1.00  0.00     0.124 S 
ATOM     86  O   UNL A   1      34.098  30.600  27.361  1.00  0.00    -0.237 OA
ATOM     87  O   UNL A   1      34.349  31.912  29.444  1.00  0.00    -0.237 OA
ATOM     88  O   UNL A   1      35.511  32.621  27.389  1.00  0.00    -0.744 OA
ENDBRANCH  84  85
ENDBRANCH  52  77
BRANCH  64  89
ATOM     89  C   UNL A   1      44.019  28.146  32.827  1.00  0.00     0.058 A 
ATOM     90  C   UNL A   1      43.809  28.608  34.140  1.00  0.00     0.135 A 
ATOM     91  C   UNL A   1      43.806  26.780  32.591  1.00  0.00     0.135 A 
ATOM     92  F   UNL A   1      43.893  29.912  34.430  1.00  0.00    -0.206 F 
ATOM     93  C   UNL A   1      43.419  27.748  35.171  1.00  0.00     0.059 A 
ATOM     94  C   UNL A   1      43.387  25.911  33.594  1.00  0.00     0.059 A 
ATOM     95  F   UNL A   1      43.925  26.288  31.346  1.00  0.00    -0.206 F 
ATOM     96  C   UNL A   1      43.200  26.401  34.885  1.00  0.00     0.060 A 
BRANCH  96  97
ATOM     97  S   UNL A   1      42.588  25.309  36.188  1.00  0.00     0.124 S 
ATOM     98  O   UNL A   1      41.579  24.527  35.482  1.00  0.00    -0.237 OA
ATOM     99  O   UNL A   1      43.791  24.582  36.586  1.00  0.00    -0.237 OA
ATOM    100  O   UNL A   1      42.070  26.233  37.194  1.00  0.00    -0.744 OA
ENDBRANCH  96  97
ENDBRANCH  64  89
ENDBRANCH  38  39
ENDBRANCH  31  33
ENDBRANCH  30  31
ENDBRANCH  29  30
ENDBRANCH   1  29
TORSDOF 19
ENDMDL
MODEL 2
REMARK VINA RESULT:     -11.3      2.504      9.224
REMARK SMILES C=CCn1nc(C(=O)OCCOC(=O)c2ccc(-c3c4nc(c(-c5c(F)cc(S(=O)(=O)[O-])cc5F)c5ccc([nH]5)c(-c5c(F)cc(S(=O)(=O)[O-])cc5F)c5nc(c(-c6c(F)cc(S(=O)(=O)[O-])cc6F)c6ccc3[nH]6)C=C5)C=C4)cc2)c2c1CC[C@@H]([NH+]1CCC(C(C)(C)O)CC1)C2
REMARK SMILES IDX 10 1 9 2 7 3 8 4 6 5 4 6 5 7 82 8 81 9 83 10 96 11 84 12
REMARK SMILES IDX 85 13 3 14 2 15 1 16 86 17 87 18 95 19 88 21 94 22 89 23
REMARK SMILES IDX 90 24 91 25 92 26 93 27 11 29 12 30 13 31 14 32 15 33 16 34
REMARK SMILES IDX 80 35 17 36 79 37 18 38 19 39 20 40 73 41 21 42 78 43 72 44
REMARK SMILES IDX 74 45 22 46 77 47 71 48 70 49 23 51 57 52 36 53 56 54 37 55
REMARK SMILES IDX 40 56 55 57 75 58 38 59 39 60 54 62 76 63 41 64 24 65 25 66
REMARK SMILES IDX 34 67 26 68 27 69 33 70 35 71 28 72 29 73 30 74 31 75 32 76
REMARK SMILES IDX 58 77 59 78 68 79 60 80 61 81 67 82 69 83 62 84 63 85 64 86
REMARK SMILES IDX 65 87 66 88 42 89 43 90 52 91 44 92 45 93 51 94 53 95 46 96
REMARK SMILES IDX 47 97 48 98 49 99 50 100
REMARK H PARENT 86 20 93 28 74 50 40 61
REMARK Flexibility Score: inf
ROOT
ATOM      1  C   UNL A   1      34.740  31.239  27.593  1.00  0.00     0.275 C 
ENDROOT
BRANCH   1   2
ATOM      2  O   UNL A   1      33.651  30.517  27.003  1.00  0.00    -0.457 OA
BRANCH   2   3
ATOM      3  C   UNL A   1      33.867  29.243  26.541  1.00  0.00     0.359 C 
ATOM      4  O   UNL A   1      34.858  28.573  26.827  1.00  0.00    -0.244 OA
BRANCH   3   5
ATOM      5  C   UNL A   1      32.754  28.799  25.684  1.00  0.00     0.174 A 
ATOM      6  N   UNL A   1      31.037  28.786  24.411  1.00  0.00    -0.265 N 
ATOM      7  N   UNL A   1      31.955  29.623  24.963  1.00  0.00    -0.165 NA
ATOM      8  C   UNL A   1      31.070  27.560  25.012  1.00  0.00     0.043 A 
ATOM      9  C   UNL A   1      32.346  27.454  25.505  1.00  0.00     0.014 A 
ATOM     10  C   UNL A   1      30.048  26.500  25.062  1.00  0.00     0.062 C 
ATOM     11  C   UNL A   1      32.976  26.160  25.886  1.00  0.00     0.105 C 
ATOM     12  C   UNL A   1      30.661  25.208  25.643  1.00  0.00     0.072 C 
ATOM     13  C   UNL A   1      32.163  24.942  25.344  1.00  0.00     0.189 C 
BRANCH   6  14
ATOM     14  C   UNL A   1      30.171  29.231  23.316  1.00  0.00     0.171 C 
BRANCH  14  15
ATOM     15  C   UNL A   1      29.405  30.494  23.636  1.00  0.00    -0.011 C 
ATOM     16  C   UNL A   1      28.303  30.926  23.002  1.00  0.00     0.006 C 
ENDBRANCH  14  15
ENDBRANCH   6  14
BRANCH  13  17
ATOM     17  N   UNL A   1      32.624  24.480  24.018  1.00  0.00    -0.332 N 
ATOM     18  C   UNL A   1      31.990  23.352  23.357  1.00  0.00     0.262 C 
ATOM     19  C   UNL A   1      34.060  24.429  23.801  1.00  0.00     0.262 C 
ATOM     20  H   UNL A   1      32.232  25.292  23.543  1.00  0.00     0.348 HD
ATOM     21  C   UNL A   1      32.515  21.977  23.773  1.00  0.00     0.068 C 
ATOM     22  C   UNL A   1      34.723  23.211  24.423  1.00  0.00     0.068 C 
ATOM     23  C   UNL A   1      34.008  21.860  24.177  1.00  0.00     0.031 C 
BRANCH  23  24
ATOM     24  C   UNL A   1      34.285  20.848  25.356  1.00  0.00     0.062 C 
ATOM     25  C   UNL A   1      34.748  21.519  26.655  1.00  0.00     0.042 C 
ATOM     26  C   UNL A   1      33.043  19.993  25.636  1.00  0.00     0.042 C 
BRANCH  24  27
ATOM     27  O   UNL A   1      35.316  19.924  24.989  1.00  0.00    -0.390 OA
ATOM     28  H   UNL A   1      35.928  20.351  24.369  1.00  0.00     0.211 HD
ENDBRANCH  24  27
ENDBRANCH  23  24
ENDBRANCH  13  17
ENDBRANCH   3   5
ENDBRANCH   2   3
ENDBRANCH   1   2
BRANCH   1  29
ATOM     29  C   UNL A   1      34.221  32.259  28.597  1.00  0.00     0.275 C 
BRANCH  29  30
ATOM     30  O   UNL A   1      35.292  32.654  29.440  1.00  0.00    -0.458 OA
BRANCH  30  31
ATOM     31  C   UNL A   1      35.030  32.716  30.765  1.00  0.00     0.338 C 
ATOM     32  O   UNL A   1      34.046  33.198  31.296  1.00  0.00    -0.246 OA
BRANCH  31  33
ATOM     33  C   UNL A   1      36.201  32.206  31.482  1.00  0.00     0.060 A 
ATOM     34  C   UNL A   1      37.286  33.073  31.645  1.00  0.00     0.016 A 
ATOM     35  C   UNL A   1      36.317  30.819  31.630  1.00  0.00     0.016 A 
ATOM     36  C   UNL A   1      38.549  32.525  31.667  1.00  0.00     0.010 A 
ATOM     37  C   UNL A   1      37.567  30.279  31.602  1.00  0.00     0.010 A 
ATOM     38  C   UNL A   1      38.656  31.142  31.516  1.00  0.00    -0.014 A 
BRANCH  38  39
ATOM     39  C   UNL A   1      39.938  30.549  31.224  1.00  0.00     0.031 A 
ATOM     40  C   UNL A   1      40.768  30.356  32.431  1.00  0.00     0.074 A 
ATOM     41  C   UNL A   1      40.174  30.049  29.995  1.00  0.00     0.049 A 
ATOM     42  N   UNL A   1      41.846  30.989  32.756  1.00  0.00    -0.248 NA
ATOM     43  C   UNL A   1      40.208  29.538  33.521  1.00  0.00     0.031 C 
ATOM     44  C   UNL A   1      39.247  29.939  28.862  1.00  0.00     0.029 A 
ATOM     45  N   UNL A   1      41.273  29.389  29.552  1.00  0.00    -0.354 N 
ATOM     46  C   UNL A   1      42.216  30.463  33.989  1.00  0.00     0.074 A 
ATOM     47  C   UNL A   1      41.047  29.820  34.516  1.00  0.00     0.031 C 
ATOM     48  C   UNL A   1      39.738  29.050  27.968  1.00  0.00     0.029 A 
ATOM     49  C   UNL A   1      41.052  28.621  28.410  1.00  0.00     0.049 A 
ATOM     50  H   UNL A   1      42.149  29.447  29.998  1.00  0.00     0.167 HD
ATOM     51  C   UNL A   1      43.523  30.337  34.346  1.00  0.00     0.037 A 
ATOM     52  C   UNL A   1      41.865  27.611  28.002  1.00  0.00     0.037 A 
ATOM     53  C   UNL A   1      44.367  31.099  33.459  1.00  0.00     0.049 A 
ATOM     54  C   UNL A   1      43.183  27.843  28.675  1.00  0.00     0.074 A 
ATOM     55  C   UNL A   1      44.466  32.441  33.146  1.00  0.00     0.029 A 
ATOM     56  N   UNL A   1      44.987  30.419  32.436  1.00  0.00    -0.354 N 
ATOM     57  N   UNL A   1      43.935  28.892  28.444  1.00  0.00    -0.248 NA
ATOM     58  C   UNL A   1      43.392  27.207  29.971  1.00  0.00     0.031 C 
ATOM     59  C   UNL A   1      44.704  32.472  31.742  1.00  0.00     0.029 A 
ATOM     60  C   UNL A   1      44.822  31.156  31.290  1.00  0.00     0.049 A 
ATOM     61  H   UNL A   1      45.463  29.560  32.511  1.00  0.00     0.167 HD
ATOM     62  C   UNL A   1      44.403  29.285  29.695  1.00  0.00     0.074 A 
ATOM     63  C   UNL A   1      44.072  28.179  30.590  1.00  0.00     0.031 C 
ATOM     64  C   UNL A   1      44.742  30.583  29.961  1.00  0.00     0.037 A 
BRANCH  51  65
ATOM     65  C   UNL A   1      44.071  29.245  35.237  1.00  0.00     0.058 A 
ATOM     66  C   UNL A   1      43.808  27.904  34.893  1.00  0.00     0.135 A 
ATOM     67  C   UNL A   1      44.600  29.446  36.533  1.00  0.00     0.135 A 
ATOM     68  F   UNL A   1      43.322  27.589  33.682  1.00  0.00    -0.206 F 
ATOM     69  C   UNL A   1      43.960  26.857  35.801  1.00  0.00     0.059 A 
ATOM     70  C   UNL A   1      44.815  28.409  37.431  1.00  0.00     0.059 A 
ATOM     71  F   UNL A   1      44.846  30.657  37.042  1.00  0.00    -0.206 F 
ATOM     72  C   UNL A   1      44.442  27.126  37.077  1.00  0.00     0.060 A 
BRANCH  72  73
ATOM     73  S   UNL A   1      44.510  25.806  38.296  1.00  0.00     0.124 S 
ATOM     74  O   UNL A   1      43.327  26.096  39.100  1.00  0.00    -0.237 OA
ATOM     75  O   UNL A   1      44.439  24.616  37.456  1.00  0.00    -0.237 OA
ATOM     76  O   UNL A   1      45.793  26.024  38.958  1.00  0.00    -0.744 OA
ENDBRANCH  72  73
ENDBRANCH  51  65
BRANCH  52  77
ATOM     77  C   UNL A   1      41.429  26.285  27.472  1.00  0.00     0.058 A 
ATOM     78  C   UNL A   1      42.152  25.609  26.472  1.00  0.00     0.135 A 
ATOM     79  C   UNL A   1      40.421  25.531  28.113  1.00  0.00     0.135 A 
ATOM     80  F   UNL A   1      43.148  26.232  25.825  1.00  0.00    -0.206 F 
ATOM     81  C   UNL A   1      41.909  24.263  26.152  1.00  0.00     0.059 A 
ATOM     82  C   UNL A   1      40.154  24.200  27.803  1.00  0.00     0.059 A 
ATOM     83  F   UNL A   1      39.714  26.040  29.133  1.00  0.00    -0.206 F 
ATOM     84  C   UNL A   1      40.916  23.561  26.836  1.00  0.00     0.060 A 
BRANCH  84  85
ATOM     85  S   UNL A   1      40.697  21.788  26.548  1.00  0.00     0.124 S 
ATOM     86  O   UNL A   1      41.831  21.478  25.683  1.00  0.00    -0.237 OA
ATOM     87  O   UNL A   1      40.758  21.244  27.900  1.00  0.00    -0.237 OA
ATOM     88  O   UNL A   1      39.386  21.708  25.906  1.00  0.00    -0.744 OA
ENDBRANCH  84  85
ENDBRANCH  52  77
BRANCH  64  89
ATOM     89  C   UNL A   1      44.821  31.570  28.823  1.00  0.00     0.058 A 
ATOM     90  C   UNL A   1      45.876  31.621  27.893  1.00  0.00     0.135 A 
ATOM     91  C   UNL A   1      43.674  32.321  28.528  1.00  0.00     0.135 A 
ATOM     92  F   UNL A   1      46.965  30.857  28.048  1.00  0.00    -0.206 F 
ATOM     93  C   UNL A   1      45.798  32.395  26.731  1.00  0.00     0.059 A 
ATOM     94  C   UNL A   1      43.561  33.073  27.363  1.00  0.00     0.059 A 
ATOM     95  F   UNL A   1      42.606  32.263  29.342  1.00  0.00    -0.206 F 
ATOM     96  C   UNL A   1      44.630  33.111  26.470  1.00  0.00     0.060 A 
BRANCH  96  97
ATOM     97  S   UNL A   1      44.481  34.022  24.917  1.00  0.00     0.124 S 
ATOM     98  O   UNL A   1      45.798  34.637  24.796  1.00  0.00    -0.237 OA
ATOM     99  O   UNL A   1      44.183  32.965  23.954  1.00  0.00    -0.237 OA
ATOM    100  O   UNL A   1      43.380  34.949  25.168  1.00  0.00    -0.744 OA
ENDBRANCH  96  97
ENDBRANCH  64  89
ENDBRANCH  38  39
ENDBRANCH  31  33
ENDBRANCH  30  31
ENDBRANCH  29  30
ENDBRANCH   1  29
TORSDOF 19
ENDMDL
MODEL 3
REMARK VINA RESULT:     -11.1      2.690      8.378
REMARK SMILES C=CCn1nc(C(=O)OCCOC(=O)c2ccc(-c3c4nc(c(-c5c(F)cc(S(=O)(=O)[O-])cc5F)c5ccc([nH]5)c(-c5c(F)cc(S(=O)(=O)[O-])cc5F)c5nc(c(-c6c(F)cc(S(=O)(=O)[O-])cc6F)c6ccc3[nH]6)C=C5)C=C4)cc2)c2c1CC[C@@H]([NH+]1CCC(C(C)(C)O)CC1)C2
REMARK SMILES IDX 10 1 9 2 7 3 8 4 6 5 4 6 5 7 82 8 81 9 83 10 96 11 84 12
REMARK SMILES IDX 85 13 3 14 2 15 1 16 86 17 87 18 95 19 88 21 94 22 89 23
REMARK SMILES IDX 90 24 91 25 92 26 93 27 11 29 12 30 13 31 14 32 15 33 16 34
REMARK SMILES IDX 80 35 17 36 79 37 18 38 19 39 20 40 73 41 21 42 78 43 72 44
REMARK SMILES IDX 74 45 22 46 77 47 71 48 70 49 23 51 57 52 36 53 56 54 37 55
REMARK SMILES IDX 40 56 55 57 75 58 38 59 39 60 54 62 76 63 41 64 24 65 25 66
REMARK SMILES IDX 34 67 26 68 27 69 33 70 35 71 28 72 29 73 30 74 31 75 32 76
REMARK SMILES IDX 58 77 59 78 68 79 60 80 61 81 67 82 69 83 62 84 63 85 64 86
REMARK SMILES IDX 65 87 66 88 42 89 43 90 52 91 44 92 45 93 51 94 53 95 46 96
REMARK SMILES IDX 47 97 48 98 49 99 50 100
REMARK H PARENT 86 20 93 28 74 50 40 61
REMARK Flexibility Score: inf
ROOT
ATOM      1  C   UNL A   1      34.432  29.955  26.758  1.00  0.00     0.275 C 
ENDROOT
BRANCH   1   2
ATOM      2  O   UNL A   1      33.078  29.644  27.109  1.00  0.00    -0.457 OA
BRANCH   2   3
ATOM      3  C   UNL A   1      32.057  30.335  26.508  1.00  0.00     0.359 C 
ATOM      4  O   UNL A   1      31.711  31.468  26.840  1.00  0.00    -0.244 OA
BRANCH   3   5
ATOM      5  C   UNL A   1      31.459  29.546  25.417  1.00  0.00     0.174 A 
ATOM      6  N   UNL A   1      30.344  28.971  23.685  1.00  0.00    -0.265 N 
ATOM      7  N   UNL A   1      30.767  30.066  24.373  1.00  0.00    -0.165 NA
ATOM      8  C   UNL A   1      30.489  27.839  24.435  1.00  0.00     0.043 A 
ATOM      9  C   UNL A   1      31.502  28.133  25.311  1.00  0.00     0.014 A 
ATOM     10  C   UNL A   1      29.824  26.529  24.311  1.00  0.00     0.062 C 
ATOM     11  C   UNL A   1      32.277  27.099  26.050  1.00  0.00     0.105 C 
ATOM     12  C   UNL A   1      30.517  25.501  25.231  1.00  0.00     0.072 C 
ATOM     13  C   UNL A   1      32.045  25.674  25.459  1.00  0.00     0.189 C 
BRANCH   6  14
ATOM     14  C   UNL A   1      29.819  29.092  22.323  1.00  0.00     0.171 C 
BRANCH  14  15
ATOM     15  C   UNL A   1      28.385  29.565  22.276  1.00  0.00    -0.011 C 
ATOM     16  C   UNL A   1      27.376  29.091  23.024  1.00  0.00     0.006 C 
ENDBRANCH  14  15
ENDBRANCH   6  14
BRANCH  13  17
ATOM     17  N   UNL A   1      33.034  25.306  24.424  1.00  0.00    -0.332 N 
ATOM     18  C   UNL A   1      32.811  24.168  23.548  1.00  0.00     0.262 C 
ATOM     19  C   UNL A   1      34.435  25.363  24.801  1.00  0.00     0.262 C 
ATOM     20  H   UNL A   1      32.799  26.110  23.843  1.00  0.00     0.348 HD
ATOM     21  C   UNL A   1      33.235  22.815  24.119  1.00  0.00     0.068 C 
ATOM     22  C   UNL A   1      34.891  24.167  25.620  1.00  0.00     0.068 C 
ATOM     23  C   UNL A   1      34.447  22.782  25.088  1.00  0.00     0.031 C 
BRANCH  23  24
ATOM     24  C   UNL A   1      34.311  21.739  26.264  1.00  0.00     0.062 C 
ATOM     25  C   UNL A   1      33.783  22.341  27.572  1.00  0.00     0.042 C 
ATOM     26  C   UNL A   1      33.416  20.566  25.844  1.00  0.00     0.042 C 
BRANCH  24  27
ATOM     27  O   UNL A   1      35.586  21.162  26.570  1.00  0.00    -0.390 OA
ATOM     28  H   UNL A   1      36.075  21.004  25.748  1.00  0.00     0.211 HD
ENDBRANCH  24  27
ENDBRANCH  23  24
ENDBRANCH  13  17
ENDBRANCH   3   5
ENDBRANCH   2   3
ENDBRANCH   1   2
BRANCH   1  29
ATOM     29  C   UNL A   1      35.080  30.809  27.839  1.00  0.00     0.275 C 
BRANCH  29  30
ATOM     30  O   UNL A   1      35.414  29.978  28.939  1.00  0.00    -0.458 OA
BRANCH  30  31
ATOM     31  C   UNL A   1      36.593  30.226  29.552  1.00  0.00     0.338 C 
ATOM     32  O   UNL A   1      36.956  31.279  30.045  1.00  0.00    -0.246 OA
BRANCH  31  33
ATOM     33  C   UNL A   1      37.433  29.033  29.418  1.00  0.00     0.060 A 
ATOM     34  C   UNL A   1      37.944  28.470  30.591  1.00  0.00     0.016 A 
ATOM     35  C   UNL A   1      37.965  28.755  28.154  1.00  0.00     0.016 A 
ATOM     36  C   UNL A   1      39.175  27.856  30.525  1.00  0.00     0.010 A 
ATOM     37  C   UNL A   1      39.204  28.192  28.096  1.00  0.00     0.010 A 
ATOM     38  C   UNL A   1      39.828  27.849  29.293  1.00  0.00    -0.014 A 
BRANCH  38  39
ATOM     39  C   UNL A   1      41.227  27.504  29.224  1.00  0.00     0.031 A 
ATOM     40  C   UNL A   1      41.460  26.166  28.643  1.00  0.00     0.074 A 
ATOM     41  C   UNL A   1      42.156  28.448  29.471  1.00  0.00     0.049 A 
ATOM     42  N   UNL A   1      41.880  25.105  29.249  1.00  0.00    -0.248 NA
ATOM     43  C   UNL A   1      40.936  25.909  27.289  1.00  0.00     0.031 C 
ATOM     44  C   UNL A   1      41.954  29.877  29.740  1.00  0.00     0.029 A 
ATOM     45  N   UNL A   1      43.506  28.344  29.381  1.00  0.00    -0.354 N 
ATOM     46  C   UNL A   1      41.893  24.114  28.273  1.00  0.00     0.074 A 
ATOM     47  C   UNL A   1      41.048  24.584  27.214  1.00  0.00     0.031 C 
ATOM     48  C   UNL A   1      43.121  30.536  29.550  1.00  0.00     0.029 A 
ATOM     49  C   UNL A   1      44.162  29.568  29.259  1.00  0.00     0.049 A 
ATOM     50  H   UNL A   1      43.979  27.481  29.400  1.00  0.00     0.167 HD
ATOM     51  C   UNL A   1      42.826  23.123  28.278  1.00  0.00     0.037 A 
ATOM     52  C   UNL A   1      45.432  29.709  28.796  1.00  0.00     0.037 A 
ATOM     53  C   UNL A   1      43.513  23.078  29.545  1.00  0.00     0.049 A 
ATOM     54  C   UNL A   1      46.078  28.365  28.944  1.00  0.00     0.074 A 
ATOM     55  C   UNL A   1      43.109  22.857  30.848  1.00  0.00     0.029 A 
ATOM     56  N   UNL A   1      44.739  23.698  29.623  1.00  0.00    -0.354 N 
ATOM     57  N   UNL A   1      46.286  27.790  30.104  1.00  0.00    -0.248 NA
ATOM     58  C   UNL A   1      45.988  27.452  27.810  1.00  0.00     0.031 C 
ATOM     59  C   UNL A   1      43.871  23.773  31.628  1.00  0.00     0.029 A 
ATOM     60  C   UNL A   1      44.754  24.442  30.776  1.00  0.00     0.049 A 
ATOM     61  H   UNL A   1      45.473  23.622  28.971  1.00  0.00     0.167 HD
ATOM     62  C   UNL A   1      45.949  26.453  29.913  1.00  0.00     0.074 A 
ATOM     63  C   UNL A   1      45.818  26.298  28.465  1.00  0.00     0.031 C 
ATOM     64  C   UNL A   1      45.511  25.666  30.941  1.00  0.00     0.037 A 
BRANCH  51  65
ATOM     65  C   UNL A   1      43.380  22.457  27.039  1.00  0.00     0.058 A 
ATOM     66  C   UNL A   1      42.723  21.314  26.541  1.00  0.00     0.135 A 
ATOM     67  C   UNL A   1      44.653  22.716  26.480  1.00  0.00     0.135 A 
ATOM     68  F   UNL A   1      41.501  20.978  26.984  1.00  0.00    -0.206 F 
ATOM     69  C   UNL A   1      43.328  20.440  25.639  1.00  0.00     0.059 A 
ATOM     70  C   UNL A   1      45.247  21.889  25.535  1.00  0.00     0.059 A 
ATOM     71  F   UNL A   1      45.437  23.720  26.884  1.00  0.00    -0.206 F 
ATOM     72  C   UNL A   1      44.602  20.726  25.160  1.00  0.00     0.060 A 
BRANCH  72  73
ATOM     73  S   UNL A   1      45.441  19.536  24.106  1.00  0.00     0.124 S 
ATOM     74  O   UNL A   1      46.821  20.001  24.189  1.00  0.00    -0.237 OA
ATOM     75  O   UNL A   1      45.147  18.276  24.779  1.00  0.00    -0.237 OA
ATOM     76  O   UNL A   1      44.791  19.716  22.811  1.00  0.00    -0.744 OA
ENDBRANCH  72  73
ENDBRANCH  51  65
BRANCH  52  77
ATOM     77  C   UNL A   1      45.918  30.760  27.853  1.00  0.00     0.058 A 
ATOM     78  C   UNL A   1      45.118  31.240  26.799  1.00  0.00     0.135 A 
ATOM     79  C   UNL A   1      47.092  31.498  28.114  1.00  0.00     0.135 A 
ATOM     80  F   UNL A   1      43.968  30.622  26.492  1.00  0.00    -0.206 F 
ATOM     81  C   UNL A   1      45.449  32.395  26.073  1.00  0.00     0.059 A 
ATOM     82  C   UNL A   1      47.449  32.639  27.399  1.00  0.00     0.059 A 
ATOM     83  F   UNL A   1      47.897  31.184  29.140  1.00  0.00    -0.206 F 
ATOM     84  C   UNL A   1      46.612  33.098  26.392  1.00  0.00     0.060 A 
BRANCH  84  85
ATOM     85  S   UNL A   1      46.972  34.672  25.574  1.00  0.00     0.124 S 
ATOM     86  O   UNL A   1      46.717  35.634  26.641  1.00  0.00    -0.237 OA
ATOM     87  O   UNL A   1      48.369  34.506  25.185  1.00  0.00    -0.237 OA
ATOM     88  O   UNL A   1      46.020  34.705  24.466  1.00  0.00    -0.744 OA
ENDBRANCH  84  85
ENDBRANCH  52  77
BRANCH  64  89
ATOM     89  C   UNL A   1      45.599  26.188  32.354  1.00  0.00     0.058 A 
ATOM     90  C   UNL A   1      44.540  26.822  33.030  1.00  0.00     0.135 A 
ATOM     91  C   UNL A   1      46.712  25.813  33.122  1.00  0.00     0.135 A 
ATOM     92  F   UNL A   1      43.401  27.122  32.393  1.00  0.00    -0.206 F 
ATOM     93  C   UNL A   1      44.592  27.084  34.403  1.00  0.00     0.059 A 
ATOM     94  C   UNL A   1      46.773  26.034  34.494  1.00  0.00     0.059 A 
ATOM     95  F   UNL A   1      47.728  25.145  32.549  1.00  0.00    -0.206 F 
ATOM     96  C   UNL A   1      45.712  26.676  35.129  1.00  0.00     0.060 A 
BRANCH  96  97
ATOM     97  S   UNL A   1      45.736  26.910  36.920  1.00  0.00     0.124 S 
ATOM     98  O   UNL A   1      44.623  27.831  37.123  1.00  0.00    -0.237 OA
ATOM     99  O   UNL A   1      45.537  25.553  37.422  1.00  0.00    -0.237 OA
ATOM    100  O   UNL A   1      47.062  27.469  37.174  1.00  0.00    -0.744 OA
ENDBRANCH  96  97
ENDBRANCH  64  89
ENDBRANCH  38  39
ENDBRANCH  31  33
ENDBRANCH  30  31
ENDBRANCH  29  30
ENDBRANCH   1  29
TORSDOF 19
ENDMDL
