MODEL 1
REMARK VINA RESULT:     -12.1      0.000      0.000
REMARK SMILES COc1ccc2c(c1)c(CC(=O)OCCOC(=O)c1ccc(-c3c4nc(c(-c5c(F)cc(S(=O)(=O)[O-])cc5F)c5ccc([nH]5)c(-c5c(F)cc(S(=O)(=O)[O-])cc5F)c5nc(c(-c6c(F)cc(S(=O)(=O)[O-])cc6F)c6ccc3[nH]6)C=C5)C=C4)cc1)c(C)n2Cc1ccn(C(F)F)c(=O)c1
REMARK SMILES IDX 14 1 13 2 11 3 12 4 10 5 9 6 3 7 4 8 8 9 5 10 7 11 6 12
REMARK SMILES IDX 87 13 85 14 86 15 2 16 1 17 88 18 89 19 90 20 98 21 91 22
REMARK SMILES IDX 96 23 92 24 97 25 93 26 94 27 95 28 15 29 16 30 17 31 18 32
REMARK SMILES IDX 19 33 20 34 84 35 21 36 83 37 22 38 23 39 24 40 77 41 25 42
REMARK SMILES IDX 82 43 76 44 78 45 26 46 81 47 75 48 74 49 27 51 61 52 40 53
REMARK SMILES IDX 60 54 41 55 44 56 59 57 79 58 42 59 43 60 58 62 80 63 45 64
REMARK SMILES IDX 28 65 29 66 38 67 30 68 31 69 37 70 39 71 32 72 33 73 34 74
REMARK SMILES IDX 35 75 36 76 62 77 63 78 72 79 64 80 65 81 71 82 73 83 66 84
REMARK SMILES IDX 67 85 68 86 69 87 70 88 46 89 47 90 56 91 48 92 49 93 55 94
REMARK SMILES IDX 57 95 50 96 51 97 52 98 53 99 54 100
REMARK H PARENT 78 50 44 61
REMARK Flexibility Score: inf
ROOT
ATOM      1  C   UNL A   1      39.162  21.397  26.053  1.00  0.00     0.274 C 
ENDROOT
BRANCH   1   2
ATOM      2  O   UNL A   1      38.511  22.687  26.004  1.00  0.00    -0.462 OA
BRANCH   2   3
ATOM      3  C   UNL A   1      37.351  22.688  25.307  1.00  0.00     0.310 C 
ATOM      4  O   UNL A   1      37.191  22.024  24.287  1.00  0.00    -0.252 OA
BRANCH   3   5
ATOM      5  C   UNL A   1      36.312  23.674  25.754  1.00  0.00     0.160 C 
BRANCH   5   6
ATOM      6  C   UNL A   1      34.883  23.622  25.294  1.00  0.00    -0.008 A 
ATOM      7  C   UNL A   1      33.346  25.665  22.368  1.00  0.00     0.119 A 
ATOM      8  C   UNL A   1      32.113  25.044  22.385  1.00  0.00     0.048 A 
ATOM      9  C   UNL A   1      34.362  25.209  23.220  1.00  0.00     0.057 A 
ATOM     10  C   UNL A   1      31.848  24.037  23.322  1.00  0.00     0.031 A 
ATOM     11  C   UNL A   1      34.126  24.249  24.236  1.00  0.00     0.007 A 
ATOM     12  C   UNL A   1      32.833  23.704  24.277  1.00  0.00     0.049 A 
ATOM     13  N   UNL A   1      32.808  22.826  25.346  1.00  0.00    -0.340 N 
ATOM     14  C   UNL A   1      33.935  23.009  26.109  1.00  0.00     0.020 A 
ATOM     15  C   UNL A   1      34.111  22.545  27.520  1.00  0.00     0.065 C 
BRANCH   7  16
ATOM     16  O   UNL A   1      33.684  26.633  21.458  1.00  0.00    -0.497 OA
ATOM     17  C   UNL A   1      33.825  27.940  22.017  1.00  0.00     0.278 C 
ENDBRANCH   7  16
BRANCH  13  18
ATOM     18  C   UNL A   1      31.774  21.823  25.599  1.00  0.00     0.158 C 
BRANCH  18  19
ATOM     19  C   UNL A   1      32.136  20.502  24.951  1.00  0.00    -0.021 A 
ATOM     20  C   UNL A   1      32.669  19.441  25.782  1.00  0.00     0.024 A 
ATOM     21  C   UNL A   1      32.029  20.292  23.629  1.00  0.00     0.077 A 
ATOM     22  C   UNL A   1      33.228  18.360  25.230  1.00  0.00     0.095 A 
ATOM     23  C   UNL A   1      32.539  19.033  23.009  1.00  0.00     0.255 A 
ATOM     24  N   UNL A   1      33.210  18.173  23.863  1.00  0.00    -0.258 N 
ATOM     25  O   UNL A   1      32.355  18.855  21.809  1.00  0.00    -0.269 OA
BRANCH  24  26
ATOM     26  C   UNL A   1      33.820  17.004  23.288  1.00  0.00     0.451 C 
ATOM     27  F   UNL A   1      35.163  17.016  23.482  1.00  0.00    -0.185 F 
ATOM     28  F   UNL A   1      33.330  15.867  23.836  1.00  0.00    -0.185 F 
ENDBRANCH  24  26
ENDBRANCH  18  19
ENDBRANCH  13  18
ENDBRANCH   5   6
ENDBRANCH   3   5
ENDBRANCH   2   3
ENDBRANCH   1   2
BRANCH   1  29
ATOM     29  C   UNL A   1      40.362  21.428  27.004  1.00  0.00     0.275 C 
BRANCH  29  30
ATOM     30  O   UNL A   1      40.840  22.779  27.134  1.00  0.00    -0.458 OA
BRANCH  30  31
ATOM     31  C   UNL A   1      41.911  23.135  26.383  1.00  0.00     0.338 C 
ATOM     32  O   UNL A   1      42.398  22.510  25.455  1.00  0.00    -0.246 OA
BRANCH  31  33
ATOM     33  C   UNL A   1      42.143  24.571  26.651  1.00  0.00     0.060 A 
ATOM     34  C   UNL A   1      43.118  24.992  27.555  1.00  0.00     0.016 A 
ATOM     35  C   UNL A   1      41.150  25.454  26.231  1.00  0.00     0.016 A 
ATOM     36  C   UNL A   1      42.942  26.207  28.212  1.00  0.00     0.010 A 
ATOM     37  C   UNL A   1      40.951  26.631  26.914  1.00  0.00     0.010 A 
ATOM     38  C   UNL A   1      41.780  26.952  27.978  1.00  0.00    -0.014 A 
BRANCH  38  39
ATOM     39  C   UNL A   1      41.506  28.190  28.684  1.00  0.00     0.031 A 
ATOM     40  C   UNL A   1      42.552  29.200  28.416  1.00  0.00     0.074 A 
ATOM     41  C   UNL A   1      40.382  28.532  29.346  1.00  0.00     0.049 A 
ATOM     42  N   UNL A   1      43.587  29.433  29.148  1.00  0.00    -0.248 NA
ATOM     43  C   UNL A   1      42.582  29.854  27.097  1.00  0.00     0.031 C 
ATOM     44  C   UNL A   1      39.090  27.860  29.454  1.00  0.00     0.029 A 
ATOM     45  N   UNL A   1      40.181  29.665  30.075  1.00  0.00    -0.354 N 
ATOM     46  C   UNL A   1      44.285  30.426  28.484  1.00  0.00     0.074 A 
ATOM     47  C   UNL A   1      43.769  30.460  27.140  1.00  0.00     0.031 C 
ATOM     48  C   UNL A   1      38.188  28.681  30.047  1.00  0.00     0.029 A 
ATOM     49  C   UNL A   1      38.878  29.870  30.514  1.00  0.00     0.049 A 
ATOM     50  H   UNL A   1      40.909  30.296  30.278  1.00  0.00     0.167 HD
ATOM     51  C   UNL A   1      45.050  31.324  29.158  1.00  0.00     0.037 A 
ATOM     52  C   UNL A   1      38.428  30.940  31.221  1.00  0.00     0.037 A 
ATOM     53  C   UNL A   1      45.265  30.916  30.525  1.00  0.00     0.049 A 
ATOM     54  C   UNL A   1      39.622  31.553  31.865  1.00  0.00     0.074 A 
ATOM     55  C   UNL A   1      45.827  29.799  31.115  1.00  0.00     0.029 A 
ATOM     56  N   UNL A   1      44.469  31.483  31.495  1.00  0.00    -0.354 N 
ATOM     57  N   UNL A   1      40.320  30.974  32.805  1.00  0.00    -0.248 NA
ATOM     58  C   UNL A   1      40.312  32.605  31.133  1.00  0.00     0.031 C 
ATOM     59  C   UNL A   1      44.974  29.488  32.216  1.00  0.00     0.029 A 
ATOM     60  C   UNL A   1      43.979  30.465  32.277  1.00  0.00     0.049 A 
ATOM     61  H   UNL A   1      44.286  32.445  31.607  1.00  0.00     0.167 HD
ATOM     62  C   UNL A   1      41.641  31.284  32.512  1.00  0.00     0.074 A 
ATOM     63  C   UNL A   1      41.567  32.349  31.513  1.00  0.00     0.031 C 
ATOM     64  C   UNL A   1      42.668  30.470  32.897  1.00  0.00     0.037 A 
BRANCH  51  65
ATOM     65  C   UNL A   1      45.315  32.710  28.652  1.00  0.00     0.058 A 
ATOM     66  C   UNL A   1      46.636  33.146  28.464  1.00  0.00     0.135 A 
ATOM     67  C   UNL A   1      44.314  33.704  28.534  1.00  0.00     0.135 A 
ATOM     68  F   UNL A   1      47.662  32.289  28.600  1.00  0.00    -0.206 F 
ATOM     69  C   UNL A   1      46.944  34.477  28.188  1.00  0.00     0.059 A 
ATOM     70  C   UNL A   1      44.591  35.018  28.193  1.00  0.00     0.059 A 
ATOM     71  F   UNL A   1      43.032  33.461  28.835  1.00  0.00    -0.206 F 
ATOM     72  C   UNL A   1      45.913  35.405  28.052  1.00  0.00     0.060 A 
BRANCH  72  73
ATOM     73  S   UNL A   1      46.312  37.135  27.754  1.00  0.00     0.124 S 
ATOM     74  O   UNL A   1      46.558  37.613  29.109  1.00  0.00    -0.237 OA
ATOM     75  O   UNL A   1      47.481  37.029  26.889  1.00  0.00    -0.237 OA
ATOM     76  O   UNL A   1      45.107  37.651  27.110  1.00  0.00    -0.744 OA
ENDBRANCH  72  73
ENDBRANCH  51  65
BRANCH  52  77
ATOM     77  C   UNL A   1      37.139  31.678  31.103  1.00  0.00     0.058 A 
ATOM     78  C   UNL A   1      36.227  31.708  32.176  1.00  0.00     0.135 A 
ATOM     79  C   UNL A   1      36.930  32.628  30.084  1.00  0.00     0.135 A 
ATOM     80  F   UNL A   1      36.351  30.842  33.192  1.00  0.00    -0.206 F 
ATOM     81  C   UNL A   1      35.222  32.677  32.279  1.00  0.00     0.059 A 
ATOM     82  C   UNL A   1      35.932  33.601  30.163  1.00  0.00     0.059 A 
ATOM     83  F   UNL A   1      37.754  32.702  29.029  1.00  0.00    -0.206 F 
ATOM     84  C   UNL A   1      35.104  33.642  31.280  1.00  0.00     0.060 A 
BRANCH  84  85
ATOM     85  S   UNL A   1      33.954  35.020  31.512  1.00  0.00     0.124 S 
ATOM     86  O   UNL A   1      33.578  35.336  30.139  1.00  0.00    -0.237 OA
ATOM     87  O   UNL A   1      32.914  34.416  32.337  1.00  0.00    -0.237 OA
ATOM     88  O   UNL A   1      34.770  36.031  32.182  1.00  0.00    -0.744 OA
ENDBRANCH  84  85
ENDBRANCH  52  77
BRANCH  64  89
ATOM     89  C   UNL A   1      42.369  29.359  33.880  1.00  0.00     0.058 A 
ATOM     90  C   UNL A   1      41.972  28.057  33.522  1.00  0.00     0.135 A 
ATOM     91  C   UNL A   1      42.638  29.589  35.237  1.00  0.00     0.135 A 
ATOM     92  F   UNL A   1      41.782  27.723  32.239  1.00  0.00    -0.206 F 
ATOM     93  C   UNL A   1      41.819  27.042  34.474  1.00  0.00     0.059 A 
ATOM     94  C   UNL A   1      42.521  28.587  36.199  1.00  0.00     0.059 A 
ATOM     95  F   UNL A   1      43.070  30.794  35.642  1.00  0.00    -0.206 F 
ATOM     96  C   UNL A   1      42.100  27.316  35.812  1.00  0.00     0.060 A 
BRANCH  96  97
ATOM     97  S   UNL A   1      41.971  25.989  37.033  1.00  0.00     0.124 S 
ATOM     98  O   UNL A   1      42.993  26.363  38.005  1.00  0.00    -0.237 OA
ATOM     99  O   UNL A   1      40.590  26.112  37.488  1.00  0.00    -0.237 OA
ATOM    100  O   UNL A   1      42.258  24.784  36.260  1.00  0.00    -0.744 OA
ENDBRANCH  96  97
ENDBRANCH  64  89
ENDBRANCH  38  39
ENDBRANCH  31  33
ENDBRANCH  30  31
ENDBRANCH  29  30
ENDBRANCH   1  29
TORSDOF 19
ENDMDL
MODEL 2
REMARK VINA RESULT:     -11.5      3.245      9.366
REMARK SMILES COc1ccc2c(c1)c(CC(=O)OCCOC(=O)c1ccc(-c3c4nc(c(-c5c(F)cc(S(=O)(=O)[O-])cc5F)c5ccc([nH]5)c(-c5c(F)cc(S(=O)(=O)[O-])cc5F)c5nc(c(-c6c(F)cc(S(=O)(=O)[O-])cc6F)c6ccc3[nH]6)C=C5)C=C4)cc1)c(C)n2Cc1ccn(C(F)F)c(=O)c1
REMARK SMILES IDX 14 1 13 2 11 3 12 4 10 5 9 6 3 7 4 8 8 9 5 10 7 11 6 12
REMARK SMILES IDX 87 13 85 14 86 15 2 16 1 17 88 18 89 19 90 20 98 21 91 22
REMARK SMILES IDX 96 23 92 24 97 25 93 26 94 27 95 28 15 29 16 30 17 31 18 32
REMARK SMILES IDX 19 33 20 34 84 35 21 36 83 37 22 38 23 39 24 40 77 41 25 42
REMARK SMILES IDX 82 43 76 44 78 45 26 46 81 47 75 48 74 49 27 51 61 52 40 53
REMARK SMILES IDX 60 54 41 55 44 56 59 57 79 58 42 59 43 60 58 62 80 63 45 64
REMARK SMILES IDX 28 65 29 66 38 67 30 68 31 69 37 70 39 71 32 72 33 73 34 74
REMARK SMILES IDX 35 75 36 76 62 77 63 78 72 79 64 80 65 81 71 82 73 83 66 84
REMARK SMILES IDX 67 85 68 86 69 87 70 88 46 89 47 90 56 91 48 92 49 93 55 94
REMARK SMILES IDX 57 95 50 96 51 97 52 98 53 99 54 100
REMARK H PARENT 78 50 44 61
REMARK Flexibility Score: inf
ROOT
ATOM      1  C   UNL A   1      33.689  32.155  27.823  1.00  0.00     0.274 C 
ENDROOT
BRANCH   1   2
ATOM      2  O   UNL A   1      34.521  30.973  27.797  1.00  0.00    -0.462 OA
BRANCH   2   3
ATOM      3  C   UNL A   1      34.074  30.007  26.961  1.00  0.00     0.310 C 
ATOM      4  O   UNL A   1      34.787  29.088  26.567  1.00  0.00    -0.252 OA
BRANCH   3   5
ATOM      5  C   UNL A   1      32.695  30.204  26.402  1.00  0.00     0.160 C 
BRANCH   5   6
ATOM      6  C   UNL A   1      31.889  29.089  25.802  1.00  0.00    -0.008 A 
ATOM      7  C   UNL A   1      30.027  29.190  22.393  1.00  0.00     0.119 A 
ATOM      8  C   UNL A   1      29.658  27.860  22.385  1.00  0.00     0.048 A 
ATOM      9  C   UNL A   1      30.844  29.676  23.423  1.00  0.00     0.057 A 
ATOM     10  C   UNL A   1      30.009  27.029  23.456  1.00  0.00     0.031 A 
ATOM     11  C   UNL A   1      31.163  28.901  24.566  1.00  0.00     0.007 A 
ATOM     12  C   UNL A   1      30.695  27.578  24.562  1.00  0.00     0.049 A 
ATOM     13  N   UNL A   1      31.082  27.017  25.765  1.00  0.00    -0.340 N 
ATOM     14  C   UNL A   1      31.531  28.008  26.603  1.00  0.00     0.020 A 
ATOM     15  C   UNL A   1      31.681  27.887  28.086  1.00  0.00     0.065 C 
BRANCH   7  16
ATOM     16  O   UNL A   1      29.746  30.051  21.362  1.00  0.00    -0.497 OA
ATOM     17  C   UNL A   1      28.773  31.048  21.679  1.00  0.00     0.278 C 
ENDBRANCH   7  16
BRANCH  13  18
ATOM     18  C   UNL A   1      31.070  25.589  26.082  1.00  0.00     0.158 C 
BRANCH  18  19
ATOM     19  C   UNL A   1      32.477  25.028  26.090  1.00  0.00    -0.021 A 
ATOM     20  C   UNL A   1      33.494  25.684  25.292  1.00  0.00     0.024 A 
ATOM     21  C   UNL A   1      32.809  23.916  26.769  1.00  0.00     0.077 A 
ATOM     22  C   UNL A   1      34.672  25.093  25.070  1.00  0.00     0.095 A 
ATOM     23  C   UNL A   1      34.165  23.309  26.628  1.00  0.00     0.255 A 
ATOM     24  N   UNL A   1      34.993  23.901  25.688  1.00  0.00    -0.258 N 
ATOM     25  O   UNL A   1      34.446  22.337  27.321  1.00  0.00    -0.269 OA
BRANCH  24  26
ATOM     26  C   UNL A   1      36.265  23.278  25.434  1.00  0.00     0.451 C 
ATOM     27  F   UNL A   1      36.772  23.684  24.243  1.00  0.00    -0.185 F 
ATOM     28  F   UNL A   1      37.169  23.584  26.396  1.00  0.00    -0.185 F 
ENDBRANCH  24  26
ENDBRANCH  18  19
ENDBRANCH  13  18
ENDBRANCH   5   6
ENDBRANCH   3   5
ENDBRANCH   2   3
ENDBRANCH   1   2
BRANCH   1  29
ATOM     29  C   UNL A   1      34.412  33.315  28.512  1.00  0.00     0.275 C 
BRANCH  29  30
ATOM     30  O   UNL A   1      35.529  32.809  29.265  1.00  0.00    -0.458 OA
BRANCH  30  31
ATOM     31  C   UNL A   1      35.345  32.610  30.593  1.00  0.00     0.338 C 
ATOM     32  O   UNL A   1      34.309  32.754  31.220  1.00  0.00    -0.246 OA
BRANCH  31  33
ATOM     33  C   UNL A   1      36.518  31.839  31.060  1.00  0.00     0.060 A 
ATOM     34  C   UNL A   1      37.730  32.466  31.349  1.00  0.00     0.016 A 
ATOM     35  C   UNL A   1      36.470  30.458  30.882  1.00  0.00     0.016 A 
ATOM     36  C   UNL A   1      38.909  31.738  31.213  1.00  0.00     0.010 A 
ATOM     37  C   UNL A   1      37.636  29.752  30.700  1.00  0.00     0.010 A 
ATOM     38  C   UNL A   1      38.851  30.417  30.754  1.00  0.00    -0.014 A 
BRANCH  38  39
ATOM     39  C   UNL A   1      40.050  29.631  30.524  1.00  0.00     0.031 A 
ATOM     40  C   UNL A   1      40.686  29.242  31.800  1.00  0.00     0.074 A 
ATOM     41  C   UNL A   1      40.485  29.109  29.359  1.00  0.00     0.049 A 
ATOM     42  N   UNL A   1      41.645  29.867  32.392  1.00  0.00    -0.248 NA
ATOM     43  C   UNL A   1      40.048  28.195  32.618  1.00  0.00     0.031 C 
ATOM     44  C   UNL A   1      39.859  29.053  28.041  1.00  0.00     0.029 A 
ATOM     45  N   UNL A   1      41.658  28.448  29.152  1.00  0.00    -0.354 N 
ATOM     46  C   UNL A   1      41.878  29.156  33.556  1.00  0.00     0.074 A 
ATOM     47  C   UNL A   1      40.727  28.316  33.760  1.00  0.00     0.031 C 
ATOM     48  C   UNL A   1      40.572  28.239  27.223  1.00  0.00     0.029 A 
ATOM     49  C   UNL A   1      41.795  27.852  27.903  1.00  0.00     0.049 A 
ATOM     50  H   UNL A   1      42.361  28.397  29.839  1.00  0.00     0.167 HD
ATOM     51  C   UNL A   1      43.111  29.117  34.126  1.00  0.00     0.037 A 
ATOM     52  C   UNL A   1      42.852  27.112  27.479  1.00  0.00     0.037 A 
ATOM     53  C   UNL A   1      43.989  30.110  33.558  1.00  0.00     0.049 A 
ATOM     54  C   UNL A   1      44.003  27.483  28.348  1.00  0.00     0.074 A 
ATOM     55  C   UNL A   1      43.938  31.488  33.457  1.00  0.00     0.029 A 
ATOM     56  N   UNL A   1      44.874  29.702  32.586  1.00  0.00    -0.354 N 
ATOM     57  N   UNL A   1      44.570  28.660  28.342  1.00  0.00    -0.248 NA
ATOM     58  C   UNL A   1      44.216  26.695  29.553  1.00  0.00     0.031 C 
ATOM     59  C   UNL A   1      44.402  31.784  32.139  1.00  0.00     0.029 A 
ATOM     60  C   UNL A   1      44.770  30.582  31.534  1.00  0.00     0.049 A 
ATOM     61  H   UNL A   1      45.473  28.922  32.636  1.00  0.00     0.167 HD
ATOM     62  C   UNL A   1      44.849  28.931  29.674  1.00  0.00     0.074 A 
ATOM     63  C   UNL A   1      44.673  27.654  30.364  1.00  0.00     0.031 C 
ATOM     64  C   UNL A   1      44.930  30.212  30.141  1.00  0.00     0.037 A 
BRANCH  51  65
ATOM     65  C   UNL A   1      43.588  27.962  34.956  1.00  0.00     0.058 A 
ATOM     66  C   UNL A   1      44.009  28.179  36.278  1.00  0.00     0.135 A 
ATOM     67  C   UNL A   1      43.836  26.672  34.432  1.00  0.00     0.135 A 
ATOM     68  F   UNL A   1      43.860  29.383  36.852  1.00  0.00    -0.206 F 
ATOM     69  C   UNL A   1      44.642  27.186  37.024  1.00  0.00     0.059 A 
ATOM     70  C   UNL A   1      44.401  25.649  35.178  1.00  0.00     0.059 A 
ATOM     71  F   UNL A   1      43.624  26.374  33.143  1.00  0.00    -0.206 F 
ATOM     72  C   UNL A   1      44.831  25.924  36.464  1.00  0.00     0.060 A 
BRANCH  72  73
ATOM     73  S   UNL A   1      45.701  24.659  37.405  1.00  0.00     0.124 S 
ATOM     74  O   UNL A   1      44.772  24.426  38.504  1.00  0.00    -0.237 OA
ATOM     75  O   UNL A   1      45.819  23.585  36.425  1.00  0.00    -0.237 OA
ATOM     76  O   UNL A   1      46.957  25.311  37.765  1.00  0.00    -0.744 OA
ENDBRANCH  72  73
ENDBRANCH  51  65
BRANCH  52  77
ATOM     77  C   UNL A   1      42.870  25.877  26.647  1.00  0.00     0.058 A 
ATOM     78  C   UNL A   1      43.700  25.787  25.512  1.00  0.00     0.135 A 
ATOM     79  C   UNL A   1      42.342  24.663  27.126  1.00  0.00     0.135 A 
ATOM     80  F   UNL A   1      44.249  26.893  24.987  1.00  0.00    -0.206 F 
ATOM     81  C   UNL A   1      44.056  24.561  24.939  1.00  0.00     0.059 A 
ATOM     82  C   UNL A   1      42.680  23.428  26.569  1.00  0.00     0.059 A 
ATOM     83  F   UNL A   1      41.559  24.632  28.215  1.00  0.00    -0.206 F 
ATOM     84  C   UNL A   1      43.566  23.381  25.498  1.00  0.00     0.060 A 
BRANCH  84  85
ATOM     85  S   UNL A   1      44.192  21.792  24.900  1.00  0.00     0.124 S 
ATOM     86  O   UNL A   1      45.462  21.681  25.608  1.00  0.00    -0.237 OA
ATOM     87  O   UNL A   1      43.143  20.871  25.322  1.00  0.00    -0.237 OA
ATOM     88  O   UNL A   1      44.299  21.993  23.457  1.00  0.00    -0.744 OA
ENDBRANCH  84  85
ENDBRANCH  52  77
BRANCH  64  89
ATOM     89  C   UNL A   1      44.975  31.338  29.133  1.00  0.00     0.058 A 
ATOM     90  C   UNL A   1      43.847  32.025  28.646  1.00  0.00     0.135 A 
ATOM     91  C   UNL A   1      46.231  31.836  28.755  1.00  0.00     0.135 A 
ATOM     92  F   UNL A   1      42.611  31.677  29.027  1.00  0.00    -0.206 F 
ATOM     93  C   UNL A   1      43.963  33.133  27.799  1.00  0.00     0.059 A 
ATOM     94  C   UNL A   1      46.372  32.955  27.936  1.00  0.00     0.059 A 
ATOM     95  F   UNL A   1      47.350  31.261  29.223  1.00  0.00    -0.206 F 
ATOM     96  C   UNL A   1      45.233  33.594  27.452  1.00  0.00     0.060 A 
BRANCH  96  97
ATOM     97  S   UNL A   1      45.386  35.066  26.415  1.00  0.00     0.124 S 
ATOM     98  O   UNL A   1      45.730  34.495  25.117  1.00  0.00    -0.237 OA
ATOM     99  O   UNL A   1      44.057  35.662  26.511  1.00  0.00    -0.237 OA
ATOM    100  O   UNL A   1      46.450  35.831  27.060  1.00  0.00    -0.744 OA
ENDBRANCH  96  97
ENDBRANCH  64  89
ENDBRANCH  38  39
ENDBRANCH  31  33
ENDBRANCH  30  31
ENDBRANCH  29  30
ENDBRANCH   1  29
TORSDOF 19
ENDMDL
MODEL 3
REMARK VINA RESULT:     -11.1      5.245      8.567
REMARK SMILES COc1ccc2c(c1)c(CC(=O)OCCOC(=O)c1ccc(-c3c4nc(c(-c5c(F)cc(S(=O)(=O)[O-])cc5F)c5ccc([nH]5)c(-c5c(F)cc(S(=O)(=O)[O-])cc5F)c5nc(c(-c6c(F)cc(S(=O)(=O)[O-])cc6F)c6ccc3[nH]6)C=C5)C=C4)cc1)c(C)n2Cc1ccn(C(F)F)c(=O)c1
REMARK SMILES IDX 14 1 13 2 11 3 12 4 10 5 9 6 3 7 4 8 8 9 5 10 7 11 6 12
REMARK SMILES IDX 87 13 85 14 86 15 2 16 1 17 88 18 89 19 90 20 98 21 91 22
REMARK SMILES IDX 96 23 92 24 97 25 93 26 94 27 95 28 15 29 16 30 17 31 18 32
REMARK SMILES IDX 19 33 20 34 84 35 21 36 83 37 22 38 23 39 24 40 77 41 25 42
REMARK SMILES IDX 82 43 76 44 78 45 26 46 81 47 75 48 74 49 27 51 61 52 40 53
REMARK SMILES IDX 60 54 41 55 44 56 59 57 79 58 42 59 43 60 58 62 80 63 45 64
REMARK SMILES IDX 28 65 29 66 38 67 30 68 31 69 37 70 39 71 32 72 33 73 34 74
REMARK SMILES IDX 35 75 36 76 62 77 63 78 72 79 64 80 65 81 71 82 73 83 66 84
REMARK SMILES IDX 67 85 68 86 69 87 70 88 46 89 47 90 56 91 48 92 49 93 55 94
REMARK SMILES IDX 57 95 50 96 51 97 52 98 53 99 54 100
REMARK H PARENT 78 50 44 61
REMARK Flexibility Score: inf
ROOT
ATOM      1  C   UNL A   1      45.974  24.563  25.678  1.00  0.00     0.274 C 
ENDROOT
BRANCH   1   2
ATOM      2  O   UNL A   1      45.558  24.957  27.006  1.00  0.00    -0.462 OA
BRANCH   2   3
ATOM      3  C   UNL A   1      45.575  26.294  27.209  1.00  0.00     0.310 C 
ATOM      4  O   UNL A   1      45.821  27.098  26.313  1.00  0.00    -0.252 OA
BRANCH   3   5
ATOM      5  C   UNL A   1      45.435  26.749  28.632  1.00  0.00     0.160 C 
BRANCH   5   6
ATOM      6  C   UNL A   1      46.364  26.308  29.727  1.00  0.00    -0.008 A 
ATOM      7  C   UNL A   1      50.105  25.349  29.305  1.00  0.00     0.119 A 
ATOM      8  C   UNL A   1      50.377  25.216  30.652  1.00  0.00     0.048 A 
ATOM      9  C   UNL A   1      48.842  25.798  28.895  1.00  0.00     0.057 A 
ATOM     10  C   UNL A   1      49.364  25.424  31.595  1.00  0.00     0.031 A 
ATOM     11  C   UNL A   1      47.761  25.948  29.800  1.00  0.00     0.007 A 
ATOM     12  C   UNL A   1      48.056  25.718  31.153  1.00  0.00     0.049 A 
ATOM     13  N   UNL A   1      46.873  25.885  31.849  1.00  0.00    -0.340 N 
ATOM     14  C   UNL A   1      45.828  25.947  30.960  1.00  0.00     0.020 A 
ATOM     15  C   UNL A   1      44.386  25.745  31.301  1.00  0.00     0.065 C 
BRANCH   7  16
ATOM     16  O   UNL A   1      51.057  25.193  28.330  1.00  0.00    -0.497 OA
ATOM     17  C   UNL A   1      51.802  26.376  28.042  1.00  0.00     0.278 C 
ENDBRANCH   7  16
BRANCH  13  18
ATOM     18  C   UNL A   1      46.752  26.029  33.300  1.00  0.00     0.158 C 
BRANCH  18  19
ATOM     19  C   UNL A   1      46.485  24.689  33.953  1.00  0.00    -0.021 A 
ATOM     20  C   UNL A   1      47.612  23.888  34.387  1.00  0.00     0.024 A 
ATOM     21  C   UNL A   1      45.246  24.190  34.102  1.00  0.00     0.077 A 
ATOM     22  C   UNL A   1      47.445  22.609  34.738  1.00  0.00     0.095 A 
ATOM     23  C   UNL A   1      45.034  22.802  34.609  1.00  0.00     0.255 A 
ATOM     24  N   UNL A   1      46.184  22.053  34.805  1.00  0.00    -0.258 N 
ATOM     25  O   UNL A   1      43.886  22.416  34.796  1.00  0.00    -0.269 OA
BRANCH  24  26
ATOM     26  C   UNL A   1      46.024  20.673  35.180  1.00  0.00     0.451 C 
ATOM     27  F   UNL A   1      47.178  19.986  34.991  1.00  0.00    -0.185 F 
ATOM     28  F   UNL A   1      45.675  20.551  36.484  1.00  0.00    -0.185 F 
ENDBRANCH  24  26
ENDBRANCH  18  19
ENDBRANCH  13  18
ENDBRANCH   5   6
ENDBRANCH   3   5
ENDBRANCH   2   3
ENDBRANCH   1   2
BRANCH   1  29
ATOM     29  C   UNL A   1      44.907  23.692  25.009  1.00  0.00     0.275 C 
BRANCH  29  30
ATOM     30  O   UNL A   1      43.605  24.260  25.242  1.00  0.00    -0.458 OA
BRANCH  30  31
ATOM     31  C   UNL A   1      42.715  23.509  25.935  1.00  0.00     0.338 C 
ATOM     32  O   UNL A   1      42.761  22.306  26.128  1.00  0.00    -0.246 OA
BRANCH  31  33
ATOM     33  C   UNL A   1      41.894  24.461  26.716  1.00  0.00     0.060 A 
ATOM     34  C   UNL A   1      41.039  25.366  26.088  1.00  0.00     0.016 A 
ATOM     35  C   UNL A   1      42.249  24.645  28.050  1.00  0.00     0.016 A 
ATOM     36  C   UNL A   1      40.750  26.569  26.727  1.00  0.00     0.010 A 
ATOM     37  C   UNL A   1      42.004  25.853  28.662  1.00  0.00     0.010 A 
ATOM     38  C   UNL A   1      41.353  26.854  27.958  1.00  0.00    -0.014 A 
BRANCH  38  39
ATOM     39  C   UNL A   1      41.148  28.119  28.640  1.00  0.00     0.031 A 
ATOM     40  C   UNL A   1      42.207  29.090  28.292  1.00  0.00     0.074 A 
ATOM     41  C   UNL A   1      40.069  28.512  29.346  1.00  0.00     0.049 A 
ATOM     42  N   UNL A   1      43.283  29.313  28.965  1.00  0.00    -0.248 NA
ATOM     43  C   UNL A   1      42.190  29.706  26.954  1.00  0.00     0.031 C 
ATOM     44  C   UNL A   1      38.766  27.881  29.536  1.00  0.00     0.029 A 
ATOM     45  N   UNL A   1      39.936  29.671  30.050  1.00  0.00    -0.354 N 
ATOM     46  C   UNL A   1      43.975  30.267  28.239  1.00  0.00     0.074 A 
ATOM     47  C   UNL A   1      43.394  30.278  26.922  1.00  0.00     0.031 C 
ATOM     48  C   UNL A   1      37.917  28.744  30.148  1.00  0.00     0.029 A 
ATOM     49  C   UNL A   1      38.662  29.925  30.547  1.00  0.00     0.049 A 
ATOM     50  H   UNL A   1      40.690  30.286  30.199  1.00  0.00     0.167 HD
ATOM     51  C   UNL A   1      44.797  31.160  28.849  1.00  0.00     0.037 A 
ATOM     52  C   UNL A   1      38.277  31.027  31.243  1.00  0.00     0.037 A 
ATOM     53  C   UNL A   1      45.068  30.784  30.215  1.00  0.00     0.049 A 
ATOM     54  C   UNL A   1      39.519  31.623  31.809  1.00  0.00     0.074 A 
ATOM     55  C   UNL A   1      45.628  29.668  30.809  1.00  0.00     0.029 A 
ATOM     56  N   UNL A   1      44.338  31.402  31.206  1.00  0.00    -0.354 N 
ATOM     57  N   UNL A   1      40.247  31.050  32.730  1.00  0.00    -0.248 NA
ATOM     58  C   UNL A   1      40.201  32.634  31.015  1.00  0.00     0.031 C 
ATOM     59  C   UNL A   1      44.822  29.413  31.959  1.00  0.00     0.029 A 
ATOM     60  C   UNL A   1      43.859  30.420  32.040  1.00  0.00     0.049 A 
ATOM     61  H   UNL A   1      44.187  32.371  31.298  1.00  0.00     0.167 HD
ATOM     62  C   UNL A   1      41.559  31.313  32.365  1.00  0.00     0.074 A 
ATOM     63  C   UNL A   1      41.465  32.352  31.340  1.00  0.00     0.031 C 
ATOM     64  C   UNL A   1      42.581  30.480  32.723  1.00  0.00     0.037 A 
BRANCH  51  65
ATOM     65  C   UNL A   1      45.075  32.524  28.290  1.00  0.00     0.058 A 
ATOM     66  C   UNL A   1      46.379  32.866  27.897  1.00  0.00     0.135 A 
ATOM     67  C   UNL A   1      44.138  33.584  28.314  1.00  0.00     0.135 A 
ATOM     68  F   UNL A   1      47.352  31.942  27.885  1.00  0.00    -0.206 F 
ATOM     69  C   UNL A   1      46.730  34.173  27.559  1.00  0.00     0.059 A 
ATOM     70  C   UNL A   1      44.448  34.875  27.916  1.00  0.00     0.059 A 
ATOM     71  F   UNL A   1      42.903  33.432  28.809  1.00  0.00    -0.206 F 
ATOM     72  C   UNL A   1      45.756  35.169  27.571  1.00  0.00     0.060 A 
BRANCH  72  73
ATOM     73  S   UNL A   1      46.220  36.866  27.193  1.00  0.00     0.124 S 
ATOM     74  O   UNL A   1      46.933  36.698  25.932  1.00  0.00    -0.237 OA
ATOM     75  O   UNL A   1      44.920  37.523  27.112  1.00  0.00    -0.237 OA
ATOM     76  O   UNL A   1      47.041  37.254  28.336  1.00  0.00    -0.744 OA
ENDBRANCH  72  73
ENDBRANCH  51  65
BRANCH  52  77
ATOM     77  C   UNL A   1      37.006  31.799  31.166  1.00  0.00     0.058 A 
ATOM     78  C   UNL A   1      36.117  31.830  32.258  1.00  0.00     0.135 A 
ATOM     79  C   UNL A   1      36.800  32.774  30.171  1.00  0.00     0.135 A 
ATOM     80  F   UNL A   1      36.239  30.939  33.254  1.00  0.00    -0.206 F 
ATOM     81  C   UNL A   1      35.138  32.820  32.401  1.00  0.00     0.059 A 
ATOM     82  C   UNL A   1      35.828  33.769  30.290  1.00  0.00     0.059 A 
ATOM     83  F   UNL A   1      37.603  32.849  29.100  1.00  0.00    -0.206 F 
ATOM     84  C   UNL A   1      35.024  33.808  31.424  1.00  0.00     0.060 A 
BRANCH  84  85
ATOM     85  S   UNL A   1      33.914  35.209  31.708  1.00  0.00     0.124 S 
ATOM     86  O   UNL A   1      32.805  34.578  32.416  1.00  0.00    -0.237 OA
ATOM     87  O   UNL A   1      34.748  36.107  32.499  1.00  0.00    -0.237 OA
ATOM     88  O   UNL A   1      33.607  35.674  30.357  1.00  0.00    -0.744 OA
ENDBRANCH  84  85
ENDBRANCH  52  77
BRANCH  64  89
ATOM     89  C   UNL A   1      42.301  29.407  33.751  1.00  0.00     0.058 A 
ATOM     90  C   UNL A   1      41.901  28.091  33.449  1.00  0.00     0.135 A 
ATOM     91  C   UNL A   1      42.590  29.687  35.095  1.00  0.00     0.135 A 
ATOM     92  F   UNL A   1      41.692  27.709  32.182  1.00  0.00    -0.206 F 
ATOM     93  C   UNL A   1      41.766  27.112  34.440  1.00  0.00     0.059 A 
ATOM     94  C   UNL A   1      42.491  28.722  36.095  1.00  0.00     0.059 A 
ATOM     95  F   UNL A   1      43.026  30.908  35.447  1.00  0.00    -0.206 F 
ATOM     96  C   UNL A   1      42.068  27.437  35.762  1.00  0.00     0.060 A 
BRANCH  96  97
ATOM     97  S   UNL A   1      41.961  26.156  37.033  1.00  0.00     0.124 S 
ATOM     98  O   UNL A   1      42.311  24.952  36.289  1.00  0.00    -0.237 OA
ATOM     99  O   UNL A   1      42.945  26.602  38.015  1.00  0.00    -0.237 OA
ATOM    100  O   UNL A   1      40.572  26.231  37.479  1.00  0.00    -0.744 OA
ENDBRANCH  96  97
ENDBRANCH  64  89
ENDBRANCH  38  39
ENDBRANCH  31  33
ENDBRANCH  30  31
ENDBRANCH  29  30
ENDBRANCH   1  29
TORSDOF 19
ENDMDL
