MODEL 1
REMARK VINA RESULT:      -9.6      0.000      0.000
REMARK SMILES CCCC[N@H+](CC)[C@H]1CCC[C@]([NH3+])(C(=O)OCCOC(=O)c2ccc(-c3c4nc(c(-c5c(F)cc(S(=O)(=O)[O-])cc5F)c5ccc([nH]5)c(-c5c(F)cc(S(=O)(=O)[O-])cc5F)c5nc(c(-c6c(F)cc(S(=O)(=O)[O-])cc6F)c6ccc3[nH]6)C=C5)C=C4)cc2)C1
REMARK SMILES IDX 17 1 16 2 14 3 15 4 12 5 8 6 9 7 88 8 10 9 11 10 5 11 4 13
REMARK SMILES IDX 3 14 2 15 1 16 6 17 7 18 13 19 18 23 19 24 20 25 21 26 22 27
REMARK SMILES IDX 23 28 87 29 24 30 86 31 25 32 26 33 27 34 80 35 28 36 85 37
REMARK SMILES IDX 79 38 81 39 29 40 84 41 78 42 77 43 30 45 64 46 43 47 63 48
REMARK SMILES IDX 44 49 47 50 62 51 82 52 45 53 46 54 61 56 83 57 48 58 31 59
REMARK SMILES IDX 32 60 41 61 33 62 34 63 40 64 42 65 35 66 36 67 37 68 38 69
REMARK SMILES IDX 39 70 65 71 66 72 75 73 67 74 68 75 74 76 76 77 69 78 70 79
REMARK SMILES IDX 71 80 72 81 73 82 49 83 50 84 59 85 51 86 52 87 58 88 60 89
REMARK SMILES IDX 53 90 54 91 55 92 56 93 57 94
REMARK H PARENT 5 12 13 20 13 21 13 22 81 44 47 55
REMARK Flexibility Score: inf
ROOT
ATOM      1  C   UNL A   1      42.342  20.302  26.457  1.00  0.00     0.274 C 
ENDROOT
BRANCH   1   2
ATOM      2  O   UNL A   1      42.942  20.752  25.222  1.00  0.00    -0.457 OA
BRANCH   2   3
ATOM      3  C   UNL A   1      44.203  20.303  24.988  1.00  0.00     0.368 C 
ATOM      4  O   UNL A   1      44.520  19.116  24.980  1.00  0.00    -0.245 OA
BRANCH   3   5
ATOM      5  C   UNL A   1      45.260  21.443  24.854  1.00  0.00     0.198 C 
ATOM      6  C   UNL A   1      44.729  23.049  26.835  1.00  0.00     0.190 C 
ATOM      7  C   UNL A   1      44.093  24.035  25.836  1.00  0.00     0.065 C 
ATOM      8  C   UNL A   1      45.750  22.095  26.163  1.00  0.00     0.145 C 
ATOM      9  C   UNL A   1      43.604  23.331  24.586  1.00  0.00     0.013 C 
ATOM     10  C   UNL A   1      44.706  22.525  23.910  1.00  0.00     0.081 C 
BRANCH   6  11
ATOM     11  N   UNL A   1      45.268  23.679  28.067  1.00  0.00    -0.333 N 
ATOM     12  H   UNL A   1      45.854  22.948  28.472  1.00  0.00     0.348 HD
BRANCH  11  13
ATOM     13  C   UNL A   1      44.216  23.980  29.057  1.00  0.00     0.262 C 
BRANCH  13  14
ATOM     14  C   UNL A   1      44.302  23.161  30.358  1.00  0.00     0.061 C 
BRANCH  14  15
ATOM     15  C   UNL A   1      44.551  23.903  31.670  1.00  0.00     0.002 C 
ATOM     16  C   UNL A   1      43.808  23.316  32.861  1.00  0.00     0.004 C 
ENDBRANCH  14  15
ENDBRANCH  13  14
ENDBRANCH  11  13
BRANCH  11  17
ATOM     17  C   UNL A   1      46.243  24.767  27.881  1.00  0.00     0.258 C 
ATOM     18  C   UNL A   1      46.470  25.769  29.010  1.00  0.00     0.071 C 
ENDBRANCH  11  17
ENDBRANCH   6  11
BRANCH   5  19
ATOM     19  N   UNL A   1      46.447  20.826  24.189  1.00  0.00    -0.343 N 
ATOM     20  H   UNL A   1      47.071  21.562  23.857  1.00  0.00     0.345 HD
ATOM     21  H   UNL A   1      46.138  20.260  23.398  1.00  0.00     0.345 HD
ATOM     22  H   UNL A   1      46.942  20.235  24.856  1.00  0.00     0.345 HD
ENDBRANCH   5  19
ENDBRANCH   3   5
ENDBRANCH   2   3
ENDBRANCH   1   2
BRANCH   1  23
ATOM     23  C   UNL A   1      40.943  20.890  26.628  1.00  0.00     0.275 C 
BRANCH  23  24
ATOM     24  O   UNL A   1      41.005  22.319  26.491  1.00  0.00    -0.458 OA
BRANCH  24  25
ATOM     25  C   UNL A   1      39.826  22.928  26.229  1.00  0.00     0.338 C 
ATOM     26  O   UNL A   1      38.890  22.436  25.609  1.00  0.00    -0.246 OA
BRANCH  25  27
ATOM     27  C   UNL A   1      39.763  24.270  26.865  1.00  0.00     0.060 A 
ATOM     28  C   UNL A   1      40.524  25.345  26.401  1.00  0.00     0.016 A 
ATOM     29  C   UNL A   1      39.030  24.417  28.047  1.00  0.00     0.016 A 
ATOM     30  C   UNL A   1      40.693  26.479  27.202  1.00  0.00     0.010 A 
ATOM     31  C   UNL A   1      39.109  25.606  28.783  1.00  0.00     0.010 A 
ATOM     32  C   UNL A   1      39.998  26.629  28.412  1.00  0.00    -0.014 A 
BRANCH  32  33
ATOM     33  C   UNL A   1      40.241  27.790  29.327  1.00  0.00     0.031 A 
ATOM     34  C   UNL A   1      41.488  27.835  30.186  1.00  0.00     0.074 A 
ATOM     35  C   UNL A   1      39.373  28.820  29.413  1.00  0.00     0.049 A 
ATOM     36  N   UNL A   1      41.753  28.580  31.230  1.00  0.00    -0.248 NA
ATOM     37  C   UNL A   1      42.569  26.899  29.837  1.00  0.00     0.031 C 
ATOM     38  C   UNL A   1      38.152  28.977  28.623  1.00  0.00     0.029 A 
ATOM     39  N   UNL A   1      39.398  29.943  30.205  1.00  0.00    -0.354 N 
ATOM     40  C   UNL A   1      42.972  28.129  31.725  1.00  0.00     0.074 A 
ATOM     41  C   UNL A   1      43.412  27.065  30.848  1.00  0.00     0.031 C 
ATOM     42  C   UNL A   1      37.584  30.156  28.917  1.00  0.00     0.029 A 
ATOM     43  C   UNL A   1      38.333  30.789  29.997  1.00  0.00     0.049 A 
ATOM     44  H   UNL A   1      40.109  30.126  30.860  1.00  0.00     0.167 HD
ATOM     45  C   UNL A   1      43.654  28.551  32.819  1.00  0.00     0.037 A 
ATOM     46  C   UNL A   1      37.966  31.921  30.628  1.00  0.00     0.037 A 
ATOM     47  C   UNL A   1      43.278  29.685  33.625  1.00  0.00     0.049 A 
ATOM     48  C   UNL A   1      38.757  32.406  31.807  1.00  0.00     0.074 A 
ATOM     49  C   UNL A   1      43.914  30.201  34.742  1.00  0.00     0.029 A 
ATOM     50  N   UNL A   1      42.188  30.505  33.375  1.00  0.00    -0.354 N 
ATOM     51  N   UNL A   1      39.831  31.885  32.348  1.00  0.00    -0.248 NA
ATOM     52  C   UNL A   1      38.263  33.614  32.483  1.00  0.00     0.031 C 
ATOM     53  C   UNL A   1      43.203  31.328  35.173  1.00  0.00     0.029 A 
ATOM     54  C   UNL A   1      42.140  31.529  34.308  1.00  0.00     0.049 A 
ATOM     55  H   UNL A   1      41.543  30.379  32.643  1.00  0.00     0.167 HD
ATOM     56  C   UNL A   1      40.144  32.702  33.427  1.00  0.00     0.074 A 
ATOM     57  C   UNL A   1      39.157  33.763  33.452  1.00  0.00     0.031 C 
ATOM     58  C   UNL A   1      41.155  32.578  34.323  1.00  0.00     0.037 A 
BRANCH  45  59
ATOM     59  C   UNL A   1      44.855  27.750  33.243  1.00  0.00     0.058 A 
ATOM     60  C   UNL A   1      44.765  26.659  34.119  1.00  0.00     0.135 A 
ATOM     61  C   UNL A   1      46.125  28.079  32.735  1.00  0.00     0.135 A 
ATOM     62  F   UNL A   1      43.580  26.312  34.645  1.00  0.00    -0.206 F 
ATOM     63  C   UNL A   1      45.894  25.940  34.504  1.00  0.00     0.059 A 
ATOM     64  C   UNL A   1      47.263  27.360  33.089  1.00  0.00     0.059 A 
ATOM     65  F   UNL A   1      46.268  29.111  31.890  1.00  0.00    -0.206 F 
ATOM     66  C   UNL A   1      47.140  26.304  33.989  1.00  0.00     0.060 A 
BRANCH  66  67
ATOM     67  S   UNL A   1      48.604  25.378  34.501  1.00  0.00     0.124 S 
ATOM     68  O   UNL A   1      48.216  24.014  34.160  1.00  0.00    -0.237 OA
ATOM     69  O   UNL A   1      49.656  25.963  33.676  1.00  0.00    -0.237 OA
ATOM     70  O   UNL A   1      48.702  25.665  35.929  1.00  0.00    -0.744 OA
ENDBRANCH  66  67
ENDBRANCH  45  59
BRANCH  46  71
ATOM     71  C   UNL A   1      36.763  32.656  30.161  1.00  0.00     0.058 A 
ATOM     72  C   UNL A   1      35.506  32.402  30.728  1.00  0.00     0.135 A 
ATOM     73  C   UNL A   1      36.855  33.667  29.192  1.00  0.00     0.135 A 
ATOM     74  F   UNL A   1      35.368  31.434  31.647  1.00  0.00    -0.206 F 
ATOM     75  C   UNL A   1      34.383  33.137  30.364  1.00  0.00     0.059 A 
ATOM     76  C   UNL A   1      35.751  34.431  28.830  1.00  0.00     0.059 A 
ATOM     77  F   UNL A   1      38.040  33.951  28.629  1.00  0.00    -0.206 F 
ATOM     78  C   UNL A   1      34.519  34.158  29.422  1.00  0.00     0.060 A 
BRANCH  78  79
ATOM     79  S   UNL A   1      33.087  35.189  29.037  1.00  0.00     0.124 S 
ATOM     80  O   UNL A   1      32.404  34.379  28.035  1.00  0.00    -0.237 OA
ATOM     81  O   UNL A   1      32.422  35.296  30.333  1.00  0.00    -0.237 OA
ATOM     82  O   UNL A   1      33.690  36.425  28.550  1.00  0.00    -0.744 OA
ENDBRANCH  78  79
ENDBRANCH  46  71
BRANCH  58  83
ATOM     83  C   UNL A   1      41.257  33.636  35.383  1.00  0.00     0.058 A 
ATOM     84  C   UNL A   1      42.007  34.805  35.183  1.00  0.00     0.135 A 
ATOM     85  C   UNL A   1      40.595  33.480  36.611  1.00  0.00     0.135 A 
ATOM     86  F   UNL A   1      42.663  34.998  34.027  1.00  0.00    -0.206 F 
ATOM     87  C   UNL A   1      42.125  35.770  36.178  1.00  0.00     0.059 A 
ATOM     88  C   UNL A   1      40.686  34.440  37.613  1.00  0.00     0.059 A 
ATOM     89  F   UNL A   1      39.859  32.382  36.847  1.00  0.00    -0.206 F 
ATOM     90  C   UNL A   1      41.467  35.574  37.395  1.00  0.00     0.060 A 
BRANCH  90  91
ATOM     91  S   UNL A   1      41.628  36.825  38.686  1.00  0.00     0.124 S 
ATOM     92  O   UNL A   1      41.907  36.001  39.858  1.00  0.00    -0.237 OA
ATOM     93  O   UNL A   1      42.739  37.640  38.205  1.00  0.00    -0.237 OA
ATOM     94  O   UNL A   1      40.327  37.487  38.677  1.00  0.00    -0.744 OA
ENDBRANCH  90  91
ENDBRANCH  58  83
ENDBRANCH  32  33
ENDBRANCH  25  27
ENDBRANCH  24  25
ENDBRANCH  23  24
ENDBRANCH   1  23
TORSDOF 20
ENDMDL
MODEL 2
REMARK VINA RESULT:      -9.6      4.961     11.615
REMARK SMILES CCCC[N@H+](CC)[C@H]1CCC[C@]([NH3+])(C(=O)OCCOC(=O)c2ccc(-c3c4nc(c(-c5c(F)cc(S(=O)(=O)[O-])cc5F)c5ccc([nH]5)c(-c5c(F)cc(S(=O)(=O)[O-])cc5F)c5nc(c(-c6c(F)cc(S(=O)(=O)[O-])cc6F)c6ccc3[nH]6)C=C5)C=C4)cc2)C1
REMARK SMILES IDX 17 1 16 2 14 3 15 4 12 5 8 6 9 7 88 8 10 9 11 10 5 11 4 13
REMARK SMILES IDX 3 14 2 15 1 16 6 17 7 18 13 19 18 23 19 24 20 25 21 26 22 27
REMARK SMILES IDX 23 28 87 29 24 30 86 31 25 32 26 33 27 34 80 35 28 36 85 37
REMARK SMILES IDX 79 38 81 39 29 40 84 41 78 42 77 43 30 45 64 46 43 47 63 48
REMARK SMILES IDX 44 49 47 50 62 51 82 52 45 53 46 54 61 56 83 57 48 58 31 59
REMARK SMILES IDX 32 60 41 61 33 62 34 63 40 64 42 65 35 66 36 67 37 68 38 69
REMARK SMILES IDX 39 70 65 71 66 72 75 73 67 74 68 75 74 76 76 77 69 78 70 79
REMARK SMILES IDX 71 80 72 81 73 82 49 83 50 84 59 85 51 86 52 87 58 88 60 89
REMARK SMILES IDX 53 90 54 91 55 92 56 93 57 94
REMARK H PARENT 5 12 13 20 13 21 13 22 81 44 47 55
REMARK Flexibility Score: inf
ROOT
ATOM      1  C   UNL A   1      31.781  29.469  26.972  1.00  0.00     0.274 C 
ENDROOT
BRANCH   1   2
ATOM      2  O   UNL A   1      31.462  28.670  25.812  1.00  0.00    -0.457 OA
BRANCH   2   3
ATOM      3  C   UNL A   1      31.242  27.351  26.054  1.00  0.00     0.368 C 
ATOM      4  O   UNL A   1      30.957  26.892  27.158  1.00  0.00    -0.245 OA
BRANCH   3   5
ATOM      5  C   UNL A   1      31.508  26.433  24.821  1.00  0.00     0.198 C 
ATOM      6  C   UNL A   1      33.189  24.647  25.699  1.00  0.00     0.190 C 
ATOM      7  C   UNL A   1      34.317  25.365  24.934  1.00  0.00     0.065 C 
ATOM      8  C   UNL A   1      31.786  24.944  25.109  1.00  0.00     0.145 C 
ATOM      9  C   UNL A   1      34.000  26.830  24.710  1.00  0.00     0.013 C 
ATOM     10  C   UNL A   1      32.667  27.029  24.001  1.00  0.00     0.081 C 
BRANCH   6  11
ATOM     11  N   UNL A   1      33.416  23.195  25.917  1.00  0.00    -0.333 N 
ATOM     12  H   UNL A   1      32.727  22.951  26.630  1.00  0.00     0.348 HD
BRANCH  11  13
ATOM     13  C   UNL A   1      34.744  22.910  26.492  1.00  0.00     0.262 C 
BRANCH  13  14
ATOM     14  C   UNL A   1      35.656  22.041  25.607  1.00  0.00     0.061 C 
BRANCH  14  15
ATOM     15  C   UNL A   1      36.866  22.698  24.942  1.00  0.00     0.002 C 
ATOM     16  C   UNL A   1      37.597  23.689  25.836  1.00  0.00     0.004 C 
ENDBRANCH  14  15
ENDBRANCH  13  14
ENDBRANCH  11  13
BRANCH  11  17
ATOM     17  C   UNL A   1      33.033  22.294  24.818  1.00  0.00     0.258 C 
ATOM     18  C   UNL A   1      32.245  21.025  25.133  1.00  0.00     0.071 C 
ENDBRANCH  11  17
ENDBRANCH   6  11
BRANCH   5  19
ATOM     19  N   UNL A   1      30.275  26.505  23.980  1.00  0.00    -0.343 N 
ATOM     20  H   UNL A   1      29.899  27.453  24.008  1.00  0.00     0.345 HD
ATOM     21  H   UNL A   1      29.580  25.852  24.340  1.00  0.00     0.345 HD
ATOM     22  H   UNL A   1      30.505  26.259  23.017  1.00  0.00     0.345 HD
ENDBRANCH   5  19
ENDBRANCH   3   5
ENDBRANCH   2   3
ENDBRANCH   1   2
BRANCH   1  23
ATOM     23  C   UNL A   1      33.271  29.389  27.295  1.00  0.00     0.275 C 
BRANCH  23  24
ATOM     24  O   UNL A   1      33.845  30.704  27.235  1.00  0.00    -0.458 OA
BRANCH  24  25
ATOM     25  C   UNL A   1      34.577  31.067  28.313  1.00  0.00     0.338 C 
ATOM     26  O   UNL A   1      34.238  31.878  29.167  1.00  0.00    -0.246 OA
BRANCH  25  27
ATOM     27  C   UNL A   1      35.841  30.289  28.388  1.00  0.00     0.060 A 
ATOM     28  C   UNL A   1      36.290  29.722  29.583  1.00  0.00     0.016 A 
ATOM     29  C   UNL A   1      36.670  30.247  27.263  1.00  0.00     0.016 A 
ATOM     30  C   UNL A   1      37.616  29.288  29.695  1.00  0.00     0.010 A 
ATOM     31  C   UNL A   1      37.956  29.698  27.352  1.00  0.00     0.010 A 
ATOM     32  C   UNL A   1      38.477  29.276  28.587  1.00  0.00    -0.014 A 
BRANCH  32  33
ATOM     33  C   UNL A   1      39.924  28.908  28.712  1.00  0.00     0.031 A 
ATOM     34  C   UNL A   1      40.923  29.914  29.244  1.00  0.00     0.074 A 
ATOM     35  C   UNL A   1      40.377  27.685  28.364  1.00  0.00     0.049 A 
ATOM     36  N   UNL A   1      42.231  29.907  29.170  1.00  0.00    -0.248 NA
ATOM     37  C   UNL A   1      40.375  31.097  29.928  1.00  0.00     0.031 C 
ATOM     38  C   UNL A   1      39.556  26.572  27.889  1.00  0.00     0.029 A 
ATOM     39  N   UNL A   1      41.653  27.172  28.371  1.00  0.00    -0.354 N 
ATOM     40  C   UNL A   1      42.652  31.126  29.693  1.00  0.00     0.074 A 
ATOM     41  C   UNL A   1      41.462  31.835  30.111  1.00  0.00     0.031 C 
ATOM     42  C   UNL A   1      40.332  25.491  27.717  1.00  0.00     0.029 A 
ATOM     43  C   UNL A   1      41.723  25.861  27.959  1.00  0.00     0.049 A 
ATOM     44  H   UNL A   1      42.442  27.692  28.645  1.00  0.00     0.167 HD
ATOM     45  C   UNL A   1      43.913  31.615  29.800  1.00  0.00     0.037 A 
ATOM     46  C   UNL A   1      42.781  25.056  27.749  1.00  0.00     0.037 A 
ATOM     47  C   UNL A   1      45.105  30.866  29.492  1.00  0.00     0.049 A 
ATOM     48  C   UNL A   1      44.171  25.593  27.919  1.00  0.00     0.074 A 
ATOM     49  C   UNL A   1      46.427  31.269  29.586  1.00  0.00     0.029 A 
ATOM     50  N   UNL A   1      45.121  29.544  29.073  1.00  0.00    -0.354 N 
ATOM     51  N   UNL A   1      44.551  26.794  28.280  1.00  0.00    -0.248 NA
ATOM     52  C   UNL A   1      45.278  24.675  27.615  1.00  0.00     0.031 C 
ATOM     53  C   UNL A   1      47.242  30.192  29.213  1.00  0.00     0.029 A 
ATOM     54  C   UNL A   1      46.429  29.113  28.915  1.00  0.00     0.049 A 
ATOM     55  H   UNL A   1      44.322  28.993  28.912  1.00  0.00     0.167 HD
ATOM     56  C   UNL A   1      45.940  26.776  28.251  1.00  0.00     0.074 A 
ATOM     57  C   UNL A   1      46.335  25.440  27.854  1.00  0.00     0.031 C 
ATOM     58  C   UNL A   1      46.810  27.782  28.520  1.00  0.00     0.037 A 
BRANCH  45  59
ATOM     59  C   UNL A   1      44.069  33.051  30.220  1.00  0.00     0.058 A 
ATOM     60  C   UNL A   1      44.011  34.116  29.310  1.00  0.00     0.135 A 
ATOM     61  C   UNL A   1      44.260  33.361  31.579  1.00  0.00     0.135 A 
ATOM     62  F   UNL A   1      43.846  33.876  28.000  1.00  0.00    -0.206 F 
ATOM     63  C   UNL A   1      44.169  35.436  29.725  1.00  0.00     0.059 A 
ATOM     64  C   UNL A   1      44.399  34.674  32.019  1.00  0.00     0.059 A 
ATOM     65  F   UNL A   1      44.319  32.380  32.494  1.00  0.00    -0.206 F 
ATOM     66  C   UNL A   1      44.371  35.704  31.080  1.00  0.00     0.060 A 
BRANCH  66  67
ATOM     67  S   UNL A   1      44.590  37.416  31.612  1.00  0.00     0.124 S 
ATOM     68  O   UNL A   1      43.698  38.119  30.695  1.00  0.00    -0.237 OA
ATOM     69  O   UNL A   1      44.160  37.375  33.006  1.00  0.00    -0.237 OA
ATOM     70  O   UNL A   1      46.016  37.653  31.408  1.00  0.00    -0.744 OA
ENDBRANCH  66  67
ENDBRANCH  45  59
BRANCH  46  71
ATOM     71  C   UNL A   1      42.552  23.650  27.326  1.00  0.00     0.058 A 
ATOM     72  C   UNL A   1      42.609  23.295  25.971  1.00  0.00     0.135 A 
ATOM     73  C   UNL A   1      42.339  22.630  28.265  1.00  0.00     0.135 A 
ATOM     74  F   UNL A   1      42.795  24.240  25.037  1.00  0.00    -0.206 F 
ATOM     75  C   UNL A   1      42.480  21.973  25.561  1.00  0.00     0.059 A 
ATOM     76  C   UNL A   1      42.232  21.298  27.881  1.00  0.00     0.059 A 
ATOM     77  F   UNL A   1      42.287  22.922  29.574  1.00  0.00    -0.206 F 
ATOM     78  C   UNL A   1      42.304  20.979  26.526  1.00  0.00     0.060 A 
BRANCH  78  79
ATOM     79  S   UNL A   1      42.256  19.251  26.003  1.00  0.00     0.124 S 
ATOM     80  O   UNL A   1      40.852  19.094  25.642  1.00  0.00    -0.237 OA
ATOM     81  O   UNL A   1      43.206  19.233  24.895  1.00  0.00    -0.237 OA
ATOM     82  O   UNL A   1      42.688  18.532  27.197  1.00  0.00    -0.744 OA
ENDBRANCH  78  79
ENDBRANCH  46  71
BRANCH  58  83
ATOM     83  C   UNL A   1      48.273  27.458  28.423  1.00  0.00     0.058 A 
ATOM     84  C   UNL A   1      49.017  27.085  29.552  1.00  0.00     0.135 A 
ATOM     85  C   UNL A   1      48.936  27.522  27.188  1.00  0.00     0.135 A 
ATOM     86  F   UNL A   1      48.430  27.016  30.757  1.00  0.00    -0.206 F 
ATOM     87  C   UNL A   1      50.380  26.815  29.465  1.00  0.00     0.059 A 
ATOM     88  C   UNL A   1      50.293  27.240  27.075  1.00  0.00     0.059 A 
ATOM     89  F   UNL A   1      48.264  27.868  26.078  1.00  0.00    -0.206 F 
ATOM     90  C   UNL A   1      51.011  26.905  28.223  1.00  0.00     0.060 A 
BRANCH  90  91
ATOM     91  S   UNL A   1      52.780  26.560  28.115  1.00  0.00     0.124 S 
ATOM     92  O   UNL A   1      52.814  25.527  27.084  1.00  0.00    -0.237 OA
ATOM     93  O   UNL A   1      53.334  27.855  27.732  1.00  0.00    -0.237 OA
ATOM     94  O   UNL A   1      53.119  26.115  29.463  1.00  0.00    -0.744 OA
ENDBRANCH  90  91
ENDBRANCH  58  83
ENDBRANCH  32  33
ENDBRANCH  25  27
ENDBRANCH  24  25
ENDBRANCH  23  24
ENDBRANCH   1  23
TORSDOF 20
ENDMDL
MODEL 3
REMARK VINA RESULT:      -9.4      5.813     12.467
REMARK SMILES CCCC[N@H+](CC)[C@H]1CCC[C@]([NH3+])(C(=O)OCCOC(=O)c2ccc(-c3c4nc(c(-c5c(F)cc(S(=O)(=O)[O-])cc5F)c5ccc([nH]5)c(-c5c(F)cc(S(=O)(=O)[O-])cc5F)c5nc(c(-c6c(F)cc(S(=O)(=O)[O-])cc6F)c6ccc3[nH]6)C=C5)C=C4)cc2)C1
REMARK SMILES IDX 17 1 16 2 14 3 15 4 12 5 8 6 9 7 88 8 10 9 11 10 5 11 4 13
REMARK SMILES IDX 3 14 2 15 1 16 6 17 7 18 13 19 18 23 19 24 20 25 21 26 22 27
REMARK SMILES IDX 23 28 87 29 24 30 86 31 25 32 26 33 27 34 80 35 28 36 85 37
REMARK SMILES IDX 79 38 81 39 29 40 84 41 78 42 77 43 30 45 64 46 43 47 63 48
REMARK SMILES IDX 44 49 47 50 62 51 82 52 45 53 46 54 61 56 83 57 48 58 31 59
REMARK SMILES IDX 32 60 41 61 33 62 34 63 40 64 42 65 35 66 36 67 37 68 38 69
REMARK SMILES IDX 39 70 65 71 66 72 75 73 67 74 68 75 74 76 76 77 69 78 70 79
REMARK SMILES IDX 71 80 72 81 73 82 49 83 50 84 59 85 51 86 52 87 58 88 60 89
REMARK SMILES IDX 53 90 54 91 55 92 56 93 57 94
REMARK H PARENT 5 12 13 20 13 21 13 22 81 44 47 55
REMARK Flexibility Score: inf
ROOT
ATOM      1  C   UNL A   1      33.351  30.464  27.607  1.00  0.00     0.274 C 
ENDROOT
BRANCH   1   2
ATOM      2  O   UNL A   1      33.388  30.006  26.237  1.00  0.00    -0.457 OA
BRANCH   2   3
ATOM      3  C   UNL A   1      33.647  28.683  26.070  1.00  0.00     0.368 C 
ATOM      4  O   UNL A   1      34.704  28.143  26.389  1.00  0.00    -0.245 OA
BRANCH   3   5
ATOM      5  C   UNL A   1      32.522  27.914  25.312  1.00  0.00     0.198 C 
ATOM      6  C   UNL A   1      33.804  26.388  23.634  1.00  0.00     0.190 C 
ATOM      7  C   UNL A   1      33.401  27.342  22.493  1.00  0.00     0.065 C 
ATOM      8  C   UNL A   1      32.848  26.478  24.852  1.00  0.00     0.145 C 
ATOM      9  C   UNL A   1      33.124  28.742  23.003  1.00  0.00     0.013 C 
ATOM     10  C   UNL A   1      32.073  28.757  24.105  1.00  0.00     0.081 C 
BRANCH   6  11
ATOM     11  N   UNL A   1      34.049  24.986  23.210  1.00  0.00    -0.333 N 
ATOM     12  H   UNL A   1      34.883  25.056  22.626  1.00  0.00     0.348 HD
BRANCH  11  13
ATOM     13  C   UNL A   1      32.972  24.456  22.353  1.00  0.00     0.262 C 
BRANCH  13  14
ATOM     14  C   UNL A   1      32.112  23.357  23.004  1.00  0.00     0.061 C 
BRANCH  14  15
ATOM     15  C   UNL A   1      32.286  21.916  22.523  1.00  0.00     0.002 C 
ATOM     16  C   UNL A   1      32.503  20.914  23.647  1.00  0.00     0.004 C 
ENDBRANCH  14  15
ENDBRANCH  13  14
ENDBRANCH  11  13
BRANCH  11  17
ATOM     17  C   UNL A   1      34.499  24.049  24.253  1.00  0.00     0.258 C 
ATOM     18  C   UNL A   1      35.905  23.458  24.171  1.00  0.00     0.071 C 
ENDBRANCH  11  17
ENDBRANCH   6  11
BRANCH   5  19
ATOM     19  N   UNL A   1      31.370  27.831  26.259  1.00  0.00    -0.343 N 
ATOM     20  H   UNL A   1      31.367  28.651  26.865  1.00  0.00     0.345 HD
ATOM     21  H   UNL A   1      31.458  26.988  26.828  1.00  0.00     0.345 HD
ATOM     22  H   UNL A   1      30.497  27.794  25.732  1.00  0.00     0.345 HD
ENDBRANCH   5  19
ENDBRANCH   3   5
ENDBRANCH   2   3
ENDBRANCH   1   2
BRANCH   1  23
ATOM     23  C   UNL A   1      34.097  31.787  27.759  1.00  0.00     0.275 C 
BRANCH  23  24
ATOM     24  O   UNL A   1      35.509  31.533  27.841  1.00  0.00    -0.458 OA
BRANCH  24  25
ATOM     25  C   UNL A   1      35.965  31.179  29.064  1.00  0.00     0.338 C 
ATOM     26  O   UNL A   1      35.430  31.453  30.132  1.00  0.00    -0.246 OA
BRANCH  25  27
ATOM     27  C   UNL A   1      37.178  30.327  28.957  1.00  0.00     0.060 A 
ATOM     28  C   UNL A   1      37.908  29.935  30.082  1.00  0.00     0.016 A 
ATOM     29  C   UNL A   1      37.678  30.030  27.686  1.00  0.00     0.016 A 
ATOM     30  C   UNL A   1      39.201  29.423  29.931  1.00  0.00     0.010 A 
ATOM     31  C   UNL A   1      38.924  29.404  27.545  1.00  0.00     0.010 A 
ATOM     32  C   UNL A   1      39.738  29.156  28.663  1.00  0.00    -0.014 A 
BRANCH  32  33
ATOM     33  C   UNL A   1      41.154  28.700  28.481  1.00  0.00     0.031 A 
ATOM     34  C   UNL A   1      42.299  29.672  28.684  1.00  0.00     0.074 A 
ATOM     35  C   UNL A   1      41.452  27.429  28.140  1.00  0.00     0.049 A 
ATOM     36  N   UNL A   1      43.550  29.572  28.311  1.00  0.00    -0.248 NA
ATOM     37  C   UNL A   1      41.986  30.933  29.375  1.00  0.00     0.031 C 
ATOM     38  C   UNL A   1      40.488  26.344  27.961  1.00  0.00     0.029 A 
ATOM     39  N   UNL A   1      42.667  26.833  27.896  1.00  0.00    -0.354 N 
ATOM     40  C   UNL A   1      44.143  30.792  28.621  1.00  0.00     0.074 A 
ATOM     41  C   UNL A   1      43.120  31.607  29.242  1.00  0.00     0.031 C 
ATOM     42  C   UNL A   1      41.148  25.204  27.705  1.00  0.00     0.029 A 
ATOM     43  C   UNL A   1      42.574  25.496  27.588  1.00  0.00     0.049 A 
ATOM     44  H   UNL A   1      43.523  27.317  27.937  1.00  0.00     0.167 HD
ATOM     45  C   UNL A   1      45.416  31.202  28.394  1.00  0.00     0.037 A 
ATOM     46  C   UNL A   1      43.512  24.608  27.208  1.00  0.00     0.037 A 
ATOM     47  C   UNL A   1      46.464  30.355  27.883  1.00  0.00     0.049 A 
ATOM     48  C   UNL A   1      44.928  25.061  27.008  1.00  0.00     0.074 A 
ATOM     49  C   UNL A   1      47.789  30.673  27.637  1.00  0.00     0.029 A 
ATOM     50  N   UNL A   1      46.316  29.009  27.583  1.00  0.00    -0.354 N 
ATOM     51  N   UNL A   1      45.440  26.256  27.172  1.00  0.00    -0.248 NA
ATOM     52  C   UNL A   1      45.885  24.051  26.535  1.00  0.00     0.031 C 
ATOM     53  C   UNL A   1      48.440  29.521  27.177  1.00  0.00     0.029 A 
ATOM     54  C   UNL A   1      47.527  28.481  27.164  1.00  0.00     0.049 A 
ATOM     55  H   UNL A   1      45.475  28.503  27.655  1.00  0.00     0.167 HD
ATOM     56  C   UNL A   1      46.782  26.142  26.825  1.00  0.00     0.074 A 
ATOM     57  C   UNL A   1      47.005  24.758  26.460  1.00  0.00     0.031 C 
ATOM     58  C   UNL A   1      47.739  27.103  26.803  1.00  0.00     0.037 A 
BRANCH  45  59
ATOM     59  C   UNL A   1      45.737  32.649  28.647  1.00  0.00     0.058 A 
ATOM     60  C   UNL A   1      46.246  33.107  29.871  1.00  0.00     0.135 A 
ATOM     61  C   UNL A   1      45.549  33.593  27.622  1.00  0.00     0.135 A 
ATOM     62  F   UNL A   1      46.430  32.251  30.888  1.00  0.00    -0.206 F 
ATOM     63  C   UNL A   1      46.526  34.455  30.083  1.00  0.00     0.059 A 
ATOM     64  C   UNL A   1      45.844  34.941  27.805  1.00  0.00     0.059 A 
ATOM     65  F   UNL A   1      45.070  33.209  26.429  1.00  0.00    -0.206 F 
ATOM     66  C   UNL A   1      46.314  35.366  29.047  1.00  0.00     0.060 A 
BRANCH  66  67
ATOM     67  S   UNL A   1      46.665  37.114  29.330  1.00  0.00     0.124 S 
ATOM     68  O   UNL A   1      47.175  37.521  28.025  1.00  0.00    -0.237 OA
ATOM     69  O   UNL A   1      45.355  37.648  29.693  1.00  0.00    -0.237 OA
ATOM     70  O   UNL A   1      47.648  37.091  30.409  1.00  0.00    -0.744 OA
ENDBRANCH  66  67
ENDBRANCH  45  59
BRANCH  46  71
ATOM     71  C   UNL A   1      43.121  23.195  26.966  1.00  0.00     0.058 A 
ATOM     72  C   UNL A   1      43.038  22.692  25.661  1.00  0.00     0.135 A 
ATOM     73  C   UNL A   1      42.888  22.309  28.029  1.00  0.00     0.135 A 
ATOM     74  F   UNL A   1      43.236  23.505  24.613  1.00  0.00    -0.206 F 
ATOM     75  C   UNL A   1      42.755  21.352  25.416  1.00  0.00     0.059 A 
ATOM     76  C   UNL A   1      42.628  20.961  27.810  1.00  0.00     0.059 A 
ATOM     77  F   UNL A   1      42.967  22.746  29.297  1.00  0.00    -0.206 F 
ATOM     78  C   UNL A   1      42.563  20.492  26.499  1.00  0.00     0.060 A 
BRANCH  78  79
ATOM     79  S   UNL A   1      42.313  18.731  26.184  1.00  0.00     0.124 S 
ATOM     80  O   UNL A   1      43.319  18.471  25.161  1.00  0.00    -0.237 OA
ATOM     81  O   UNL A   1      42.568  18.140  27.494  1.00  0.00    -0.237 OA
ATOM     82  O   UNL A   1      40.925  18.669  25.739  1.00  0.00    -0.744 OA
ENDBRANCH  78  79
ENDBRANCH  46  71
BRANCH  58  83
ATOM     83  C   UNL A   1      49.120  26.676  26.400  1.00  0.00     0.058 A 
ATOM     84  C   UNL A   1      49.552  26.751  25.066  1.00  0.00     0.135 A 
ATOM     85  C   UNL A   1      50.022  26.187  27.358  1.00  0.00     0.135 A 
ATOM     86  F   UNL A   1      48.723  27.206  24.113  1.00  0.00    -0.206 F 
ATOM     87  C   UNL A   1      50.822  26.326  24.691  1.00  0.00     0.059 A 
ATOM     88  C   UNL A   1      51.302  25.773  27.007  1.00  0.00     0.059 A 
ATOM     89  F   UNL A   1      49.658  26.102  28.647  1.00  0.00    -0.206 F 
ATOM     90  C   UNL A   1      51.687  25.829  25.668  1.00  0.00     0.060 A 
BRANCH  90  91
ATOM     91  S   UNL A   1      53.333  25.273  25.175  1.00  0.00     0.124 S 
ATOM     92  O   UNL A   1      53.376  25.691  23.777  1.00  0.00    -0.237 OA
ATOM     93  O   UNL A   1      54.205  26.012  26.083  1.00  0.00    -0.237 OA
ATOM     94  O   UNL A   1      53.283  23.832  25.400  1.00  0.00    -0.744 OA
ENDBRANCH  90  91
ENDBRANCH  58  83
ENDBRANCH  32  33
ENDBRANCH  25  27
ENDBRANCH  24  25
ENDBRANCH  23  24
ENDBRANCH   1  23
TORSDOF 20
ENDMDL
