MODEL 1
REMARK VINA RESULT:     -11.1      0.000      0.000
REMARK SMILES C=Cc1cncc(-c2ccc([C@@H](C)C(=O)OCCOC(=O)c3ccc(-c4c5nc(c(-c6c(F)cc(S(=O)(=O)[O-])cc6F)c6ccc([nH]6)c(-c6c(F)cc(S(=O)(=O)[O-])cc6F)c6nc(c(-c7c(F)cc(S(=O)(=O)[O-])cc7F)c7ccc4[nH]7)C=C6)C=C5)cc3)cc2)c1
REMARK SMILES IDX 17 1 16 2 14 3 15 4 12 5 13 6 11 7 8 8 9 9 89 10 10 11 88 12
REMARK SMILES IDX 7 13 3 14 4 15 90 16 5 17 6 18 2 19 1 20 18 21 19 22 20 23
REMARK SMILES IDX 21 24 22 25 23 26 87 27 24 28 86 29 25 30 26 31 27 32 80 33
REMARK SMILES IDX 28 34 85 35 79 36 81 37 29 38 84 39 78 40 77 41 30 43 64 44
REMARK SMILES IDX 43 45 63 46 44 47 47 48 62 49 82 50 45 51 46 52 61 54 83 55
REMARK SMILES IDX 48 56 31 57 32 58 41 59 33 60 34 61 40 62 42 63 35 64 36 65
REMARK SMILES IDX 37 66 38 67 39 68 65 69 66 70 75 71 67 72 68 73 74 74 76 75
REMARK SMILES IDX 69 76 70 77 71 78 72 79 73 80 49 81 50 82 59 83 51 84 52 85
REMARK SMILES IDX 58 86 60 87 53 88 54 89 55 90 56 91 57 92
REMARK H PARENT 81 42 47 53
REMARK Flexibility Score: inf
ROOT
ATOM      1  C   UNL A   1      35.440  34.071  31.850  1.00  0.00     0.274 C 
ENDROOT
BRANCH   1   2
ATOM      2  O   UNL A   1      34.316  33.480  31.168  1.00  0.00    -0.462 OA
BRANCH   2   3
ATOM      3  C   UNL A   1      33.818  34.169  30.108  1.00  0.00     0.313 C 
ATOM      4  O   UNL A   1      32.911  34.991  30.190  1.00  0.00    -0.252 OA
BRANCH   3   5
ATOM      5  C   UNL A   1      34.435  33.778  28.771  1.00  0.00     0.126 C 
ATOM      6  C   UNL A   1      34.500  35.002  27.859  1.00  0.00     0.025 C 
BRANCH   5   7
ATOM      7  C   UNL A   1      33.828  32.568  28.074  1.00  0.00    -0.034 A 
ATOM      8  C   UNL A   1      32.600  30.309  26.857  1.00  0.00    -0.017 A 
ATOM      9  C   UNL A   1      33.879  30.223  27.428  1.00  0.00     0.009 A 
ATOM     10  C   UNL A   1      31.958  31.554  26.876  1.00  0.00     0.009 A 
ATOM     11  C   UNL A   1      34.484  31.333  28.028  1.00  0.00     0.005 A 
ATOM     12  C   UNL A   1      32.559  32.664  27.482  1.00  0.00     0.005 A 
BRANCH   8  13
ATOM     13  C   UNL A   1      31.938  29.119  26.304  1.00  0.00     0.001 A 
ATOM     14  C   UNL A   1      30.788  27.922  24.522  1.00  0.00    -0.007 A 
ATOM     15  C   UNL A   1      30.670  26.849  25.403  1.00  0.00     0.119 A 
ATOM     16  C   UNL A   1      31.426  29.074  24.999  1.00  0.00     0.020 A 
ATOM     17  N   UNL A   1      31.150  26.836  26.668  1.00  0.00    -0.263 NA
ATOM     18  C   UNL A   1      31.764  27.969  27.080  1.00  0.00     0.119 A 
BRANCH  14  19
ATOM     19  C   UNL A   1      30.200  27.829  23.183  1.00  0.00     0.002 C 
ATOM     20  C   UNL A   1      29.176  28.581  22.760  1.00  0.00     0.009 C 
ENDBRANCH  14  19
ENDBRANCH   8  13
ENDBRANCH   5   7
ENDBRANCH   3   5
ENDBRANCH   2   3
ENDBRANCH   1   2
BRANCH   1  21
ATOM     21  C   UNL A   1      36.553  33.051  32.093  1.00  0.00     0.275 C 
BRANCH  21  22
ATOM     22  O   UNL A   1      36.880  32.334  30.888  1.00  0.00    -0.458 OA
BRANCH  22  23
ATOM     23  C   UNL A   1      36.749  30.990  30.977  1.00  0.00     0.338 C 
ATOM     24  O   UNL A   1      35.792  30.369  31.407  1.00  0.00    -0.246 OA
BRANCH  23  25
ATOM     25  C   UNL A   1      37.907  30.330  30.357  1.00  0.00     0.060 A 
ATOM     26  C   UNL A   1      38.867  29.773  31.202  1.00  0.00     0.016 A 
ATOM     27  C   UNL A   1      38.109  30.362  28.976  1.00  0.00     0.016 A 
ATOM     28  C   UNL A   1      40.058  29.281  30.680  1.00  0.00     0.010 A 
ATOM     29  C   UNL A   1      39.304  29.858  28.449  1.00  0.00     0.010 A 
ATOM     30  C   UNL A   1      40.298  29.343  29.302  1.00  0.00    -0.014 A 
BRANCH  30  31
ATOM     31  C   UNL A   1      41.630  28.951  28.784  1.00  0.00     0.031 A 
ATOM     32  C   UNL A   1      42.741  29.963  28.752  1.00  0.00     0.074 A 
ATOM     33  C   UNL A   1      41.859  27.679  28.409  1.00  0.00     0.049 A 
ATOM     34  N   UNL A   1      43.974  29.825  28.336  1.00  0.00    -0.248 NA
ATOM     35  C   UNL A   1      42.422  31.309  29.253  1.00  0.00     0.031 C 
ATOM     36  C   UNL A   1      40.869  26.600  28.432  1.00  0.00     0.029 A 
ATOM     37  N   UNL A   1      43.000  27.077  27.943  1.00  0.00    -0.354 N 
ATOM     38  C   UNL A   1      44.574  31.067  28.508  1.00  0.00     0.074 A 
ATOM     39  C   UNL A   1      43.564  31.951  29.051  1.00  0.00     0.031 C 
ATOM     40  C   UNL A   1      41.451  25.466  28.006  1.00  0.00     0.029 A 
ATOM     41  C   UNL A   1      42.842  25.742  27.657  1.00  0.00     0.049 A 
ATOM     42  H   UNL A   1      43.852  27.556  27.825  1.00  0.00     0.167 HD
ATOM     43  C   UNL A   1      45.850  31.434  28.245  1.00  0.00     0.037 A 
ATOM     44  C   UNL A   1      43.718  24.848  27.161  1.00  0.00     0.037 A 
ATOM     45  C   UNL A   1      46.856  30.548  27.719  1.00  0.00     0.049 A 
ATOM     46  C   UNL A   1      45.128  25.283  26.870  1.00  0.00     0.074 A 
ATOM     47  C   UNL A   1      48.175  30.829  27.403  1.00  0.00     0.029 A 
ATOM     48  N   UNL A   1      46.657  29.204  27.441  1.00  0.00    -0.354 N 
ATOM     49  N   UNL A   1      45.674  26.466  27.021  1.00  0.00    -0.248 NA
ATOM     50  C   UNL A   1      46.043  24.260  26.346  1.00  0.00     0.031 C 
ATOM     51  C   UNL A   1      48.767  29.658  26.915  1.00  0.00     0.029 A 
ATOM     52  C   UNL A   1      47.827  28.641  26.957  1.00  0.00     0.049 A 
ATOM     53  H   UNL A   1      45.809  28.721  27.568  1.00  0.00     0.167 HD
ATOM     54  C   UNL A   1      47.001  26.324  26.631  1.00  0.00     0.074 A 
ATOM     55  C   UNL A   1      47.178  24.938  26.249  1.00  0.00     0.031 C 
ATOM     56  C   UNL A   1      47.986  27.256  26.592  1.00  0.00     0.037 A 
BRANCH  43  57
ATOM     57  C   UNL A   1      46.219  32.868  28.497  1.00  0.00     0.058 A 
ATOM     58  C   UNL A   1      46.066  33.853  27.509  1.00  0.00     0.135 A 
ATOM     59  C   UNL A   1      46.724  33.265  29.745  1.00  0.00     0.135 A 
ATOM     60  F   UNL A   1      45.607  33.523  26.290  1.00  0.00    -0.206 F 
ATOM     61  C   UNL A   1      46.426  35.177  27.740  1.00  0.00     0.059 A 
ATOM     62  C   UNL A   1      47.072  34.587  30.005  1.00  0.00     0.059 A 
ATOM     63  F   UNL A   1      46.892  32.362  30.724  1.00  0.00    -0.206 F 
ATOM     64  C   UNL A   1      46.935  35.533  28.991  1.00  0.00     0.060 A 
BRANCH  64  65
ATOM     65  S   UNL A   1      47.413  37.250  29.278  1.00  0.00     0.124 S 
ATOM     66  O   UNL A   1      48.687  37.319  28.570  1.00  0.00    -0.237 OA
ATOM     67  O   UNL A   1      46.310  37.991  28.672  1.00  0.00    -0.237 OA
ATOM     68  O   UNL A   1      47.496  37.339  30.733  1.00  0.00    -0.744 OA
ENDBRANCH  64  65
ENDBRANCH  43  57
BRANCH  44  69
ATOM     69  C   UNL A   1      43.286  23.449  26.913  1.00  0.00     0.058 A 
ATOM     70  C   UNL A   1      43.111  22.967  25.608  1.00  0.00     0.135 A 
ATOM     71  C   UNL A   1      43.050  22.565  27.977  1.00  0.00     0.135 A 
ATOM     72  F   UNL A   1      43.318  23.777  24.559  1.00  0.00    -0.206 F 
ATOM     73  C   UNL A   1      42.704  21.659  25.365  1.00  0.00     0.059 A 
ATOM     74  C   UNL A   1      42.663  21.248  27.758  1.00  0.00     0.059 A 
ATOM     75  F   UNL A   1      43.215  22.978  29.243  1.00  0.00    -0.206 F 
ATOM     76  C   UNL A   1      42.482  20.806  26.449  1.00  0.00     0.060 A 
BRANCH  76  77
ATOM     77  S   UNL A   1      42.005  19.094  26.128  1.00  0.00     0.124 S 
ATOM     78  O   UNL A   1      42.884  18.747  25.019  1.00  0.00    -0.237 OA
ATOM     79  O   UNL A   1      42.299  18.445  27.403  1.00  0.00    -0.237 OA
ATOM     80  O   UNL A   1      40.587  19.200  25.803  1.00  0.00    -0.744 OA
ENDBRANCH  76  77
ENDBRANCH  44  69
BRANCH  56  81
ATOM     81  C   UNL A   1      49.346  26.794  26.157  1.00  0.00     0.058 A 
ATOM     82  C   UNL A   1      50.241  26.190  27.054  1.00  0.00     0.135 A 
ATOM     83  C   UNL A   1      49.754  26.946  24.823  1.00  0.00     0.135 A 
ATOM     84  F   UNL A   1      49.898  26.027  28.342  1.00  0.00    -0.206 F 
ATOM     85  C   UNL A   1      51.508  25.781  26.650  1.00  0.00     0.059 A 
ATOM     86  C   UNL A   1      51.008  26.526  24.393  1.00  0.00     0.059 A 
ATOM     87  F   UNL A   1      48.931  27.508  23.924  1.00  0.00    -0.206 F 
ATOM     88  C   UNL A   1      51.885  25.960  25.319  1.00  0.00     0.060 A 
BRANCH  88  89
ATOM     89  S   UNL A   1      53.529  25.426  24.798  1.00  0.00     0.124 S 
ATOM     90  O   UNL A   1      53.476  23.997  25.086  1.00  0.00    -0.237 OA
ATOM     91  O   UNL A   1      53.548  25.787  23.383  1.00  0.00    -0.237 OA
ATOM     92  O   UNL A   1      54.423  26.207  25.649  1.00  0.00    -0.744 OA
ENDBRANCH  88  89
ENDBRANCH  56  81
ENDBRANCH  30  31
ENDBRANCH  23  25
ENDBRANCH  22  23
ENDBRANCH  21  22
ENDBRANCH   1  21
TORSDOF 17
ENDMDL
MODEL 2
REMARK VINA RESULT:     -11.1      6.489     13.852
REMARK SMILES C=Cc1cncc(-c2ccc([C@@H](C)C(=O)OCCOC(=O)c3ccc(-c4c5nc(c(-c6c(F)cc(S(=O)(=O)[O-])cc6F)c6ccc([nH]6)c(-c6c(F)cc(S(=O)(=O)[O-])cc6F)c6nc(c(-c7c(F)cc(S(=O)(=O)[O-])cc7F)c7ccc4[nH]7)C=C6)C=C5)cc3)cc2)c1
REMARK SMILES IDX 17 1 16 2 14 3 15 4 12 5 13 6 11 7 8 8 9 9 89 10 10 11 88 12
REMARK SMILES IDX 7 13 3 14 4 15 90 16 5 17 6 18 2 19 1 20 18 21 19 22 20 23
REMARK SMILES IDX 21 24 22 25 23 26 87 27 24 28 86 29 25 30 26 31 27 32 80 33
REMARK SMILES IDX 28 34 85 35 79 36 81 37 29 38 84 39 78 40 77 41 30 43 64 44
REMARK SMILES IDX 43 45 63 46 44 47 47 48 62 49 82 50 45 51 46 52 61 54 83 55
REMARK SMILES IDX 48 56 31 57 32 58 41 59 33 60 34 61 40 62 42 63 35 64 36 65
REMARK SMILES IDX 37 66 38 67 39 68 65 69 66 70 75 71 67 72 68 73 74 74 76 75
REMARK SMILES IDX 69 76 70 77 71 78 72 79 73 80 49 81 50 82 59 83 51 84 52 85
REMARK SMILES IDX 58 86 60 87 53 88 54 89 55 90 56 91 57 92
REMARK H PARENT 81 42 47 53
REMARK Flexibility Score: inf
ROOT
ATOM      1  C   UNL A   1      45.226  24.561  25.074  1.00  0.00     0.274 C 
ENDROOT
BRANCH   1   2
ATOM      2  O   UNL A   1      45.848  23.817  26.140  1.00  0.00    -0.462 OA
BRANCH   2   3
ATOM      3  C   UNL A   1      46.563  24.535  27.045  1.00  0.00     0.313 C 
ATOM      4  O   UNL A   1      47.750  24.344  27.289  1.00  0.00    -0.252 OA
BRANCH   3   5
ATOM      5  C   UNL A   1      45.739  25.566  27.806  1.00  0.00     0.126 C 
ATOM      6  C   UNL A   1      46.381  26.945  27.658  1.00  0.00     0.025 C 
BRANCH   5   7
ATOM      7  C   UNL A   1      45.408  25.233  29.254  1.00  0.00    -0.034 A 
ATOM      8  C   UNL A   1      44.904  24.558  31.972  1.00  0.00    -0.017 A 
ATOM      9  C   UNL A   1      44.122  24.030  30.933  1.00  0.00     0.009 A 
ATOM     10  C   UNL A   1      45.923  25.456  31.630  1.00  0.00     0.009 A 
ATOM     11  C   UNL A   1      44.370  24.360  29.596  1.00  0.00     0.005 A 
ATOM     12  C   UNL A   1      46.176  25.783  30.293  1.00  0.00     0.005 A 
BRANCH   8  13
ATOM     13  C   UNL A   1      44.691  24.140  33.365  1.00  0.00     0.001 A 
ATOM     14  C   UNL A   1      43.410  24.107  35.435  1.00  0.00    -0.007 A 
ATOM     15  C   UNL A   1      44.433  23.339  35.985  1.00  0.00     0.119 A 
ATOM     16  C   UNL A   1      43.560  24.516  34.104  1.00  0.00     0.020 A 
ATOM     17  N   UNL A   1      45.541  22.944  35.317  1.00  0.00    -0.263 NA
ATOM     18  C   UNL A   1      45.639  23.358  34.032  1.00  0.00     0.119 A 
BRANCH  14  19
ATOM     19  C   UNL A   1      42.269  24.500  36.268  1.00  0.00     0.002 C 
ATOM     20  C   UNL A   1      41.106  24.953  35.782  1.00  0.00     0.009 C 
ENDBRANCH  14  19
ENDBRANCH   8  13
ENDBRANCH   5   7
ENDBRANCH   3   5
ENDBRANCH   2   3
ENDBRANCH   1   2
BRANCH   1  21
ATOM     21  C   UNL A   1      43.721  24.296  25.005  1.00  0.00     0.275 C 
BRANCH  21  22
ATOM     22  O   UNL A   1      42.981  25.277  25.756  1.00  0.00    -0.458 OA
BRANCH  22  23
ATOM     23  C   UNL A   1      42.104  24.762  26.648  1.00  0.00     0.338 C 
ATOM     24  O   UNL A   1      41.783  23.592  26.776  1.00  0.00    -0.246 OA
BRANCH  23  25
ATOM     25  C   UNL A   1      41.644  25.813  27.566  1.00  0.00     0.060 A 
ATOM     26  C   UNL A   1      42.412  26.975  27.660  1.00  0.00     0.016 A 
ATOM     27  C   UNL A   1      40.550  25.615  28.410  1.00  0.00     0.016 A 
ATOM     28  C   UNL A   1      42.119  27.931  28.627  1.00  0.00     0.010 A 
ATOM     29  C   UNL A   1      40.249  26.581  29.376  1.00  0.00     0.010 A 
ATOM     30  C   UNL A   1      41.050  27.730  29.509  1.00  0.00    -0.014 A 
BRANCH  30  31
ATOM     31  C   UNL A   1      40.847  28.687  30.623  1.00  0.00     0.031 A 
ATOM     32  C   UNL A   1      41.763  28.644  31.814  1.00  0.00     0.074 A 
ATOM     33  C   UNL A   1      39.891  29.629  30.536  1.00  0.00     0.049 A 
ATOM     34  N   UNL A   1      41.755  29.387  32.891  1.00  0.00    -0.248 NA
ATOM     35  C   UNL A   1      42.830  27.631  31.791  1.00  0.00     0.031 C 
ATOM     36  C   UNL A   1      38.966  29.792  29.412  1.00  0.00     0.029 A 
ATOM     37  N   UNL A   1      39.544  30.632  31.404  1.00  0.00    -0.354 N 
ATOM     38  C   UNL A   1      42.800  28.922  33.681  1.00  0.00     0.074 A 
ATOM     39  C   UNL A   1      43.411  27.821  32.967  1.00  0.00     0.031 C 
ATOM     40  C   UNL A   1      38.163  30.841  29.658  1.00  0.00     0.029 A 
ATOM     41  C   UNL A   1      38.497  31.405  30.963  1.00  0.00     0.049 A 
ATOM     42  H   UNL A   1      40.002  30.785  32.262  1.00  0.00     0.167 HD
ATOM     43  C   UNL A   1      43.216  29.375  34.888  1.00  0.00     0.037 A 
ATOM     44  C   UNL A   1      37.873  32.444  31.551  1.00  0.00     0.037 A 
ATOM     45  C   UNL A   1      42.615  30.480  35.589  1.00  0.00     0.049 A 
ATOM     46  C   UNL A   1      38.349  32.924  32.894  1.00  0.00     0.074 A 
ATOM     47  C   UNL A   1      42.954  31.006  36.824  1.00  0.00     0.029 A 
ATOM     48  N   UNL A   1      41.556  31.236  35.110  1.00  0.00    -0.354 N 
ATOM     49  N   UNL A   1      39.327  32.461  33.637  1.00  0.00    -0.248 NA
ATOM     50  C   UNL A   1      37.641  34.072  33.478  1.00  0.00     0.031 C 
ATOM     51  C   UNL A   1      42.085  32.069  37.101  1.00  0.00     0.029 A 
ATOM     52  C   UNL A   1      41.227  32.224  36.024  1.00  0.00     0.049 A 
ATOM     53  H   UNL A   1      41.103  31.093  34.248  1.00  0.00     0.167 HD
ATOM     54  C   UNL A   1      39.366  33.274  34.764  1.00  0.00     0.074 A 
ATOM     55  C   UNL A   1      38.320  34.264  34.601  1.00  0.00     0.031 C 
ATOM     56  C   UNL A   1      40.190  33.207  35.839  1.00  0.00     0.037 A 
BRANCH  43  57
ATOM     57  C   UNL A   1      44.361  28.652  35.536  1.00  0.00     0.058 A 
ATOM     58  C   UNL A   1      45.691  28.884  35.152  1.00  0.00     0.135 A 
ATOM     59  C   UNL A   1      44.128  27.721  36.560  1.00  0.00     0.135 A 
ATOM     60  F   UNL A   1      45.968  29.750  34.163  1.00  0.00    -0.206 F 
ATOM     61  C   UNL A   1      46.749  28.199  35.743  1.00  0.00     0.059 A 
ATOM     62  C   UNL A   1      45.172  27.039  37.179  1.00  0.00     0.059 A 
ATOM     63  F   UNL A   1      42.874  27.460  36.963  1.00  0.00    -0.206 F 
ATOM     64  C   UNL A   1      46.478  27.272  36.751  1.00  0.00     0.060 A 
BRANCH  64  65
ATOM     65  S   UNL A   1      47.854  26.377  37.501  1.00  0.00     0.124 S 
ATOM     66  O   UNL A   1      47.809  26.872  38.874  1.00  0.00    -0.237 OA
ATOM     67  O   UNL A   1      47.463  24.982  37.318  1.00  0.00    -0.237 OA
ATOM     68  O   UNL A   1      49.006  26.809  36.715  1.00  0.00    -0.744 OA
ENDBRANCH  64  65
ENDBRANCH  43  57
BRANCH  44  69
ATOM     69  C   UNL A   1      36.731  33.103  30.868  1.00  0.00     0.058 A 
ATOM     70  C   UNL A   1      36.936  33.953  29.771  1.00  0.00     0.135 A 
ATOM     71  C   UNL A   1      35.412  32.887  31.293  1.00  0.00     0.135 A 
ATOM     72  F   UNL A   1      38.180  34.194  29.333  1.00  0.00    -0.206 F 
ATOM     73  C   UNL A   1      35.873  34.577  29.126  1.00  0.00     0.059 A 
ATOM     74  C   UNL A   1      34.331  33.484  30.651  1.00  0.00     0.059 A 
ATOM     75  F   UNL A   1      35.164  32.073  32.331  1.00  0.00    -0.206 F 
ATOM     76  C   UNL A   1      34.573  34.336  29.575  1.00  0.00     0.060 A 
BRANCH  76  77
ATOM     77  S   UNL A   1      33.191  35.106  28.703  1.00  0.00     0.124 S 
ATOM     78  O   UNL A   1      32.724  34.008  27.866  1.00  0.00    -0.237 OA
ATOM     79  O   UNL A   1      32.309  35.494  29.799  1.00  0.00    -0.237 OA
ATOM     80  O   UNL A   1      33.823  36.216  27.996  1.00  0.00    -0.744 OA
ENDBRANCH  76  77
ENDBRANCH  44  69
BRANCH  56  81
ATOM     81  C   UNL A   1      40.016  34.257  36.898  1.00  0.00     0.058 A 
ATOM     82  C   UNL A   1      40.704  35.480  36.843  1.00  0.00     0.135 A 
ATOM     83  C   UNL A   1      39.141  34.042  37.974  1.00  0.00     0.135 A 
ATOM     84  F   UNL A   1      41.556  35.730  35.836  1.00  0.00    -0.206 F 
ATOM     85  C   UNL A   1      40.554  36.441  37.837  1.00  0.00     0.059 A 
ATOM     86  C   UNL A   1      38.960  34.998  38.968  1.00  0.00     0.059 A 
ATOM     87  F   UNL A   1      38.452  32.894  38.065  1.00  0.00    -0.206 F 
ATOM     88  C   UNL A   1      39.686  36.187  38.900  1.00  0.00     0.060 A 
BRANCH  88  89
ATOM     89  S   UNL A   1      39.492  37.439  40.187  1.00  0.00     0.124 S 
ATOM     90  O   UNL A   1      38.957  36.645  41.288  1.00  0.00    -0.237 OA
ATOM     91  O   UNL A   1      40.855  37.929  40.363  1.00  0.00    -0.237 OA
ATOM     92  O   UNL A   1      38.562  38.394  39.591  1.00  0.00    -0.744 OA
ENDBRANCH  88  89
ENDBRANCH  56  81
ENDBRANCH  30  31
ENDBRANCH  23  25
ENDBRANCH  22  23
ENDBRANCH  21  22
ENDBRANCH   1  21
TORSDOF 17
ENDMDL
MODEL 3
REMARK VINA RESULT:     -11.0      6.297     12.766
REMARK SMILES C=Cc1cncc(-c2ccc([C@@H](C)C(=O)OCCOC(=O)c3ccc(-c4c5nc(c(-c6c(F)cc(S(=O)(=O)[O-])cc6F)c6ccc([nH]6)c(-c6c(F)cc(S(=O)(=O)[O-])cc6F)c6nc(c(-c7c(F)cc(S(=O)(=O)[O-])cc7F)c7ccc4[nH]7)C=C6)C=C5)cc3)cc2)c1
REMARK SMILES IDX 17 1 16 2 14 3 15 4 12 5 13 6 11 7 8 8 9 9 89 10 10 11 88 12
REMARK SMILES IDX 7 13 3 14 4 15 90 16 5 17 6 18 2 19 1 20 18 21 19 22 20 23
REMARK SMILES IDX 21 24 22 25 23 26 87 27 24 28 86 29 25 30 26 31 27 32 80 33
REMARK SMILES IDX 28 34 85 35 79 36 81 37 29 38 84 39 78 40 77 41 30 43 64 44
REMARK SMILES IDX 43 45 63 46 44 47 47 48 62 49 82 50 45 51 46 52 61 54 83 55
REMARK SMILES IDX 48 56 31 57 32 58 41 59 33 60 34 61 40 62 42 63 35 64 36 65
REMARK SMILES IDX 37 66 38 67 39 68 65 69 66 70 75 71 67 72 68 73 74 74 76 75
REMARK SMILES IDX 69 76 70 77 71 78 72 79 73 80 49 81 50 82 59 83 51 84 52 85
REMARK SMILES IDX 58 86 60 87 53 88 54 89 55 90 56 91 57 92
REMARK H PARENT 81 42 47 53
REMARK Flexibility Score: inf
ROOT
ATOM      1  C   UNL A   1      44.142  22.589  26.401  1.00  0.00     0.274 C 
ENDROOT
BRANCH   1   2
ATOM      2  O   UNL A   1      42.766  22.193  26.243  1.00  0.00    -0.462 OA
BRANCH   2   3
ATOM      3  C   UNL A   1      42.007  22.170  27.370  1.00  0.00     0.313 C 
ATOM      4  O   UNL A   1      42.317  22.732  28.417  1.00  0.00    -0.252 OA
BRANCH   3   5
ATOM      5  C   UNL A   1      40.754  21.312  27.255  1.00  0.00     0.126 C 
ATOM      6  C   UNL A   1      41.126  19.933  26.710  1.00  0.00     0.025 C 
BRANCH   5   7
ATOM      7  C   UNL A   1      39.576  21.929  26.514  1.00  0.00    -0.034 A 
ATOM      8  C   UNL A   1      37.320  23.105  25.241  1.00  0.00    -0.017 A 
ATOM      9  C   UNL A   1      37.653  21.758  25.034  1.00  0.00     0.009 A 
ATOM     10  C   UNL A   1      38.155  23.864  26.071  1.00  0.00     0.009 A 
ATOM     11  C   UNL A   1      38.761  21.178  25.661  1.00  0.00     0.005 A 
ATOM     12  C   UNL A   1      39.260  23.284  26.704  1.00  0.00     0.005 A 
BRANCH   8  13
ATOM     13  C   UNL A   1      36.107  23.683  24.646  1.00  0.00     0.001 A 
ATOM     14  C   UNL A   1      34.171  25.160  24.699  1.00  0.00    -0.007 A 
ATOM     15  C   UNL A   1      33.824  24.649  23.451  1.00  0.00     0.119 A 
ATOM     16  C   UNL A   1      35.330  24.651  25.300  1.00  0.00     0.020 A 
ATOM     17  N   UNL A   1      34.538  23.721  22.775  1.00  0.00    -0.263 NA
ATOM     18  C   UNL A   1      35.653  23.264  23.392  1.00  0.00     0.119 A 
BRANCH  14  19
ATOM     19  C   UNL A   1      33.300  26.144  25.349  1.00  0.00     0.002 C 
ATOM     20  C   UNL A   1      33.739  27.116  26.158  1.00  0.00     0.009 C 
ENDBRANCH  14  19
ENDBRANCH   8  13
ENDBRANCH   5   7
ENDBRANCH   3   5
ENDBRANCH   2   3
ENDBRANCH   1   2
BRANCH   1  21
ATOM     21  C   UNL A   1      44.433  23.915  25.695  1.00  0.00     0.275 C 
BRANCH  21  22
ATOM     22  O   UNL A   1      43.979  25.036  26.475  1.00  0.00    -0.458 OA
BRANCH  22  23
ATOM     23  C   UNL A   1      42.859  25.633  26.008  1.00  0.00     0.338 C 
ATOM     24  O   UNL A   1      42.321  25.453  24.929  1.00  0.00    -0.246 OA
BRANCH  23  25
ATOM     25  C   UNL A   1      42.270  26.485  27.051  1.00  0.00     0.060 A 
ATOM     26  C   UNL A   1      42.753  27.789  27.175  1.00  0.00     0.016 A 
ATOM     27  C   UNL A   1      41.350  25.978  27.971  1.00  0.00     0.016 A 
ATOM     28  C   UNL A   1      42.352  28.585  28.242  1.00  0.00     0.010 A 
ATOM     29  C   UNL A   1      40.940  26.783  29.040  1.00  0.00     0.010 A 
ATOM     30  C   UNL A   1      41.462  28.080  29.198  1.00  0.00    -0.014 A 
BRANCH  30  31
ATOM     31  C   UNL A   1      41.165  28.889  30.403  1.00  0.00     0.031 A 
ATOM     32  C   UNL A   1      42.041  28.761  31.618  1.00  0.00     0.074 A 
ATOM     33  C   UNL A   1      40.156  29.780  30.385  1.00  0.00     0.049 A 
ATOM     34  N   UNL A   1      41.953  29.374  32.771  1.00  0.00    -0.248 NA
ATOM     35  C   UNL A   1      43.168  27.819  31.523  1.00  0.00     0.031 C 
ATOM     36  C   UNL A   1      39.262  30.019  29.251  1.00  0.00     0.029 A 
ATOM     37  N   UNL A   1      39.721  30.655  31.347  1.00  0.00    -0.354 N 
ATOM     38  C   UNL A   1      42.997  28.881  33.544  1.00  0.00     0.074 A 
ATOM     39  C   UNL A   1      43.697  27.905  32.735  1.00  0.00     0.031 C 
ATOM     40  C   UNL A   1      38.389  30.986  29.581  1.00  0.00     0.029 A 
ATOM     41  C   UNL A   1      38.644  31.414  30.954  1.00  0.00     0.049 A 
ATOM     42  H   UNL A   1      40.140  30.734  32.234  1.00  0.00     0.167 HD
ATOM     43  C   UNL A   1      43.344  29.215  34.810  1.00  0.00     0.037 A 
ATOM     44  C   UNL A   1      37.940  32.341  31.630  1.00  0.00     0.037 A 
ATOM     45  C   UNL A   1      42.655  30.196  35.607  1.00  0.00     0.049 A 
ATOM     46  C   UNL A   1      38.341  32.690  33.037  1.00  0.00     0.074 A 
ATOM     47  C   UNL A   1      42.920  30.595  36.906  1.00  0.00     0.029 A 
ATOM     48  N   UNL A   1      41.568  30.942  35.174  1.00  0.00    -0.354 N 
ATOM     49  N   UNL A   1      39.320  32.201  33.761  1.00  0.00    -0.248 NA
ATOM     50  C   UNL A   1      37.546  33.721  33.718  1.00  0.00     0.031 C 
ATOM     51  C   UNL A   1      41.980  31.568  37.266  1.00  0.00     0.029 A 
ATOM     52  C   UNL A   1      41.151  31.798  36.180  1.00  0.00     0.049 A 
ATOM     53  H   UNL A   1      41.154  30.873  34.284  1.00  0.00     0.167 HD
ATOM     54  C   UNL A   1      39.272  32.879  34.973  1.00  0.00     0.074 A 
ATOM     55  C   UNL A   1      38.175  33.821  34.881  1.00  0.00     0.031 C 
ATOM     56  C   UNL A   1      40.062  32.736  36.066  1.00  0.00     0.037 A 
BRANCH  43  57
ATOM     57  C   UNL A   1      44.509  28.488  35.418  1.00  0.00     0.058 A 
ATOM     58  C   UNL A   1      44.343  27.276  36.107  1.00  0.00     0.135 A 
ATOM     59  C   UNL A   1      45.809  29.003  35.303  1.00  0.00     0.135 A 
ATOM     60  F   UNL A   1      43.118  26.750  36.264  1.00  0.00    -0.206 F 
ATOM     61  C   UNL A   1      45.423  26.615  36.685  1.00  0.00     0.059 A 
ATOM     62  C   UNL A   1      46.906  28.349  35.855  1.00  0.00     0.059 A 
ATOM     63  F   UNL A   1      46.023  30.160  34.656  1.00  0.00    -0.206 F 
ATOM     64  C   UNL A   1      46.701  27.164  36.560  1.00  0.00     0.060 A 
BRANCH  64  65
ATOM     65  S   UNL A   1      48.093  26.307  37.324  1.00  0.00     0.124 S 
ATOM     66  O   UNL A   1      49.167  26.597  36.379  1.00  0.00    -0.237 OA
ATOM     67  O   UNL A   1      48.197  26.966  38.623  1.00  0.00    -0.237 OA
ATOM     68  O   UNL A   1      47.652  24.916  37.366  1.00  0.00    -0.744 OA
ENDBRANCH  64  65
ENDBRANCH  43  57
BRANCH  44  69
ATOM     69  C   UNL A   1      36.783  33.010  30.980  1.00  0.00     0.058 A 
ATOM     70  C   UNL A   1      36.973  34.001  30.007  1.00  0.00     0.135 A 
ATOM     71  C   UNL A   1      35.466  32.662  31.315  1.00  0.00     0.135 A 
ATOM     72  F   UNL A   1      38.215  34.372  29.660  1.00  0.00    -0.206 F 
ATOM     73  C   UNL A   1      35.896  34.635  29.395  1.00  0.00     0.059 A 
ATOM     74  C   UNL A   1      34.374  33.266  30.701  1.00  0.00     0.059 A 
ATOM     75  F   UNL A   1      35.234  31.710  32.233  1.00  0.00    -0.206 F 
ATOM     76  C   UNL A   1      34.599  34.259  29.750  1.00  0.00     0.060 A 
BRANCH  76  77
ATOM     77  S   UNL A   1      33.204  35.047  28.916  1.00  0.00     0.124 S 
ATOM     78  O   UNL A   1      32.356  35.411  30.044  1.00  0.00    -0.237 OA
ATOM     79  O   UNL A   1      33.846  36.154  28.215  1.00  0.00    -0.237 OA
ATOM     80  O   UNL A   1      32.690  33.986  28.055  1.00  0.00    -0.744 OA
ENDBRANCH  76  77
ENDBRANCH  44  69
BRANCH  56  81
ATOM     81  C   UNL A   1      39.791  33.645  37.229  1.00  0.00     0.058 A 
ATOM     82  C   UNL A   1      38.904  33.284  38.255  1.00  0.00     0.135 A 
ATOM     83  C   UNL A   1      40.437  34.887  37.324  1.00  0.00     0.135 A 
ATOM     84  F   UNL A   1      38.259  32.108  38.206  1.00  0.00    -0.206 F 
ATOM     85  C   UNL A   1      38.642  34.138  39.322  1.00  0.00     0.059 A 
ATOM     86  C   UNL A   1      40.206  35.748  38.392  1.00  0.00     0.059 A 
ATOM     87  F   UNL A   1      41.303  35.274  36.374  1.00  0.00    -0.206 F 
ATOM     88  C   UNL A   1      39.292  35.372  39.377  1.00  0.00     0.060 A 
BRANCH  88  89
ATOM     89  S   UNL A   1      38.951  36.477  40.763  1.00  0.00     0.124 S 
ATOM     90  O   UNL A   1      37.917  35.738  41.479  1.00  0.00    -0.237 OA
ATOM     91  O   UNL A   1      40.247  36.561  41.430  1.00  0.00    -0.237 OA
ATOM     92  O   UNL A   1      38.509  37.707  40.112  1.00  0.00    -0.744 OA
ENDBRANCH  88  89
ENDBRANCH  56  81
ENDBRANCH  30  31
ENDBRANCH  23  25
ENDBRANCH  22  23
ENDBRANCH  21  22
ENDBRANCH   1  21
TORSDOF 17
ENDMDL
