MODEL 1
REMARK VINA RESULT:     -11.0      0.000      0.000
REMARK SMILES C[C@H]1CN(c2ccc([N+](=O)[O-])c(C(=O)OCCOC(=O)c3ccc(-c4c5nc(c(-c6c(F)cc(S(=O)(=O)[O-])cc6F)c6ccc([nH]6)c(-c6c(F)cc(S(=O)(=O)[O-])cc6F)c6nc(c(-c7c(F)cc(S(=O)(=O)[O-])cc7F)c7ccc4[nH]7)C=C6)C=C5)cc3)c2)C[C@H](C)O1
REMARK SMILES IDX 17 1 16 2 15 3 13 4 14 5 12 6 5 7 6 8 87 9 7 10 8 11 4 12
REMARK SMILES IDX 1 13 2 14 3 15 91 16 89 17 88 18 90 19 9 20 10 21 11 22
REMARK SMILES IDX 18 23 19 24 20 25 21 26 22 27 86 28 23 29 85 30 24 31 25 32
REMARK SMILES IDX 26 33 79 34 27 35 84 36 78 37 80 38 28 39 83 40 77 41 76 42
REMARK SMILES IDX 29 44 63 45 42 46 62 47 43 48 46 49 61 50 81 51 44 52 45 53
REMARK SMILES IDX 60 55 82 56 47 57 30 58 31 59 40 60 32 61 33 62 39 63 41 64
REMARK SMILES IDX 34 65 35 66 36 67 37 68 38 69 64 70 65 71 74 72 66 73 67 74
REMARK SMILES IDX 73 75 75 76 68 77 69 78 70 79 71 80 72 81 48 82 49 83 58 84
REMARK SMILES IDX 50 85 51 86 57 87 59 88 52 89 53 90 54 91 55 92 56 93
REMARK H PARENT 80 43 46 54
REMARK Flexibility Score: inf
ROOT
ATOM      1  C   UNL A   1      33.360  32.233  27.541  1.00  0.00     0.275 C 
ENDROOT
BRANCH   1   2
ATOM      2  C   UNL A   1      33.257  33.728  27.873  1.00  0.00     0.275 C 
BRANCH   2   3
ATOM      3  O   UNL A   1      32.776  33.973  29.211  1.00  0.00    -0.458 OA
BRANCH   3   4
ATOM      4  C   UNL A   1      33.031  35.214  29.709  1.00  0.00     0.345 C 
ATOM      5  O   UNL A   1      32.485  36.230  29.339  1.00  0.00    -0.246 OA
BRANCH   4   6
ATOM      6  C   UNL A   1      33.952  35.145  30.883  1.00  0.00     0.139 A 
ATOM      7  C   UNL A   1      35.908  34.131  31.982  1.00  0.00     0.038 A 
ATOM      8  C   UNL A   1      35.364  34.505  33.217  1.00  0.00     0.033 A 
ATOM      9  C   UNL A   1      35.166  34.433  30.824  1.00  0.00     0.048 A 
ATOM     10  C   UNL A   1      34.224  35.301  33.297  1.00  0.00     0.089 A 
ATOM     11  C   UNL A   1      33.560  35.660  32.121  1.00  0.00     0.284 A 
BRANCH   7  12
ATOM     12  N   UNL A   1      37.124  33.489  31.896  1.00  0.00    -0.366 N 
ATOM     13  C   UNL A   1      40.619  34.589  32.986  1.00  0.00     0.040 C 
ATOM     14  C   UNL A   1      39.241  33.946  33.083  1.00  0.00     0.135 C 
ATOM     15  C   UNL A   1      38.379  34.254  31.834  1.00  0.00     0.148 C 
ATOM     16  O   UNL A   1      39.453  32.530  33.247  1.00  0.00    -0.372 OA
ATOM     17  C   UNL A   1      38.221  31.786  33.352  1.00  0.00     0.135 C 
ATOM     18  C   UNL A   1      37.283  32.054  32.154  1.00  0.00     0.148 C 
ATOM     19  C   UNL A   1      37.566  32.002  34.714  1.00  0.00     0.040 C 
ENDBRANCH   7  12
BRANCH  11  20
ATOM     20  N   UNL A   1      32.532  36.679  32.238  1.00  0.00     0.063 N 
ATOM     21  O   UNL A   1      31.398  36.302  32.558  1.00  0.00    -0.258 OA
ATOM     22  O   UNL A   1      32.908  37.857  32.151  1.00  0.00    -0.258 OA
ENDBRANCH  11  20
ENDBRANCH   4   6
ENDBRANCH   3   4
ENDBRANCH   2   3
ENDBRANCH   1   2
BRANCH   1  23
ATOM     23  O   UNL A   1      34.211  31.523  28.461  1.00  0.00    -0.458 OA
BRANCH  23  24
ATOM     24  C   UNL A   1      34.488  30.242  28.114  1.00  0.00     0.338 C 
ATOM     25  O   UNL A   1      33.755  29.484  27.497  1.00  0.00    -0.246 OA
BRANCH  24  26
ATOM     26  C   UNL A   1      35.895  29.915  28.424  1.00  0.00     0.060 A 
ATOM     27  C   UNL A   1      36.822  30.087  27.392  1.00  0.00     0.016 A 
ATOM     28  C   UNL A   1      36.317  29.438  29.669  1.00  0.00     0.016 A 
ATOM     29  C   UNL A   1      38.175  29.838  27.610  1.00  0.00     0.010 A 
ATOM     30  C   UNL A   1      37.676  29.155  29.877  1.00  0.00     0.010 A 
ATOM     31  C   UNL A   1      38.613  29.366  28.852  1.00  0.00    -0.014 A 
BRANCH  31  32
ATOM     32  C   UNL A   1      40.046  29.024  29.018  1.00  0.00     0.031 A 
ATOM     33  C   UNL A   1      40.986  30.053  29.576  1.00  0.00     0.074 A 
ATOM     34  C   UNL A   1      40.490  27.783  28.746  1.00  0.00     0.049 A 
ATOM     35  N   UNL A   1      42.268  29.962  29.815  1.00  0.00    -0.248 NA
ATOM     36  C   UNL A   1      40.397  31.355  29.926  1.00  0.00     0.031 C 
ATOM     37  C   UNL A   1      39.660  26.672  28.283  1.00  0.00     0.029 A 
ATOM     38  N   UNL A   1      41.753  27.248  28.827  1.00  0.00    -0.354 N 
ATOM     39  C   UNL A   1      42.641  31.188  30.348  1.00  0.00     0.074 A 
ATOM     40  C   UNL A   1      41.452  32.014  30.380  1.00  0.00     0.031 C 
ATOM     41  C   UNL A   1      40.439  25.591  28.103  1.00  0.00     0.029 A 
ATOM     42  C   UNL A   1      41.826  25.940  28.411  1.00  0.00     0.049 A 
ATOM     43  H   UNL A   1      42.533  27.754  29.151  1.00  0.00     0.167 HD
ATOM     44  C   UNL A   1      43.864  31.588  30.770  1.00  0.00     0.037 A 
ATOM     45  C   UNL A   1      42.891  25.124  28.274  1.00  0.00     0.037 A 
ATOM     46  C   UNL A   1      45.049  30.772  30.715  1.00  0.00     0.049 A 
ATOM     47  C   UNL A   1      44.261  25.629  28.652  1.00  0.00     0.074 A 
ATOM     48  C   UNL A   1      46.336  31.097  31.107  1.00  0.00     0.029 A 
ATOM     49  N   UNL A   1      45.097  29.474  30.226  1.00  0.00    -0.354 N 
ATOM     50  N   UNL A   1      44.604  26.791  29.158  1.00  0.00    -0.248 NA
ATOM     51  C   UNL A   1      45.393  24.714  28.440  1.00  0.00     0.031 C 
ATOM     52  C   UNL A   1      47.172  30.017  30.804  1.00  0.00     0.029 A 
ATOM     53  C   UNL A   1      46.397  28.996  30.278  1.00  0.00     0.049 A 
ATOM     54  H   UNL A   1      44.322  28.969  29.890  1.00  0.00     0.167 HD
ATOM     55  C   UNL A   1      45.981  26.734  29.351  1.00  0.00     0.074 A 
ATOM     56  C   UNL A   1      46.408  25.421  28.915  1.00  0.00     0.031 C 
ATOM     57  C   UNL A   1      46.813  27.683  29.847  1.00  0.00     0.037 A 
BRANCH  44  58
ATOM     58  C   UNL A   1      43.989  32.993  31.287  1.00  0.00     0.058 A 
ATOM     59  C   UNL A   1      44.021  33.278  32.662  1.00  0.00     0.135 A 
ATOM     60  C   UNL A   1      44.097  34.070  30.392  1.00  0.00     0.135 A 
ATOM     61  F   UNL A   1      43.903  32.288  33.561  1.00  0.00    -0.206 F 
ATOM     62  C   UNL A   1      44.132  34.583  33.130  1.00  0.00     0.059 A 
ATOM     63  C   UNL A   1      44.233  35.381  30.838  1.00  0.00     0.059 A 
ATOM     64  F   UNL A   1      44.066  33.852  29.067  1.00  0.00    -0.206 F 
ATOM     65  C   UNL A   1      44.235  35.628  32.210  1.00  0.00     0.060 A 
BRANCH  65  66
ATOM     66  S   UNL A   1      44.370  37.316  32.833  1.00  0.00     0.124 S 
ATOM     67  O   UNL A   1      44.326  38.088  31.594  1.00  0.00    -0.237 OA
ATOM     68  O   UNL A   1      43.195  37.428  33.690  1.00  0.00    -0.237 OA
ATOM     69  O   UNL A   1      45.654  37.322  33.529  1.00  0.00    -0.744 OA
ENDBRANCH  65  66
ENDBRANCH  44  58
BRANCH  45  70
ATOM     70  C   UNL A   1      42.715  23.751  27.724  1.00  0.00     0.058 A 
ATOM     71  C   UNL A   1      42.717  23.512  26.342  1.00  0.00     0.135 A 
ATOM     72  C   UNL A   1      42.520  22.652  28.576  1.00  0.00     0.135 A 
ATOM     73  F   UNL A   1      42.882  24.531  25.485  1.00  0.00    -0.206 F 
ATOM     74  C   UNL A   1      42.517  22.236  25.823  1.00  0.00     0.059 A 
ATOM     75  C   UNL A   1      42.344  21.364  28.082  1.00  0.00     0.059 A 
ATOM     76  F   UNL A   1      42.509  22.825  29.906  1.00  0.00    -0.206 F 
ATOM     77  C   UNL A   1      42.332  21.166  26.702  1.00  0.00     0.060 A 
BRANCH  77  78
ATOM     78  S   UNL A   1      42.102  19.510  26.020  1.00  0.00     0.124 S 
ATOM     79  O   UNL A   1      40.659  19.475  25.811  1.00  0.00    -0.237 OA
ATOM     80  O   UNL A   1      42.920  19.557  24.812  1.00  0.00    -0.237 OA
ATOM     81  O   UNL A   1      42.606  18.637  27.077  1.00  0.00    -0.744 OA
ENDBRANCH  77  78
ENDBRANCH  45  70
BRANCH  57  82
ATOM     82  C   UNL A   1      48.271  27.334  29.984  1.00  0.00     0.058 A 
ATOM     83  C   UNL A   1      49.206  27.649  28.987  1.00  0.00     0.135 A 
ATOM     84  C   UNL A   1      48.749  26.732  31.161  1.00  0.00     0.135 A 
ATOM     85  F   UNL A   1      48.805  28.220  27.839  1.00  0.00    -0.206 F 
ATOM     86  C   UNL A   1      50.560  27.363  29.141  1.00  0.00     0.059 A 
ATOM     87  C   UNL A   1      50.102  26.463  31.348  1.00  0.00     0.059 A 
ATOM     88  F   UNL A   1      47.902  26.419  32.153  1.00  0.00    -0.206 F 
ATOM     89  C   UNL A   1      50.999  26.772  30.327  1.00  0.00     0.060 A 
BRANCH  89  90
ATOM     90  S   UNL A   1      52.763  26.446  30.532  1.00  0.00     0.124 S 
ATOM     91  O   UNL A   1      53.173  26.165  29.161  1.00  0.00    -0.237 OA
ATOM     92  O   UNL A   1      53.251  27.700  31.096  1.00  0.00    -0.237 OA
ATOM     93  O   UNL A   1      52.794  25.304  31.442  1.00  0.00    -0.744 OA
ENDBRANCH  89  90
ENDBRANCH  57  82
ENDBRANCH  31  32
ENDBRANCH  24  26
ENDBRANCH  23  24
ENDBRANCH   1  23
TORSDOF 16
ENDMDL
MODEL 2
REMARK VINA RESULT:     -10.7      3.342      6.199
REMARK SMILES C[C@H]1CN(c2ccc([N+](=O)[O-])c(C(=O)OCCOC(=O)c3ccc(-c4c5nc(c(-c6c(F)cc(S(=O)(=O)[O-])cc6F)c6ccc([nH]6)c(-c6c(F)cc(S(=O)(=O)[O-])cc6F)c6nc(c(-c7c(F)cc(S(=O)(=O)[O-])cc7F)c7ccc4[nH]7)C=C6)C=C5)cc3)c2)C[C@H](C)O1
REMARK SMILES IDX 17 1 16 2 15 3 13 4 14 5 12 6 5 7 6 8 87 9 7 10 8 11 4 12
REMARK SMILES IDX 1 13 2 14 3 15 91 16 89 17 88 18 90 19 9 20 10 21 11 22
REMARK SMILES IDX 18 23 19 24 20 25 21 26 22 27 86 28 23 29 85 30 24 31 25 32
REMARK SMILES IDX 26 33 79 34 27 35 84 36 78 37 80 38 28 39 83 40 77 41 76 42
REMARK SMILES IDX 29 44 63 45 42 46 62 47 43 48 46 49 61 50 81 51 44 52 45 53
REMARK SMILES IDX 60 55 82 56 47 57 30 58 31 59 40 60 32 61 33 62 39 63 41 64
REMARK SMILES IDX 34 65 35 66 36 67 37 68 38 69 64 70 65 71 74 72 66 73 67 74
REMARK SMILES IDX 73 75 75 76 68 77 69 78 70 79 71 80 72 81 48 82 49 83 58 84
REMARK SMILES IDX 50 85 51 86 57 87 59 88 52 89 53 90 54 91 55 92 56 93
REMARK H PARENT 80 43 46 54
REMARK Flexibility Score: inf
ROOT
ATOM      1  C   UNL A   1      33.679  28.142  26.844  1.00  0.00     0.275 C 
ENDROOT
BRANCH   1   2
ATOM      2  C   UNL A   1      33.152  28.609  25.481  1.00  0.00     0.275 C 
BRANCH   2   3
ATOM      3  O   UNL A   1      34.112  28.433  24.419  1.00  0.00    -0.458 OA
BRANCH   3   4
ATOM      4  C   UNL A   1      33.614  27.937  23.252  1.00  0.00     0.345 C 
ATOM      5  O   UNL A   1      33.641  28.517  22.190  1.00  0.00    -0.246 OA
BRANCH   4   6
ATOM      6  C   UNL A   1      33.176  26.518  23.414  1.00  0.00     0.139 A 
ATOM      7  C   UNL A   1      33.758  24.138  23.654  1.00  0.00     0.038 A 
ATOM      8  C   UNL A   1      32.503  23.814  23.124  1.00  0.00     0.033 A 
ATOM      9  C   UNL A   1      34.089  25.502  23.760  1.00  0.00     0.048 A 
ATOM     10  C   UNL A   1      31.545  24.793  22.877  1.00  0.00     0.089 A 
ATOM     11  C   UNL A   1      31.875  26.136  23.079  1.00  0.00     0.284 A 
BRANCH   7  12
ATOM     12  N   UNL A   1      34.643  23.161  24.058  1.00  0.00    -0.366 N 
ATOM     13  C   UNL A   1      37.955  23.410  25.949  1.00  0.00     0.040 C 
ATOM     14  C   UNL A   1      36.453  23.263  25.734  1.00  0.00     0.135 C 
ATOM     15  C   UNL A   1      36.068  23.467  24.247  1.00  0.00     0.148 C 
ATOM     16  O   UNL A   1      36.092  21.949  26.201  1.00  0.00    -0.372 OA
ATOM     17  C   UNL A   1      34.685  21.668  26.056  1.00  0.00     0.135 C 
ATOM     18  C   UNL A   1      34.205  21.871  24.602  1.00  0.00     0.148 C 
ATOM     19  C   UNL A   1      33.865  22.431  27.093  1.00  0.00     0.040 C 
ENDBRANCH   7  12
BRANCH  11  20
ATOM     20  N   UNL A   1      30.780  27.090  23.041  1.00  0.00     0.063 N 
ATOM     21  O   UNL A   1      30.262  27.396  24.122  1.00  0.00    -0.258 OA
ATOM     22  O   UNL A   1      30.551  27.627  21.948  1.00  0.00    -0.258 OA
ENDBRANCH  11  20
ENDBRANCH   4   6
ENDBRANCH   3   4
ENDBRANCH   2   3
ENDBRANCH   1   2
BRANCH   1  23
ATOM     23  O   UNL A   1      33.491  29.130  27.875  1.00  0.00    -0.458 OA
BRANCH  23  24
ATOM     24  C   UNL A   1      34.281  30.226  27.770  1.00  0.00     0.338 C 
ATOM     25  O   UNL A   1      33.908  31.368  27.545  1.00  0.00    -0.246 OA
BRANCH  24  26
ATOM     26  C   UNL A   1      35.673  29.900  28.145  1.00  0.00     0.060 A 
ATOM     27  C   UNL A   1      36.635  30.004  27.136  1.00  0.00     0.016 A 
ATOM     28  C   UNL A   1      36.047  29.489  29.428  1.00  0.00     0.016 A 
ATOM     29  C   UNL A   1      37.976  29.752  27.413  1.00  0.00     0.010 A 
ATOM     30  C   UNL A   1      37.394  29.203  29.697  1.00  0.00     0.010 A 
ATOM     31  C   UNL A   1      38.367  29.345  28.693  1.00  0.00    -0.014 A 
BRANCH  31  32
ATOM     32  C   UNL A   1      39.790  28.996  28.927  1.00  0.00     0.031 A 
ATOM     33  C   UNL A   1      40.706  30.019  29.532  1.00  0.00     0.074 A 
ATOM     34  C   UNL A   1      40.241  27.754  28.671  1.00  0.00     0.049 A 
ATOM     35  N   UNL A   1      41.975  29.922  29.831  1.00  0.00    -0.248 NA
ATOM     36  C   UNL A   1      40.106  31.323  29.858  1.00  0.00     0.031 C 
ATOM     37  C   UNL A   1      39.429  26.648  28.166  1.00  0.00     0.029 A 
ATOM     38  N   UNL A   1      41.496  27.214  28.810  1.00  0.00    -0.354 N 
ATOM     39  C   UNL A   1      42.327  31.145  30.386  1.00  0.00     0.074 A 
ATOM     40  C   UNL A   1      41.141  31.976  30.364  1.00  0.00     0.031 C 
ATOM     41  C   UNL A   1      40.212  25.565  28.019  1.00  0.00     0.029 A 
ATOM     42  C   UNL A   1      41.584  25.907  28.393  1.00  0.00     0.049 A 
ATOM     43  H   UNL A   1      42.262  27.716  29.173  1.00  0.00     0.167 HD
ATOM     44  C   UNL A   1      43.530  31.539  30.867  1.00  0.00     0.037 A 
ATOM     45  C   UNL A   1      42.651  25.087  28.305  1.00  0.00     0.037 A 
ATOM     46  C   UNL A   1      44.713  30.718  30.866  1.00  0.00     0.049 A 
ATOM     47  C   UNL A   1      44.003  25.585  28.748  1.00  0.00     0.074 A 
ATOM     48  C   UNL A   1      45.981  31.036  31.319  1.00  0.00     0.029 A 
ATOM     49  N   UNL A   1      44.779  29.421  30.374  1.00  0.00    -0.354 N 
ATOM     50  N   UNL A   1      44.326  26.744  29.275  1.00  0.00    -0.248 NA
ATOM     51  C   UNL A   1      45.140  24.666  28.587  1.00  0.00     0.031 C 
ATOM     52  C   UNL A   1      46.826  29.953  31.053  1.00  0.00     0.029 A 
ATOM     53  C   UNL A   1      46.073  28.938  30.486  1.00  0.00     0.049 A 
ATOM     54  H   UNL A   1      44.018  28.920  30.000  1.00  0.00     0.167 HD
ATOM     55  C   UNL A   1      45.692  26.681  29.533  1.00  0.00     0.074 A 
ATOM     56  C   UNL A   1      46.135  25.367  29.113  1.00  0.00     0.031 C 
ATOM     57  C   UNL A   1      46.504  27.625  30.071  1.00  0.00     0.037 A 
BRANCH  44  58
ATOM     58  C   UNL A   1      43.636  32.941  31.395  1.00  0.00     0.058 A 
ATOM     59  C   UNL A   1      43.946  34.027  30.559  1.00  0.00     0.135 A 
ATOM     60  C   UNL A   1      43.406  33.206  32.754  1.00  0.00     0.135 A 
ATOM     61  F   UNL A   1      44.195  33.826  29.255  1.00  0.00    -0.206 F 
ATOM     62  C   UNL A   1      44.047  35.321  31.058  1.00  0.00     0.059 A 
ATOM     63  C   UNL A   1      43.477  34.496  33.270  1.00  0.00     0.059 A 
ATOM     64  F   UNL A   1      43.111  32.203  33.597  1.00  0.00    -0.206 F 
ATOM     65  C   UNL A   1      43.812  35.545  32.415  1.00  0.00     0.060 A 
BRANCH  65  66
ATOM     66  S   UNL A   1      43.955  37.229  33.049  1.00  0.00     0.124 S 
ATOM     67  O   UNL A   1      45.255  37.182  33.711  1.00  0.00    -0.237 OA
ATOM     68  O   UNL A   1      43.894  38.028  31.830  1.00  0.00    -0.237 OA
ATOM     69  O   UNL A   1      42.803  37.358  33.938  1.00  0.00    -0.744 OA
ENDBRANCH  65  66
ENDBRANCH  44  58
BRANCH  45  70
ATOM     70  C   UNL A   1      42.496  23.717  27.742  1.00  0.00     0.058 A 
ATOM     71  C   UNL A   1      42.408  22.591  28.573  1.00  0.00     0.135 A 
ATOM     72  C   UNL A   1      42.454  23.508  26.354  1.00  0.00     0.135 A 
ATOM     73  F   UNL A   1      42.461  22.734  29.906  1.00  0.00    -0.206 F 
ATOM     74  C   UNL A   1      42.299  21.305  28.050  1.00  0.00     0.059 A 
ATOM     75  C   UNL A   1      42.320  22.236  25.808  1.00  0.00     0.059 A 
ATOM     76  F   UNL A   1      42.534  24.551  25.514  1.00  0.00    -0.206 F 
ATOM     77  C   UNL A   1      42.255  21.137  26.664  1.00  0.00     0.060 A 
BRANCH  77  78
ATOM     78  S   UNL A   1      42.085  19.469  25.995  1.00  0.00     0.124 S 
ATOM     79  O   UNL A   1      42.580  18.656  27.101  1.00  0.00    -0.237 OA
ATOM     80  O   UNL A   1      40.651  19.385  25.735  1.00  0.00    -0.237 OA
ATOM     81  O   UNL A   1      42.930  19.494  24.805  1.00  0.00    -0.744 OA
ENDBRANCH  77  78
ENDBRANCH  45  70
BRANCH  57  82
ATOM     82  C   UNL A   1      47.952  27.269  30.276  1.00  0.00     0.058 A 
ATOM     83  C   UNL A   1      48.933  27.570  29.319  1.00  0.00     0.135 A 
ATOM     84  C   UNL A   1      48.374  26.674  31.478  1.00  0.00     0.135 A 
ATOM     85  F   UNL A   1      48.586  28.133  28.150  1.00  0.00    -0.206 F 
ATOM     86  C   UNL A   1      50.276  27.278  29.536  1.00  0.00     0.059 A 
ATOM     87  C   UNL A   1      49.715  26.400  31.728  1.00  0.00     0.059 A 
ATOM     88  F   UNL A   1      47.481  26.375  32.434  1.00  0.00    -0.206 F 
ATOM     89  C   UNL A   1      50.659  26.695  30.745  1.00  0.00     0.060 A 
BRANCH  89  90
ATOM     90  S   UNL A   1      52.410  26.361  31.032  1.00  0.00     0.124 S 
ATOM     91  O   UNL A   1      52.920  26.268  29.668  1.00  0.00    -0.237 OA
ATOM     92  O   UNL A   1      52.834  27.535  31.788  1.00  0.00    -0.237 OA
ATOM     93  O   UNL A   1      52.399  25.110  31.784  1.00  0.00    -0.744 OA
ENDBRANCH  89  90
ENDBRANCH  57  82
ENDBRANCH  31  32
ENDBRANCH  24  26
ENDBRANCH  23  24
ENDBRANCH   1  23
TORSDOF 16
ENDMDL
MODEL 3
REMARK VINA RESULT:     -10.6      3.218     12.262
REMARK SMILES C[C@H]1CN(c2ccc([N+](=O)[O-])c(C(=O)OCCOC(=O)c3ccc(-c4c5nc(c(-c6c(F)cc(S(=O)(=O)[O-])cc6F)c6ccc([nH]6)c(-c6c(F)cc(S(=O)(=O)[O-])cc6F)c6nc(c(-c7c(F)cc(S(=O)(=O)[O-])cc7F)c7ccc4[nH]7)C=C6)C=C5)cc3)c2)C[C@H](C)O1
REMARK SMILES IDX 17 1 16 2 15 3 13 4 14 5 12 6 5 7 6 8 87 9 7 10 8 11 4 12
REMARK SMILES IDX 1 13 2 14 3 15 91 16 89 17 88 18 90 19 9 20 10 21 11 22
REMARK SMILES IDX 18 23 19 24 20 25 21 26 22 27 86 28 23 29 85 30 24 31 25 32
REMARK SMILES IDX 26 33 79 34 27 35 84 36 78 37 80 38 28 39 83 40 77 41 76 42
REMARK SMILES IDX 29 44 63 45 42 46 62 47 43 48 46 49 61 50 81 51 44 52 45 53
REMARK SMILES IDX 60 55 82 56 47 57 30 58 31 59 40 60 32 61 33 62 39 63 41 64
REMARK SMILES IDX 34 65 35 66 36 67 37 68 38 69 64 70 65 71 74 72 66 73 67 74
REMARK SMILES IDX 73 75 75 76 68 77 69 78 70 79 71 80 72 81 48 82 49 83 58 84
REMARK SMILES IDX 50 85 51 86 57 87 59 88 52 89 53 90 54 91 55 92 56 93
REMARK H PARENT 80 43 46 54
REMARK Flexibility Score: inf
ROOT
ATOM      1  C   UNL A   1      39.339  20.993  25.912  1.00  0.00     0.275 C 
ENDROOT
BRANCH   1   2
ATOM      2  C   UNL A   1      40.381  19.905  26.200  1.00  0.00     0.275 C 
BRANCH   2   3
ATOM      3  O   UNL A   1      41.460  19.894  25.242  1.00  0.00    -0.458 OA
BRANCH   3   4
ATOM      4  C   UNL A   1      42.619  19.321  25.668  1.00  0.00     0.345 C 
ATOM      5  O   UNL A   1      42.765  18.137  25.877  1.00  0.00    -0.246 OA
BRANCH   4   6
ATOM      6  C   UNL A   1      43.735  20.313  25.688  1.00  0.00     0.139 A 
ATOM      7  C   UNL A   1      44.546  22.576  26.220  1.00  0.00     0.038 A 
ATOM      8  C   UNL A   1      45.535  22.413  25.243  1.00  0.00     0.033 A 
ATOM      9  C   UNL A   1      43.631  21.522  26.404  1.00  0.00     0.048 A 
ATOM     10  C   UNL A   1      45.726  21.193  24.600  1.00  0.00     0.089 A 
ATOM     11  C   UNL A   1      44.855  20.135  24.872  1.00  0.00     0.284 A 
BRANCH   7  12
ATOM     12  N   UNL A   1      44.463  23.725  26.976  1.00  0.00    -0.366 N 
ATOM     13  C   UNL A   1      47.040  25.435  29.222  1.00  0.00     0.040 C 
ATOM     14  C   UNL A   1      46.261  25.107  27.955  1.00  0.00     0.135 C 
ATOM     15  C   UNL A   1      45.306  23.906  28.168  1.00  0.00     0.148 C 
ATOM     16  O   UNL A   1      45.542  26.300  27.587  1.00  0.00    -0.372 OA
ATOM     17  C   UNL A   1      44.751  26.134  26.393  1.00  0.00     0.135 C 
ATOM     18  C   UNL A   1      43.782  24.937  26.506  1.00  0.00     0.148 C 
ATOM     19  C   UNL A   1      45.637  26.099  25.150  1.00  0.00     0.040 C 
ENDBRANCH   7  12
BRANCH  11  20
ATOM     20  N   UNL A   1      45.238  18.828  24.368  1.00  0.00     0.063 N 
ATOM     21  O   UNL A   1      45.793  18.058  25.161  1.00  0.00    -0.258 OA
ATOM     22  O   UNL A   1      44.847  18.539  23.228  1.00  0.00    -0.258 OA
ENDBRANCH  11  20
ENDBRANCH   4   6
ENDBRANCH   3   4
ENDBRANCH   2   3
ENDBRANCH   1   2
BRANCH   1  23
ATOM     23  O   UNL A   1      39.882  22.321  26.033  1.00  0.00    -0.458 OA
BRANCH  23  24
ATOM     24  C   UNL A   1      38.971  23.322  25.963  1.00  0.00     0.338 C 
ATOM     25  O   UNL A   1      37.858  23.255  25.462  1.00  0.00    -0.246 OA
BRANCH  24  26
ATOM     26  C   UNL A   1      39.425  24.492  26.743  1.00  0.00     0.060 A 
ATOM     27  C   UNL A   1      39.003  24.561  28.074  1.00  0.00     0.016 A 
ATOM     28  C   UNL A   1      40.224  25.509  26.209  1.00  0.00     0.016 A 
ATOM     29  C   UNL A   1      39.417  25.610  28.891  1.00  0.00     0.010 A 
ATOM     30  C   UNL A   1      40.612  26.583  27.025  1.00  0.00     0.010 A 
ATOM     31  C   UNL A   1      40.220  26.632  28.374  1.00  0.00    -0.014 A 
BRANCH  31  32
ATOM     32  C   UNL A   1      40.564  27.780  29.248  1.00  0.00     0.031 A 
ATOM     33  C   UNL A   1      41.870  27.774  29.986  1.00  0.00     0.074 A 
ATOM     34  C   UNL A   1      39.752  28.850  29.323  1.00  0.00     0.049 A 
ATOM     35  N   UNL A   1      42.373  28.674  30.789  1.00  0.00    -0.248 NA
ATOM     36  C   UNL A   1      42.734  26.600  29.778  1.00  0.00     0.031 C 
ATOM     37  C   UNL A   1      38.499  29.013  28.587  1.00  0.00     0.029 A 
ATOM     38  N   UNL A   1      39.867  30.009  30.052  1.00  0.00    -0.354 N 
ATOM     39  C   UNL A   1      43.612  28.184  31.179  1.00  0.00     0.074 A 
ATOM     40  C   UNL A   1      43.777  26.896  30.539  1.00  0.00     0.031 C 
ATOM     41  C   UNL A   1      37.951  30.196  28.916  1.00  0.00     0.029 A 
ATOM     42  C   UNL A   1      38.798  30.861  29.906  1.00  0.00     0.049 A 
ATOM     43  H   UNL A   1      40.641  30.210  30.627  1.00  0.00     0.167 HD
ATOM     44  C   UNL A   1      44.528  28.757  31.997  1.00  0.00     0.037 A 
ATOM     45  C   UNL A   1      38.524  32.033  30.515  1.00  0.00     0.037 A 
ATOM     46  C   UNL A   1      44.350  30.027  32.650  1.00  0.00     0.049 A 
ATOM     47  C   UNL A   1      39.512  32.598  31.505  1.00  0.00     0.074 A 
ATOM     48  C   UNL A   1      45.216  30.681  33.509  1.00  0.00     0.029 A 
ATOM     49  N   UNL A   1      43.225  30.831  32.530  1.00  0.00    -0.354 N 
ATOM     50  N   UNL A   1      40.683  32.128  31.865  1.00  0.00    -0.248 NA
ATOM     51  C   UNL A   1      39.142  33.855  32.174  1.00  0.00     0.031 C 
ATOM     52  C   UNL A   1      44.593  31.853  33.951  1.00  0.00     0.029 A 
ATOM     53  C   UNL A   1      43.363  31.960  33.323  1.00  0.00     0.049 A 
ATOM     54  H   UNL A   1      42.444  30.629  31.965  1.00  0.00     0.167 HD
ATOM     55  C   UNL A   1      41.200  33.043  32.777  1.00  0.00     0.074 A 
ATOM     56  C   UNL A   1      40.218  34.100  32.908  1.00  0.00     0.031 C 
ATOM     57  C   UNL A   1      42.382  33.011  33.442  1.00  0.00     0.037 A 
BRANCH  44  58
ATOM     58  C   UNL A   1      45.787  27.985  32.268  1.00  0.00     0.058 A 
ATOM     59  C   UNL A   1      46.994  28.279  31.612  1.00  0.00     0.135 A 
ATOM     60  C   UNL A   1      45.792  26.946  33.213  1.00  0.00     0.135 A 
ATOM     61  F   UNL A   1      47.040  29.250  30.686  1.00  0.00    -0.206 F 
ATOM     62  C   UNL A   1      48.154  27.555  31.867  1.00  0.00     0.059 A 
ATOM     63  C   UNL A   1      46.946  26.225  33.501  1.00  0.00     0.059 A 
ATOM     64  F   UNL A   1      44.663  26.620  33.864  1.00  0.00    -0.206 F 
ATOM     65  C   UNL A   1      48.119  26.528  32.812  1.00  0.00     0.060 A 
BRANCH  65  66
ATOM     66  S   UNL A   1      49.630  25.592  33.125  1.00  0.00     0.124 S 
ATOM     67  O   UNL A   1      50.560  26.656  33.494  1.00  0.00    -0.237 OA
ATOM     68  O   UNL A   1      49.226  24.701  34.207  1.00  0.00    -0.237 OA
ATOM     69  O   UNL A   1      49.900  24.941  31.846  1.00  0.00    -0.744 OA
ENDBRANCH  65  66
ENDBRANCH  44  58
BRANCH  45  70
ATOM     70  C   UNL A   1      37.244  32.739  30.235  1.00  0.00     0.058 A 
ATOM     71  C   UNL A   1      37.128  33.649  29.174  1.00  0.00     0.135 A 
ATOM     72  C   UNL A   1      36.114  32.531  31.042  1.00  0.00     0.135 A 
ATOM     73  F   UNL A   1      38.183  33.898  28.384  1.00  0.00    -0.206 F 
ATOM     74  C   UNL A   1      35.943  34.339  28.931  1.00  0.00     0.059 A 
ATOM     75  C   UNL A   1      34.911  33.189  30.803  1.00  0.00     0.059 A 
ATOM     76  F   UNL A   1      36.170  31.671  32.070  1.00  0.00    -0.206 F 
ATOM     77  C   UNL A   1      34.838  34.101  29.752  1.00  0.00     0.060 A 
BRANCH  77  78
ATOM     78  S   UNL A   1      33.297  34.978  29.412  1.00  0.00     0.124 S 
ATOM     79  O   UNL A   1      32.642  34.939  30.715  1.00  0.00    -0.237 OA
ATOM     80  O   UNL A   1      33.776  36.287  28.979  1.00  0.00    -0.237 OA
ATOM     81  O   UNL A   1      32.672  34.170  28.369  1.00  0.00    -0.744 OA
ENDBRANCH  77  78
ENDBRANCH  45  70
BRANCH  57  82
ATOM     82  C   UNL A   1      42.707  34.168  34.349  1.00  0.00     0.058 A 
ATOM     83  C   UNL A   1      42.496  34.106  35.735  1.00  0.00     0.135 A 
ATOM     84  C   UNL A   1      43.298  35.333  33.830  1.00  0.00     0.135 A 
ATOM     85  F   UNL A   1      41.929  33.020  36.285  1.00  0.00    -0.206 F 
ATOM     86  C   UNL A   1      42.841  35.164  36.572  1.00  0.00     0.059 A 
ATOM     87  C   UNL A   1      43.677  36.391  34.652  1.00  0.00     0.059 A 
ATOM     88  F   UNL A   1      43.534  35.443  32.513  1.00  0.00    -0.206 F 
ATOM     89  C   UNL A   1      43.434  36.301  36.022  1.00  0.00     0.060 A 
BRANCH  89  90
ATOM     90  S   UNL A   1      43.916  37.648  37.124  1.00  0.00     0.124 S 
ATOM     91  O   UNL A   1      42.764  37.727  38.015  1.00  0.00    -0.237 OA
ATOM     92  O   UNL A   1      45.146  37.139  37.721  1.00  0.00    -0.237 OA
ATOM     93  O   UNL A   1      44.088  38.782  36.220  1.00  0.00    -0.744 OA
ENDBRANCH  89  90
ENDBRANCH  57  82
ENDBRANCH  31  32
ENDBRANCH  24  26
ENDBRANCH  23  24
ENDBRANCH   1  23
TORSDOF 16
ENDMDL
