MODEL 1
REMARK VINA RESULT:     -11.4      0.000      0.000
REMARK SMILES O=C(OCCOC(=O)C(Cl)(c1ccccc1)c1ccccc1)c1ccc(-c2c3nc(c(-c4c(F)cc(S(=O)(=O)[O-])cc4F)c4ccc([nH]4)c(-c4c(F)cc(S(=O)(=O)[O-])cc4F)c4nc(c(-c5c(F)cc(S(=O)(=O)[O-])cc5F)c5ccc2[nH]5)C=C4)C=C3)cc1
REMARK SMILES IDX 4 1 3 2 2 3 1 4 23 5 24 6 88 7 25 8 87 9 26 10 27 11 28 12
REMARK SMILES IDX 81 13 29 14 86 15 80 16 82 17 30 18 85 19 79 20 78 21 31 23
REMARK SMILES IDX 65 24 44 25 64 26 45 27 48 28 63 29 83 30 46 31 47 32 62 34
REMARK SMILES IDX 84 35 49 36 32 37 33 38 42 39 34 40 35 41 41 42 43 43 36 44
REMARK SMILES IDX 37 45 38 46 39 47 40 48 66 49 67 50 76 51 68 52 69 53 75 54
REMARK SMILES IDX 77 55 70 56 71 57 72 58 73 59 74 60 50 61 51 62 60 63 52 64
REMARK SMILES IDX 53 65 59 66 61 67 54 68 55 69 56 70 57 71 58 72 5 73 6 74
REMARK SMILES IDX 7 75 8 76 9 77 10 78 11 79 12 80 16 81 13 82 15 83 14 84
REMARK SMILES IDX 17 85 18 86 22 87 19 88 21 89 20 90
REMARK H PARENT 82 22 48 33
REMARK Flexibility Score: inf
ROOT
ATOM      1  C   UNL A   1      39.172  22.356  26.171  1.00  0.00     0.275 C 
ENDROOT
BRANCH   1   2
ATOM      2  O   UNL A   1      39.236  23.692  26.691  1.00  0.00    -0.458 OA
BRANCH   2   3
ATOM      3  C   UNL A   1      40.341  24.479  26.741  1.00  0.00     0.338 C 
ATOM      4  O   UNL A   1      41.332  24.162  26.084  1.00  0.00    -0.246 OA
BRANCH   3   5
ATOM      5  C   UNL A   1      40.482  25.565  27.756  1.00  0.00     0.060 A 
ATOM      6  C   UNL A   1      41.568  26.440  27.872  1.00  0.00     0.016 A 
ATOM      7  C   UNL A   1      39.435  25.680  28.689  1.00  0.00     0.016 A 
ATOM      8  C   UNL A   1      41.568  27.463  28.828  1.00  0.00     0.010 A 
ATOM      9  C   UNL A   1      39.430  26.706  29.643  1.00  0.00     0.010 A 
ATOM     10  C   UNL A   1      40.495  27.616  29.712  1.00  0.00    -0.014 A 
BRANCH  10  11
ATOM     11  C   UNL A   1      40.577  28.629  30.792  1.00  0.00     0.031 A 
ATOM     12  C   UNL A   1      39.601  29.770  30.757  1.00  0.00     0.074 A 
ATOM     13  C   UNL A   1      41.453  28.511  31.811  1.00  0.00     0.049 A 
ATOM     14  N   UNL A   1      39.376  30.695  31.652  1.00  0.00    -0.248 NA
ATOM     15  C   UNL A   1      38.760  29.879  29.553  1.00  0.00     0.031 C 
ATOM     16  C   UNL A   1      42.455  27.456  31.958  1.00  0.00     0.029 A 
ATOM     17  N   UNL A   1      41.634  29.289  32.929  1.00  0.00    -0.354 N 
ATOM     18  C   UNL A   1      38.355  31.476  31.128  1.00  0.00     0.074 A 
ATOM     19  C   UNL A   1      38.056  30.966  29.809  1.00  0.00     0.031 C 
ATOM     20  C   UNL A   1      43.149  27.654  33.094  1.00  0.00     0.029 A 
ATOM     21  C   UNL A   1      42.625  28.834  33.770  1.00  0.00     0.049 A 
ATOM     22  H   UNL A   1      41.103  30.098  33.113  1.00  0.00     0.167 HD
ATOM     23  C   UNL A   1      37.690  32.502  31.707  1.00  0.00     0.037 A 
ATOM     24  C   UNL A   1      43.038  29.302  34.966  1.00  0.00     0.037 A 
ATOM     25  C   UNL A   1      37.993  33.016  33.011  1.00  0.00     0.049 A 
ATOM     26  C   UNL A   1      42.307  30.470  35.579  1.00  0.00     0.074 A 
ATOM     27  C   UNL A   1      37.394  34.057  33.692  1.00  0.00     0.029 A 
ATOM     28  N   UNL A   1      38.999  32.521  33.829  1.00  0.00    -0.354 N 
ATOM     29  N   UNL A   1      41.287  31.145  35.106  1.00  0.00    -0.248 NA
ATOM     30  C   UNL A   1      42.762  30.919  36.903  1.00  0.00     0.031 C 
ATOM     31  C   UNL A   1      38.053  34.206  34.919  1.00  0.00     0.029 A 
ATOM     32  C   UNL A   1      39.042  33.239  35.010  1.00  0.00     0.049 A 
ATOM     33  H   UNL A   1      39.594  31.770  33.602  1.00  0.00     0.167 HD
ATOM     34  C   UNL A   1      40.949  32.066  36.091  1.00  0.00     0.074 A 
ATOM     35  C   UNL A   1      41.876  31.864  37.186  1.00  0.00     0.031 C 
ATOM     36  C   UNL A   1      39.957  32.989  36.095  1.00  0.00     0.037 A 
BRANCH  23  37
ATOM     37  C   UNL A   1      36.580  33.106  30.902  1.00  0.00     0.058 A 
ATOM     38  C   UNL A   1      36.851  33.989  29.842  1.00  0.00     0.135 A 
ATOM     39  C   UNL A   1      35.240  32.888  31.251  1.00  0.00     0.135 A 
ATOM     40  F   UNL A   1      38.120  34.255  29.491  1.00  0.00    -0.206 F 
ATOM     41  C   UNL A   1      35.833  34.680  29.195  1.00  0.00     0.059 A 
ATOM     42  C   UNL A   1      34.203  33.551  30.601  1.00  0.00     0.059 A 
ATOM     43  F   UNL A   1      34.931  32.062  32.263  1.00  0.00    -0.206 F 
ATOM     44  C   UNL A   1      34.514  34.467  29.595  1.00  0.00     0.060 A 
BRANCH  44  45
ATOM     45  S   UNL A   1      33.204  35.426  28.804  1.00  0.00     0.124 S 
ATOM     46  O   UNL A   1      33.980  36.383  28.020  1.00  0.00    -0.237 OA
ATOM     47  O   UNL A   1      32.489  34.412  28.035  1.00  0.00    -0.237 OA
ATOM     48  O   UNL A   1      32.469  35.987  29.933  1.00  0.00    -0.744 OA
ENDBRANCH  44  45
ENDBRANCH  23  37
BRANCH  24  49
ATOM     49  C   UNL A   1      44.145  28.632  35.703  1.00  0.00     0.058 A 
ATOM     50  C   UNL A   1      45.483  28.996  35.485  1.00  0.00     0.135 A 
ATOM     51  C   UNL A   1      43.893  27.595  36.614  1.00  0.00     0.135 A 
ATOM     52  F   UNL A   1      45.777  29.978  34.620  1.00  0.00    -0.206 F 
ATOM     53  C   UNL A   1      46.532  28.339  36.120  1.00  0.00     0.059 A 
ATOM     54  C   UNL A   1      44.926  26.934  37.276  1.00  0.00     0.059 A 
ATOM     55  F   UNL A   1      42.632  27.213  36.869  1.00  0.00    -0.206 F 
ATOM     56  C   UNL A   1      46.244  27.304  37.011  1.00  0.00     0.060 A 
BRANCH  56  57
ATOM     57  S   UNL A   1      47.612  26.471  37.847  1.00  0.00     0.124 S 
ATOM     58  O   UNL A   1      46.974  25.242  38.303  1.00  0.00    -0.237 OA
ATOM     59  O   UNL A   1      48.588  26.324  36.771  1.00  0.00    -0.237 OA
ATOM     60  O   UNL A   1      47.988  27.416  38.894  1.00  0.00    -0.744 OA
ENDBRANCH  56  57
ENDBRANCH  24  49
BRANCH  36  61
ATOM     61  C   UNL A   1      39.785  33.813  37.337  1.00  0.00     0.058 A 
ATOM     62  C   UNL A   1      40.448  35.037  37.504  1.00  0.00     0.135 A 
ATOM     63  C   UNL A   1      38.887  33.405  38.335  1.00  0.00     0.135 A 
ATOM     64  F   UNL A   1      41.320  35.467  36.579  1.00  0.00    -0.206 F 
ATOM     65  C   UNL A   1      40.233  35.827  38.628  1.00  0.00     0.059 A 
ATOM     66  C   UNL A   1      38.642  34.187  39.457  1.00  0.00     0.059 A 
ATOM     67  F   UNL A   1      38.223  32.244  38.214  1.00  0.00    -0.206 F 
ATOM     68  C   UNL A   1      39.325  35.394  39.598  1.00  0.00     0.060 A 
BRANCH  68  69
ATOM     69  S   UNL A   1      39.005  36.452  41.026  1.00  0.00     0.124 S 
ATOM     70  O   UNL A   1      40.322  36.504  41.653  1.00  0.00    -0.237 OA
ATOM     71  O   UNL A   1      38.549  37.692  40.405  1.00  0.00    -0.237 OA
ATOM     72  O   UNL A   1      37.983  35.718  41.766  1.00  0.00    -0.744 OA
ENDBRANCH  68  69
ENDBRANCH  36  61
ENDBRANCH  10  11
ENDBRANCH   3   5
ENDBRANCH   2   3
ENDBRANCH   1   2
BRANCH   1  73
ATOM     73  C   UNL A   1      37.855  22.055  25.460  1.00  0.00     0.274 C 
BRANCH  73  74
ATOM     74  O   UNL A   1      37.092  23.240  25.181  1.00  0.00    -0.460 OA
BRANCH  74  75
ATOM     75  C   UNL A   1      36.076  23.116  24.266  1.00  0.00     0.336 C 
ATOM     76  O   UNL A   1      36.265  23.155  23.051  1.00  0.00    -0.249 OA
BRANCH  75  77
ATOM     77  C   UNL A   1      34.656  23.031  24.909  1.00  0.00     0.191 C 
ATOM     78  Cl  UNL A   1      34.800  22.762  26.704  1.00  0.00    -0.096 Cl
BRANCH  77  79
ATOM     79  C   UNL A   1      33.923  24.397  24.881  1.00  0.00    -0.011 A 
ATOM     80  C   UNL A   1      34.133  25.311  23.824  1.00  0.00     0.006 A 
ATOM     81  C   UNL A   1      33.253  24.892  26.023  1.00  0.00     0.006 A 
ATOM     82  C   UNL A   1      33.700  26.640  23.906  1.00  0.00     0.000 A 
ATOM     83  C   UNL A   1      32.803  26.214  26.093  1.00  0.00     0.000 A 
ATOM     84  C   UNL A   1      33.033  27.089  25.038  1.00  0.00     0.000 A 
ENDBRANCH  77  79
BRANCH  77  85
ATOM     85  C   UNL A   1      33.964  21.740  24.410  1.00  0.00    -0.011 A 
ATOM     86  C   UNL A   1      32.873  21.714  23.533  1.00  0.00     0.006 A 
ATOM     87  C   UNL A   1      34.425  20.490  24.905  1.00  0.00     0.006 A 
ATOM     88  C   UNL A   1      32.202  20.515  23.261  1.00  0.00     0.000 A 
ATOM     89  C   UNL A   1      33.764  19.295  24.625  1.00  0.00     0.000 A 
ATOM     90  C   UNL A   1      32.635  19.312  23.818  1.00  0.00     0.000 A 
ENDBRANCH  77  85
ENDBRANCH  75  77
ENDBRANCH  74  75
ENDBRANCH  73  74
ENDBRANCH   1  73
TORSDOF 16
ENDMDL
MODEL 2
REMARK VINA RESULT:     -11.3      6.958     13.587
REMARK SMILES O=C(OCCOC(=O)C(Cl)(c1ccccc1)c1ccccc1)c1ccc(-c2c3nc(c(-c4c(F)cc(S(=O)(=O)[O-])cc4F)c4ccc([nH]4)c(-c4c(F)cc(S(=O)(=O)[O-])cc4F)c4nc(c(-c5c(F)cc(S(=O)(=O)[O-])cc5F)c5ccc2[nH]5)C=C4)C=C3)cc1
REMARK SMILES IDX 4 1 3 2 2 3 1 4 23 5 24 6 88 7 25 8 87 9 26 10 27 11 28 12
REMARK SMILES IDX 81 13 29 14 86 15 80 16 82 17 30 18 85 19 79 20 78 21 31 23
REMARK SMILES IDX 65 24 44 25 64 26 45 27 48 28 63 29 83 30 46 31 47 32 62 34
REMARK SMILES IDX 84 35 49 36 32 37 33 38 42 39 34 40 35 41 41 42 43 43 36 44
REMARK SMILES IDX 37 45 38 46 39 47 40 48 66 49 67 50 76 51 68 52 69 53 75 54
REMARK SMILES IDX 77 55 70 56 71 57 72 58 73 59 74 60 50 61 51 62 60 63 52 64
REMARK SMILES IDX 53 65 59 66 61 67 54 68 55 69 56 70 57 71 58 72 5 73 6 74
REMARK SMILES IDX 7 75 8 76 9 77 10 78 11 79 12 80 16 81 13 82 15 83 14 84
REMARK SMILES IDX 17 85 18 86 22 87 19 88 21 89 20 90
REMARK H PARENT 82 22 48 33
REMARK Flexibility Score: inf
ROOT
ATOM      1  C   UNL A   1      34.951  32.322  31.507  1.00  0.00     0.275 C 
ENDROOT
BRANCH   1   2
ATOM      2  O   UNL A   1      36.321  31.930  31.331  1.00  0.00    -0.458 OA
BRANCH   2   3
ATOM      3  C   UNL A   1      36.794  30.657  31.319  1.00  0.00     0.338 C 
ATOM      4  O   UNL A   1      36.309  29.831  32.092  1.00  0.00    -0.246 OA
BRANCH   3   5
ATOM      5  C   UNL A   1      38.044  30.295  30.589  1.00  0.00     0.060 A 
ATOM      6  C   UNL A   1      38.253  30.421  29.211  1.00  0.00     0.016 A 
ATOM      7  C   UNL A   1      39.080  29.749  31.369  1.00  0.00     0.016 A 
ATOM      8  C   UNL A   1      39.492  30.105  28.639  1.00  0.00     0.010 A 
ATOM      9  C   UNL A   1      40.322  29.436  30.800  1.00  0.00     0.010 A 
ATOM     10  C   UNL A   1      40.541  29.624  29.428  1.00  0.00    -0.014 A 
BRANCH  10  11
ATOM     11  C   UNL A   1      41.800  29.182  28.779  1.00  0.00     0.031 A 
ATOM     12  C   UNL A   1      42.908  30.186  28.643  1.00  0.00     0.074 A 
ATOM     13  C   UNL A   1      41.979  27.907  28.373  1.00  0.00     0.049 A 
ATOM     14  N   UNL A   1      44.141  30.010  28.248  1.00  0.00    -0.248 NA
ATOM     15  C   UNL A   1      42.584  31.574  29.009  1.00  0.00     0.031 C 
ATOM     16  C   UNL A   1      40.982  26.840  28.443  1.00  0.00     0.029 A 
ATOM     17  N   UNL A   1      43.078  27.289  27.827  1.00  0.00    -0.354 N 
ATOM     18  C   UNL A   1      44.741  31.258  28.342  1.00  0.00     0.074 A 
ATOM     19  C   UNL A   1      43.722  32.196  28.757  1.00  0.00     0.031 C 
ATOM     20  C   UNL A   1      41.509  25.703  27.954  1.00  0.00     0.029 A 
ATOM     21  C   UNL A   1      42.890  25.951  27.560  1.00  0.00     0.049 A 
ATOM     22  H   UNL A   1      43.923  27.760  27.643  1.00  0.00     0.167 HD
ATOM     23  C   UNL A   1      46.037  31.592  28.143  1.00  0.00     0.037 A 
ATOM     24  C   UNL A   1      43.748  25.028  27.082  1.00  0.00     0.037 A 
ATOM     25  C   UNL A   1      47.046  30.666  27.721  1.00  0.00     0.049 A 
ATOM     26  C   UNL A   1      45.180  25.429  26.833  1.00  0.00     0.074 A 
ATOM     27  C   UNL A   1      48.386  30.896  27.479  1.00  0.00     0.029 A 
ATOM     28  N   UNL A   1      46.812  29.321  27.470  1.00  0.00    -0.354 N 
ATOM     29  N   UNL A   1      45.753  26.597  27.007  1.00  0.00    -0.248 NA
ATOM     30  C   UNL A   1      46.092  24.380  26.354  1.00  0.00     0.031 C 
ATOM     31  C   UNL A   1      48.961  29.690  27.059  1.00  0.00     0.029 A 
ATOM     32  C   UNL A   1      47.984  28.706  27.069  1.00  0.00     0.049 A 
ATOM     33  H   UNL A   1      45.941  28.872  27.563  1.00  0.00     0.167 HD
ATOM     34  C   UNL A   1      47.096  26.413  26.704  1.00  0.00     0.074 A 
ATOM     35  C   UNL A   1      47.253  25.021  26.332  1.00  0.00     0.031 C 
ATOM     36  C   UNL A   1      48.112  27.310  26.738  1.00  0.00     0.037 A 
BRANCH  23  37
ATOM     37  C   UNL A   1      46.392  33.027  28.391  1.00  0.00     0.058 A 
ATOM     38  C   UNL A   1      46.356  33.973  27.352  1.00  0.00     0.135 A 
ATOM     39  C   UNL A   1      46.869  33.442  29.643  1.00  0.00     0.135 A 
ATOM     40  F   UNL A   1      45.937  33.615  26.127  1.00  0.00    -0.206 F 
ATOM     41  C   UNL A   1      46.837  35.265  27.530  1.00  0.00     0.059 A 
ATOM     42  C   UNL A   1      47.334  34.737  29.850  1.00  0.00     0.059 A 
ATOM     43  F   UNL A   1      46.932  32.573  30.664  1.00  0.00    -0.206 F 
ATOM     44  C   UNL A   1      47.341  35.631  28.779  1.00  0.00     0.060 A 
BRANCH  44  45
ATOM     45  S   UNL A   1      48.036  37.285  28.980  1.00  0.00     0.124 S 
ATOM     46  O   UNL A   1      46.962  38.117  28.446  1.00  0.00    -0.237 OA
ATOM     47  O   UNL A   1      48.244  37.369  30.422  1.00  0.00    -0.237 OA
ATOM     48  O   UNL A   1      49.254  37.238  28.176  1.00  0.00    -0.744 OA
ENDBRANCH  44  45
ENDBRANCH  23  37
BRANCH  24  49
ATOM     49  C   UNL A   1      43.311  23.620  26.874  1.00  0.00     0.058 A 
ATOM     50  C   UNL A   1      43.178  22.736  27.956  1.00  0.00     0.135 A 
ATOM     51  C   UNL A   1      43.048  23.119  25.590  1.00  0.00     0.135 A 
ATOM     52  F   UNL A   1      43.423  23.165  29.204  1.00  0.00    -0.206 F 
ATOM     53  C   UNL A   1      42.830  21.402  27.773  1.00  0.00     0.059 A 
ATOM     54  C   UNL A   1      42.679  21.791  25.383  1.00  0.00     0.059 A 
ATOM     55  F   UNL A   1      43.148  23.922  24.519  1.00  0.00    -0.206 F 
ATOM     56  C   UNL A   1      42.588  20.936  26.481  1.00  0.00     0.060 A 
BRANCH  56  57
ATOM     57  S   UNL A   1      42.114  19.207  26.254  1.00  0.00     0.124 S 
ATOM     58  O   UNL A   1      42.334  18.664  27.590  1.00  0.00    -0.237 OA
ATOM     59  O   UNL A   1      40.722  19.322  25.831  1.00  0.00    -0.237 OA
ATOM     60  O   UNL A   1      43.036  18.742  25.222  1.00  0.00    -0.744 OA
ENDBRANCH  56  57
ENDBRANCH  24  49
BRANCH  36  61
ATOM     61  C   UNL A   1      49.489  26.806  26.419  1.00  0.00     0.058 A 
ATOM     62  C   UNL A   1      50.276  26.157  27.380  1.00  0.00     0.135 A 
ATOM     63  C   UNL A   1      49.991  26.909  25.112  1.00  0.00     0.135 A 
ATOM     64  F   UNL A   1      49.840  26.040  28.644  1.00  0.00    -0.206 F 
ATOM     65  C   UNL A   1      51.524  25.635  27.060  1.00  0.00     0.059 A 
ATOM     66  C   UNL A   1      51.226  26.377  24.764  1.00  0.00     0.059 A 
ATOM     67  F   UNL A   1      49.269  27.515  24.155  1.00  0.00    -0.206 F 
ATOM     68  C   UNL A   1      51.989  25.747  25.747  1.00  0.00     0.060 A 
BRANCH  68  69
ATOM     69  S   UNL A   1      53.583  25.014  25.322  1.00  0.00     0.124 S 
ATOM     70  O   UNL A   1      53.844  25.614  24.018  1.00  0.00    -0.237 OA
ATOM     71  O   UNL A   1      54.442  25.470  26.412  1.00  0.00    -0.237 OA
ATOM     72  O   UNL A   1      53.304  23.582  25.313  1.00  0.00    -0.744 OA
ENDBRANCH  68  69
ENDBRANCH  36  61
ENDBRANCH  10  11
ENDBRANCH   3   5
ENDBRANCH   2   3
ENDBRANCH   1   2
BRANCH   1  73
ATOM     73  C   UNL A   1      34.693  33.001  32.849  1.00  0.00     0.274 C 
BRANCH  73  74
ATOM     74  O   UNL A   1      35.747  32.771  33.799  1.00  0.00    -0.460 OA
BRANCH  74  75
ATOM     75  C   UNL A   1      36.513  33.856  34.142  1.00  0.00     0.336 C 
ATOM     76  O   UNL A   1      36.046  34.988  34.267  1.00  0.00    -0.249 OA
BRANCH  75  77
ATOM     77  C   UNL A   1      38.038  33.544  34.251  1.00  0.00     0.191 C 
ATOM     78  Cl  UNL A   1      38.294  31.752  34.452  1.00  0.00    -0.096 Cl
BRANCH  77  79
ATOM     79  C   UNL A   1      38.780  33.791  32.911  1.00  0.00    -0.011 A 
ATOM     80  C   UNL A   1      38.165  34.518  31.867  1.00  0.00     0.006 A 
ATOM     81  C   UNL A   1      39.953  33.075  32.582  1.00  0.00     0.006 A 
ATOM     82  C   UNL A   1      38.694  34.527  30.571  1.00  0.00     0.000 A 
ATOM     83  C   UNL A   1      40.490  33.105  31.291  1.00  0.00     0.000 A 
ATOM     84  C   UNL A   1      39.857  33.824  30.285  1.00  0.00     0.000 A 
ENDBRANCH  77  79
BRANCH  77  85
ATOM     85  C   UNL A   1      38.569  34.130  35.581  1.00  0.00    -0.011 A 
ATOM     86  C   UNL A   1      38.216  33.658  36.851  1.00  0.00     0.006 A 
ATOM     87  C   UNL A   1      39.434  35.256  35.527  1.00  0.00     0.006 A 
ATOM     88  C   UNL A   1      38.609  34.347  38.006  1.00  0.00     0.000 A 
ATOM     89  C   UNL A   1      39.836  35.935  36.677  1.00  0.00     0.000 A 
ATOM     90  C   UNL A   1      39.402  35.491  37.918  1.00  0.00     0.000 A 
ENDBRANCH  77  85
ENDBRANCH  75  77
ENDBRANCH  74  75
ENDBRANCH  73  74
ENDBRANCH   1  73
TORSDOF 16
ENDMDL
MODEL 3
REMARK VINA RESULT:     -11.3      4.287     11.491
REMARK SMILES O=C(OCCOC(=O)C(Cl)(c1ccccc1)c1ccccc1)c1ccc(-c2c3nc(c(-c4c(F)cc(S(=O)(=O)[O-])cc4F)c4ccc([nH]4)c(-c4c(F)cc(S(=O)(=O)[O-])cc4F)c4nc(c(-c5c(F)cc(S(=O)(=O)[O-])cc5F)c5ccc2[nH]5)C=C4)C=C3)cc1
REMARK SMILES IDX 4 1 3 2 2 3 1 4 23 5 24 6 88 7 25 8 87 9 26 10 27 11 28 12
REMARK SMILES IDX 81 13 29 14 86 15 80 16 82 17 30 18 85 19 79 20 78 21 31 23
REMARK SMILES IDX 65 24 44 25 64 26 45 27 48 28 63 29 83 30 46 31 47 32 62 34
REMARK SMILES IDX 84 35 49 36 32 37 33 38 42 39 34 40 35 41 41 42 43 43 36 44
REMARK SMILES IDX 37 45 38 46 39 47 40 48 66 49 67 50 76 51 68 52 69 53 75 54
REMARK SMILES IDX 77 55 70 56 71 57 72 58 73 59 74 60 50 61 51 62 60 63 52 64
REMARK SMILES IDX 53 65 59 66 61 67 54 68 55 69 56 70 57 71 58 72 5 73 6 74
REMARK SMILES IDX 7 75 8 76 9 77 10 78 11 79 12 80 16 81 13 82 15 83 14 84
REMARK SMILES IDX 17 85 18 86 22 87 19 88 21 89 20 90
REMARK H PARENT 82 22 48 33
REMARK Flexibility Score: inf
ROOT
ATOM      1  C   UNL A   1      46.684  23.962  39.638  1.00  0.00     0.275 C 
ENDROOT
BRANCH   1   2
ATOM      2  O   UNL A   1      46.092  25.061  38.929  1.00  0.00    -0.458 OA
BRANCH   2   3
ATOM      3  C   UNL A   1      46.543  25.599  37.767  1.00  0.00     0.338 C 
ATOM      4  O   UNL A   1      47.739  25.508  37.489  1.00  0.00    -0.246 OA
BRANCH   3   5
ATOM      5  C   UNL A   1      45.693  26.513  36.948  1.00  0.00     0.060 A 
ATOM      6  C   UNL A   1      46.153  27.589  36.181  1.00  0.00     0.016 A 
ATOM      7  C   UNL A   1      44.308  26.273  36.990  1.00  0.00     0.016 A 
ATOM      8  C   UNL A   1      45.270  28.346  35.401  1.00  0.00     0.010 A 
ATOM      9  C   UNL A   1      43.422  27.026  36.206  1.00  0.00     0.010 A 
ATOM     10  C   UNL A   1      43.901  28.063  35.394  1.00  0.00    -0.014 A 
BRANCH  10  11
ATOM     11  C   UNL A   1      42.975  28.956  34.656  1.00  0.00     0.031 A 
ATOM     12  C   UNL A   1      42.615  28.582  33.247  1.00  0.00     0.074 A 
ATOM     13  C   UNL A   1      42.420  30.040  35.237  1.00  0.00     0.049 A 
ATOM     14  N   UNL A   1      41.725  29.112  32.450  1.00  0.00    -0.248 NA
ATOM     15  C   UNL A   1      43.352  27.451  32.659  1.00  0.00     0.031 C 
ATOM     16  C   UNL A   1      42.691  30.515  36.593  1.00  0.00     0.029 A 
ATOM     17  N   UNL A   1      41.496  30.938  34.757  1.00  0.00    -0.354 N 
ATOM     18  C   UNL A   1      41.781  28.364  31.282  1.00  0.00     0.074 A 
ATOM     19  C   UNL A   1      42.841  27.395  31.442  1.00  0.00     0.031 C 
ATOM     20  C   UNL A   1      41.958  31.617  36.836  1.00  0.00     0.029 A 
ATOM     21  C   UNL A   1      41.145  31.914  35.663  1.00  0.00     0.049 A 
ATOM     22  H   UNL A   1      41.120  30.888  33.848  1.00  0.00     0.167 HD
ATOM     23  C   UNL A   1      40.994  28.445  30.185  1.00  0.00     0.037 A 
ATOM     24  C   UNL A   1      40.244  32.913  35.564  1.00  0.00     0.037 A 
ATOM     25  C   UNL A   1      39.950  29.414  30.020  1.00  0.00     0.049 A 
ATOM     26  C   UNL A   1      39.401  33.008  34.318  1.00  0.00     0.074 A 
ATOM     27  C   UNL A   1      39.098  29.594  28.948  1.00  0.00     0.029 A 
ATOM     28  N   UNL A   1      39.625  30.377  30.965  1.00  0.00    -0.354 N 
ATOM     29  N   UNL A   1      39.410  32.239  33.255  1.00  0.00    -0.248 NA
ATOM     30  C   UNL A   1      38.401  34.085  34.271  1.00  0.00     0.031 C 
ATOM     31  C   UNL A   1      38.268  30.685  29.237  1.00  0.00     0.029 A 
ATOM     32  C   UNL A   1      38.586  31.162  30.499  1.00  0.00     0.049 A 
ATOM     33  H   UNL A   1      40.069  30.486  31.837  1.00  0.00     0.167 HD
ATOM     34  C   UNL A   1      38.391  32.710  32.435  1.00  0.00     0.074 A 
ATOM     35  C   UNL A   1      37.787  33.833  33.123  1.00  0.00     0.031 C 
ATOM     36  C   UNL A   1      37.985  32.251  31.226  1.00  0.00     0.037 A 
BRANCH  23  37
ATOM     37  C   UNL A   1      41.266  27.443  29.104  1.00  0.00     0.058 A 
ATOM     38  C   UNL A   1      40.427  26.329  28.921  1.00  0.00     0.135 A 
ATOM     39  C   UNL A   1      42.422  27.533  28.316  1.00  0.00     0.135 A 
ATOM     40  F   UNL A   1      39.326  26.182  29.674  1.00  0.00    -0.206 F 
ATOM     41  C   UNL A   1      40.758  25.311  28.034  1.00  0.00     0.059 A 
ATOM     42  C   UNL A   1      42.760  26.537  27.406  1.00  0.00     0.059 A 
ATOM     43  F   UNL A   1      43.260  28.572  28.462  1.00  0.00    -0.206 F 
ATOM     44  C   UNL A   1      41.936  25.416  27.295  1.00  0.00     0.060 A 
BRANCH  44  45
ATOM     45  S   UNL A   1      42.397  24.053  26.204  1.00  0.00     0.124 S 
ATOM     46  O   UNL A   1      42.756  24.769  24.983  1.00  0.00    -0.237 OA
ATOM     47  O   UNL A   1      43.507  23.434  26.923  1.00  0.00    -0.237 OA
ATOM     48  O   UNL A   1      41.178  23.254  26.130  1.00  0.00    -0.744 OA
ENDBRANCH  44  45
ENDBRANCH  23  37
BRANCH  24  49
ATOM     49  C   UNL A   1      40.033  33.859  36.694  1.00  0.00     0.058 A 
ATOM     50  C   UNL A   1      39.119  33.571  37.718  1.00  0.00     0.135 A 
ATOM     51  C   UNL A   1      40.714  35.084  36.757  1.00  0.00     0.135 A 
ATOM     52  F   UNL A   1      38.438  32.414  37.702  1.00  0.00    -0.206 F 
ATOM     53  C   UNL A   1      38.865  34.471  38.748  1.00  0.00     0.059 A 
ATOM     54  C   UNL A   1      40.492  35.995  37.788  1.00  0.00     0.059 A 
ATOM     55  F   UNL A   1      41.609  35.408  35.810  1.00  0.00    -0.206 F 
ATOM     56  C   UNL A   1      39.553  35.685  38.772  1.00  0.00     0.060 A 
BRANCH  56  57
ATOM     57  S   UNL A   1      39.233  36.839  40.125  1.00  0.00     0.124 S 
ATOM     58  O   UNL A   1      38.581  37.940  39.425  1.00  0.00    -0.237 OA
ATOM     59  O   UNL A   1      38.380  36.049  41.008  1.00  0.00    -0.237 OA
ATOM     60  O   UNL A   1      40.567  37.120  40.646  1.00  0.00    -0.744 OA
ENDBRANCH  56  57
ENDBRANCH  24  49
BRANCH  36  61
ATOM     61  C   UNL A   1      36.801  32.923  30.594  1.00  0.00     0.058 A 
ATOM     62  C   UNL A   1      35.490  32.627  30.991  1.00  0.00     0.135 A 
ATOM     63  C   UNL A   1      36.992  33.930  29.635  1.00  0.00     0.135 A 
ATOM     64  F   UNL A   1      35.258  31.668  31.901  1.00  0.00    -0.206 F 
ATOM     65  C   UNL A   1      34.401  33.301  30.448  1.00  0.00     0.059 A 
ATOM     66  C   UNL A   1      35.921  34.631  29.094  1.00  0.00     0.059 A 
ATOM     67  F   UNL A   1      38.231  34.255  29.231  1.00  0.00    -0.206 F 
ATOM     68  C   UNL A   1      34.628  34.305  29.502  1.00  0.00     0.060 A 
BRANCH  68  69
ATOM     69  S   UNL A   1      33.216  35.218  28.845  1.00  0.00     0.124 S 
ATOM     70  O   UNL A   1      32.505  35.577  30.068  1.00  0.00    -0.237 OA
ATOM     71  O   UNL A   1      33.855  36.322  28.135  1.00  0.00    -0.237 OA
ATOM     72  O   UNL A   1      32.548  34.239  27.993  1.00  0.00    -0.744 OA
ENDBRANCH  68  69
ENDBRANCH  36  61
ENDBRANCH  10  11
ENDBRANCH   3   5
ENDBRANCH   2   3
ENDBRANCH   1   2
BRANCH   1  73
ATOM     73  C   UNL A   1      46.181  22.602  39.158  1.00  0.00     0.274 C 
BRANCH  73  74
ATOM     74  O   UNL A   1      46.814  22.175  37.941  1.00  0.00    -0.460 OA
BRANCH  74  75
ATOM     75  C   UNL A   1      46.302  21.050  37.344  1.00  0.00     0.336 C 
ATOM     76  O   UNL A   1      45.933  20.066  37.983  1.00  0.00    -0.249 OA
BRANCH  75  77
ATOM     77  C   UNL A   1      46.335  21.093  35.784  1.00  0.00     0.191 C 
ATOM     78  Cl  UNL A   1      45.278  19.776  35.103  1.00  0.00    -0.096 Cl
BRANCH  77  79
ATOM     79  C   UNL A   1      45.625  22.352  35.221  1.00  0.00    -0.011 A 
ATOM     80  C   UNL A   1      44.226  22.364  35.018  1.00  0.00     0.006 A 
ATOM     81  C   UNL A   1      46.360  23.407  34.636  1.00  0.00     0.006 A 
ATOM     82  C   UNL A   1      43.602  23.371  34.273  1.00  0.00     0.000 A 
ATOM     83  C   UNL A   1      45.731  24.423  33.911  1.00  0.00     0.000 A 
ATOM     84  C   UNL A   1      44.354  24.402  33.724  1.00  0.00     0.000 A 
ENDBRANCH  77  79
BRANCH  77  85
ATOM     85  C   UNL A   1      47.752  20.693  35.309  1.00  0.00    -0.011 A 
ATOM     86  C   UNL A   1      48.075  20.332  33.995  1.00  0.00     0.006 A 
ATOM     87  C   UNL A   1      48.798  20.634  36.270  1.00  0.00     0.006 A 
ATOM     88  C   UNL A   1      49.342  19.824  33.682  1.00  0.00     0.000 A 
ATOM     89  C   UNL A   1      50.063  20.140  35.956  1.00  0.00     0.000 A 
ATOM     90  C   UNL A   1      50.328  19.712  34.663  1.00  0.00     0.000 A 
ENDBRANCH  77  85
ENDBRANCH  75  77
ENDBRANCH  74  75
ENDBRANCH  73  74
ENDBRANCH   1  73
TORSDOF 16
ENDMDL
