MODEL 1
REMARK VINA RESULT:     -10.1      0.000      0.000
REMARK SMILES [NH3+]CCOCC(=O)N[C@H](C(=O)OCCOC(=O)c1ccc(-c2c3nc(c(-c4c(F)cc(S(=O)(=O)[O-])cc4F)c4ccc([nH]4)c(-c4c(F)cc(S(=O)(=O)[O-])cc4F)c4nc(c(-c5c(F)cc(S(=O)(=O)[O-])cc5F)c5ccc2[nH]5)C=C4)C=C3)cc1)C1CCCCC1
REMARK SMILES IDX 12 1 10 2 11 3 9 4 8 5 6 6 7 7 5 9 4 10 3 11 2 12 1 13 84 17
REMARK SMILES IDX 85 18 89 19 86 20 88 21 87 22 13 23 14 24 15 25 16 26 17 27
REMARK SMILES IDX 18 28 19 29 83 30 20 31 82 32 21 33 22 34 23 35 76 36 24 37
REMARK SMILES IDX 81 38 75 39 77 40 25 41 80 42 74 43 73 44 26 46 60 47 39 48
REMARK SMILES IDX 59 49 40 50 43 51 58 52 78 53 41 54 42 55 57 57 79 58 44 59
REMARK SMILES IDX 27 60 28 61 37 62 29 63 30 64 36 65 38 66 31 67 32 68 33 69
REMARK SMILES IDX 34 70 35 71 61 72 62 73 71 74 63 75 64 76 70 77 72 78 65 79
REMARK SMILES IDX 66 80 67 81 68 82 69 83 45 84 46 85 55 86 47 87 48 88 54 89
REMARK SMILES IDX 56 90 49 91 50 92 51 93 52 94 53 95
REMARK H PARENT 8 8 1 14 1 15 1 16 77 45 43 56
REMARK Flexibility Score: inf
ROOT
ATOM      1  O   UNL A   1      36.676  22.565  25.122  1.00  0.00    -0.461 OA
ENDROOT
BRANCH   1   2
ATOM      2  C   UNL A   1      36.179  22.892  23.912  1.00  0.00     0.329 C 
ATOM      3  O   UNL A   1      36.880  22.959  22.907  1.00  0.00    -0.250 OA
BRANCH   2   4
ATOM      4  C   UNL A   1      34.623  23.015  23.887  1.00  0.00     0.195 C 
BRANCH   4   5
ATOM      5  N   UNL A   1      33.756  22.487  24.979  1.00  0.00    -0.340 N 
ATOM      6  C   UNL A   1      32.603  21.779  25.035  1.00  0.00     0.246 C 
ATOM      7  O   UNL A   1      31.804  22.102  25.925  1.00  0.00    -0.272 OA
ATOM      8  H   UNL A   1      34.105  22.706  25.873  1.00  0.00     0.164 HD
BRANCH   6   9
ATOM      9  C   UNL A   1      32.329  20.537  24.196  1.00  0.00     0.260 C 
BRANCH   9  10
ATOM     10  O   UNL A   1      32.446  19.264  24.792  1.00  0.00    -0.366 OA
BRANCH  10  11
ATOM     11  C   UNL A   1      33.480  18.444  24.250  1.00  0.00     0.222 C 
BRANCH  11  12
ATOM     12  C   UNL A   1      32.907  17.433  23.248  1.00  0.00     0.287 C 
BRANCH  12  13
ATOM     13  N   UNL A   1      31.979  18.025  22.278  1.00  0.00    -0.356 N 
ATOM     14  H   UNL A   1      31.019  17.869  22.586  1.00  0.00     0.344 HD
ATOM     15  H   UNL A   1      32.117  17.591  21.365  1.00  0.00     0.344 HD
ATOM     16  H   UNL A   1      32.154  19.028  22.209  1.00  0.00     0.344 HD
ENDBRANCH  12  13
ENDBRANCH  11  12
ENDBRANCH  10  11
ENDBRANCH   9  10
ENDBRANCH   6   9
ENDBRANCH   4   5
BRANCH   4  17
ATOM     17  C   UNL A   1      34.308  24.555  23.656  1.00  0.00     0.023 C 
ATOM     18  C   UNL A   1      33.148  24.759  22.651  1.00  0.00     0.006 C 
ATOM     19  C   UNL A   1      33.987  25.375  24.927  1.00  0.00     0.006 C 
ATOM     20  C   UNL A   1      32.915  26.237  22.332  1.00  0.00     0.000 C 
ATOM     21  C   UNL A   1      33.754  26.854  24.620  1.00  0.00     0.000 C 
ATOM     22  C   UNL A   1      32.652  27.053  23.590  1.00  0.00     0.000 C 
ENDBRANCH   4  17
ENDBRANCH   2   4
ENDBRANCH   1   2
BRANCH   1  23
ATOM     23  C   UNL A   1      37.493  23.548  25.790  1.00  0.00     0.274 C 
BRANCH  23  24
ATOM     24  C   UNL A   1      38.920  23.045  26.052  1.00  0.00     0.275 C 
BRANCH  24  25
ATOM     25  O   UNL A   1      39.509  23.693  27.193  1.00  0.00    -0.458 OA
BRANCH  25  26
ATOM     26  C   UNL A   1      40.446  24.630  26.920  1.00  0.00     0.338 C 
ATOM     27  O   UNL A   1      41.119  24.719  25.904  1.00  0.00    -0.246 OA
BRANCH  26  28
ATOM     28  C   UNL A   1      40.438  25.679  27.958  1.00  0.00     0.060 A 
ATOM     29  C   UNL A   1      39.328  25.725  28.809  1.00  0.00     0.016 A 
ATOM     30  C   UNL A   1      41.492  26.583  28.123  1.00  0.00     0.016 A 
ATOM     31  C   UNL A   1      39.280  26.644  29.850  1.00  0.00     0.010 A 
ATOM     32  C   UNL A   1      41.437  27.519  29.159  1.00  0.00     0.010 A 
ATOM     33  C   UNL A   1      40.332  27.550  30.026  1.00  0.00    -0.014 A 
BRANCH  33  34
ATOM     34  C   UNL A   1      40.222  28.578  31.080  1.00  0.00     0.031 A 
ATOM     35  C   UNL A   1      41.118  28.490  32.279  1.00  0.00     0.074 A 
ATOM     36  C   UNL A   1      39.361  29.602  30.931  1.00  0.00     0.049 A 
ATOM     37  N   UNL A   1      41.211  29.295  33.303  1.00  0.00    -0.248 NA
ATOM     38  C   UNL A   1      42.036  27.340  32.327  1.00  0.00     0.031 C 
ATOM     39  C   UNL A   1      38.473  29.797  29.784  1.00  0.00     0.029 A 
ATOM     40  N   UNL A   1      39.096  30.669  31.748  1.00  0.00    -0.354 N 
ATOM     41  C   UNL A   1      42.201  28.758  34.114  1.00  0.00     0.074 A 
ATOM     42  C   UNL A   1      42.654  27.538  33.482  1.00  0.00     0.031 C 
ATOM     43  C   UNL A   1      37.753  30.916  29.977  1.00  0.00     0.029 A 
ATOM     44  C   UNL A   1      38.113  31.499  31.267  1.00  0.00     0.049 A 
ATOM     45  H   UNL A   1      39.566  30.827  32.598  1.00  0.00     0.167 HD
ATOM     46  C   UNL A   1      42.692  29.248  35.277  1.00  0.00     0.037 A 
ATOM     47  C   UNL A   1      37.559  32.598  31.817  1.00  0.00     0.037 A 
ATOM     48  C   UNL A   1      42.213  30.453  35.904  1.00  0.00     0.049 A 
ATOM     49  C   UNL A   1      38.074  33.082  33.148  1.00  0.00     0.074 A 
ATOM     50  C   UNL A   1      42.640  31.038  37.082  1.00  0.00     0.029 A 
ATOM     51  N   UNL A   1      41.192  31.252  35.408  1.00  0.00    -0.354 N 
ATOM     52  N   UNL A   1      39.032  32.583  33.895  1.00  0.00    -0.248 NA
ATOM     53  C   UNL A   1      37.441  34.284  33.708  1.00  0.00     0.031 C 
ATOM     54  C   UNL A   1      41.841  32.160  37.326  1.00  0.00     0.029 A 
ATOM     55  C   UNL A   1      40.956  32.309  36.269  1.00  0.00     0.049 A 
ATOM     56  H   UNL A   1      40.706  31.088  34.568  1.00  0.00     0.167 HD
ATOM     57  C   UNL A   1      39.137  33.427  34.996  1.00  0.00     0.074 A 
ATOM     58  C   UNL A   1      38.154  34.474  34.810  1.00  0.00     0.031 C 
ATOM     59  C   UNL A   1      39.973  33.346  36.063  1.00  0.00     0.037 A 
BRANCH  46  60
ATOM     60  C   UNL A   1      43.776  28.460  35.956  1.00  0.00     0.058 A 
ATOM     61  C   UNL A   1      45.136  28.756  35.766  1.00  0.00     0.135 A 
ATOM     62  C   UNL A   1      43.453  27.405  36.824  1.00  0.00     0.135 A 
ATOM     63  F   UNL A   1      45.504  29.740  34.929  1.00  0.00    -0.206 F 
ATOM     64  C   UNL A   1      46.136  28.018  36.390  1.00  0.00     0.059 A 
ATOM     65  C   UNL A   1      44.436  26.670  37.481  1.00  0.00     0.059 A 
ATOM     66  F   UNL A   1      42.170  27.075  37.037  1.00  0.00    -0.206 F 
ATOM     67  C   UNL A   1      45.775  26.975  37.246  1.00  0.00     0.060 A 
BRANCH  67  68
ATOM     68  S   UNL A   1      47.085  26.027  38.049  1.00  0.00     0.124 S 
ATOM     69  O   UNL A   1      46.933  26.443  39.441  1.00  0.00    -0.237 OA
ATOM     70  O   UNL A   1      46.700  24.651  37.754  1.00  0.00    -0.237 OA
ATOM     71  O   UNL A   1      48.299  26.493  37.385  1.00  0.00    -0.744 OA
ENDBRANCH  67  68
ENDBRANCH  46  60
BRANCH  47  72
ATOM     72  C   UNL A   1      36.457  33.311  31.117  1.00  0.00     0.058 A 
ATOM     73  C   UNL A   1      35.130  33.216  31.558  1.00  0.00     0.135 A 
ATOM     74  C   UNL A   1      36.712  34.102  29.984  1.00  0.00     0.135 A 
ATOM     75  F   UNL A   1      34.833  32.465  32.630  1.00  0.00    -0.206 F 
ATOM     76  C   UNL A   1      34.092  33.861  30.894  1.00  0.00     0.059 A 
ATOM     77  C   UNL A   1      35.695  34.780  29.320  1.00  0.00     0.059 A 
ATOM     78  F   UNL A   1      37.967  34.236  29.525  1.00  0.00    -0.206 F 
ATOM     79  C   UNL A   1      34.385  34.643  29.776  1.00  0.00     0.060 A 
BRANCH  79  80
ATOM     80  S   UNL A   1      33.036  35.510  28.945  1.00  0.00     0.124 S 
ATOM     81  O   UNL A   1      32.410  34.429  28.193  1.00  0.00    -0.237 OA
ATOM     82  O   UNL A   1      32.268  36.031  30.072  1.00  0.00    -0.237 OA
ATOM     83  O   UNL A   1      33.724  36.519  28.146  1.00  0.00    -0.744 OA
ENDBRANCH  79  80
ENDBRANCH  47  72
BRANCH  59  84
ATOM     84  C   UNL A   1      39.886  34.442  37.090  1.00  0.00     0.058 A 
ATOM     85  C   UNL A   1      40.538  35.673  36.920  1.00  0.00     0.135 A 
ATOM     86  C   UNL A   1      39.108  34.268  38.247  1.00  0.00     0.135 A 
ATOM     87  F   UNL A   1      41.298  35.891  35.836  1.00  0.00    -0.206 F 
ATOM     88  C   UNL A   1      40.452  36.679  37.878  1.00  0.00     0.059 A 
ATOM     89  C   UNL A   1      38.981  35.272  39.201  1.00  0.00     0.059 A 
ATOM     90  F   UNL A   1      38.451  33.115  38.454  1.00  0.00    -0.206 F 
ATOM     91  C   UNL A   1      39.672  36.468  39.016  1.00  0.00     0.060 A 
BRANCH  91  92
ATOM     92  S   UNL A   1      39.558  37.786  40.245  1.00  0.00     0.124 S 
ATOM     93  O   UNL A   1      38.555  38.660  39.647  1.00  0.00    -0.237 OA
ATOM     94  O   UNL A   1      39.138  37.063  41.441  1.00  0.00    -0.237 OA
ATOM     95  O   UNL A   1      40.914  38.325  40.292  1.00  0.00    -0.744 OA
ENDBRANCH  91  92
ENDBRANCH  59  84
ENDBRANCH  33  34
ENDBRANCH  26  28
ENDBRANCH  25  26
ENDBRANCH  24  25
ENDBRANCH  23  24
ENDBRANCH   1  23
TORSDOF 21
ENDMDL
MODEL 2
REMARK VINA RESULT:     -10.0      3.881      9.839
REMARK SMILES [NH3+]CCOCC(=O)N[C@H](C(=O)OCCOC(=O)c1ccc(-c2c3nc(c(-c4c(F)cc(S(=O)(=O)[O-])cc4F)c4ccc([nH]4)c(-c4c(F)cc(S(=O)(=O)[O-])cc4F)c4nc(c(-c5c(F)cc(S(=O)(=O)[O-])cc5F)c5ccc2[nH]5)C=C4)C=C3)cc1)C1CCCCC1
REMARK SMILES IDX 12 1 10 2 11 3 9 4 8 5 6 6 7 7 5 9 4 10 3 11 2 12 1 13 84 17
REMARK SMILES IDX 85 18 89 19 86 20 88 21 87 22 13 23 14 24 15 25 16 26 17 27
REMARK SMILES IDX 18 28 19 29 83 30 20 31 82 32 21 33 22 34 23 35 76 36 24 37
REMARK SMILES IDX 81 38 75 39 77 40 25 41 80 42 74 43 73 44 26 46 60 47 39 48
REMARK SMILES IDX 59 49 40 50 43 51 58 52 78 53 41 54 42 55 57 57 79 58 44 59
REMARK SMILES IDX 27 60 28 61 37 62 29 63 30 64 36 65 38 66 31 67 32 68 33 69
REMARK SMILES IDX 34 70 35 71 61 72 62 73 71 74 63 75 64 76 70 77 72 78 65 79
REMARK SMILES IDX 66 80 67 81 68 82 69 83 45 84 46 85 55 86 47 87 48 88 54 89
REMARK SMILES IDX 56 90 49 91 50 92 51 93 52 94 53 95
REMARK H PARENT 8 8 1 14 1 15 1 16 77 45 43 56
REMARK Flexibility Score: inf
ROOT
ATOM      1  O   UNL A   1      31.008  27.221  26.719  1.00  0.00    -0.461 OA
ENDROOT
BRANCH   1   2
ATOM      2  C   UNL A   1      31.647  26.208  26.100  1.00  0.00     0.329 C 
ATOM      3  O   UNL A   1      32.865  26.064  26.155  1.00  0.00    -0.250 OA
BRANCH   2   4
ATOM      4  C   UNL A   1      30.685  25.163  25.453  1.00  0.00     0.195 C 
BRANCH   4   5
ATOM      5  N   UNL A   1      29.667  25.532  24.428  1.00  0.00    -0.340 N 
ATOM      6  C   UNL A   1      29.261  26.686  23.847  1.00  0.00     0.246 C 
ATOM      7  O   UNL A   1      28.046  26.796  23.636  1.00  0.00    -0.272 OA
ATOM      8  H   UNL A   1      29.171  24.750  24.094  1.00  0.00     0.164 HD
BRANCH   6   9
ATOM      9  C   UNL A   1      30.215  27.742  23.302  1.00  0.00     0.260 C 
BRANCH   9  10
ATOM     10  O   UNL A   1      29.957  28.317  22.040  1.00  0.00    -0.366 OA
BRANCH  10  11
ATOM     11  C   UNL A   1      29.986  29.744  22.018  1.00  0.00     0.222 C 
BRANCH  11  12
ATOM     12  C   UNL A   1      28.962  30.326  23.001  1.00  0.00     0.287 C 
BRANCH  12  13
ATOM     13  N   UNL A   1      29.528  31.320  23.922  1.00  0.00    -0.356 N 
ATOM     14  H   UNL A   1      28.773  31.782  24.430  1.00  0.00     0.344 HD
ATOM     15  H   UNL A   1      30.055  32.014  23.392  1.00  0.00     0.344 HD
ATOM     16  H   UNL A   1      30.148  30.854  24.585  1.00  0.00     0.344 HD
ENDBRANCH  12  13
ENDBRANCH  11  12
ENDBRANCH  10  11
ENDBRANCH   9  10
ENDBRANCH   6   9
ENDBRANCH   4   5
BRANCH   4  17
ATOM     17  C   UNL A   1      31.611  24.002  24.889  1.00  0.00     0.023 C 
ATOM     18  C   UNL A   1      31.177  22.613  25.417  1.00  0.00     0.006 C 
ATOM     19  C   UNL A   1      31.718  23.915  23.348  1.00  0.00     0.006 C 
ATOM     20  C   UNL A   1      32.132  21.504  24.974  1.00  0.00     0.000 C 
ATOM     21  C   UNL A   1      32.671  22.811  22.895  1.00  0.00     0.000 C 
ATOM     22  C   UNL A   1      32.278  21.454  23.460  1.00  0.00     0.000 C 
ENDBRANCH   4  17
ENDBRANCH   2   4
ENDBRANCH   1   2
BRANCH   1  23
ATOM     23  C   UNL A   1      31.780  28.039  27.622  1.00  0.00     0.274 C 
BRANCH  23  24
ATOM     24  C   UNL A   1      32.304  29.318  26.954  1.00  0.00     0.275 C 
BRANCH  24  25
ATOM     25  O   UNL A   1      33.741  29.340  26.906  1.00  0.00    -0.458 OA
BRANCH  25  26
ATOM     26  C   UNL A   1      34.331  30.455  27.396  1.00  0.00     0.338 C 
ATOM     27  O   UNL A   1      33.824  31.561  27.511  1.00  0.00    -0.246 OA
BRANCH  26  28
ATOM     28  C   UNL A   1      35.654  30.128  27.961  1.00  0.00     0.060 A 
ATOM     29  C   UNL A   1      35.679  29.597  29.256  1.00  0.00     0.016 A 
ATOM     30  C   UNL A   1      36.843  30.306  27.248  1.00  0.00     0.016 A 
ATOM     31  C   UNL A   1      36.883  29.206  29.829  1.00  0.00     0.010 A 
ATOM     32  C   UNL A   1      38.055  29.928  27.830  1.00  0.00     0.010 A 
ATOM     33  C   UNL A   1      38.078  29.375  29.121  1.00  0.00    -0.014 A 
BRANCH  33  34
ATOM     34  C   UNL A   1      39.355  29.039  29.781  1.00  0.00     0.031 A 
ATOM     35  C   UNL A   1      39.765  29.802  31.004  1.00  0.00     0.074 A 
ATOM     36  C   UNL A   1      40.106  28.026  29.311  1.00  0.00     0.049 A 
ATOM     37  N   UNL A   1      40.824  29.655  31.754  1.00  0.00    -0.248 NA
ATOM     38  C   UNL A   1      38.856  30.875  31.442  1.00  0.00     0.031 C 
ATOM     39  C   UNL A   1      39.776  27.198  28.150  1.00  0.00     0.029 A 
ATOM     40  N   UNL A   1      41.300  27.521  29.755  1.00  0.00    -0.354 N 
ATOM     41  C   UNL A   1      40.708  30.607  32.759  1.00  0.00     0.074 A 
ATOM     42  C   UNL A   1      39.494  31.351  32.501  1.00  0.00     0.031 C 
ATOM     43  C   UNL A   1      40.752  26.293  27.969  1.00  0.00     0.029 A 
ATOM     44  C   UNL A   1      41.783  26.492  28.984  1.00  0.00     0.049 A 
ATOM     45  H   UNL A   1      41.767  27.864  30.552  1.00  0.00     0.167 HD
ATOM     46  C   UNL A   1      41.537  30.831  33.805  1.00  0.00     0.037 A 
ATOM     47  C   UNL A   1      42.937  25.802  29.083  1.00  0.00     0.037 A 
ATOM     48  C   UNL A   1      42.754  30.094  34.034  1.00  0.00     0.049 A 
ATOM     49  C   UNL A   1      43.878  26.119  30.217  1.00  0.00     0.074 A 
ATOM     50  C   UNL A   1      43.667  30.240  35.062  1.00  0.00     0.029 A 
ATOM     51  N   UNL A   1      43.233  29.081  33.214  1.00  0.00    -0.354 N 
ATOM     52  N   UNL A   1      43.746  27.002  31.179  1.00  0.00    -0.248 NA
ATOM     53  C   UNL A   1      45.122  25.340  30.284  1.00  0.00     0.031 C 
ATOM     54  C   UNL A   1      44.725  29.352  34.834  1.00  0.00     0.029 A 
ATOM     55  C   UNL A   1      44.441  28.611  33.698  1.00  0.00     0.049 A 
ATOM     56  H   UNL A   1      42.779  28.748  32.406  1.00  0.00     0.167 HD
ATOM     57  C   UNL A   1      44.872  26.864  31.983  1.00  0.00     0.074 A 
ATOM     58  C   UNL A   1      45.668  25.803  31.401  1.00  0.00     0.031 C 
ATOM     59  C   UNL A   1      45.217  27.548  33.104  1.00  0.00     0.037 A 
BRANCH  46  60
ATOM     60  C   UNL A   1      41.169  31.934  34.756  1.00  0.00     0.058 A 
ATOM     61  C   UNL A   1      41.673  33.237  34.609  1.00  0.00     0.135 A 
ATOM     62  C   UNL A   1      40.287  31.691  35.821  1.00  0.00     0.135 A 
ATOM     63  F   UNL A   1      42.539  33.520  33.622  1.00  0.00    -0.206 F 
ATOM     64  C   UNL A   1      41.337  34.253  35.498  1.00  0.00     0.059 A 
ATOM     65  C   UNL A   1      39.914  32.699  36.706  1.00  0.00     0.059 A 
ATOM     66  F   UNL A   1      39.781  30.464  36.012  1.00  0.00    -0.206 F 
ATOM     67  C   UNL A   1      40.456  33.973  36.545  1.00  0.00     0.060 A 
BRANCH  67  68
ATOM     68  S   UNL A   1      40.028  35.302  37.689  1.00  0.00     0.124 S 
ATOM     69  O   UNL A   1      38.814  34.775  38.306  1.00  0.00    -0.237 OA
ATOM     70  O   UNL A   1      41.203  35.361  38.552  1.00  0.00    -0.237 OA
ATOM     71  O   UNL A   1      39.836  36.455  36.814  1.00  0.00    -0.744 OA
ENDBRANCH  67  68
ENDBRANCH  46  60
BRANCH  47  72
ATOM     72  C   UNL A   1      43.266  24.749  28.085  1.00  0.00     0.058 A 
ATOM     73  C   UNL A   1      42.908  23.409  28.293  1.00  0.00     0.135 A 
ATOM     74  C   UNL A   1      43.953  25.064  26.901  1.00  0.00     0.135 A 
ATOM     75  F   UNL A   1      42.259  23.056  29.413  1.00  0.00    -0.206 F 
ATOM     76  C   UNL A   1      43.232  22.416  27.374  1.00  0.00     0.059 A 
ATOM     77  C   UNL A   1      44.264  24.093  25.954  1.00  0.00     0.059 A 
ATOM     78  F   UNL A   1      44.311  26.333  26.647  1.00  0.00    -0.206 F 
ATOM     79  C   UNL A   1      43.910  22.769  26.206  1.00  0.00     0.060 A 
BRANCH  79  80
ATOM     80  S   UNL A   1      44.291  21.478  25.001  1.00  0.00     0.124 S 
ATOM     81  O   UNL A   1      44.148  22.200  23.742  1.00  0.00    -0.237 OA
ATOM     82  O   UNL A   1      45.652  21.106  25.372  1.00  0.00    -0.237 OA
ATOM     83  O   UNL A   1      43.277  20.461  25.264  1.00  0.00    -0.744 OA
ENDBRANCH  79  80
ENDBRANCH  47  72
BRANCH  59  84
ATOM     84  C   UNL A   1      46.491  27.142  33.795  1.00  0.00     0.058 A 
ATOM     85  C   UNL A   1      46.516  26.140  34.777  1.00  0.00     0.135 A 
ATOM     86  C   UNL A   1      47.710  27.743  33.441  1.00  0.00     0.135 A 
ATOM     87  F   UNL A   1      45.379  25.535  35.155  1.00  0.00    -0.206 F 
ATOM     88  C   UNL A   1      47.699  25.773  35.410  1.00  0.00     0.059 A 
ATOM     89  C   UNL A   1      48.910  27.369  34.038  1.00  0.00     0.059 A 
ATOM     90  F   UNL A   1      47.746  28.698  32.498  1.00  0.00    -0.206 F 
ATOM     91  C   UNL A   1      48.891  26.395  35.034  1.00  0.00     0.060 A 
BRANCH  91  92
ATOM     92  S   UNL A   1      50.422  25.902  35.855  1.00  0.00     0.124 S 
ATOM     93  O   UNL A   1      51.100  25.166  34.794  1.00  0.00    -0.237 OA
ATOM     94  O   UNL A   1      51.013  27.188  36.212  1.00  0.00    -0.237 OA
ATOM     95  O   UNL A   1      49.960  25.098  36.983  1.00  0.00    -0.744 OA
ENDBRANCH  91  92
ENDBRANCH  59  84
ENDBRANCH  33  34
ENDBRANCH  26  28
ENDBRANCH  25  26
ENDBRANCH  24  25
ENDBRANCH  23  24
ENDBRANCH   1  23
TORSDOF 21
ENDMDL
MODEL 3
REMARK VINA RESULT:     -10.0      5.111      6.333
REMARK SMILES [NH3+]CCOCC(=O)N[C@H](C(=O)OCCOC(=O)c1ccc(-c2c3nc(c(-c4c(F)cc(S(=O)(=O)[O-])cc4F)c4ccc([nH]4)c(-c4c(F)cc(S(=O)(=O)[O-])cc4F)c4nc(c(-c5c(F)cc(S(=O)(=O)[O-])cc5F)c5ccc2[nH]5)C=C4)C=C3)cc1)C1CCCCC1
REMARK SMILES IDX 12 1 10 2 11 3 9 4 8 5 6 6 7 7 5 9 4 10 3 11 2 12 1 13 84 17
REMARK SMILES IDX 85 18 89 19 86 20 88 21 87 22 13 23 14 24 15 25 16 26 17 27
REMARK SMILES IDX 18 28 19 29 83 30 20 31 82 32 21 33 22 34 23 35 76 36 24 37
REMARK SMILES IDX 81 38 75 39 77 40 25 41 80 42 74 43 73 44 26 46 60 47 39 48
REMARK SMILES IDX 59 49 40 50 43 51 58 52 78 53 41 54 42 55 57 57 79 58 44 59
REMARK SMILES IDX 27 60 28 61 37 62 29 63 30 64 36 65 38 66 31 67 32 68 33 69
REMARK SMILES IDX 34 70 35 71 61 72 62 73 71 74 63 75 64 76 70 77 72 78 65 79
REMARK SMILES IDX 66 80 67 81 68 82 69 83 45 84 46 85 55 86 47 87 48 88 54 89
REMARK SMILES IDX 56 90 49 91 50 92 51 93 52 94 53 95
REMARK H PARENT 8 8 1 14 1 15 1 16 77 45 43 56
REMARK Flexibility Score: inf
ROOT
ATOM      1  O   UNL A   1      34.745  21.917  27.153  1.00  0.00    -0.461 OA
ENDROOT
BRANCH   1   2
ATOM      2  C   UNL A   1      33.492  22.412  27.219  1.00  0.00     0.329 C 
ATOM      3  O   UNL A   1      32.888  22.537  28.280  1.00  0.00    -0.250 OA
BRANCH   2   4
ATOM      4  C   UNL A   1      32.958  22.949  25.855  1.00  0.00     0.195 C 
BRANCH   4   5
ATOM      5  N   UNL A   1      32.217  22.092  24.886  1.00  0.00    -0.340 N 
ATOM      6  C   UNL A   1      32.366  20.837  24.401  1.00  0.00     0.246 C 
ATOM      7  O   UNL A   1      32.103  20.677  23.201  1.00  0.00    -0.272 OA
ATOM      8  H   UNL A   1      31.430  22.548  24.508  1.00  0.00     0.164 HD
BRANCH   6   9
ATOM      9  C   UNL A   1      32.665  19.621  25.271  1.00  0.00     0.260 C 
BRANCH   9  10
ATOM     10  O   UNL A   1      32.077  18.381  24.945  1.00  0.00    -0.366 OA
BRANCH  10  11
ATOM     11  C   UNL A   1      33.000  17.378  24.520  1.00  0.00     0.222 C 
BRANCH  11  12
ATOM     12  C   UNL A   1      33.145  17.382  22.992  1.00  0.00     0.287 C 
BRANCH  12  13
ATOM     13  N   UNL A   1      31.945  17.849  22.287  1.00  0.00    -0.356 N 
ATOM     14  H   UNL A   1      31.191  17.996  22.959  1.00  0.00     0.344 HD
ATOM     15  H   UNL A   1      31.659  17.150  21.602  1.00  0.00     0.344 HD
ATOM     16  H   UNL A   1      32.152  18.728  21.811  1.00  0.00     0.344 HD
ENDBRANCH  12  13
ENDBRANCH  11  12
ENDBRANCH  10  11
ENDBRANCH   9  10
ENDBRANCH   6   9
ENDBRANCH   4   5
BRANCH   4  17
ATOM     17  C   UNL A   1      32.092  24.236  26.198  1.00  0.00     0.023 C 
ATOM     18  C   UNL A   1      32.931  25.534  26.109  1.00  0.00     0.006 C 
ATOM     19  C   UNL A   1      30.815  24.434  25.347  1.00  0.00     0.006 C 
ATOM     20  C   UNL A   1      32.137  26.764  26.551  1.00  0.00     0.000 C 
ATOM     21  C   UNL A   1      30.014  25.660  25.782  1.00  0.00     0.000 C 
ATOM     22  C   UNL A   1      30.854  26.928  25.750  1.00  0.00     0.000 C 
ENDBRANCH   4  17
ENDBRANCH   2   4
ENDBRANCH   1   2
BRANCH   1  23
ATOM     23  C   UNL A   1      35.503  22.191  25.956  1.00  0.00     0.274 C 
BRANCH  23  24
ATOM     24  C   UNL A   1      36.426  23.409  26.111  1.00  0.00     0.275 C 
BRANCH  24  25
ATOM     25  O   UNL A   1      37.690  23.201  25.457  1.00  0.00    -0.458 OA
BRANCH  25  26
ATOM     26  C   UNL A   1      38.734  22.921  26.270  1.00  0.00     0.338 C 
ATOM     27  O   UNL A   1      39.195  21.816  26.516  1.00  0.00    -0.246 OA
BRANCH  26  28
ATOM     28  C   UNL A   1      39.392  24.168  26.705  1.00  0.00     0.060 A 
ATOM     29  C   UNL A   1      39.442  24.414  28.082  1.00  0.00     0.016 A 
ATOM     30  C   UNL A   1      39.971  25.068  25.806  1.00  0.00     0.016 A 
ATOM     31  C   UNL A   1      40.102  25.536  28.570  1.00  0.00     0.010 A 
ATOM     32  C   UNL A   1      40.619  26.205  26.294  1.00  0.00     0.010 A 
ATOM     33  C   UNL A   1      40.689  26.440  27.677  1.00  0.00    -0.014 A 
BRANCH  33  34
ATOM     34  C   UNL A   1      41.305  27.672  28.208  1.00  0.00     0.031 A 
ATOM     35  C   UNL A   1      42.796  27.816  28.164  1.00  0.00     0.074 A 
ATOM     36  C   UNL A   1      40.525  28.664  28.675  1.00  0.00     0.049 A 
ATOM     37  N   UNL A   1      43.542  28.819  28.546  1.00  0.00    -0.248 NA
ATOM     38  C   UNL A   1      43.549  26.677  27.612  1.00  0.00     0.031 C 
ATOM     39  C   UNL A   1      39.063  28.636  28.726  1.00  0.00     0.029 A 
ATOM     40  N   UNL A   1      40.856  29.889  29.194  1.00  0.00    -0.354 N 
ATOM     41  C   UNL A   1      44.849  28.440  28.274  1.00  0.00     0.074 A 
ATOM     42  C   UNL A   1      44.799  27.100  27.728  1.00  0.00     0.031 C 
ATOM     43  C   UNL A   1      38.623  29.789  29.257  1.00  0.00     0.029 A 
ATOM     44  C   UNL A   1      39.771  30.624  29.603  1.00  0.00     0.049 A 
ATOM     45  H   UNL A   1      41.784  30.211  29.266  1.00  0.00     0.167 HD
ATOM     46  C   UNL A   1      45.986  29.152  28.456  1.00  0.00     0.037 A 
ATOM     47  C   UNL A   1      39.716  31.830  30.203  1.00  0.00     0.037 A 
ATOM     48  C   UNL A   1      46.020  30.476  29.021  1.00  0.00     0.049 A 
ATOM     49  C   UNL A   1      41.003  32.572  30.460  1.00  0.00     0.074 A 
ATOM     50  C   UNL A   1      47.117  31.287  29.250  1.00  0.00     0.029 A 
ATOM     51  N   UNL A   1      44.905  31.179  29.458  1.00  0.00    -0.354 N 
ATOM     52  N   UNL A   1      42.233  32.217  30.173  1.00  0.00    -0.248 NA
ATOM     53  C   UNL A   1      40.893  33.883  31.114  1.00  0.00     0.031 C 
ATOM     54  C   UNL A   1      46.671  32.457  29.874  1.00  0.00     0.029 A 
ATOM     55  C   UNL A   1      45.290  32.402  29.979  1.00  0.00     0.049 A 
ATOM     56  H   UNL A   1      43.977  30.854  29.406  1.00  0.00     0.167 HD
ATOM     57  C   UNL A   1      43.042  33.273  30.582  1.00  0.00     0.074 A 
ATOM     58  C   UNL A   1      42.157  34.284  31.125  1.00  0.00     0.031 C 
ATOM     59  C   UNL A   1      44.391  33.398  30.512  1.00  0.00     0.037 A 
BRANCH  46  60
ATOM     60  C   UNL A   1      47.282  28.497  28.069  1.00  0.00     0.058 A 
ATOM     61  C   UNL A   1      47.805  28.599  26.770  1.00  0.00     0.135 A 
ATOM     62  C   UNL A   1      48.022  27.769  29.015  1.00  0.00     0.135 A 
ATOM     63  F   UNL A   1      47.128  29.263  25.819  1.00  0.00    -0.206 F 
ATOM     64  C   UNL A   1      49.000  27.983  26.415  1.00  0.00     0.059 A 
ATOM     65  C   UNL A   1      49.235  27.168  28.690  1.00  0.00     0.059 A 
ATOM     66  F   UNL A   1      47.567  27.633  30.270  1.00  0.00    -0.206 F 
ATOM     67  C   UNL A   1      49.708  27.268  27.383  1.00  0.00     0.060 A 
BRANCH  67  68
ATOM     68  S   UNL A   1      51.259  26.476  26.907  1.00  0.00     0.124 S 
ATOM     69  O   UNL A   1      51.083  25.136  27.463  1.00  0.00    -0.237 OA
ATOM     70  O   UNL A   1      51.222  26.567  25.452  1.00  0.00    -0.237 OA
ATOM     71  O   UNL A   1      52.274  27.296  27.560  1.00  0.00    -0.744 OA
ENDBRANCH  67  68
ENDBRANCH  46  60
BRANCH  47  72
ATOM     72  C   UNL A   1      38.405  32.408  30.602  1.00  0.00     0.058 A 
ATOM     73  C   UNL A   1      37.689  33.255  29.743  1.00  0.00     0.135 A 
ATOM     74  C   UNL A   1      37.842  32.127  31.858  1.00  0.00     0.135 A 
ATOM     75  F   UNL A   1      38.189  33.561  28.536  1.00  0.00    -0.206 F 
ATOM     76  C   UNL A   1      36.473  33.817  30.119  1.00  0.00     0.059 A 
ATOM     77  C   UNL A   1      36.615  32.655  32.245  1.00  0.00     0.059 A 
ATOM     78  F   UNL A   1      38.480  31.315  32.715  1.00  0.00    -0.206 F 
ATOM     79  C   UNL A   1      35.943  33.509  31.373  1.00  0.00     0.060 A 
BRANCH  79  80
ATOM     80  S   UNL A   1      34.344  34.212  31.834  1.00  0.00     0.124 S 
ATOM     81  O   UNL A   1      33.801  33.166  32.693  1.00  0.00    -0.237 OA
ATOM     82  O   UNL A   1      34.736  35.448  32.505  1.00  0.00    -0.237 OA
ATOM     83  O   UNL A   1      33.671  34.390  30.552  1.00  0.00    -0.744 OA
ENDBRANCH  79  80
ENDBRANCH  47  72
BRANCH  59  84
ATOM     84  C   UNL A   1      44.990  34.690  31.000  1.00  0.00     0.058 A 
ATOM     85  C   UNL A   1      45.146  35.802  30.157  1.00  0.00     0.135 A 
ATOM     86  C   UNL A   1      45.380  34.828  32.342  1.00  0.00     0.135 A 
ATOM     87  F   UNL A   1      44.793  35.724  28.864  1.00  0.00    -0.206 F 
ATOM     88  C   UNL A   1      45.701  36.991  30.618  1.00  0.00     0.059 A 
ATOM     89  C   UNL A   1      45.907  36.018  32.833  1.00  0.00     0.059 A 
ATOM     90  F   UNL A   1      45.239  33.801  33.196  1.00  0.00    -0.206 F 
ATOM     91  C   UNL A   1      46.080  37.089  31.957  1.00  0.00     0.060 A 
BRANCH  91  92
ATOM     92  S   UNL A   1      46.789  38.641  32.547  1.00  0.00     0.124 S 
ATOM     93  O   UNL A   1      48.202  38.298  32.650  1.00  0.00    -0.237 OA
ATOM     94  O   UNL A   1      46.438  39.571  31.478  1.00  0.00    -0.237 OA
ATOM     95  O   UNL A   1      46.102  38.868  33.816  1.00  0.00    -0.744 OA
ENDBRANCH  91  92
ENDBRANCH  59  84
ENDBRANCH  33  34
ENDBRANCH  26  28
ENDBRANCH  25  26
ENDBRANCH  24  25
ENDBRANCH  23  24
ENDBRANCH   1  23
TORSDOF 21
ENDMDL
