MODEL 1
REMARK VINA RESULT:     -10.7      0.000      0.000
REMARK SMILES Cc1cc2nc(SCC(=O)OCCOC(=O)c3ccc(-c4c5nc(c(-c6c(F)cc(S(=O)(=O)[O-])cc6F)c6ccc([nH]6)c(-c6c(F)cc(S(=O)(=O)[O-])cc6F)c6nc(c(-c7c(F)cc(S(=O)(=O)[O-])cc7F)c7ccc4[nH]7)C=C6)C=C5)cc3)n(CC(C)C)c(=O)c2[nH]1
REMARK SMILES IDX 12 1 11 2 9 3 10 4 8 5 7 6 6 7 1 8 2 9 3 10 91 11 4 12 90 13
REMARK SMILES IDX 5 15 88 16 83 17 89 18 84 19 85 20 86 21 87 22 13 23 14 24
REMARK SMILES IDX 15 25 16 26 17 27 18 28 82 29 19 30 81 31 20 32 21 33 22 34
REMARK SMILES IDX 75 35 23 36 80 37 74 38 76 39 24 40 79 41 73 42 72 43 25 45
REMARK SMILES IDX 59 46 38 47 58 48 39 49 42 50 57 51 77 52 40 53 41 54 56 56
REMARK SMILES IDX 78 57 43 58 26 59 27 60 36 61 28 62 29 63 35 64 37 65 30 66
REMARK SMILES IDX 31 67 32 68 33 69 34 70 60 71 61 72 70 73 62 74 63 75 69 76
REMARK SMILES IDX 71 77 64 78 65 79 66 80 67 81 68 82 44 83 45 84 54 85 46 86
REMARK SMILES IDX 47 87 53 88 55 89 48 90 49 91 50 92 51 93 52 94
REMARK H PARENT 91 14 76 44 42 55
REMARK Flexibility Score: inf
ROOT
ATOM      1  C   UNL A   1      42.514  19.386  26.052  1.00  0.00     0.274 C 
ENDROOT
BRANCH   1   2
ATOM      2  O   UNL A   1      43.256  20.004  24.996  1.00  0.00    -0.461 OA
BRANCH   2   3
ATOM      3  C   UNL A   1      44.604  19.873  25.089  1.00  0.00     0.316 C 
ATOM      4  O   UNL A   1      45.129  18.782  25.267  1.00  0.00    -0.251 OA
BRANCH   3   5
ATOM      5  C   UNL A   1      45.340  21.216  24.944  1.00  0.00     0.200 C 
BRANCH   5   6
ATOM      6  S   UNL A   1      44.157  22.613  24.918  1.00  0.00    -0.076 SA
BRANCH   6   7
ATOM      7  C   UNL A   1      44.996  24.009  25.568  1.00  0.00     0.172 A 
ATOM      8  C   UNL A   1      49.103  28.024  25.351  1.00  0.00     0.064 C 
ATOM      9  C   UNL A   1      47.759  27.412  25.477  1.00  0.00     0.014 A 
ATOM     10  C   UNL A   1      46.755  27.016  24.588  1.00  0.00     0.052 A 
ATOM     11  N   UNL A   1      47.386  26.945  26.715  1.00  0.00    -0.353 N 
ATOM     12  C   UNL A   1      45.997  26.026  25.272  1.00  0.00     0.097 A 
ATOM     13  C   UNL A   1      46.670  25.829  26.433  1.00  0.00     0.131 A 
ATOM     14  H   UNL A   1      47.590  27.331  27.597  1.00  0.00     0.166 HD
ATOM     15  N   UNL A   1      45.120  25.044  24.776  1.00  0.00    -0.222 NA
ATOM     16  C   UNL A   1      46.794  24.550  27.001  1.00  0.00     0.278 A 
ATOM     17  N   UNL A   1      45.693  23.771  26.771  1.00  0.00    -0.286 N 
ATOM     18  O   UNL A   1      47.825  24.141  27.508  1.00  0.00    -0.267 OA
BRANCH  17  19
ATOM     19  C   UNL A   1      45.156  23.184  28.001  1.00  0.00     0.131 C 
BRANCH  19  20
ATOM     20  C   UNL A   1      44.200  23.919  29.003  1.00  0.00     0.003 C 
ATOM     21  C   UNL A   1      43.156  23.018  29.675  1.00  0.00     0.009 C 
ATOM     22  C   UNL A   1      44.904  24.519  30.247  1.00  0.00     0.009 C 
ENDBRANCH  19  20
ENDBRANCH  17  19
ENDBRANCH   6   7
ENDBRANCH   5   6
ENDBRANCH   3   5
ENDBRANCH   2   3
ENDBRANCH   1   2
BRANCH   1  23
ATOM     23  C   UNL A   1      41.207  20.134  26.335  1.00  0.00     0.275 C 
BRANCH  23  24
ATOM     24  O   UNL A   1      40.972  21.542  25.957  1.00  0.00    -0.458 OA
BRANCH  24  25
ATOM     25  C   UNL A   1      39.822  22.241  26.230  1.00  0.00     0.338 C 
ATOM     26  O   UNL A   1      38.717  21.728  26.129  1.00  0.00    -0.246 OA
BRANCH  25  27
ATOM     27  C   UNL A   1      39.926  23.706  26.655  1.00  0.00     0.060 A 
ATOM     28  C   UNL A   1      41.210  24.275  26.798  1.00  0.00     0.016 A 
ATOM     29  C   UNL A   1      38.851  24.494  27.068  1.00  0.00     0.016 A 
ATOM     30  C   UNL A   1      41.421  25.484  27.520  1.00  0.00     0.010 A 
ATOM     31  C   UNL A   1      39.067  25.685  27.821  1.00  0.00     0.010 A 
ATOM     32  C   UNL A   1      40.357  26.160  28.140  1.00  0.00    -0.014 A 
BRANCH  32  33
ATOM     33  C   UNL A   1      40.591  27.469  28.842  1.00  0.00     0.031 A 
ATOM     34  C   UNL A   1      41.812  28.105  28.313  1.00  0.00     0.074 A 
ATOM     35  C   UNL A   1      39.887  28.254  29.712  1.00  0.00     0.049 A 
ATOM     36  N   UNL A   1      43.005  28.045  28.800  1.00  0.00    -0.248 NA
ATOM     37  C   UNL A   1      41.716  28.707  26.977  1.00  0.00     0.031 C 
ATOM     38  C   UNL A   1      38.494  28.133  30.099  1.00  0.00     0.029 A 
ATOM     39  N   UNL A   1      40.255  29.403  30.404  1.00  0.00    -0.354 N 
ATOM     40  C   UNL A   1      43.768  28.803  27.927  1.00  0.00     0.074 A 
ATOM     41  C   UNL A   1      43.003  28.923  26.712  1.00  0.00     0.031 C 
ATOM     42  C   UNL A   1      38.083  29.196  30.827  1.00  0.00     0.029 A 
ATOM     43  C   UNL A   1      39.205  30.088  31.044  1.00  0.00     0.049 A 
ATOM     44  H   UNL A   1      41.188  29.715  30.443  1.00  0.00     0.167 HD
ATOM     45  C   UNL A   1      44.818  29.551  28.353  1.00  0.00     0.037 A 
ATOM     46  C   UNL A   1      39.210  31.300  31.681  1.00  0.00     0.037 A 
ATOM     47  C   UNL A   1      45.230  29.206  29.689  1.00  0.00     0.049 A 
ATOM     48  C   UNL A   1      40.618  31.613  32.018  1.00  0.00     0.074 A 
ATOM     49  C   UNL A   1      45.588  28.031  30.323  1.00  0.00     0.029 A 
ATOM     50  N   UNL A   1      44.963  30.104  30.693  1.00  0.00    -0.354 N 
ATOM     51  N   UNL A   1      41.325  30.973  32.905  1.00  0.00    -0.248 NA
ATOM     52  C   UNL A   1      41.375  32.394  31.054  1.00  0.00     0.031 C 
ATOM     53  C   UNL A   1      45.060  28.142  31.642  1.00  0.00     0.029 A 
ATOM     54  C   UNL A   1      44.461  29.397  31.754  1.00  0.00     0.049 A 
ATOM     55  H   UNL A   1      45.106  31.078  30.658  1.00  0.00     0.167 HD
ATOM     56  C   UNL A   1      42.596  30.912  32.356  1.00  0.00     0.074 A 
ATOM     57  C   UNL A   1      42.585  31.873  31.257  1.00  0.00     0.031 C 
ATOM     58  C   UNL A   1      43.447  29.891  32.659  1.00  0.00     0.037 A 
BRANCH  45  59
ATOM     59  C   UNL A   1      45.215  30.835  27.678  1.00  0.00     0.058 A 
ATOM     60  C   UNL A   1      46.548  31.027  27.283  1.00  0.00     0.135 A 
ATOM     61  C   UNL A   1      44.379  31.974  27.605  1.00  0.00     0.135 A 
ATOM     62  F   UNL A   1      47.434  30.022  27.366  1.00  0.00    -0.206 F 
ATOM     63  C   UNL A   1      47.022  32.269  26.861  1.00  0.00     0.059 A 
ATOM     64  C   UNL A   1      44.807  33.197  27.116  1.00  0.00     0.059 A 
ATOM     65  F   UNL A   1      43.133  31.981  28.097  1.00  0.00    -0.206 F 
ATOM     66  C   UNL A   1      46.141  33.347  26.781  1.00  0.00     0.060 A 
BRANCH  66  67
ATOM     67  S   UNL A   1      46.763  34.968  26.312  1.00  0.00     0.124 S 
ATOM     68  O   UNL A   1      47.330  34.686  24.999  1.00  0.00    -0.237 OA
ATOM     69  O   UNL A   1      45.546  35.773  26.328  1.00  0.00    -0.237 OA
ATOM     70  O   UNL A   1      47.725  35.275  27.366  1.00  0.00    -0.744 OA
ENDBRANCH  66  67
ENDBRANCH  45  59
BRANCH  46  71
ATOM     71  C   UNL A   1      38.125  32.335  31.833  1.00  0.00     0.058 A 
ATOM     72  C   UNL A   1      37.598  33.060  30.737  1.00  0.00     0.135 A 
ATOM     73  C   UNL A   1      37.382  32.443  33.026  1.00  0.00     0.135 A 
ATOM     74  F   UNL A   1      38.207  33.017  29.542  1.00  0.00    -0.206 F 
ATOM     75  C   UNL A   1      36.398  33.793  30.811  1.00  0.00     0.059 A 
ATOM     76  C   UNL A   1      36.196  33.177  33.128  1.00  0.00     0.059 A 
ATOM     77  F   UNL A   1      37.733  31.752  34.119  1.00  0.00    -0.206 F 
ATOM     78  C   UNL A   1      35.690  33.827  32.010  1.00  0.00     0.060 A 
BRANCH  78  79
ATOM     79  S   UNL A   1      34.053  34.604  32.081  1.00  0.00     0.124 S 
ATOM     80  O   UNL A   1      34.370  35.950  32.544  1.00  0.00    -0.237 OA
ATOM     81  O   UNL A   1      33.599  34.495  30.699  1.00  0.00    -0.237 OA
ATOM     82  O   UNL A   1      33.324  33.774  33.037  1.00  0.00    -0.744 OA
ENDBRANCH  78  79
ENDBRANCH  46  71
BRANCH  58  83
ATOM     83  C   UNL A   1      43.183  29.060  33.885  1.00  0.00     0.058 A 
ATOM     84  C   UNL A   1      42.288  27.979  33.943  1.00  0.00     0.135 A 
ATOM     85  C   UNL A   1      44.030  29.255  34.991  1.00  0.00     0.135 A 
ATOM     86  F   UNL A   1      41.497  27.673  32.902  1.00  0.00    -0.206 F 
ATOM     87  C   UNL A   1      42.242  27.137  35.057  1.00  0.00     0.059 A 
ATOM     88  C   UNL A   1      44.008  28.418  36.101  1.00  0.00     0.059 A 
ATOM     89  F   UNL A   1      44.943  30.241  34.968  1.00  0.00    -0.206 F 
ATOM     90  C   UNL A   1      43.106  27.361  36.129  1.00  0.00     0.060 A 
BRANCH  90  91
ATOM     91  S   UNL A   1      43.092  26.209  37.521  1.00  0.00     0.124 S 
ATOM     92  O   UNL A   1      43.998  26.857  38.463  1.00  0.00    -0.237 OA
ATOM     93  O   UNL A   1      41.684  26.194  37.905  1.00  0.00    -0.237 OA
ATOM     94  O   UNL A   1      43.582  24.963  36.937  1.00  0.00    -0.744 OA
ENDBRANCH  90  91
ENDBRANCH  58  83
ENDBRANCH  32  33
ENDBRANCH  25  27
ENDBRANCH  24  25
ENDBRANCH  23  24
ENDBRANCH   1  23
TORSDOF 18
ENDMDL
MODEL 2
REMARK VINA RESULT:     -10.4      4.340      7.070
REMARK SMILES Cc1cc2nc(SCC(=O)OCCOC(=O)c3ccc(-c4c5nc(c(-c6c(F)cc(S(=O)(=O)[O-])cc6F)c6ccc([nH]6)c(-c6c(F)cc(S(=O)(=O)[O-])cc6F)c6nc(c(-c7c(F)cc(S(=O)(=O)[O-])cc7F)c7ccc4[nH]7)C=C6)C=C5)cc3)n(CC(C)C)c(=O)c2[nH]1
REMARK SMILES IDX 12 1 11 2 9 3 10 4 8 5 7 6 6 7 1 8 2 9 3 10 91 11 4 12 90 13
REMARK SMILES IDX 5 15 88 16 83 17 89 18 84 19 85 20 86 21 87 22 13 23 14 24
REMARK SMILES IDX 15 25 16 26 17 27 18 28 82 29 19 30 81 31 20 32 21 33 22 34
REMARK SMILES IDX 75 35 23 36 80 37 74 38 76 39 24 40 79 41 73 42 72 43 25 45
REMARK SMILES IDX 59 46 38 47 58 48 39 49 42 50 57 51 77 52 40 53 41 54 56 56
REMARK SMILES IDX 78 57 43 58 26 59 27 60 36 61 28 62 29 63 35 64 37 65 30 66
REMARK SMILES IDX 31 67 32 68 33 69 34 70 60 71 61 72 70 73 62 74 63 75 69 76
REMARK SMILES IDX 71 77 64 78 65 79 66 80 67 81 68 82 44 83 45 84 54 85 46 86
REMARK SMILES IDX 47 87 53 88 55 89 48 90 49 91 50 92 51 93 52 94
REMARK H PARENT 91 14 76 44 42 55
REMARK Flexibility Score: inf
ROOT
ATOM      1  C   UNL A   1      36.277  21.876  24.988  1.00  0.00     0.274 C 
ENDROOT
BRANCH   1   2
ATOM      2  O   UNL A   1      36.070  23.286  24.859  1.00  0.00    -0.461 OA
BRANCH   2   3
ATOM      3  C   UNL A   1      35.098  23.798  25.656  1.00  0.00     0.316 C 
ATOM      4  O   UNL A   1      34.804  23.275  26.723  1.00  0.00    -0.251 OA
BRANCH   3   5
ATOM      5  C   UNL A   1      34.455  25.064  25.064  1.00  0.00     0.200 C 
BRANCH   5   6
ATOM      6  S   UNL A   1      33.884  24.770  23.349  1.00  0.00    -0.076 SA
BRANCH   6   7
ATOM      7  C   UNL A   1      32.339  25.582  23.175  1.00  0.00     0.172 A 
ATOM      8  C   UNL A   1      28.999  30.253  23.409  1.00  0.00     0.064 C 
ATOM      9  C   UNL A   1      29.646  29.028  22.882  1.00  0.00     0.014 A 
ATOM     10  C   UNL A   1      30.843  28.735  22.221  1.00  0.00     0.052 A 
ATOM     11  N   UNL A   1      29.078  27.819  23.206  1.00  0.00    -0.353 N 
ATOM     12  C   UNL A   1      31.112  27.365  22.490  1.00  0.00     0.097 A 
ATOM     13  C   UNL A   1      30.144  26.998  23.367  1.00  0.00     0.131 A 
ATOM     14  H   UNL A   1      28.122  27.601  23.298  1.00  0.00     0.166 HD
ATOM     15  N   UNL A   1      32.311  26.635  22.399  1.00  0.00    -0.222 NA
ATOM     16  C   UNL A   1      30.413  26.120  24.430  1.00  0.00     0.278 A 
ATOM     17  N   UNL A   1      31.356  25.184  24.105  1.00  0.00    -0.286 N 
ATOM     18  O   UNL A   1      29.964  26.274  25.553  1.00  0.00    -0.267 OA
BRANCH  17  19
ATOM     19  C   UNL A   1      30.911  23.819  24.390  1.00  0.00     0.131 C 
BRANCH  19  20
ATOM     20  C   UNL A   1      31.360  22.969  25.630  1.00  0.00     0.003 C 
ATOM     21  C   UNL A   1      30.230  22.596  26.597  1.00  0.00     0.009 C 
ATOM     22  C   UNL A   1      31.917  21.564  25.283  1.00  0.00     0.009 C 
ENDBRANCH  19  20
ENDBRANCH  17  19
ENDBRANCH   6   7
ENDBRANCH   5   6
ENDBRANCH   3   5
ENDBRANCH   2   3
ENDBRANCH   1   2
BRANCH   1  23
ATOM     23  C   UNL A   1      37.767  21.532  25.090  1.00  0.00     0.275 C 
BRANCH  23  24
ATOM     24  O   UNL A   1      38.557  21.676  26.329  1.00  0.00    -0.458 OA
BRANCH  24  25
ATOM     25  C   UNL A   1      39.845  22.147  26.381  1.00  0.00     0.338 C 
ATOM     26  O   UNL A   1      40.803  21.434  26.116  1.00  0.00    -0.246 OA
BRANCH  25  27
ATOM     27  C   UNL A   1      40.092  23.596  26.800  1.00  0.00     0.060 A 
ATOM     28  C   UNL A   1      41.273  23.899  27.512  1.00  0.00     0.016 A 
ATOM     29  C   UNL A   1      39.165  24.632  26.670  1.00  0.00     0.016 A 
ATOM     30  C   UNL A   1      41.419  25.111  28.244  1.00  0.00     0.010 A 
ATOM     31  C   UNL A   1      39.298  25.829  27.432  1.00  0.00     0.010 A 
ATOM     32  C   UNL A   1      40.383  26.059  28.305  1.00  0.00    -0.014 A 
BRANCH  32  33
ATOM     33  C   UNL A   1      40.582  27.362  29.029  1.00  0.00     0.031 A 
ATOM     34  C   UNL A   1      41.798  28.029  28.525  1.00  0.00     0.074 A 
ATOM     35  C   UNL A   1      39.853  28.119  29.901  1.00  0.00     0.049 A 
ATOM     36  N   UNL A   1      42.985  27.985  29.026  1.00  0.00    -0.248 NA
ATOM     37  C   UNL A   1      41.706  28.650  27.197  1.00  0.00     0.031 C 
ATOM     38  C   UNL A   1      38.458  27.965  30.269  1.00  0.00     0.029 A 
ATOM     39  N   UNL A   1      40.190  29.264  30.615  1.00  0.00    -0.354 N 
ATOM     40  C   UNL A   1      43.744  28.771  28.174  1.00  0.00     0.074 A 
ATOM     41  C   UNL A   1      42.992  28.895  26.952  1.00  0.00     0.031 C 
ATOM     42  C   UNL A   1      38.017  29.008  31.008  1.00  0.00     0.029 A 
ATOM     43  C   UNL A   1      39.118  29.919  31.252  1.00  0.00     0.049 A 
ATOM     44  H   UNL A   1      41.116  29.594  30.671  1.00  0.00     0.167 HD
ATOM     45  C   UNL A   1      44.774  29.533  28.625  1.00  0.00     0.037 A 
ATOM     46  C   UNL A   1      39.091  31.120  31.907  1.00  0.00     0.037 A 
ATOM     47  C   UNL A   1      45.175  29.176  29.960  1.00  0.00     0.049 A 
ATOM     48  C   UNL A   1      40.488  31.456  32.267  1.00  0.00     0.074 A 
ATOM     49  C   UNL A   1      45.549  27.998  30.581  1.00  0.00     0.029 A 
ATOM     50  N   UNL A   1      44.879  30.053  30.974  1.00  0.00    -0.354 N 
ATOM     51  N   UNL A   1      41.197  30.817  33.153  1.00  0.00    -0.248 NA
ATOM     52  C   UNL A   1      41.242  32.267  31.325  1.00  0.00     0.031 C 
ATOM     53  C   UNL A   1      45.003  28.079  31.895  1.00  0.00     0.029 A 
ATOM     54  C   UNL A   1      44.378  29.320  32.019  1.00  0.00     0.049 A 
ATOM     55  H   UNL A   1      45.003  31.029  30.956  1.00  0.00     0.167 HD
ATOM     56  C   UNL A   1      42.475  30.788  32.619  1.00  0.00     0.074 A 
ATOM     57  C   UNL A   1      42.460  31.766  31.535  1.00  0.00     0.031 C 
ATOM     58  C   UNL A   1      43.343  29.780  32.918  1.00  0.00     0.037 A 
BRANCH  45  59
ATOM     59  C   UNL A   1      45.153  30.835  27.974  1.00  0.00     0.058 A 
ATOM     60  C   UNL A   1      44.211  31.874  27.902  1.00  0.00     0.135 A 
ATOM     61  C   UNL A   1      46.337  31.022  27.223  1.00  0.00     0.135 A 
ATOM     62  F   UNL A   1      43.032  31.769  28.536  1.00  0.00    -0.206 F 
ATOM     63  C   UNL A   1      44.423  33.010  27.123  1.00  0.00     0.059 A 
ATOM     64  C   UNL A   1      46.604  32.175  26.505  1.00  0.00     0.059 A 
ATOM     65  F   UNL A   1      47.248  30.051  27.070  1.00  0.00    -0.206 F 
ATOM     66  C   UNL A   1      45.625  33.150  26.429  1.00  0.00     0.060 A 
BRANCH  66  67
ATOM     67  S   UNL A   1      45.872  34.576  25.362  1.00  0.00     0.124 S 
ATOM     68  O   UNL A   1      45.390  35.656  26.214  1.00  0.00    -0.237 OA
ATOM     69  O   UNL A   1      47.313  34.533  25.132  1.00  0.00    -0.237 OA
ATOM     70  O   UNL A   1      45.047  34.271  24.198  1.00  0.00    -0.744 OA
ENDBRANCH  66  67
ENDBRANCH  45  59
BRANCH  46  71
ATOM     71  C   UNL A   1      37.984  32.132  32.061  1.00  0.00     0.058 A 
ATOM     72  C   UNL A   1      37.224  32.609  30.966  1.00  0.00     0.135 A 
ATOM     73  C   UNL A   1      37.459  32.451  33.329  1.00  0.00     0.135 A 
ATOM     74  F   UNL A   1      37.613  32.349  29.708  1.00  0.00    -0.206 F 
ATOM     75  C   UNL A   1      36.010  33.305  31.123  1.00  0.00     0.059 A 
ATOM     76  C   UNL A   1      36.264  33.154  33.511  1.00  0.00     0.059 A 
ATOM     77  F   UNL A   1      38.044  32.001  34.448  1.00  0.00    -0.206 F 
ATOM     78  C   UNL A   1      35.526  33.554  32.405  1.00  0.00     0.060 A 
BRANCH  78  79
ATOM     79  S   UNL A   1      33.879  34.280  32.632  1.00  0.00     0.124 S 
ATOM     80  O   UNL A   1      33.521  34.666  31.273  1.00  0.00    -0.237 OA
ATOM     81  O   UNL A   1      33.126  33.167  33.199  1.00  0.00    -0.237 OA
ATOM     82  O   UNL A   1      34.123  35.391  33.550  1.00  0.00    -0.744 OA
ENDBRANCH  78  79
ENDBRANCH  46  71
BRANCH  58  83
ATOM     83  C   UNL A   1      43.080  28.925  34.128  1.00  0.00     0.058 A 
ATOM     84  C   UNL A   1      42.187  27.842  34.165  1.00  0.00     0.135 A 
ATOM     85  C   UNL A   1      43.926  29.101  35.237  1.00  0.00     0.135 A 
ATOM     86  F   UNL A   1      41.397  27.554  33.118  1.00  0.00    -0.206 F 
ATOM     87  C   UNL A   1      42.143  26.979  35.263  1.00  0.00     0.059 A 
ATOM     88  C   UNL A   1      43.906  28.243  36.331  1.00  0.00     0.059 A 
ATOM     89  F   UNL A   1      44.837  30.089  35.233  1.00  0.00    -0.206 F 
ATOM     90  C   UNL A   1      43.006  27.184  36.339  1.00  0.00     0.060 A 
BRANCH  90  91
ATOM     91  S   UNL A   1      42.994  26.006  37.709  1.00  0.00     0.124 S 
ATOM     92  O   UNL A   1      43.830  26.678  38.697  1.00  0.00    -0.237 OA
ATOM     93  O   UNL A   1      41.574  25.916  38.035  1.00  0.00    -0.237 OA
ATOM     94  O   UNL A   1      43.567  24.796  37.123  1.00  0.00    -0.744 OA
ENDBRANCH  90  91
ENDBRANCH  58  83
ENDBRANCH  32  33
ENDBRANCH  25  27
ENDBRANCH  24  25
ENDBRANCH  23  24
ENDBRANCH   1  23
TORSDOF 18
ENDMDL
MODEL 3
REMARK VINA RESULT:     -10.3      4.817     11.948
REMARK SMILES Cc1cc2nc(SCC(=O)OCCOC(=O)c3ccc(-c4c5nc(c(-c6c(F)cc(S(=O)(=O)[O-])cc6F)c6ccc([nH]6)c(-c6c(F)cc(S(=O)(=O)[O-])cc6F)c6nc(c(-c7c(F)cc(S(=O)(=O)[O-])cc7F)c7ccc4[nH]7)C=C6)C=C5)cc3)n(CC(C)C)c(=O)c2[nH]1
REMARK SMILES IDX 12 1 11 2 9 3 10 4 8 5 7 6 6 7 1 8 2 9 3 10 91 11 4 12 90 13
REMARK SMILES IDX 5 15 88 16 83 17 89 18 84 19 85 20 86 21 87 22 13 23 14 24
REMARK SMILES IDX 15 25 16 26 17 27 18 28 82 29 19 30 81 31 20 32 21 33 22 34
REMARK SMILES IDX 75 35 23 36 80 37 74 38 76 39 24 40 79 41 73 42 72 43 25 45
REMARK SMILES IDX 59 46 38 47 58 48 39 49 42 50 57 51 77 52 40 53 41 54 56 56
REMARK SMILES IDX 78 57 43 58 26 59 27 60 36 61 28 62 29 63 35 64 37 65 30 66
REMARK SMILES IDX 31 67 32 68 33 69 34 70 60 71 61 72 70 73 62 74 63 75 69 76
REMARK SMILES IDX 71 77 64 78 65 79 66 80 67 81 68 82 44 83 45 84 54 85 46 86
REMARK SMILES IDX 47 87 53 88 55 89 48 90 49 91 50 92 51 93 52 94
REMARK H PARENT 91 14 76 44 42 55
REMARK Flexibility Score: inf
ROOT
ATOM      1  C   UNL A   1      33.872  31.631  27.694  1.00  0.00     0.274 C 
ENDROOT
BRANCH   1   2
ATOM      2  O   UNL A   1      34.314  30.272  27.781  1.00  0.00    -0.461 OA
BRANCH   2   3
ATOM      3  C   UNL A   1      33.676  29.409  26.951  1.00  0.00     0.316 C 
ATOM      4  O   UNL A   1      34.285  28.542  26.338  1.00  0.00    -0.251 OA
BRANCH   3   5
ATOM      5  C   UNL A   1      32.158  29.655  26.895  1.00  0.00     0.200 C 
BRANCH   5   6
ATOM      6  S   UNL A   1      31.583  29.819  25.164  1.00  0.00    -0.076 SA
BRANCH   6   7
ATOM      7  C   UNL A   1      30.984  28.246  24.672  1.00  0.00     0.172 A 
ATOM      8  C   UNL A   1      31.558  22.563  24.030  1.00  0.00     0.064 C 
ATOM      9  C   UNL A   1      30.979  23.869  24.425  1.00  0.00     0.014 A 
ATOM     10  C   UNL A   1      31.110  24.730  25.519  1.00  0.00     0.052 A 
ATOM     11  N   UNL A   1      30.238  24.547  23.487  1.00  0.00    -0.353 N 
ATOM     12  C   UNL A   1      30.741  26.019  25.047  1.00  0.00     0.097 A 
ATOM     13  C   UNL A   1      30.545  25.847  23.715  1.00  0.00     0.131 A 
ATOM     14  H   UNL A   1      29.629  24.175  22.808  1.00  0.00     0.166 HD
ATOM     15  N   UNL A   1      31.011  27.296  25.572  1.00  0.00    -0.222 NA
ATOM     16  C   UNL A   1      30.929  26.827  22.785  1.00  0.00     0.278 A 
ATOM     17  N   UNL A   1      30.797  28.094  23.282  1.00  0.00    -0.286 N 
ATOM     18  O   UNL A   1      31.457  26.564  21.717  1.00  0.00    -0.267 OA
BRANCH  17  19
ATOM     19  C   UNL A   1      30.025  28.966  22.395  1.00  0.00     0.131 C 
BRANCH  19  20
ATOM     20  C   UNL A   1      28.483  29.228  22.514  1.00  0.00     0.003 C 
ATOM     21  C   UNL A   1      27.716  28.190  23.343  1.00  0.00     0.009 C 
ATOM     22  C   UNL A   1      28.105  30.531  23.265  1.00  0.00     0.009 C 
ENDBRANCH  19  20
ENDBRANCH  17  19
ENDBRANCH   6   7
ENDBRANCH   5   6
ENDBRANCH   3   5
ENDBRANCH   2   3
ENDBRANCH   1   2
BRANCH   1  23
ATOM     23  C   UNL A   1      34.906  32.598  28.279  1.00  0.00     0.275 C 
BRANCH  23  24
ATOM     24  O   UNL A   1      34.868  33.093  29.669  1.00  0.00    -0.458 OA
BRANCH  24  25
ATOM     25  C   UNL A   1      35.090  32.317  30.779  1.00  0.00     0.338 C 
ATOM     26  O   UNL A   1      34.314  32.306  31.724  1.00  0.00    -0.246 OA
BRANCH  25  27
ATOM     27  C   UNL A   1      36.351  31.455  30.844  1.00  0.00     0.060 A 
ATOM     28  C   UNL A   1      37.601  32.100  30.975  1.00  0.00     0.016 A 
ATOM     29  C   UNL A   1      36.386  30.076  30.630  1.00  0.00     0.016 A 
ATOM     30  C   UNL A   1      38.824  31.433  30.685  1.00  0.00     0.010 A 
ATOM     31  C   UNL A   1      37.609  29.420  30.306  1.00  0.00     0.010 A 
ATOM     32  C   UNL A   1      38.844  30.101  30.239  1.00  0.00    -0.014 A 
BRANCH  32  33
ATOM     33  C   UNL A   1      40.150  29.394  30.002  1.00  0.00     0.031 A 
ATOM     34  C   UNL A   1      40.872  29.244  31.280  1.00  0.00     0.074 A 
ATOM     35  C   UNL A   1      40.738  28.747  28.952  1.00  0.00     0.049 A 
ATOM     36  N   UNL A   1      41.789  30.012  31.761  1.00  0.00    -0.248 NA
ATOM     37  C   UNL A   1      40.361  28.229  32.210  1.00  0.00     0.031 C 
ATOM     38  C   UNL A   1      40.132  28.349  27.695  1.00  0.00     0.029 A 
ATOM     39  N   UNL A   1      42.020  28.229  28.804  1.00  0.00    -0.354 N 
ATOM     40  C   UNL A   1      42.121  29.429  32.973  1.00  0.00     0.074 A 
ATOM     41  C   UNL A   1      41.036  28.545  33.314  1.00  0.00     0.031 C 
ATOM     42  C   UNL A   1      40.956  27.558  26.971  1.00  0.00     0.029 A 
ATOM     43  C   UNL A   1      42.220  27.422  27.667  1.00  0.00     0.049 A 
ATOM     44  H   UNL A   1      42.739  28.415  29.450  1.00  0.00     0.167 HD
ATOM     45  C   UNL A   1      43.389  29.453  33.459  1.00  0.00     0.037 A 
ATOM     46  C   UNL A   1      43.305  26.667  27.309  1.00  0.00     0.037 A 
ATOM     47  C   UNL A   1      44.223  30.402  32.768  1.00  0.00     0.049 A 
ATOM     48  C   UNL A   1      44.466  27.176  28.075  1.00  0.00     0.074 A 
ATOM     49  C   UNL A   1      44.126  31.750  32.477  1.00  0.00     0.029 A 
ATOM     50  N   UNL A   1      45.198  29.910  31.936  1.00  0.00    -0.354 N 
ATOM     51  N   UNL A   1      45.022  28.339  27.888  1.00  0.00    -0.248 NA
ATOM     52  C   UNL A   1      44.753  26.539  29.350  1.00  0.00     0.031 C 
ATOM     53  C   UNL A   1      44.693  31.893  31.178  1.00  0.00     0.029 A 
ATOM     54  C   UNL A   1      45.153  30.639  30.775  1.00  0.00     0.049 A 
ATOM     55  H   UNL A   1      45.816  29.171  32.135  1.00  0.00     0.167 HD
ATOM     56  C   UNL A   1      45.358  28.771  29.161  1.00  0.00     0.074 A 
ATOM     57  C   UNL A   1      45.244  27.589  30.010  1.00  0.00     0.031 C 
ATOM     58  C   UNL A   1      45.423  30.099  29.461  1.00  0.00     0.037 A 
BRANCH  45  59
ATOM     59  C   UNL A   1      43.941  28.346  34.314  1.00  0.00     0.058 A 
ATOM     60  C   UNL A   1      44.001  27.039  33.804  1.00  0.00     0.135 A 
ATOM     61  C   UNL A   1      44.209  28.481  35.697  1.00  0.00     0.135 A 
ATOM     62  F   UNL A   1      43.710  26.798  32.515  1.00  0.00    -0.206 F 
ATOM     63  C   UNL A   1      44.288  25.942  34.614  1.00  0.00     0.059 A 
ATOM     64  C   UNL A   1      44.574  27.417  36.505  1.00  0.00     0.059 A 
ATOM     65  F   UNL A   1      44.034  29.637  36.351  1.00  0.00    -0.206 F 
ATOM     66  C   UNL A   1      44.574  26.144  35.963  1.00  0.00     0.060 A 
BRANCH  66  67
ATOM     67  S   UNL A   1      44.871  24.726  37.029  1.00  0.00     0.124 S 
ATOM     68  O   UNL A   1      46.320  24.779  37.176  1.00  0.00    -0.237 OA
ATOM     69  O   UNL A   1      44.090  25.071  38.213  1.00  0.00    -0.237 OA
ATOM     70  O   UNL A   1      44.354  23.606  36.248  1.00  0.00    -0.744 OA
ENDBRANCH  66  67
ENDBRANCH  45  59
BRANCH  46  71
ATOM     71  C   UNL A   1      43.393  25.385  26.523  1.00  0.00     0.058 A 
ATOM     72  C   UNL A   1      44.233  25.235  25.392  1.00  0.00     0.135 A 
ATOM     73  C   UNL A   1      42.861  24.182  27.027  1.00  0.00     0.135 A 
ATOM     74  F   UNL A   1      44.817  26.308  24.836  1.00  0.00    -0.206 F 
ATOM     75  C   UNL A   1      44.557  23.980  24.841  1.00  0.00     0.059 A 
ATOM     76  C   UNL A   1      43.154  22.926  26.488  1.00  0.00     0.059 A 
ATOM     77  F   UNL A   1      42.105  24.176  28.134  1.00  0.00    -0.206 F 
ATOM     78  C   UNL A   1      44.027  22.825  25.413  1.00  0.00     0.060 A 
BRANCH  78  79
ATOM     79  S   UNL A   1      44.573  21.193  24.842  1.00  0.00     0.124 S 
ATOM     80  O   UNL A   1      43.524  20.319  25.355  1.00  0.00    -0.237 OA
ATOM     81  O   UNL A   1      44.607  21.367  23.394  1.00  0.00    -0.237 OA
ATOM     82  O   UNL A   1      45.881  21.032  25.474  1.00  0.00    -0.744 OA
ENDBRANCH  78  79
ENDBRANCH  46  71
BRANCH  58  83
ATOM     83  C   UNL A   1      45.537  31.096  28.340  1.00  0.00     0.058 A 
ATOM     84  C   UNL A   1      44.456  31.580  27.585  1.00  0.00     0.135 A 
ATOM     85  C   UNL A   1      46.780  31.730  28.166  1.00  0.00     0.135 A 
ATOM     86  F   UNL A   1      43.218  31.085  27.744  1.00  0.00    -0.206 F 
ATOM     87  C   UNL A   1      44.615  32.645  26.695  1.00  0.00     0.059 A 
ATOM     88  C   UNL A   1      46.953  32.802  27.296  1.00  0.00     0.059 A 
ATOM     89  F   UNL A   1      47.837  31.344  28.901  1.00  0.00    -0.206 F 
ATOM     90  C   UNL A   1      45.864  33.252  26.559  1.00  0.00     0.060 A 
BRANCH  90  91
ATOM     91  S   UNL A   1      46.029  34.685  25.469  1.00  0.00     0.124 S 
ATOM     92  O   UNL A   1      47.456  34.677  25.168  1.00  0.00    -0.237 OA
ATOM     93  O   UNL A   1      45.144  34.341  24.360  1.00  0.00    -0.237 OA
ATOM     94  O   UNL A   1      45.570  35.797  26.298  1.00  0.00    -0.744 OA
ENDBRANCH  90  91
ENDBRANCH  58  83
ENDBRANCH  32  33
ENDBRANCH  25  27
ENDBRANCH  24  25
ENDBRANCH  23  24
ENDBRANCH   1  23
TORSDOF 18
ENDMDL
