MODEL 1
REMARK VINA RESULT:     -10.4      0.000      0.000
REMARK SMILES CC(C)(CNC(=O)NCc1cccs1)C(=O)OCCOC(=O)c1ccc(-c2c3nc(c(-c4c(F)cc(S(=O)(=O)[O-])cc4F)c4ccc([nH]4)c(-c4c(F)cc(S(=O)(=O)[O-])cc4F)c4nc(c(-c5c(F)cc(S(=O)(=O)[O-])cc5F)c5ccc2[nH]5)C=C4)C=C3)cc1
REMARK SMILES IDX 18 1 17 2 15 3 16 4 2 5 1 6 3 7 4 8 5 9 6 10 7 12 8 13 9 15
REMARK SMILES IDX 10 16 11 17 14 18 12 19 13 20 19 21 20 22 21 23 22 24 23 25
REMARK SMILES IDX 24 26 88 27 25 28 87 29 26 30 27 31 28 32 81 33 29 34 86 35
REMARK SMILES IDX 80 36 82 37 30 38 85 39 79 40 78 41 31 43 65 44 44 45 64 46
REMARK SMILES IDX 45 47 48 48 63 49 83 50 46 51 47 52 62 54 84 55 49 56 32 57
REMARK SMILES IDX 33 58 42 59 34 60 35 61 41 62 43 63 36 64 37 65 38 66 39 67
REMARK SMILES IDX 40 68 66 69 67 70 76 71 68 72 69 73 75 74 77 75 70 76 71 77
REMARK SMILES IDX 72 78 73 79 74 80 50 81 51 82 60 83 52 84 53 85 59 86 61 87
REMARK SMILES IDX 54 88 55 89 56 90 57 91 58 92
REMARK H PARENT 5 11 8 14 82 42 48 53
REMARK Flexibility Score: inf
ROOT
ATOM      1  C   UNL A   1      33.303  34.140  28.328  1.00  0.00     0.274 C 
ENDROOT
BRANCH   1   2
ATOM      2  O   UNL A   1      33.165  34.395  29.743  1.00  0.00    -0.462 OA
BRANCH   2   3
ATOM      3  C   UNL A   1      33.010  35.688  30.120  1.00  0.00     0.313 C 
ATOM      4  O   UNL A   1      32.768  36.601  29.336  1.00  0.00    -0.252 OA
BRANCH   3   5
ATOM      5  C   UNL A   1      33.257  35.931  31.614  1.00  0.00     0.080 C 
ATOM      6  C   UNL A   1      31.965  35.638  32.403  1.00  0.00     0.025 C 
ATOM      7  C   UNL A   1      33.563  37.436  31.735  1.00  0.00     0.025 C 
BRANCH   5   8
ATOM      8  C   UNL A   1      34.433  35.149  32.239  1.00  0.00     0.135 C 
BRANCH   8   9
ATOM      9  N   UNL A   1      35.439  34.682  31.303  1.00  0.00    -0.337 N 
ATOM     10  C   UNL A   1      36.629  34.087  31.427  1.00  0.00     0.315 C 
ATOM     11  H   UNL A   1      35.189  34.840  30.365  1.00  0.00     0.165 HD
ATOM     12  O   UNL A   1      37.163  33.660  30.401  1.00  0.00    -0.249 OA
ATOM     13  N   UNL A   1      37.281  33.907  32.576  1.00  0.00    -0.333 N 
ATOM     14  H   UNL A   1      38.148  33.461  32.446  1.00  0.00     0.165 HD
BRANCH  13  15
ATOM     15  C   UNL A   1      37.023  34.206  33.965  1.00  0.00     0.164 C 
BRANCH  15  16
ATOM     16  C   UNL A   1      37.440  33.064  34.840  1.00  0.00     0.024 A 
ATOM     17  C   UNL A   1      37.732  31.753  34.511  1.00  0.00     0.017 A 
ATOM     18  S   UNL A   1      37.637  33.337  36.526  1.00  0.00    -0.147 S 
ATOM     19  C   UNL A   1      38.125  30.979  35.640  1.00  0.00     0.012 A 
ATOM     20  C   UNL A   1      38.116  31.720  36.799  1.00  0.00     0.065 A 
ENDBRANCH  15  16
ENDBRANCH  13  15
ENDBRANCH   8   9
ENDBRANCH   5   8
ENDBRANCH   3   5
ENDBRANCH   2   3
ENDBRANCH   1   2
BRANCH   1  21
ATOM     21  C   UNL A   1      34.454  33.171  28.070  1.00  0.00     0.275 C 
BRANCH  21  22
ATOM     22  O   UNL A   1      34.205  31.970  28.810  1.00  0.00    -0.458 OA
BRANCH  22  23
ATOM     23  C   UNL A   1      34.373  30.808  28.142  1.00  0.00     0.338 C 
ATOM     24  O   UNL A   1      33.531  30.219  27.482  1.00  0.00    -0.246 OA
BRANCH  23  25
ATOM     25  C   UNL A   1      35.753  30.322  28.367  1.00  0.00     0.060 A 
ATOM     26  C   UNL A   1      36.688  30.307  27.329  1.00  0.00     0.016 A 
ATOM     27  C   UNL A   1      36.122  29.868  29.632  1.00  0.00     0.016 A 
ATOM     28  C   UNL A   1      37.974  29.812  27.536  1.00  0.00     0.010 A 
ATOM     29  C   UNL A   1      37.442  29.468  29.865  1.00  0.00     0.010 A 
ATOM     30  C   UNL A   1      38.384  29.440  28.821  1.00  0.00    -0.014 A 
BRANCH  30  31
ATOM     31  C   UNL A   1      39.802  29.084  29.098  1.00  0.00     0.031 A 
ATOM     32  C   UNL A   1      40.762  30.127  29.596  1.00  0.00     0.074 A 
ATOM     33  C   UNL A   1      40.239  27.833  28.841  1.00  0.00     0.049 A 
ATOM     34  N   UNL A   1      42.068  30.087  29.652  1.00  0.00    -0.248 NA
ATOM     35  C   UNL A   1      40.178  31.389  30.079  1.00  0.00     0.031 C 
ATOM     36  C   UNL A   1      39.403  26.717  28.386  1.00  0.00     0.029 A 
ATOM     37  N   UNL A   1      41.499  27.289  28.908  1.00  0.00    -0.354 N 
ATOM     38  C   UNL A   1      42.467  31.332  30.126  1.00  0.00     0.074 A 
ATOM     39  C   UNL A   1      41.263  32.105  30.347  1.00  0.00     0.031 C 
ATOM     40  C   UNL A   1      40.164  25.626  28.229  1.00  0.00     0.029 A 
ATOM     41  C   UNL A   1      41.555  25.984  28.475  1.00  0.00     0.049 A 
ATOM     42  H   UNL A   1      42.284  27.785  29.234  1.00  0.00     0.167 HD
ATOM     43  C   UNL A   1      43.725  31.784  30.345  1.00  0.00     0.037 A 
ATOM     44  C   UNL A   1      42.608  25.180  28.232  1.00  0.00     0.037 A 
ATOM     45  C   UNL A   1      44.910  30.987  30.154  1.00  0.00     0.049 A 
ATOM     46  C   UNL A   1      43.994  25.719  28.431  1.00  0.00     0.074 A 
ATOM     47  C   UNL A   1      46.230  31.337  30.384  1.00  0.00     0.029 A 
ATOM     48  N   UNL A   1      44.920  29.680  29.688  1.00  0.00    -0.354 N 
ATOM     49  N   UNL A   1      44.359  26.908  28.849  1.00  0.00    -0.248 NA
ATOM     50  C   UNL A   1      45.109  24.825  28.099  1.00  0.00     0.031 C 
ATOM     51  C   UNL A   1      47.040  30.256  30.019  1.00  0.00     0.029 A 
ATOM     52  C   UNL A   1      46.223  29.218  29.599  1.00  0.00     0.049 A 
ATOM     53  H   UNL A   1      44.118  29.157  29.456  1.00  0.00     0.167 HD
ATOM     54  C   UNL A   1      45.747  26.906  28.824  1.00  0.00     0.074 A 
ATOM     55  C   UNL A   1      46.156  25.590  28.377  1.00  0.00     0.031 C 
ATOM     56  C   UNL A   1      46.607  27.907  29.136  1.00  0.00     0.037 A 
BRANCH  43  57
ATOM     57  C   UNL A   1      43.893  33.213  30.781  1.00  0.00     0.058 A 
ATOM     58  C   UNL A   1      44.072  34.257  29.861  1.00  0.00     0.135 A 
ATOM     59  C   UNL A   1      43.825  33.549  32.144  1.00  0.00     0.135 A 
ATOM     60  F   UNL A   1      44.161  33.992  28.547  1.00  0.00    -0.206 F 
ATOM     61  C   UNL A   1      44.198  35.580  30.276  1.00  0.00     0.059 A 
ATOM     62  C   UNL A   1      43.926  34.867  32.581  1.00  0.00     0.059 A 
ATOM     63  F   UNL A   1      43.655  32.589  33.068  1.00  0.00    -0.206 F 
ATOM     64  C   UNL A   1      44.123  35.875  31.639  1.00  0.00     0.060 A 
BRANCH  64  65
ATOM     65  S   UNL A   1      44.275  37.597  32.162  1.00  0.00     0.124 S 
ATOM     66  O   UNL A   1      45.692  37.675  32.502  1.00  0.00    -0.237 OA
ATOM     67  O   UNL A   1      43.870  38.325  30.963  1.00  0.00    -0.237 OA
ATOM     68  O   UNL A   1      43.353  37.692  33.289  1.00  0.00    -0.744 OA
ENDBRANCH  64  65
ENDBRANCH  43  57
BRANCH  44  69
ATOM     69  C   UNL A   1      42.380  23.806  27.709  1.00  0.00     0.058 A 
ATOM     70  C   UNL A   1      42.252  23.567  26.334  1.00  0.00     0.135 A 
ATOM     71  C   UNL A   1      42.333  22.699  28.572  1.00  0.00     0.135 A 
ATOM     72  F   UNL A   1      42.278  24.594  25.471  1.00  0.00    -0.206 F 
ATOM     73  C   UNL A   1      42.089  22.280  25.831  1.00  0.00     0.059 A 
ATOM     74  C   UNL A   1      42.198  21.401  28.092  1.00  0.00     0.059 A 
ATOM     75  F   UNL A   1      42.462  22.873  29.897  1.00  0.00    -0.206 F 
ATOM     76  C   UNL A   1      42.072  21.203  26.718  1.00  0.00     0.060 A 
BRANCH  76  77
ATOM     77  S   UNL A   1      41.939  19.529  26.052  1.00  0.00     0.124 S 
ATOM     78  O   UNL A   1      42.469  18.733  27.153  1.00  0.00    -0.237 OA
ATOM     79  O   UNL A   1      40.505  19.405  25.809  1.00  0.00    -0.237 OA
ATOM     80  O   UNL A   1      42.768  19.580  24.851  1.00  0.00    -0.744 OA
ENDBRANCH  76  77
ENDBRANCH  44  69
BRANCH  56  81
ATOM     81  C   UNL A   1      48.072  27.613  29.003  1.00  0.00     0.058 A 
ATOM     82  C   UNL A   1      48.738  27.766  27.778  1.00  0.00     0.135 A 
ATOM     83  C   UNL A   1      48.826  27.216  30.118  1.00  0.00     0.135 A 
ATOM     84  F   UNL A   1      48.056  28.131  26.680  1.00  0.00    -0.206 F 
ATOM     85  C   UNL A   1      50.101  27.522  27.658  1.00  0.00     0.059 A 
ATOM     86  C   UNL A   1      50.195  26.988  30.027  1.00  0.00     0.059 A 
ATOM     87  F   UNL A   1      48.235  27.061  31.314  1.00  0.00    -0.206 F 
ATOM     88  C   UNL A   1      50.823  27.136  28.790  1.00  0.00     0.060 A 
BRANCH  88  89
ATOM     89  S   UNL A   1      52.599  26.859  28.631  1.00  0.00     0.124 S 
ATOM     90  O   UNL A   1      52.663  26.046  27.422  1.00  0.00    -0.237 OA
ATOM     91  O   UNL A   1      53.118  28.217  28.511  1.00  0.00    -0.237 OA
ATOM     92  O   UNL A   1      52.947  26.171  29.870  1.00  0.00    -0.744 OA
ENDBRANCH  88  89
ENDBRANCH  56  81
ENDBRANCH  30  31
ENDBRANCH  23  25
ENDBRANCH  22  23
ENDBRANCH  21  22
ENDBRANCH   1  21
TORSDOF 18
ENDMDL
MODEL 2
REMARK VINA RESULT:     -10.0      0.963      1.983
REMARK SMILES CC(C)(CNC(=O)NCc1cccs1)C(=O)OCCOC(=O)c1ccc(-c2c3nc(c(-c4c(F)cc(S(=O)(=O)[O-])cc4F)c4ccc([nH]4)c(-c4c(F)cc(S(=O)(=O)[O-])cc4F)c4nc(c(-c5c(F)cc(S(=O)(=O)[O-])cc5F)c5ccc2[nH]5)C=C4)C=C3)cc1
REMARK SMILES IDX 18 1 17 2 15 3 16 4 2 5 1 6 3 7 4 8 5 9 6 10 7 12 8 13 9 15
REMARK SMILES IDX 10 16 11 17 14 18 12 19 13 20 19 21 20 22 21 23 22 24 23 25
REMARK SMILES IDX 24 26 88 27 25 28 87 29 26 30 27 31 28 32 81 33 29 34 86 35
REMARK SMILES IDX 80 36 82 37 30 38 85 39 79 40 78 41 31 43 65 44 44 45 64 46
REMARK SMILES IDX 45 47 48 48 63 49 83 50 46 51 47 52 62 54 84 55 49 56 32 57
REMARK SMILES IDX 33 58 42 59 34 60 35 61 41 62 43 63 36 64 37 65 38 66 39 67
REMARK SMILES IDX 40 68 66 69 67 70 76 71 68 72 69 73 75 74 77 75 70 76 71 77
REMARK SMILES IDX 72 78 73 79 74 80 50 81 51 82 60 83 52 84 53 85 59 86 61 87
REMARK SMILES IDX 54 88 55 89 56 90 57 91 58 92
REMARK H PARENT 5 11 8 14 82 42 48 53
REMARK Flexibility Score: inf
ROOT
ATOM      1  C   UNL A   1      33.549  33.905  28.625  1.00  0.00     0.274 C 
ENDROOT
BRANCH   1   2
ATOM      2  O   UNL A   1      34.030  35.040  29.378  1.00  0.00    -0.462 OA
BRANCH   2   3
ATOM      3  C   UNL A   1      33.094  35.827  29.964  1.00  0.00     0.313 C 
ATOM      4  O   UNL A   1      32.213  36.415  29.344  1.00  0.00    -0.252 OA
BRANCH   3   5
ATOM      5  C   UNL A   1      33.289  35.997  31.476  1.00  0.00     0.080 C 
ATOM      6  C   UNL A   1      32.035  35.490  32.216  1.00  0.00     0.025 C 
ATOM      7  C   UNL A   1      33.399  37.517  31.702  1.00  0.00     0.025 C 
BRANCH   5   8
ATOM      8  C   UNL A   1      34.546  35.329  32.074  1.00  0.00     0.135 C 
BRANCH   8   9
ATOM      9  N   UNL A   1      34.633  33.891  31.895  1.00  0.00    -0.337 N 
ATOM     10  C   UNL A   1      35.216  32.897  32.571  1.00  0.00     0.315 C 
ATOM     11  H   UNL A   1      34.156  33.577  31.094  1.00  0.00     0.165 HD
ATOM     12  O   UNL A   1      34.946  31.743  32.233  1.00  0.00    -0.249 OA
ATOM     13  N   UNL A   1      36.058  33.054  33.593  1.00  0.00    -0.333 N 
ATOM     14  H   UNL A   1      36.386  32.194  33.941  1.00  0.00     0.165 HD
BRANCH  13  15
ATOM     15  C   UNL A   1      36.605  34.179  34.313  1.00  0.00     0.164 C 
BRANCH  15  16
ATOM     16  C   UNL A   1      38.071  34.324  34.037  1.00  0.00     0.024 A 
ATOM     17  C   UNL A   1      39.140  34.365  34.914  1.00  0.00     0.017 A 
ATOM     18  S   UNL A   1      38.603  34.436  32.407  1.00  0.00    -0.147 S 
ATOM     19  C   UNL A   1      40.392  34.481  34.246  1.00  0.00     0.012 A 
ATOM     20  C   UNL A   1      40.243  34.529  32.878  1.00  0.00     0.065 A 
ENDBRANCH  15  16
ENDBRANCH  13  15
ENDBRANCH   8   9
ENDBRANCH   5   8
ENDBRANCH   3   5
ENDBRANCH   2   3
ENDBRANCH   1   2
BRANCH   1  21
ATOM     21  C   UNL A   1      34.673  32.896  28.403  1.00  0.00     0.275 C 
BRANCH  21  22
ATOM     22  O   UNL A   1      34.232  31.620  28.883  1.00  0.00    -0.458 OA
BRANCH  22  23
ATOM     23  C   UNL A   1      34.494  30.559  28.090  1.00  0.00     0.338 C 
ATOM     24  O   UNL A   1      33.717  30.016  27.319  1.00  0.00    -0.246 OA
BRANCH  23  25
ATOM     25  C   UNL A   1      35.886  30.113  28.329  1.00  0.00     0.060 A 
ATOM     26  C   UNL A   1      36.828  30.113  27.297  1.00  0.00     0.016 A 
ATOM     27  C   UNL A   1      36.258  29.684  29.601  1.00  0.00     0.016 A 
ATOM     28  C   UNL A   1      38.125  29.656  27.518  1.00  0.00     0.010 A 
ATOM     29  C   UNL A   1      37.587  29.323  29.848  1.00  0.00     0.010 A 
ATOM     30  C   UNL A   1      38.536  29.310  28.810  1.00  0.00    -0.014 A 
BRANCH  30  31
ATOM     31  C   UNL A   1      39.962  28.997  29.100  1.00  0.00     0.031 A 
ATOM     32  C   UNL A   1      40.884  30.066  29.615  1.00  0.00     0.074 A 
ATOM     33  C   UNL A   1      40.441  27.761  28.840  1.00  0.00     0.049 A 
ATOM     34  N   UNL A   1      42.189  30.066  29.686  1.00  0.00    -0.248 NA
ATOM     35  C   UNL A   1      40.256  31.305  30.100  1.00  0.00     0.031 C 
ATOM     36  C   UNL A   1      39.645  26.624  28.368  1.00  0.00     0.029 A 
ATOM     37  N   UNL A   1      41.716  27.257  28.917  1.00  0.00    -0.354 N 
ATOM     38  C   UNL A   1      42.544  31.319  30.172  1.00  0.00     0.074 A 
ATOM     39  C   UNL A   1      41.314  32.053  30.385  1.00  0.00     0.031 C 
ATOM     40  C   UNL A   1      40.441  25.558  28.212  1.00  0.00     0.029 A 
ATOM     41  C   UNL A   1      41.818  25.957  28.476  1.00  0.00     0.049 A 
ATOM     42  H   UNL A   1      42.482  27.775  29.254  1.00  0.00     0.167 HD
ATOM     43  C   UNL A   1      43.785  31.809  30.408  1.00  0.00     0.037 A 
ATOM     44  C   UNL A   1      42.898  25.188  28.239  1.00  0.00     0.037 A 
ATOM     45  C   UNL A   1      44.996  31.051  30.224  1.00  0.00     0.049 A 
ATOM     46  C   UNL A   1      44.264  25.769  28.457  1.00  0.00     0.074 A 
ATOM     47  C   UNL A   1      46.302  31.440  30.471  1.00  0.00     0.029 A 
ATOM     48  N   UNL A   1      45.052  29.748  29.750  1.00  0.00    -0.354 N 
ATOM     49  N   UNL A   1      44.587  26.966  28.886  1.00  0.00    -0.248 NA
ATOM     50  C   UNL A   1      45.410  24.912  28.131  1.00  0.00     0.031 C 
ATOM     51  C   UNL A   1      47.149  30.388  30.108  1.00  0.00     0.029 A 
ATOM     52  C   UNL A   1      46.370  29.328  29.672  1.00  0.00     0.049 A 
ATOM     53  H   UNL A   1      44.270  29.202  29.506  1.00  0.00     0.167 HD
ATOM     54  C   UNL A   1      45.975  27.008  28.877  1.00  0.00     0.074 A 
ATOM     55  C   UNL A   1      46.430  25.708  28.425  1.00  0.00     0.031 C 
ATOM     56  C   UNL A   1      46.800  28.033  29.205  1.00  0.00     0.037 A 
BRANCH  43  57
ATOM     57  C   UNL A   1      43.903  33.240  30.855  1.00  0.00     0.058 A 
ATOM     58  C   UNL A   1      43.954  33.596  32.211  1.00  0.00     0.135 A 
ATOM     59  C   UNL A   1      44.016  34.270  29.905  1.00  0.00     0.135 A 
ATOM     60  F   UNL A   1      43.835  32.655  33.161  1.00  0.00    -0.206 F 
ATOM     61  C   UNL A   1      44.093  34.922  32.611  1.00  0.00     0.059 A 
ATOM     62  C   UNL A   1      44.177  35.600  30.281  1.00  0.00     0.059 A 
ATOM     63  F   UNL A   1      43.973  33.986  28.593  1.00  0.00    -0.206 F 
ATOM     64  C   UNL A   1      44.203  35.918  31.638  1.00  0.00     0.060 A 
BRANCH  64  65
ATOM     65  S   UNL A   1      44.396  37.632  32.171  1.00  0.00     0.124 S 
ATOM     66  O   UNL A   1      43.605  37.646  33.398  1.00  0.00    -0.237 OA
ATOM     67  O   UNL A   1      45.840  37.746  32.348  1.00  0.00    -0.237 OA
ATOM     68  O   UNL A   1      43.842  38.399  31.060  1.00  0.00    -0.744 OA
ENDBRANCH  64  65
ENDBRANCH  43  57
BRANCH  44  69
ATOM     69  C   UNL A   1      42.719  23.811  27.704  1.00  0.00     0.058 A 
ATOM     70  C   UNL A   1      42.551  22.718  28.564  1.00  0.00     0.135 A 
ATOM     71  C   UNL A   1      42.668  23.571  26.322  1.00  0.00     0.135 A 
ATOM     72  F   UNL A   1      42.605  22.895  29.893  1.00  0.00    -0.206 F 
ATOM     73  C   UNL A   1      42.334  21.434  28.073  1.00  0.00     0.059 A 
ATOM     74  C   UNL A   1      42.425  22.302  25.808  1.00  0.00     0.059 A 
ATOM     75  F   UNL A   1      42.812  24.588  25.456  1.00  0.00    -0.206 F 
ATOM     76  C   UNL A   1      42.264  21.238  26.693  1.00  0.00     0.060 A 
BRANCH  76  77
ATOM     77  S   UNL A   1      41.903  19.583  26.065  1.00  0.00     0.124 S 
ATOM     78  O   UNL A   1      40.471  19.675  25.804  1.00  0.00    -0.237 OA
ATOM     79  O   UNL A   1      42.762  19.505  24.886  1.00  0.00    -0.237 OA
ATOM     80  O   UNL A   1      42.291  18.714  27.171  1.00  0.00    -0.744 OA
ENDBRANCH  76  77
ENDBRANCH  44  69
BRANCH  56  81
ATOM     81  C   UNL A   1      48.275  27.786  29.086  1.00  0.00     0.058 A 
ATOM     82  C   UNL A   1      48.986  27.125  30.099  1.00  0.00     0.135 A 
ATOM     83  C   UNL A   1      48.975  28.175  27.934  1.00  0.00     0.135 A 
ATOM     84  F   UNL A   1      48.363  26.746  31.225  1.00  0.00    -0.206 F 
ATOM     85  C   UNL A   1      50.348  26.869  29.979  1.00  0.00     0.059 A 
ATOM     86  C   UNL A   1      50.332  27.910  27.783  1.00  0.00     0.059 A 
ATOM     87  F   UNL A   1      48.337  28.806  26.935  1.00  0.00    -0.206 F 
ATOM     88  C   UNL A   1      51.012  27.264  28.815  1.00  0.00     0.060 A 
BRANCH  88  89
ATOM     89  S   UNL A   1      52.771  26.892  28.655  1.00  0.00     0.124 S 
ATOM     90  O   UNL A   1      52.778  25.999  27.502  1.00  0.00    -0.237 OA
ATOM     91  O   UNL A   1      53.352  28.213  28.438  1.00  0.00    -0.237 OA
ATOM     92  O   UNL A   1      53.104  26.271  29.933  1.00  0.00    -0.744 OA
ENDBRANCH  88  89
ENDBRANCH  56  81
ENDBRANCH  30  31
ENDBRANCH  23  25
ENDBRANCH  22  23
ENDBRANCH  21  22
ENDBRANCH   1  21
TORSDOF 18
ENDMDL
MODEL 3
REMARK VINA RESULT:      -9.9      3.376      6.031
REMARK SMILES CC(C)(CNC(=O)NCc1cccs1)C(=O)OCCOC(=O)c1ccc(-c2c3nc(c(-c4c(F)cc(S(=O)(=O)[O-])cc4F)c4ccc([nH]4)c(-c4c(F)cc(S(=O)(=O)[O-])cc4F)c4nc(c(-c5c(F)cc(S(=O)(=O)[O-])cc5F)c5ccc2[nH]5)C=C4)C=C3)cc1
REMARK SMILES IDX 18 1 17 2 15 3 16 4 2 5 1 6 3 7 4 8 5 9 6 10 7 12 8 13 9 15
REMARK SMILES IDX 10 16 11 17 14 18 12 19 13 20 19 21 20 22 21 23 22 24 23 25
REMARK SMILES IDX 24 26 88 27 25 28 87 29 26 30 27 31 28 32 81 33 29 34 86 35
REMARK SMILES IDX 80 36 82 37 30 38 85 39 79 40 78 41 31 43 65 44 44 45 64 46
REMARK SMILES IDX 45 47 48 48 63 49 83 50 46 51 47 52 62 54 84 55 49 56 32 57
REMARK SMILES IDX 33 58 42 59 34 60 35 61 41 62 43 63 36 64 37 65 38 66 39 67
REMARK SMILES IDX 40 68 66 69 67 70 76 71 68 72 69 73 75 74 77 75 70 76 71 77
REMARK SMILES IDX 72 78 73 79 74 80 50 81 51 82 60 83 52 84 53 85 59 86 61 87
REMARK SMILES IDX 54 88 55 89 56 90 57 91 58 92
REMARK H PARENT 5 11 8 14 82 42 48 53
REMARK Flexibility Score: inf
ROOT
ATOM      1  C   UNL A   1      32.734  27.972  26.145  1.00  0.00     0.274 C 
ENDROOT
BRANCH   1   2
ATOM      2  O   UNL A   1      31.601  27.984  25.250  1.00  0.00    -0.462 OA
BRANCH   2   3
ATOM      3  C   UNL A   1      30.753  26.927  25.321  1.00  0.00     0.313 C 
ATOM      4  O   UNL A   1      30.425  26.388  26.373  1.00  0.00    -0.252 OA
BRANCH   3   5
ATOM      5  C   UNL A   1      30.308  26.399  23.953  1.00  0.00     0.080 C 
ATOM      6  C   UNL A   1      30.649  27.436  22.865  1.00  0.00     0.025 C 
ATOM      7  C   UNL A   1      28.774  26.283  24.042  1.00  0.00     0.025 C 
BRANCH   5   8
ATOM      8  C   UNL A   1      30.871  25.019  23.545  1.00  0.00     0.135 C 
BRANCH   8   9
ATOM      9  N   UNL A   1      30.497  23.913  24.409  1.00  0.00    -0.337 N 
ATOM     10  C   UNL A   1      31.053  23.327  25.473  1.00  0.00     0.315 C 
ATOM     11  H   UNL A   1      29.641  23.502  24.151  1.00  0.00     0.165 HD
ATOM     12  O   UNL A   1      30.373  22.503  26.088  1.00  0.00    -0.249 OA
ATOM     13  N   UNL A   1      32.280  23.573  25.931  1.00  0.00    -0.333 N 
ATOM     14  H   UNL A   1      32.501  23.024  26.717  1.00  0.00     0.165 HD
BRANCH  13  15
ATOM     15  C   UNL A   1      33.364  24.450  25.555  1.00  0.00     0.164 C 
BRANCH  15  16
ATOM     16  C   UNL A   1      34.592  23.660  25.217  1.00  0.00     0.024 A 
ATOM     17  C   UNL A   1      35.910  23.871  25.579  1.00  0.00     0.017 A 
ATOM     18  S   UNL A   1      34.431  22.243  24.259  1.00  0.00    -0.147 S 
ATOM     19  C   UNL A   1      36.783  22.864  25.076  1.00  0.00     0.012 A 
ATOM     20  C   UNL A   1      36.107  21.918  24.340  1.00  0.00     0.065 A 
ENDBRANCH  15  16
ENDBRANCH  13  15
ENDBRANCH   8   9
ENDBRANCH   5   8
ENDBRANCH   3   5
ENDBRANCH   2   3
ENDBRANCH   1   2
BRANCH   1  21
ATOM     21  C   UNL A   1      33.180  29.398  26.461  1.00  0.00     0.275 C 
BRANCH  21  22
ATOM     22  O   UNL A   1      33.686  29.424  27.801  1.00  0.00    -0.458 OA
BRANCH  22  23
ATOM     23  C   UNL A   1      34.430  30.499  28.140  1.00  0.00     0.338 C 
ATOM     24  O   UNL A   1      34.043  31.654  28.228  1.00  0.00    -0.246 OA
BRANCH  23  25
ATOM     25  C   UNL A   1      35.829  30.065  28.355  1.00  0.00     0.060 A 
ATOM     26  C   UNL A   1      36.765  30.118  27.319  1.00  0.00     0.016 A 
ATOM     27  C   UNL A   1      36.215  29.592  29.608  1.00  0.00     0.016 A 
ATOM     28  C   UNL A   1      38.070  29.672  27.516  1.00  0.00     0.010 A 
ATOM     29  C   UNL A   1      37.550  29.241  29.833  1.00  0.00     0.010 A 
ATOM     30  C   UNL A   1      38.493  29.281  28.791  1.00  0.00    -0.014 A 
BRANCH  30  31
ATOM     31  C   UNL A   1      39.925  28.978  29.061  1.00  0.00     0.031 A 
ATOM     32  C   UNL A   1      40.849  30.056  29.553  1.00  0.00     0.074 A 
ATOM     33  C   UNL A   1      40.406  27.743  28.804  1.00  0.00     0.049 A 
ATOM     34  N   UNL A   1      42.156  30.063  29.603  1.00  0.00    -0.248 NA
ATOM     35  C   UNL A   1      40.222  31.296  30.038  1.00  0.00     0.031 C 
ATOM     36  C   UNL A   1      39.608  26.597  28.354  1.00  0.00     0.029 A 
ATOM     37  N   UNL A   1      41.685  27.245  28.865  1.00  0.00    -0.354 N 
ATOM     38  C   UNL A   1      42.512  31.323  30.073  1.00  0.00     0.074 A 
ATOM     39  C   UNL A   1      41.281  32.052  30.299  1.00  0.00     0.031 C 
ATOM     40  C   UNL A   1      40.408  25.534  28.195  1.00  0.00     0.029 A 
ATOM     41  C   UNL A   1      41.786  25.942  28.434  1.00  0.00     0.049 A 
ATOM     42  H   UNL A   1      42.453  27.770  29.187  1.00  0.00     0.167 HD
ATOM     43  C   UNL A   1      43.753  31.821  30.286  1.00  0.00     0.037 A 
ATOM     44  C   UNL A   1      42.866  25.177  28.187  1.00  0.00     0.037 A 
ATOM     45  C   UNL A   1      44.966  31.067  30.090  1.00  0.00     0.049 A 
ATOM     46  C   UNL A   1      44.233  25.767  28.379  1.00  0.00     0.074 A 
ATOM     47  C   UNL A   1      46.273  31.465  30.313  1.00  0.00     0.029 A 
ATOM     48  N   UNL A   1      45.021  29.760  29.626  1.00  0.00    -0.354 N 
ATOM     49  N   UNL A   1      44.556  26.968  28.793  1.00  0.00    -0.248 NA
ATOM     50  C   UNL A   1      45.378  24.913  28.042  1.00  0.00     0.031 C 
ATOM     51  C   UNL A   1      47.120  30.413  29.945  1.00  0.00     0.029 A 
ATOM     52  C   UNL A   1      46.339  29.346  29.530  1.00  0.00     0.049 A 
ATOM     53  H   UNL A   1      44.238  29.208  29.398  1.00  0.00     0.167 HD
ATOM     54  C   UNL A   1      45.944  27.017  28.761  1.00  0.00     0.074 A 
ATOM     55  C   UNL A   1      46.398  25.716  28.314  1.00  0.00     0.031 C 
ATOM     56  C   UNL A   1      46.768  28.049  29.068  1.00  0.00     0.037 A 
BRANCH  43  57
ATOM     57  C   UNL A   1      43.871  33.256  30.718  1.00  0.00     0.058 A 
ATOM     58  C   UNL A   1      44.004  33.619  32.067  1.00  0.00     0.135 A 
ATOM     59  C   UNL A   1      43.900  34.283  29.759  1.00  0.00     0.135 A 
ATOM     60  F   UNL A   1      43.968  32.681  33.027  1.00  0.00    -0.206 F 
ATOM     61  C   UNL A   1      44.141  34.950  32.452  1.00  0.00     0.059 A 
ATOM     62  C   UNL A   1      44.058  35.618  30.119  1.00  0.00     0.059 A 
ATOM     63  F   UNL A   1      43.776  33.991  28.454  1.00  0.00    -0.206 F 
ATOM     64  C   UNL A   1      44.167  35.943  31.470  1.00  0.00     0.060 A 
BRANCH  64  65
ATOM     65  S   UNL A   1      44.359  37.664  31.984  1.00  0.00     0.124 S 
ATOM     66  O   UNL A   1      43.994  38.375  30.762  1.00  0.00    -0.237 OA
ATOM     67  O   UNL A   1      43.408  37.770  33.086  1.00  0.00    -0.237 OA
ATOM     68  O   UNL A   1      45.765  37.750  32.364  1.00  0.00    -0.744 OA
ENDBRANCH  64  65
ENDBRANCH  43  57
BRANCH  44  69
ATOM     69  C   UNL A   1      42.687  23.795  27.667  1.00  0.00     0.058 A 
ATOM     70  C   UNL A   1      42.735  22.687  28.524  1.00  0.00     0.135 A 
ATOM     71  C   UNL A   1      42.417  23.560  26.308  1.00  0.00     0.135 A 
ATOM     72  F   UNL A   1      43.002  22.859  29.827  1.00  0.00    -0.206 F 
ATOM     73  C   UNL A   1      42.519  21.395  28.055  1.00  0.00     0.059 A 
ATOM     74  C   UNL A   1      42.171  22.281  25.821  1.00  0.00     0.059 A 
ATOM     75  F   UNL A   1      42.349  24.589  25.449  1.00  0.00    -0.206 F 
ATOM     76  C   UNL A   1      42.229  21.203  26.703  1.00  0.00     0.060 A 
BRANCH  76  77
ATOM     77  S   UNL A   1      41.872  19.533  26.117  1.00  0.00     0.124 S 
ATOM     78  O   UNL A   1      42.283  18.727  27.260  1.00  0.00    -0.237 OA
ATOM     79  O   UNL A   1      40.435  19.594  25.865  1.00  0.00    -0.237 OA
ATOM     80  O   UNL A   1      42.704  19.412  24.924  1.00  0.00    -0.744 OA
ENDBRANCH  76  77
ENDBRANCH  44  69
BRANCH  56  81
ATOM     81  C   UNL A   1      48.242  27.809  28.928  1.00  0.00     0.058 A 
ATOM     82  C   UNL A   1      48.917  28.093  27.731  1.00  0.00     0.135 A 
ATOM     83  C   UNL A   1      48.995  27.330  30.012  1.00  0.00     0.135 A 
ATOM     84  F   UNL A   1      48.237  28.540  26.662  1.00  0.00    -0.206 F 
ATOM     85  C   UNL A   1      50.288  27.898  27.608  1.00  0.00     0.059 A 
ATOM     86  C   UNL A   1      50.371  27.149  29.918  1.00  0.00     0.059 A 
ATOM     87  F   UNL A   1      48.396  27.048  31.180  1.00  0.00    -0.206 F 
ATOM     88  C   UNL A   1      51.008  27.427  28.709  1.00  0.00     0.060 A 
BRANCH  88  89
ATOM     89  S   UNL A   1      52.793  27.215  28.549  1.00  0.00     0.124 S 
ATOM     90  O   UNL A   1      52.904  26.665  27.202  1.00  0.00    -0.237 OA
ATOM     91  O   UNL A   1      53.287  28.576  28.721  1.00  0.00    -0.237 OA
ATOM     92  O   UNL A   1      53.122  26.294  29.632  1.00  0.00    -0.744 OA
ENDBRANCH  88  89
ENDBRANCH  56  81
ENDBRANCH  30  31
ENDBRANCH  23  25
ENDBRANCH  22  23
ENDBRANCH  21  22
ENDBRANCH   1  21
TORSDOF 18
ENDMDL
