MODEL 1
REMARK VINA RESULT:     -10.1      0.000      0.000
REMARK SMILES CN(C)C(=O)c1ccc(N[C@@H]2CCC[C@H]2C(=O)OCCOC(=O)c2ccc(-c3c4nc(c(-c5c(F)cc(S(=O)(=O)[O-])cc5F)c5ccc([nH]5)c(-c5c(F)cc(S(=O)(=O)[O-])cc5F)c5nc(c(-c6c(F)cc(S(=O)(=O)[O-])cc6F)c6ccc3[nH]6)C=C5)C=C4)cc2)nc1
REMARK SMILES IDX 19 1 18 2 16 3 17 4 15 5 11 6 12 7 13 8 14 9 10 10 9 12 6 13
REMARK SMILES IDX 7 14 91 15 8 16 90 17 4 18 1 19 2 20 3 21 5 22 20 23 21 24
REMARK SMILES IDX 22 25 23 26 24 27 25 28 89 29 26 30 88 31 27 32 28 33 29 34
REMARK SMILES IDX 82 35 30 36 87 37 81 38 83 39 31 40 86 41 80 42 79 43 32 45
REMARK SMILES IDX 66 46 45 47 65 48 46 49 49 50 64 51 84 52 47 53 48 54 63 56
REMARK SMILES IDX 85 57 50 58 33 59 34 60 43 61 35 62 36 63 42 64 44 65 37 66
REMARK SMILES IDX 38 67 39 68 40 69 41 70 67 71 68 72 77 73 69 74 70 75 76 76
REMARK SMILES IDX 78 77 71 78 72 79 73 80 74 81 75 82 51 83 52 84 61 85 53 86
REMARK SMILES IDX 54 87 60 88 62 89 55 90 56 91 57 92 58 93 59 94
REMARK H PARENT 10 11 83 44 49 55
REMARK Flexibility Score: inf
ROOT
ATOM      1  C   UNL A   1      41.124  20.342  27.322  1.00  0.00     0.274 C 
ENDROOT
BRANCH   1   2
ATOM      2  O   UNL A   1      42.489  20.387  26.860  1.00  0.00    -0.462 OA
BRANCH   2   3
ATOM      3  C   UNL A   1      42.839  19.443  25.948  1.00  0.00     0.311 C 
ATOM      4  O   UNL A   1      42.290  18.352  25.839  1.00  0.00    -0.252 OA
BRANCH   3   5
ATOM      5  C   UNL A   1      44.038  19.826  25.112  1.00  0.00     0.121 C 
ATOM      6  C   UNL A   1      44.719  21.155  25.444  1.00  0.00     0.094 C 
ATOM      7  C   UNL A   1      46.157  21.005  24.933  1.00  0.00     0.026 C 
ATOM      8  C   UNL A   1      46.422  19.500  24.850  1.00  0.00     0.003 C 
ATOM      9  C   UNL A   1      45.154  18.805  25.322  1.00  0.00     0.017 C 
BRANCH   6  10
ATOM     10  N   UNL A   1      44.049  22.353  24.953  1.00  0.00    -0.366 N 
ATOM     11  H   UNL A   1      43.402  22.249  24.218  1.00  0.00     0.162 HD
BRANCH  10  12
ATOM     12  C   UNL A   1      44.261  23.629  25.449  1.00  0.00     0.126 A 
ATOM     13  C   UNL A   1      44.512  26.202  26.466  1.00  0.00     0.058 A 
ATOM     14  C   UNL A   1      44.184  25.161  27.326  1.00  0.00     0.019 A 
ATOM     15  C   UNL A   1      44.716  25.878  25.133  1.00  0.00     0.127 A 
ATOM     16  C   UNL A   1      44.078  23.863  26.814  1.00  0.00     0.047 A 
ATOM     17  N   UNL A   1      44.618  24.624  24.620  1.00  0.00    -0.239 NA
BRANCH  13  18
ATOM     18  C   UNL A   1      44.488  27.637  26.811  1.00  0.00     0.254 C 
ATOM     19  C   UNL A   1      45.376  29.655  27.832  1.00  0.00     0.146 C 
ATOM     20  N   UNL A   1      45.578  28.279  27.392  1.00  0.00    -0.345 N 
ATOM     21  C   UNL A   1      46.865  27.682  27.720  1.00  0.00     0.146 C 
ATOM     22  O   UNL A   1      43.438  28.225  26.545  1.00  0.00    -0.269 OA
ENDBRANCH  13  18
ENDBRANCH  10  12
ENDBRANCH   6  10
ENDBRANCH   3   5
ENDBRANCH   2   3
ENDBRANCH   1   2
BRANCH   1  23
ATOM     23  C   UNL A   1      40.184  21.059  26.353  1.00  0.00     0.275 C 
BRANCH  23  24
ATOM     24  O   UNL A   1      40.386  22.481  26.380  1.00  0.00    -0.458 OA
BRANCH  24  25
ATOM     25  C   UNL A   1      39.259  23.222  26.281  1.00  0.00     0.338 C 
ATOM     26  O   UNL A   1      38.214  22.913  25.735  1.00  0.00    -0.246 OA
BRANCH  25  27
ATOM     27  C   UNL A   1      39.456  24.494  26.989  1.00  0.00     0.060 A 
ATOM     28  C   UNL A   1      40.295  25.461  26.433  1.00  0.00     0.016 A 
ATOM     29  C   UNL A   1      38.898  24.676  28.253  1.00  0.00     0.016 A 
ATOM     30  C   UNL A   1      40.622  26.601  27.164  1.00  0.00     0.010 A 
ATOM     31  C   UNL A   1      39.196  25.838  28.968  1.00  0.00     0.010 A 
ATOM     32  C   UNL A   1      40.082  26.795  28.441  1.00  0.00    -0.014 A 
BRANCH  32  33
ATOM     33  C   UNL A   1      40.464  27.973  29.259  1.00  0.00     0.031 A 
ATOM     34  C   UNL A   1      41.725  27.935  30.075  1.00  0.00     0.074 A 
ATOM     35  C   UNL A   1      39.662  29.054  29.294  1.00  0.00     0.049 A 
ATOM     36  N   UNL A   1      42.154  28.771  30.984  1.00  0.00    -0.248 NA
ATOM     37  C   UNL A   1      42.622  26.790  29.845  1.00  0.00     0.031 C 
ATOM     38  C   UNL A   1      38.442  29.230  28.505  1.00  0.00     0.029 A 
ATOM     39  N   UNL A   1      39.743  30.201  30.044  1.00  0.00    -0.354 N 
ATOM     40  C   UNL A   1      43.366  28.258  31.432  1.00  0.00     0.074 A 
ATOM     41  C   UNL A   1      43.591  27.018  30.721  1.00  0.00     0.031 C 
ATOM     42  C   UNL A   1      37.882  30.409  28.820  1.00  0.00     0.029 A 
ATOM     43  C   UNL A   1      38.668  31.041  29.875  1.00  0.00     0.049 A 
ATOM     44  H   UNL A   1      40.496  30.401  30.645  1.00  0.00     0.167 HD
ATOM     45  C   UNL A   1      44.218  28.784  32.343  1.00  0.00     0.037 A 
ATOM     46  C   UNL A   1      38.332  32.169  30.529  1.00  0.00     0.037 A 
ATOM     47  C   UNL A   1      43.978  30.015  33.047  1.00  0.00     0.049 A 
ATOM     48  C   UNL A   1      39.225  32.665  31.633  1.00  0.00     0.074 A 
ATOM     49  C   UNL A   1      44.770  30.634  33.997  1.00  0.00     0.029 A 
ATOM     50  N   UNL A   1      42.854  30.812  32.880  1.00  0.00    -0.354 N 
ATOM     51  N   UNL A   1      40.362  32.167  32.059  1.00  0.00    -0.248 NA
ATOM     52  C   UNL A   1      38.782  33.861  32.362  1.00  0.00     0.031 C 
ATOM     53  C   UNL A   1      44.106  31.788  34.433  1.00  0.00     0.029 A 
ATOM     54  C   UNL A   1      42.918  31.904  33.728  1.00  0.00     0.049 A 
ATOM     55  H   UNL A   1      42.120  30.628  32.251  1.00  0.00     0.167 HD
ATOM     56  C   UNL A   1      40.786  33.005  33.083  1.00  0.00     0.074 A 
ATOM     57  C   UNL A   1      39.779  34.038  33.220  1.00  0.00     0.031 C 
ATOM     58  C   UNL A   1      41.909  32.929  33.837  1.00  0.00     0.037 A 
BRANCH  45  59
ATOM     59  C   UNL A   1      45.475  28.015  32.640  1.00  0.00     0.058 A 
ATOM     60  C   UNL A   1      45.543  27.105  33.706  1.00  0.00     0.135 A 
ATOM     61  C   UNL A   1      46.621  28.184  31.850  1.00  0.00     0.135 A 
ATOM     62  F   UNL A   1      44.481  26.905  34.499  1.00  0.00    -0.206 F 
ATOM     63  C   UNL A   1      46.714  26.418  34.004  1.00  0.00     0.059 A 
ATOM     64  C   UNL A   1      47.800  27.491  32.117  1.00  0.00     0.059 A 
ATOM     65  F   UNL A   1      46.609  29.040  30.817  1.00  0.00    -0.206 F 
ATOM     66  C   UNL A   1      47.841  26.626  33.209  1.00  0.00     0.060 A 
BRANCH  66  67
ATOM     67  S   UNL A   1      49.364  25.756  33.634  1.00  0.00     0.124 S 
ATOM     68  O   UNL A   1      49.212  24.523  32.868  1.00  0.00    -0.237 OA
ATOM     69  O   UNL A   1      50.394  26.672  33.157  1.00  0.00    -0.237 OA
ATOM     70  O   UNL A   1      49.279  25.610  35.084  1.00  0.00    -0.744 OA
ENDBRANCH  66  67
ENDBRANCH  45  59
BRANCH  46  71
ATOM     71  C   UNL A   1      37.072  32.877  30.182  1.00  0.00     0.058 A 
ATOM     72  C   UNL A   1      35.906  32.692  30.937  1.00  0.00     0.135 A 
ATOM     73  C   UNL A   1      37.018  33.774  29.102  1.00  0.00     0.135 A 
ATOM     74  F   UNL A   1      35.905  31.836  31.970  1.00  0.00    -0.206 F 
ATOM     75  C   UNL A   1      34.729  33.370  30.636  1.00  0.00     0.059 A 
ATOM     76  C   UNL A   1      35.859  34.479  28.795  1.00  0.00     0.059 A 
ATOM     77  F   UNL A   1      38.110  33.991  28.351  1.00  0.00    -0.206 F 
ATOM     78  C   UNL A   1      34.717  34.265  29.563  1.00  0.00     0.060 A 
BRANCH  78  79
ATOM     79  S   UNL A   1      33.201  35.183  29.211  1.00  0.00     0.124 S 
ATOM     80  O   UNL A   1      33.732  36.458  28.744  1.00  0.00    -0.237 OA
ATOM     81  O   UNL A   1      32.560  34.349  28.198  1.00  0.00    -0.237 OA
ATOM     82  O   UNL A   1      32.522  35.216  30.504  1.00  0.00    -0.744 OA
ENDBRANCH  78  79
ENDBRANCH  46  71
BRANCH  58  83
ATOM     83  C   UNL A   1      42.136  34.010  34.853  1.00  0.00     0.058 A 
ATOM     84  C   UNL A   1      41.759  33.847  36.193  1.00  0.00     0.135 A 
ATOM     85  C   UNL A   1      42.820  35.183  34.496  1.00  0.00     0.135 A 
ATOM     86  F   UNL A   1      41.095  32.746  36.579  1.00  0.00    -0.206 F 
ATOM     87  C   UNL A   1      42.057  34.811  37.151  1.00  0.00     0.059 A 
ATOM     88  C   UNL A   1      43.143  36.151  35.439  1.00  0.00     0.059 A 
ATOM     89  F   UNL A   1      43.206  35.380  33.225  1.00  0.00    -0.206 F 
ATOM     90  C   UNL A   1      42.757  35.957  36.765  1.00  0.00     0.060 A 
BRANCH  90  91
ATOM     91  S   UNL A   1      43.211  37.164  38.029  1.00  0.00     0.124 S 
ATOM     92  O   UNL A   1      41.911  37.498  38.598  1.00  0.00    -0.237 OA
ATOM     93  O   UNL A   1      44.102  36.395  38.893  1.00  0.00    -0.237 OA
ATOM     94  O   UNL A   1      43.856  38.227  37.265  1.00  0.00    -0.744 OA
ENDBRANCH  90  91
ENDBRANCH  58  83
ENDBRANCH  32  33
ENDBRANCH  25  27
ENDBRANCH  24  25
ENDBRANCH  23  24
ENDBRANCH   1  23
TORSDOF 17
ENDMDL
MODEL 2
REMARK VINA RESULT:     -10.1      5.390     11.731
REMARK SMILES CN(C)C(=O)c1ccc(N[C@@H]2CCC[C@H]2C(=O)OCCOC(=O)c2ccc(-c3c4nc(c(-c5c(F)cc(S(=O)(=O)[O-])cc5F)c5ccc([nH]5)c(-c5c(F)cc(S(=O)(=O)[O-])cc5F)c5nc(c(-c6c(F)cc(S(=O)(=O)[O-])cc6F)c6ccc3[nH]6)C=C5)C=C4)cc2)nc1
REMARK SMILES IDX 19 1 18 2 16 3 17 4 15 5 11 6 12 7 13 8 14 9 10 10 9 12 6 13
REMARK SMILES IDX 7 14 91 15 8 16 90 17 4 18 1 19 2 20 3 21 5 22 20 23 21 24
REMARK SMILES IDX 22 25 23 26 24 27 25 28 89 29 26 30 88 31 27 32 28 33 29 34
REMARK SMILES IDX 82 35 30 36 87 37 81 38 83 39 31 40 86 41 80 42 79 43 32 45
REMARK SMILES IDX 66 46 45 47 65 48 46 49 49 50 64 51 84 52 47 53 48 54 63 56
REMARK SMILES IDX 85 57 50 58 33 59 34 60 43 61 35 62 36 63 42 64 44 65 37 66
REMARK SMILES IDX 38 67 39 68 40 69 41 70 67 71 68 72 77 73 69 74 70 75 76 76
REMARK SMILES IDX 78 77 71 78 72 79 73 80 74 81 75 82 51 83 52 84 61 85 53 86
REMARK SMILES IDX 54 87 60 88 62 89 55 90 56 91 57 92 58 93 59 94
REMARK H PARENT 10 11 83 44 49 55
REMARK Flexibility Score: inf
ROOT
ATOM      1  C   UNL A   1      32.059  28.927  25.954  1.00  0.00     0.274 C 
ENDROOT
BRANCH   1   2
ATOM      2  O   UNL A   1      31.998  27.719  26.737  1.00  0.00    -0.462 OA
BRANCH   2   3
ATOM      3  C   UNL A   1      32.566  26.619  26.178  1.00  0.00     0.311 C 
ATOM      4  O   UNL A   1      33.766  26.500  25.955  1.00  0.00    -0.252 OA
BRANCH   3   5
ATOM      5  C   UNL A   1      31.566  25.560  25.775  1.00  0.00     0.121 C 
ATOM      6  C   UNL A   1      31.903  24.724  24.538  1.00  0.00     0.094 C 
ATOM      7  C   UNL A   1      31.120  23.418  24.715  1.00  0.00     0.026 C 
ATOM      8  C   UNL A   1      30.832  23.296  26.213  1.00  0.00     0.003 C 
ATOM      9  C   UNL A   1      31.457  24.513  26.879  1.00  0.00     0.017 C 
BRANCH   6  10
ATOM     10  N   UNL A   1      31.673  25.371  23.251  1.00  0.00    -0.366 N 
ATOM     11  H   UNL A   1      32.006  24.918  22.444  1.00  0.00     0.162 HD
BRANCH  10  12
ATOM     12  C   UNL A   1      31.019  26.581  23.089  1.00  0.00     0.126 A 
ATOM     13  C   UNL A   1      29.612  28.933  22.634  1.00  0.00     0.058 A 
ATOM     14  C   UNL A   1      28.969  27.867  23.250  1.00  0.00     0.019 A 
ATOM     15  C   UNL A   1      30.946  28.757  22.298  1.00  0.00     0.127 A 
ATOM     16  C   UNL A   1      29.687  26.690  23.495  1.00  0.00     0.047 A 
ATOM     17  N   UNL A   1      31.657  27.623  22.530  1.00  0.00    -0.239 NA
BRANCH  13  18
ATOM     18  C   UNL A   1      28.956  30.164  22.149  1.00  0.00     0.254 C 
ATOM     19  C   UNL A   1      28.102  32.426  22.390  1.00  0.00     0.146 C 
ATOM     20  N   UNL A   1      28.915  31.331  22.907  1.00  0.00    -0.345 N 
ATOM     21  C   UNL A   1      29.501  31.533  24.224  1.00  0.00     0.146 C 
ATOM     22  O   UNL A   1      28.450  30.084  21.027  1.00  0.00    -0.269 OA
ENDBRANCH  13  18
ENDBRANCH  10  12
ENDBRANCH   6  10
ENDBRANCH   3   5
ENDBRANCH   2   3
ENDBRANCH   1   2
BRANCH   1  23
ATOM     23  C   UNL A   1      32.712  30.065  26.737  1.00  0.00     0.275 C 
BRANCH  23  24
ATOM     24  O   UNL A   1      33.761  29.581  27.591  1.00  0.00    -0.458 OA
BRANCH  24  25
ATOM     25  C   UNL A   1      34.570  30.537  28.104  1.00  0.00     0.338 C 
ATOM     26  O   UNL A   1      34.269  31.680  28.404  1.00  0.00    -0.246 OA
BRANCH  25  27
ATOM     27  C   UNL A   1      35.913  29.977  28.298  1.00  0.00     0.060 A 
ATOM     28  C   UNL A   1      36.283  29.511  29.561  1.00  0.00     0.016 A 
ATOM     29  C   UNL A   1      36.838  30.019  27.255  1.00  0.00     0.016 A 
ATOM     30  C   UNL A   1      37.600  29.128  29.803  1.00  0.00     0.010 A 
ATOM     31  C   UNL A   1      38.149  29.599  27.491  1.00  0.00     0.010 A 
ATOM     32  C   UNL A   1      38.546  29.177  28.772  1.00  0.00    -0.014 A 
BRANCH  32  33
ATOM     33  C   UNL A   1      39.967  28.830  29.024  1.00  0.00     0.031 A 
ATOM     34  C   UNL A   1      40.911  29.883  29.531  1.00  0.00     0.074 A 
ATOM     35  C   UNL A   1      40.410  27.586  28.765  1.00  0.00     0.049 A 
ATOM     36  N   UNL A   1      42.212  29.847  29.653  1.00  0.00    -0.248 NA
ATOM     37  C   UNL A   1      40.308  31.160  29.949  1.00  0.00     0.031 C 
ATOM     38  C   UNL A   1      39.579  26.466  28.322  1.00  0.00     0.029 A 
ATOM     39  N   UNL A   1      41.678  27.062  28.813  1.00  0.00    -0.354 N 
ATOM     40  C   UNL A   1      42.584  31.087  30.159  1.00  0.00     0.074 A 
ATOM     41  C   UNL A   1      41.374  31.870  30.291  1.00  0.00     0.031 C 
ATOM     42  C   UNL A   1      40.360  25.390  28.128  1.00  0.00     0.029 A 
ATOM     43  C   UNL A   1      41.750  25.762  28.373  1.00  0.00     0.049 A 
ATOM     44  H   UNL A   1      42.460  27.569  29.131  1.00  0.00     0.167 HD
ATOM     45  C   UNL A   1      43.820  31.524  30.496  1.00  0.00     0.037 A 
ATOM     46  C   UNL A   1      42.819  24.975  28.148  1.00  0.00     0.037 A 
ATOM     47  C   UNL A   1      45.015  30.735  30.354  1.00  0.00     0.049 A 
ATOM     48  C   UNL A   1      44.196  25.527  28.401  1.00  0.00     0.074 A 
ATOM     49  C   UNL A   1      46.319  31.083  30.655  1.00  0.00     0.029 A 
ATOM     50  N   UNL A   1      45.048  29.438  29.860  1.00  0.00    -0.354 N 
ATOM     51  N   UNL A   1      44.538  26.704  28.867  1.00  0.00    -0.248 NA
ATOM     52  C   UNL A   1      45.332  24.654  28.077  1.00  0.00     0.031 C 
ATOM     53  C   UNL A   1      47.147  30.009  30.308  1.00  0.00     0.029 A 
ATOM     54  C   UNL A   1      46.354  28.980  29.823  1.00  0.00     0.049 A 
ATOM     55  H   UNL A   1      44.260  28.921  29.577  1.00  0.00     0.167 HD
ATOM     56  C   UNL A   1      45.927  26.704  28.922  1.00  0.00     0.074 A 
ATOM     57  C   UNL A   1      46.363  25.411  28.433  1.00  0.00     0.031 C 
ATOM     58  C   UNL A   1      46.763  27.683  29.345  1.00  0.00     0.037 A 
BRANCH  45  59
ATOM     59  C   UNL A   1      43.938  32.923  31.030  1.00  0.00     0.058 A 
ATOM     60  C   UNL A   1      43.776  33.203  32.396  1.00  0.00     0.135 A 
ATOM     61  C   UNL A   1      44.220  33.997  30.172  1.00  0.00     0.135 A 
ATOM     62  F   UNL A   1      43.502  32.218  33.263  1.00  0.00    -0.206 F 
ATOM     63  C   UNL A   1      43.851  34.500  32.888  1.00  0.00     0.059 A 
ATOM     64  C   UNL A   1      44.319  35.303  30.646  1.00  0.00     0.059 A 
ATOM     65  F   UNL A   1      44.384  33.785  28.858  1.00  0.00    -0.206 F 
ATOM     66  C   UNL A   1      44.113  35.546  32.003  1.00  0.00     0.060 A 
BRANCH  66  67
ATOM     67  S   UNL A   1      44.167  37.229  32.654  1.00  0.00     0.124 S 
ATOM     68  O   UNL A   1      43.839  38.006  31.462  1.00  0.00    -0.237 OA
ATOM     69  O   UNL A   1      43.141  37.198  33.689  1.00  0.00    -0.237 OA
ATOM     70  O   UNL A   1      45.538  37.363  33.134  1.00  0.00    -0.744 OA
ENDBRANCH  66  67
ENDBRANCH  45  59
BRANCH  46  71
ATOM     71  C   UNL A   1      42.627  23.600  27.618  1.00  0.00     0.058 A 
ATOM     72  C   UNL A   1      42.680  23.341  26.242  1.00  0.00     0.135 A 
ATOM     73  C   UNL A   1      42.411  22.513  28.481  1.00  0.00     0.135 A 
ATOM     74  F   UNL A   1      42.871  24.348  25.377  1.00  0.00    -0.206 F 
ATOM     75  C   UNL A   1      42.527  22.053  25.737  1.00  0.00     0.059 A 
ATOM     76  C   UNL A   1      42.276  21.214  28.002  1.00  0.00     0.059 A 
ATOM     77  F   UNL A   1      42.357  22.708  29.809  1.00  0.00    -0.206 F 
ATOM     78  C   UNL A   1      42.328  20.995  26.627  1.00  0.00     0.060 A 
BRANCH  78  79
ATOM     79  S   UNL A   1      42.185  19.318  25.969  1.00  0.00     0.124 S 
ATOM     80  O   UNL A   1      42.731  18.526  27.063  1.00  0.00    -0.237 OA
ATOM     81  O   UNL A   1      40.747  19.194  25.746  1.00  0.00    -0.237 OA
ATOM     82  O   UNL A   1      42.996  19.365  24.756  1.00  0.00    -0.744 OA
ENDBRANCH  78  79
ENDBRANCH  46  71
BRANCH  58  83
ATOM     83  C   UNL A   1      48.235  27.387  29.337  1.00  0.00     0.058 A 
ATOM     84  C   UNL A   1      49.045  27.728  28.247  1.00  0.00     0.135 A 
ATOM     85  C   UNL A   1      48.850  26.838  30.474  1.00  0.00     0.135 A 
ATOM     86  F   UNL A   1      48.500  28.247  27.135  1.00  0.00    -0.206 F 
ATOM     87  C   UNL A   1      50.423  27.540  28.282  1.00  0.00     0.059 A 
ATOM     88  C   UNL A   1      50.227  26.657  30.538  1.00  0.00     0.059 A 
ATOM     89  F   UNL A   1      48.115  26.501  31.546  1.00  0.00    -0.206 F 
ATOM     90  C   UNL A   1      51.006  27.011  29.436  1.00  0.00     0.060 A 
BRANCH  90  91
ATOM     91  S   UNL A   1      52.803  26.847  29.505  1.00  0.00     0.124 S 
ATOM     92  O   UNL A   1      53.096  26.275  28.196  1.00  0.00    -0.237 OA
ATOM     93  O   UNL A   1      53.237  28.226  29.706  1.00  0.00    -0.237 OA
ATOM     94  O   UNL A   1      53.018  25.958  30.642  1.00  0.00    -0.744 OA
ENDBRANCH  90  91
ENDBRANCH  58  83
ENDBRANCH  32  33
ENDBRANCH  25  27
ENDBRANCH  24  25
ENDBRANCH  23  24
ENDBRANCH   1  23
TORSDOF 17
ENDMDL
MODEL 3
REMARK VINA RESULT:     -10.0      2.092      2.806
REMARK SMILES CN(C)C(=O)c1ccc(N[C@@H]2CCC[C@H]2C(=O)OCCOC(=O)c2ccc(-c3c4nc(c(-c5c(F)cc(S(=O)(=O)[O-])cc5F)c5ccc([nH]5)c(-c5c(F)cc(S(=O)(=O)[O-])cc5F)c5nc(c(-c6c(F)cc(S(=O)(=O)[O-])cc6F)c6ccc3[nH]6)C=C5)C=C4)cc2)nc1
REMARK SMILES IDX 19 1 18 2 16 3 17 4 15 5 11 6 12 7 13 8 14 9 10 10 9 12 6 13
REMARK SMILES IDX 7 14 91 15 8 16 90 17 4 18 1 19 2 20 3 21 5 22 20 23 21 24
REMARK SMILES IDX 22 25 23 26 24 27 25 28 89 29 26 30 88 31 27 32 28 33 29 34
REMARK SMILES IDX 82 35 30 36 87 37 81 38 83 39 31 40 86 41 80 42 79 43 32 45
REMARK SMILES IDX 66 46 45 47 65 48 46 49 49 50 64 51 84 52 47 53 48 54 63 56
REMARK SMILES IDX 85 57 50 58 33 59 34 60 43 61 35 62 36 63 42 64 44 65 37 66
REMARK SMILES IDX 38 67 39 68 40 69 41 70 67 71 68 72 77 73 69 74 70 75 76 76
REMARK SMILES IDX 78 77 71 78 72 79 73 80 74 81 75 82 51 83 52 84 61 85 53 86
REMARK SMILES IDX 54 87 60 88 62 89 55 90 56 91 57 92 58 93 59 94
REMARK H PARENT 10 11 83 44 49 55
REMARK Flexibility Score: inf
ROOT
ATOM      1  C   UNL A   1      41.155  21.160  26.751  1.00  0.00     0.274 C 
ENDROOT
BRANCH   1   2
ATOM      2  O   UNL A   1      42.439  20.898  26.150  1.00  0.00    -0.462 OA
BRANCH   2   3
ATOM      3  C   UNL A   1      42.627  19.641  25.670  1.00  0.00     0.311 C 
ATOM      4  O   UNL A   1      41.811  18.733  25.780  1.00  0.00    -0.252 OA
BRANCH   3   5
ATOM      5  C   UNL A   1      43.985  19.429  25.045  1.00  0.00     0.121 C 
ATOM      6  C   UNL A   1      44.970  20.599  25.110  1.00  0.00     0.094 C 
ATOM      7  C   UNL A   1      46.358  19.958  24.997  1.00  0.00     0.026 C 
ATOM      8  C   UNL A   1      46.188  18.499  25.423  1.00  0.00     0.003 C 
ATOM      9  C   UNL A   1      44.721  18.317  25.788  1.00  0.00     0.017 C 
BRANCH   6  10
ATOM     10  N   UNL A   1      44.744  21.674  24.151  1.00  0.00    -0.366 N 
ATOM     11  H   UNL A   1      44.506  21.424  23.229  1.00  0.00     0.162 HD
BRANCH  10  12
ATOM     12  C   UNL A   1      44.843  23.023  24.449  1.00  0.00     0.126 A 
ATOM     13  C   UNL A   1      45.098  25.683  25.209  1.00  0.00     0.058 A 
ATOM     14  C   UNL A   1      46.243  24.930  24.983  1.00  0.00     0.019 A 
ATOM     15  C   UNL A   1      43.878  25.050  25.019  1.00  0.00     0.127 A 
ATOM     16  C   UNL A   1      46.111  23.595  24.581  1.00  0.00     0.047 A 
ATOM     17  N   UNL A   1      43.732  23.758  24.628  1.00  0.00    -0.239 NA
BRANCH  13  18
ATOM     18  C   UNL A   1      45.067  27.035  25.803  1.00  0.00     0.254 C 
ATOM     19  C   UNL A   1      44.888  28.611  27.643  1.00  0.00     0.146 C 
ATOM     20  N   UNL A   1      45.086  27.242  27.179  1.00  0.00    -0.345 N 
ATOM     21  C   UNL A   1      45.158  26.218  28.210  1.00  0.00     0.146 C 
ATOM     22  O   UNL A   1      45.026  27.964  24.993  1.00  0.00    -0.269 OA
ENDBRANCH  13  18
ENDBRANCH  10  12
ENDBRANCH   6  10
ENDBRANCH   3   5
ENDBRANCH   2   3
ENDBRANCH   1   2
BRANCH   1  23
ATOM     23  C   UNL A   1      41.256  22.235  27.832  1.00  0.00     0.275 C 
BRANCH  23  24
ATOM     24  O   UNL A   1      40.167  23.169  27.748  1.00  0.00    -0.458 OA
BRANCH  24  25
ATOM     25  C   UNL A   1      40.404  24.260  26.984  1.00  0.00     0.338 C 
ATOM     26  O   UNL A   1      40.616  24.293  25.784  1.00  0.00    -0.246 OA
BRANCH  25  27
ATOM     27  C   UNL A   1      40.331  25.461  27.825  1.00  0.00     0.060 A 
ATOM     28  C   UNL A   1      41.360  26.402  27.763  1.00  0.00     0.016 A 
ATOM     29  C   UNL A   1      39.298  25.594  28.753  1.00  0.00     0.016 A 
ATOM     30  C   UNL A   1      41.389  27.461  28.668  1.00  0.00     0.010 A 
ATOM     31  C   UNL A   1      39.309  26.678  29.633  1.00  0.00     0.010 A 
ATOM     32  C   UNL A   1      40.368  27.604  29.615  1.00  0.00    -0.014 A 
BRANCH  32  33
ATOM     33  C   UNL A   1      40.411  28.691  30.625  1.00  0.00     0.031 A 
ATOM     34  C   UNL A   1      41.365  28.594  31.781  1.00  0.00     0.074 A 
ATOM     35  C   UNL A   1      39.573  29.739  30.518  1.00  0.00     0.049 A 
ATOM     36  N   UNL A   1      41.448  29.333  32.857  1.00  0.00    -0.248 NA
ATOM     37  C   UNL A   1      42.358  27.508  31.725  1.00  0.00     0.031 C 
ATOM     38  C   UNL A   1      38.642  29.971  29.413  1.00  0.00     0.029 A 
ATOM     39  N   UNL A   1      39.353  30.795  31.367  1.00  0.00    -0.354 N 
ATOM     40  C   UNL A   1      42.495  28.805  33.603  1.00  0.00     0.074 A 
ATOM     41  C   UNL A   1      43.000  27.661  32.875  1.00  0.00     0.031 C 
ATOM     42  C   UNL A   1      37.942  31.091  29.657  1.00  0.00     0.029 A 
ATOM     43  C   UNL A   1      38.331  31.620  30.961  1.00  0.00     0.049 A 
ATOM     44  H   UNL A   1      39.875  30.946  32.188  1.00  0.00     0.167 HD
ATOM     45  C   UNL A   1      42.997  29.247  34.781  1.00  0.00     0.037 A 
ATOM     46  C   UNL A   1      37.745  32.656  31.589  1.00  0.00     0.037 A 
ATOM     47  C   UNL A   1      42.481  30.383  35.496  1.00  0.00     0.049 A 
ATOM     48  C   UNL A   1      38.229  33.047  32.958  1.00  0.00     0.074 A 
ATOM     49  C   UNL A   1      42.908  30.911  36.701  1.00  0.00     0.029 A 
ATOM     50  N   UNL A   1      41.414  31.163  35.070  1.00  0.00    -0.354 N 
ATOM     51  N   UNL A   1      39.211  32.535  33.662  1.00  0.00    -0.248 NA
ATOM     52  C   UNL A   1      37.514  34.140  33.631  1.00  0.00     0.031 C 
ATOM     53  C   UNL A   1      42.075  31.989  37.023  1.00  0.00     0.029 A 
ATOM     54  C   UNL A   1      41.151  32.153  36.002  1.00  0.00     0.049 A 
ATOM     55  H   UNL A   1      40.918  31.032  34.230  1.00  0.00     0.167 HD
ATOM     56  C   UNL A   1      39.253  33.262  34.845  1.00  0.00     0.074 A 
ATOM     57  C   UNL A   1      38.190  34.246  34.768  1.00  0.00     0.031 C 
ATOM     58  C   UNL A   1      40.097  33.131  35.897  1.00  0.00     0.037 A 
BRANCH  45  59
ATOM     59  C   UNL A   1      44.148  28.483  35.372  1.00  0.00     0.058 A 
ATOM     60  C   UNL A   1      43.942  27.411  36.253  1.00  0.00     0.135 A 
ATOM     61  C   UNL A   1      45.472  28.822  35.052  1.00  0.00     0.135 A 
ATOM     62  F   UNL A   1      42.700  27.045  36.599  1.00  0.00    -0.206 F 
ATOM     63  C   UNL A   1      45.005  26.725  36.828  1.00  0.00     0.059 A 
ATOM     64  C   UNL A   1      46.553  28.136  35.600  1.00  0.00     0.059 A 
ATOM     65  F   UNL A   1      45.725  29.838  34.213  1.00  0.00    -0.206 F 
ATOM     66  C   UNL A   1      46.308  27.102  36.503  1.00  0.00     0.060 A 
BRANCH  66  67
ATOM     67  S   UNL A   1      47.677  26.227  37.289  1.00  0.00     0.124 S 
ATOM     68  O   UNL A   1      47.421  24.854  36.863  1.00  0.00    -0.237 OA
ATOM     69  O   UNL A   1      48.844  26.866  36.691  1.00  0.00    -0.237 OA
ATOM     70  O   UNL A   1      47.478  26.491  38.711  1.00  0.00    -0.744 OA
ENDBRANCH  66  67
ENDBRANCH  45  59
BRANCH  46  71
ATOM     71  C   UNL A   1      36.609  33.365  30.943  1.00  0.00     0.058 A 
ATOM     72  C   UNL A   1      36.818  34.229  29.859  1.00  0.00     0.135 A 
ATOM     73  C   UNL A   1      35.289  33.171  31.380  1.00  0.00     0.135 A 
ATOM     74  F   UNL A   1      38.062  34.456  29.413  1.00  0.00    -0.206 F 
ATOM     75  C   UNL A   1      35.759  34.877  29.230  1.00  0.00     0.059 A 
ATOM     76  C   UNL A   1      34.212  33.791  30.755  1.00  0.00     0.059 A 
ATOM     77  F   UNL A   1      35.035  32.348  32.411  1.00  0.00    -0.206 F 
ATOM     78  C   UNL A   1      34.458  34.649  29.685  1.00  0.00     0.060 A 
BRANCH  78  79
ATOM     79  S   UNL A   1      33.083  35.451  28.830  1.00  0.00     0.124 S 
ATOM     80  O   UNL A   1      32.517  34.338  28.078  1.00  0.00    -0.237 OA
ATOM     81  O   UNL A   1      32.275  35.949  29.939  1.00  0.00    -0.237 OA
ATOM     82  O   UNL A   1      33.741  36.483  28.033  1.00  0.00    -0.744 OA
ENDBRANCH  78  79
ENDBRANCH  46  71
BRANCH  58  83
ATOM     83  C   UNL A   1      39.938  34.095  37.036  1.00  0.00     0.058 A 
ATOM     84  C   UNL A   1      40.406  35.414  36.951  1.00  0.00     0.135 A 
ATOM     85  C   UNL A   1      39.229  33.717  38.187  1.00  0.00     0.135 A 
ATOM     86  F   UNL A   1      41.097  35.818  35.873  1.00  0.00    -0.206 F 
ATOM     87  C   UNL A   1      40.172  36.331  37.970  1.00  0.00     0.059 A 
ATOM     88  C   UNL A   1      38.970  34.622  39.210  1.00  0.00     0.059 A 
ATOM     89  F   UNL A   1      38.757  32.466  38.311  1.00  0.00    -0.206 F 
ATOM     90  C   UNL A   1      39.446  35.928  39.093  1.00  0.00     0.060 A 
BRANCH  90  91
ATOM     91  S   UNL A   1      39.076  37.147  40.372  1.00  0.00     0.124 S 
ATOM     92  O   UNL A   1      38.516  38.239  39.585  1.00  0.00    -0.237 OA
ATOM     93  O   UNL A   1      38.132  36.432  41.225  1.00  0.00    -0.237 OA
ATOM     94  O   UNL A   1      40.379  37.410  40.975  1.00  0.00    -0.744 OA
ENDBRANCH  90  91
ENDBRANCH  58  83
ENDBRANCH  32  33
ENDBRANCH  25  27
ENDBRANCH  24  25
ENDBRANCH  23  24
ENDBRANCH   1  23
TORSDOF 17
ENDMDL
