MODEL 1
REMARK VINA RESULT:     -10.1      0.000      0.000
REMARK SMILES O=C(C[C@@H]1C(=O)NC(=S)N1c1ccccc1)OCCOC(=O)c1ccc(-c2c3nc(c(-c4c(F)cc(S(=O)(=O)[O-])cc4F)c4ccc([nH]4)c(-c4c(F)cc(S(=O)(=O)[O-])cc4F)c4nc(c(-c5c(F)cc(S(=O)(=O)[O-])cc5F)c5ccc2[nH]5)C=C4)C=C3)cc1
REMARK SMILES IDX 19 1 18 2 17 3 2 4 1 5 3 6 4 7 5 8 10 9 6 10 7 11 8 12 9 14
REMARK SMILES IDX 11 15 12 16 16 17 13 18 15 19 14 20 20 21 21 22 22 23 23 24
REMARK SMILES IDX 24 25 88 26 25 27 87 28 26 29 27 30 28 31 81 32 29 33 86 34
REMARK SMILES IDX 80 35 82 36 30 37 85 38 79 39 78 40 31 42 65 43 44 44 64 45
REMARK SMILES IDX 45 46 48 47 63 48 83 49 46 50 47 51 62 53 84 54 49 55 32 56
REMARK SMILES IDX 33 57 42 58 34 59 35 60 41 61 43 62 36 63 37 64 38 65 39 66
REMARK SMILES IDX 40 67 66 68 67 69 76 70 68 71 69 72 75 73 77 74 70 75 71 76
REMARK SMILES IDX 72 77 73 78 74 79 50 80 51 81 60 82 52 83 53 84 59 85 61 86
REMARK SMILES IDX 54 87 55 88 56 89 57 90 58 91
REMARK H PARENT 7 13 82 41 48 52
REMARK Flexibility Score: inf
ROOT
ATOM      1  C   UNL A   1      39.540  20.347  26.169  1.00  0.00     0.275 C 
ENDROOT
BRANCH   1   2
ATOM      2  C   UNL A   1      40.775  19.451  26.246  1.00  0.00     0.274 C 
BRANCH   2   3
ATOM      3  O   UNL A   1      41.965  20.100  25.755  1.00  0.00    -0.462 OA
BRANCH   3   4
ATOM      4  C   UNL A   1      43.175  19.538  25.566  1.00  0.00     0.308 C 
ATOM      5  O   UNL A   1      43.333  18.349  25.834  1.00  0.00    -0.252 OA
BRANCH   4   6
ATOM      6  C   UNL A   1      44.330  20.368  25.060  1.00  0.00     0.158 C 
BRANCH   6   7
ATOM      7  C   UNL A   1      44.146  21.878  25.003  1.00  0.00     0.190 C 
ATOM      8  C   UNL A   1      44.696  22.393  23.677  1.00  0.00     0.249 C 
ATOM      9  N   UNL A   1      44.860  22.738  25.940  1.00  0.00    -0.306 N 
ATOM     10  O   UNL A   1      44.361  22.025  22.560  1.00  0.00    -0.272 OA
ATOM     11  N   UNL A   1      45.696  23.272  23.928  1.00  0.00    -0.301 N 
ATOM     12  C   UNL A   1      45.833  23.496  25.264  1.00  0.00     0.180 C 
ATOM     13  H   UNL A   1      46.251  23.694  23.234  1.00  0.00     0.172 HD
ATOM     14  S   UNL A   1      47.036  24.489  25.834  1.00  0.00    -0.040 S 
BRANCH   9  15
ATOM     15  C   UNL A   1      44.331  22.988  27.238  1.00  0.00     0.044 A 
ATOM     16  C   UNL A   1      42.963  22.838  27.498  1.00  0.00     0.026 A 
ATOM     17  C   UNL A   1      45.166  23.311  28.314  1.00  0.00     0.026 A 
ATOM     18  C   UNL A   1      42.441  23.044  28.780  1.00  0.00     0.002 A 
ATOM     19  C   UNL A   1      44.644  23.548  29.590  1.00  0.00     0.002 A 
ATOM     20  C   UNL A   1      43.280  23.414  29.824  1.00  0.00     0.000 A 
ENDBRANCH   9  15
ENDBRANCH   6   7
ENDBRANCH   4   6
ENDBRANCH   3   4
ENDBRANCH   2   3
ENDBRANCH   1   2
BRANCH   1  21
ATOM     21  O   UNL A   1      39.907  21.720  26.390  1.00  0.00    -0.458 OA
BRANCH  21  22
ATOM     22  C   UNL A   1      38.942  22.637  26.131  1.00  0.00     0.338 C 
ATOM     23  O   UNL A   1      37.849  22.415  25.637  1.00  0.00    -0.246 OA
BRANCH  22  24
ATOM     24  C   UNL A   1      39.333  23.946  26.706  1.00  0.00     0.060 A 
ATOM     25  C   UNL A   1      40.021  24.842  25.877  1.00  0.00     0.016 A 
ATOM     26  C   UNL A   1      39.023  24.311  28.022  1.00  0.00     0.016 A 
ATOM     27  C   UNL A   1      40.444  26.075  26.375  1.00  0.00     0.010 A 
ATOM     28  C   UNL A   1      39.448  25.550  28.520  1.00  0.00     0.010 A 
ATOM     29  C   UNL A   1      40.193  26.423  27.709  1.00  0.00    -0.014 A 
BRANCH  29  30
ATOM     30  C   UNL A   1      40.856  27.621  28.284  1.00  0.00     0.031 A 
ATOM     31  C   UNL A   1      42.360  27.695  28.267  1.00  0.00     0.074 A 
ATOM     32  C   UNL A   1      40.140  28.654  28.768  1.00  0.00     0.049 A 
ATOM     33  N   UNL A   1      43.146  28.673  28.634  1.00  0.00    -0.248 NA
ATOM     34  C   UNL A   1      43.070  26.507  27.767  1.00  0.00     0.031 C 
ATOM     35  C   UNL A   1      38.682  28.711  28.847  1.00  0.00     0.029 A 
ATOM     36  N   UNL A   1      40.552  29.858  29.284  1.00  0.00    -0.354 N 
ATOM     37  C   UNL A   1      44.439  28.233  28.380  1.00  0.00     0.074 A 
ATOM     38  C   UNL A   1      44.336  26.877  27.886  1.00  0.00     0.031 C 
ATOM     39  C   UNL A   1      38.320  29.888  29.390  1.00  0.00     0.029 A 
ATOM     40  C   UNL A   1      39.520  30.665  29.699  1.00  0.00     0.049 A 
ATOM     41  H   UNL A   1      41.500  30.118  29.351  1.00  0.00     0.167 HD
ATOM     42  C   UNL A   1      45.608  28.903  28.517  1.00  0.00     0.037 A 
ATOM     43  C   UNL A   1      39.544  31.891  30.261  1.00  0.00     0.037 A 
ATOM     44  C   UNL A   1      45.722  30.243  29.029  1.00  0.00     0.049 A 
ATOM     45  C   UNL A   1      40.862  32.598  30.457  1.00  0.00     0.074 A 
ATOM     46  C   UNL A   1      46.867  31.001  29.212  1.00  0.00     0.029 A 
ATOM     47  N   UNL A   1      44.656  31.022  29.449  1.00  0.00    -0.354 N 
ATOM     48  N   UNL A   1      42.073  32.187  30.162  1.00  0.00    -0.248 NA
ATOM     49  C   UNL A   1      40.813  33.945  31.044  1.00  0.00     0.031 C 
ATOM     50  C   UNL A   1      46.494  32.227  29.775  1.00  0.00     0.029 A 
ATOM     51  C   UNL A   1      45.116  32.248  29.902  1.00  0.00     0.049 A 
ATOM     52  H   UNL A   1      43.711  30.746  29.427  1.00  0.00     0.167 HD
ATOM     53  C   UNL A   1      42.924  33.235  30.502  1.00  0.00     0.074 A 
ATOM     54  C   UNL A   1      42.090  34.304  31.009  1.00  0.00     0.031 C 
ATOM     55  C   UNL A   1      44.275  33.307  30.400  1.00  0.00     0.037 A 
BRANCH  42  56
ATOM     56  C   UNL A   1      46.862  28.190  28.096  1.00  0.00     0.058 A 
ATOM     57  C   UNL A   1      47.427  28.400  26.827  1.00  0.00     0.135 A 
ATOM     58  C   UNL A   1      47.518  27.310  28.970  1.00  0.00     0.135 A 
ATOM     59  F   UNL A   1      46.826  29.217  25.947  1.00  0.00    -0.206 F 
ATOM     60  C   UNL A   1      48.587  27.745  26.431  1.00  0.00     0.059 A 
ATOM     61  C   UNL A   1      48.693  26.661  28.603  1.00  0.00     0.059 A 
ATOM     62  F   UNL A   1      47.017  27.071  30.192  1.00  0.00    -0.206 F 
ATOM     63  C   UNL A   1      49.212  26.874  27.326  1.00  0.00     0.060 A 
BRANCH  63  64
ATOM     64  S   UNL A   1      50.718  26.033  26.797  1.00  0.00     0.124 S 
ATOM     65  O   UNL A   1      50.606  26.122  25.344  1.00  0.00    -0.237 OA
ATOM     66  O   UNL A   1      51.764  26.850  27.404  1.00  0.00    -0.237 OA
ATOM     67  O   UNL A   1      50.572  24.693  27.356  1.00  0.00    -0.744 OA
ENDBRANCH  63  64
ENDBRANCH  42  56
BRANCH  43  68
ATOM     68  C   UNL A   1      38.274  32.542  30.683  1.00  0.00     0.058 A 
ATOM     69  C   UNL A   1      37.751  32.355  31.971  1.00  0.00     0.135 A 
ATOM     70  C   UNL A   1      37.541  33.337  29.789  1.00  0.00     0.135 A 
ATOM     71  F   UNL A   1      38.409  31.594  32.858  1.00  0.00    -0.206 F 
ATOM     72  C   UNL A   1      36.532  32.910  32.350  1.00  0.00     0.059 A 
ATOM     73  C   UNL A   1      36.333  33.923  30.151  1.00  0.00     0.059 A 
ATOM     74  F   UNL A   1      38.005  33.556  28.548  1.00  0.00    -0.206 F 
ATOM     75  C   UNL A   1      35.828  33.691  31.430  1.00  0.00     0.060 A 
BRANCH  75  76
ATOM     76  S   UNL A   1      34.260  34.430  31.936  1.00  0.00     0.124 S 
ATOM     77  O   UNL A   1      33.731  33.409  32.832  1.00  0.00    -0.237 OA
ATOM     78  O   UNL A   1      34.694  35.672  32.568  1.00  0.00    -0.237 OA
ATOM     79  O   UNL A   1      33.547  34.595  30.673  1.00  0.00    -0.744 OA
ENDBRANCH  75  76
ENDBRANCH  43  68
BRANCH  55  80
ATOM     80  C   UNL A   1      44.935  34.594  30.816  1.00  0.00     0.058 A 
ATOM     81  C   UNL A   1      45.124  35.653  29.913  1.00  0.00     0.135 A 
ATOM     82  C   UNL A   1      45.351  34.785  32.144  1.00  0.00     0.135 A 
ATOM     83  F   UNL A   1      44.746  35.525  28.632  1.00  0.00    -0.206 F 
ATOM     84  C   UNL A   1      45.733  36.843  30.305  1.00  0.00     0.059 A 
ATOM     85  C   UNL A   1      45.938  35.976  32.563  1.00  0.00     0.059 A 
ATOM     86  F   UNL A   1      45.182  33.810  33.051  1.00  0.00    -0.206 F 
ATOM     87  C   UNL A   1      46.139  36.993  31.632  1.00  0.00     0.060 A 
BRANCH  87  88
ATOM     88  S   UNL A   1      46.915  38.544  32.133  1.00  0.00     0.124 S 
ATOM     89  O   UNL A   1      47.634  38.920  30.919  1.00  0.00    -0.237 OA
ATOM     90  O   UNL A   1      45.766  39.378  32.471  1.00  0.00    -0.237 OA
ATOM     91  O   UNL A   1      47.752  38.156  33.264  1.00  0.00    -0.744 OA
ENDBRANCH  87  88
ENDBRANCH  55  80
ENDBRANCH  29  30
ENDBRANCH  22  24
ENDBRANCH  21  22
ENDBRANCH   1  21
TORSDOF 16
ENDMDL
MODEL 2
REMARK VINA RESULT:      -9.9      0.623      8.511
REMARK SMILES O=C(C[C@@H]1C(=O)NC(=S)N1c1ccccc1)OCCOC(=O)c1ccc(-c2c3nc(c(-c4c(F)cc(S(=O)(=O)[O-])cc4F)c4ccc([nH]4)c(-c4c(F)cc(S(=O)(=O)[O-])cc4F)c4nc(c(-c5c(F)cc(S(=O)(=O)[O-])cc5F)c5ccc2[nH]5)C=C4)C=C3)cc1
REMARK SMILES IDX 19 1 18 2 17 3 2 4 1 5 3 6 4 7 5 8 10 9 6 10 7 11 8 12 9 14
REMARK SMILES IDX 11 15 12 16 16 17 13 18 15 19 14 20 20 21 21 22 22 23 23 24
REMARK SMILES IDX 24 25 88 26 25 27 87 28 26 29 27 30 28 31 81 32 29 33 86 34
REMARK SMILES IDX 80 35 82 36 30 37 85 38 79 39 78 40 31 42 65 43 44 44 64 45
REMARK SMILES IDX 45 46 48 47 63 48 83 49 46 50 47 51 62 53 84 54 49 55 32 56
REMARK SMILES IDX 33 57 42 58 34 59 35 60 41 61 43 62 36 63 37 64 38 65 39 66
REMARK SMILES IDX 40 67 66 68 67 69 76 70 68 71 69 72 75 73 77 74 70 75 71 76
REMARK SMILES IDX 72 77 73 78 74 79 50 80 51 81 60 82 52 83 53 84 59 85 61 86
REMARK SMILES IDX 54 87 55 88 56 89 57 90 58 91
REMARK H PARENT 7 13 82 41 48 52
REMARK Flexibility Score: inf
ROOT
ATOM      1  C   UNL A   1      39.430  20.492  26.001  1.00  0.00     0.275 C 
ENDROOT
BRANCH   1   2
ATOM      2  C   UNL A   1      40.633  19.558  26.117  1.00  0.00     0.274 C 
BRANCH   2   3
ATOM      3  O   UNL A   1      41.875  20.206  25.779  1.00  0.00    -0.462 OA
BRANCH   3   4
ATOM      4  C   UNL A   1      43.048  19.609  25.486  1.00  0.00     0.308 C 
ATOM      5  O   UNL A   1      43.097  18.382  25.423  1.00  0.00    -0.252 OA
BRANCH   4   6
ATOM      6  C   UNL A   1      44.291  20.436  25.267  1.00  0.00     0.158 C 
BRANCH   6   7
ATOM      7  C   UNL A   1      44.131  21.948  25.189  1.00  0.00     0.190 C 
ATOM      8  C   UNL A   1      44.685  22.434  23.854  1.00  0.00     0.249 C 
ATOM      9  N   UNL A   1      44.862  22.809  26.111  1.00  0.00    -0.306 N 
ATOM     10  O   UNL A   1      44.340  22.056  22.743  1.00  0.00    -0.272 OA
ATOM     11  N   UNL A   1      45.700  23.300  24.089  1.00  0.00    -0.301 N 
ATOM     12  C   UNL A   1      45.845  23.541  25.421  1.00  0.00     0.180 C 
ATOM     13  H   UNL A   1      46.260  23.703  23.387  1.00  0.00     0.172 HD
ATOM     14  S   UNL A   1      47.066  24.523  25.972  1.00  0.00    -0.040 S 
BRANCH   9  15
ATOM     15  C   UNL A   1      44.341  23.087  27.406  1.00  0.00     0.044 A 
ATOM     16  C   UNL A   1      42.970  22.977  27.669  1.00  0.00     0.026 A 
ATOM     17  C   UNL A   1      45.185  23.399  28.478  1.00  0.00     0.026 A 
ATOM     18  C   UNL A   1      42.455  23.210  28.949  1.00  0.00     0.002 A 
ATOM     19  C   UNL A   1      44.671  23.663  29.752  1.00  0.00     0.002 A 
ATOM     20  C   UNL A   1      43.305  23.568  29.988  1.00  0.00     0.000 A 
ENDBRANCH   9  15
ENDBRANCH   6   7
ENDBRANCH   4   6
ENDBRANCH   3   4
ENDBRANCH   2   3
ENDBRANCH   1   2
BRANCH   1  21
ATOM     21  O   UNL A   1      39.831  21.852  26.246  1.00  0.00    -0.458 OA
BRANCH  21  22
ATOM     22  C   UNL A   1      38.826  22.762  26.300  1.00  0.00     0.338 C 
ATOM     23  O   UNL A   1      37.640  22.539  26.125  1.00  0.00    -0.246 OA
BRANCH  22  24
ATOM     24  C   UNL A   1      39.355  24.057  26.791  1.00  0.00     0.060 A 
ATOM     25  C   UNL A   1      40.030  24.873  25.873  1.00  0.00     0.016 A 
ATOM     26  C   UNL A   1      39.185  24.485  28.113  1.00  0.00     0.016 A 
ATOM     27  C   UNL A   1      40.578  26.088  26.287  1.00  0.00     0.010 A 
ATOM     28  C   UNL A   1      39.737  25.706  28.526  1.00  0.00     0.010 A 
ATOM     29  C   UNL A   1      40.468  26.496  27.623  1.00  0.00    -0.014 A 
BRANCH  29  30
ATOM     30  C   UNL A   1      41.259  27.661  28.095  1.00  0.00     0.031 A 
ATOM     31  C   UNL A   1      40.530  28.846  28.671  1.00  0.00     0.074 A 
ATOM     32  C   UNL A   1      42.605  27.653  28.064  1.00  0.00     0.049 A 
ATOM     33  N   UNL A   1      41.013  29.931  29.217  1.00  0.00    -0.248 NA
ATOM     34  C   UNL A   1      39.059  28.799  28.624  1.00  0.00     0.031 C 
ATOM     35  C   UNL A   1      43.434  26.574  27.531  1.00  0.00     0.029 A 
ATOM     36  N   UNL A   1      43.510  28.591  28.496  1.00  0.00    -0.354 N 
ATOM     37  C   UNL A   1      39.910  30.680  29.609  1.00  0.00     0.074 A 
ATOM     38  C   UNL A   1      38.732  29.955  29.182  1.00  0.00     0.031 C 
ATOM     39  C   UNL A   1      44.729  26.915  27.660  1.00  0.00     0.029 A 
ATOM     40  C   UNL A   1      44.820  28.236  28.280  1.00  0.00     0.049 A 
ATOM     41  H   UNL A   1      43.245  29.439  28.920  1.00  0.00     0.167 HD
ATOM     42  C   UNL A   1      39.874  31.852  30.288  1.00  0.00     0.037 A 
ATOM     43  C   UNL A   1      45.960  28.902  28.555  1.00  0.00     0.037 A 
ATOM     44  C   UNL A   1      41.039  32.591  30.696  1.00  0.00     0.049 A 
ATOM     45  C   UNL A   1      45.897  30.233  29.263  1.00  0.00     0.074 A 
ATOM     46  C   UNL A   1      41.101  33.792  31.381  1.00  0.00     0.029 A 
ATOM     47  N   UNL A   1      42.347  32.204  30.449  1.00  0.00    -0.354 N 
ATOM     48  N   UNL A   1      44.845  30.902  29.673  1.00  0.00    -0.248 NA
ATOM     49  C   UNL A   1      47.179  30.889  29.562  1.00  0.00     0.031 C 
ATOM     50  C   UNL A   1      42.447  34.149  31.518  1.00  0.00     0.029 A 
ATOM     51  C   UNL A   1      43.224  33.150  30.957  1.00  0.00     0.049 A 
ATOM     52  H   UNL A   1      42.614  31.379  29.982  1.00  0.00     0.167 HD
ATOM     53  C   UNL A   1      45.340  32.041  30.302  1.00  0.00     0.074 A 
ATOM     54  C   UNL A   1      46.784  31.964  30.232  1.00  0.00     0.031 C 
ATOM     55  C   UNL A   1      44.660  33.059  30.887  1.00  0.00     0.037 A 
BRANCH  42  56
ATOM     56  C   UNL A   1      38.520  32.401  30.637  1.00  0.00     0.058 A 
ATOM     57  C   UNL A   1      37.852  31.999  31.805  1.00  0.00     0.135 A 
ATOM     58  C   UNL A   1      37.895  33.352  29.816  1.00  0.00     0.135 A 
ATOM     59  F   UNL A   1      38.399  31.077  32.614  1.00  0.00    -0.206 F 
ATOM     60  C   UNL A   1      36.600  32.504  32.136  1.00  0.00     0.059 A 
ATOM     61  C   UNL A   1      36.652  33.888  30.140  1.00  0.00     0.059 A 
ATOM     62  F   UNL A   1      38.489  33.765  28.686  1.00  0.00    -0.206 F 
ATOM     63  C   UNL A   1      36.006  33.448  31.295  1.00  0.00     0.060 A 
BRANCH  63  64
ATOM     64  S   UNL A   1      34.382  34.094  31.739  1.00  0.00     0.124 S 
ATOM     65  O   UNL A   1      33.882  33.045  32.623  1.00  0.00    -0.237 OA
ATOM     66  O   UNL A   1      34.714  35.361  32.384  1.00  0.00    -0.237 OA
ATOM     67  O   UNL A   1      33.699  34.209  30.454  1.00  0.00    -0.744 OA
ENDBRANCH  63  64
ENDBRANCH  42  56
BRANCH  43  68
ATOM     68  C   UNL A   1      47.275  28.323  28.164  1.00  0.00     0.058 A 
ATOM     69  C   UNL A   1      47.865  28.622  26.928  1.00  0.00     0.135 A 
ATOM     70  C   UNL A   1      47.948  27.429  29.011  1.00  0.00     0.135 A 
ATOM     71  F   UNL A   1      47.255  29.463  26.079  1.00  0.00    -0.206 F 
ATOM     72  C   UNL A   1      49.062  28.034  26.531  1.00  0.00     0.059 A 
ATOM     73  C   UNL A   1      49.157  26.847  28.648  1.00  0.00     0.059 A 
ATOM     74  F   UNL A   1      47.430  27.119  30.210  1.00  0.00    -0.206 F 
ATOM     75  C   UNL A   1      49.700  27.144  27.398  1.00  0.00     0.060 A 
BRANCH  75  76
ATOM     76  S   UNL A   1      51.267  26.405  26.889  1.00  0.00     0.124 S 
ATOM     77  O   UNL A   1      51.253  26.652  25.451  1.00  0.00    -0.237 OA
ATOM     78  O   UNL A   1      52.237  27.175  27.661  1.00  0.00    -0.237 OA
ATOM     79  O   UNL A   1      51.123  25.010  27.292  1.00  0.00    -0.744 OA
ENDBRANCH  75  76
ENDBRANCH  43  68
BRANCH  55  80
ATOM     80  C   UNL A   1      45.467  34.156  31.527  1.00  0.00     0.058 A 
ATOM     81  C   UNL A   1      45.878  34.086  32.868  1.00  0.00     0.135 A 
ATOM     82  C   UNL A   1      45.865  35.276  30.779  1.00  0.00     0.135 A 
ATOM     83  F   UNL A   1      45.525  33.038  33.628  1.00  0.00    -0.206 F 
ATOM     84  C   UNL A   1      46.627  35.103  33.453  1.00  0.00     0.059 A 
ATOM     85  C   UNL A   1      46.637  36.292  31.337  1.00  0.00     0.059 A 
ATOM     86  F   UNL A   1      45.512  35.388  29.488  1.00  0.00    -0.206 F 
ATOM     87  C   UNL A   1      46.999  36.204  32.680  1.00  0.00     0.060 A 
BRANCH  87  88
ATOM     88  S   UNL A   1      47.982  37.511  33.444  1.00  0.00     0.124 S 
ATOM     89  O   UNL A   1      47.472  37.501  34.812  1.00  0.00    -0.237 OA
ATOM     90  O   UNL A   1      49.346  37.021  33.274  1.00  0.00    -0.237 OA
ATOM     91  O   UNL A   1      47.646  38.694  32.656  1.00  0.00    -0.744 OA
ENDBRANCH  87  88
ENDBRANCH  55  80
ENDBRANCH  29  30
ENDBRANCH  22  24
ENDBRANCH  21  22
ENDBRANCH   1  21
TORSDOF 16
ENDMDL
MODEL 3
REMARK VINA RESULT:      -9.6      4.734     11.324
REMARK SMILES O=C(C[C@@H]1C(=O)NC(=S)N1c1ccccc1)OCCOC(=O)c1ccc(-c2c3nc(c(-c4c(F)cc(S(=O)(=O)[O-])cc4F)c4ccc([nH]4)c(-c4c(F)cc(S(=O)(=O)[O-])cc4F)c4nc(c(-c5c(F)cc(S(=O)(=O)[O-])cc5F)c5ccc2[nH]5)C=C4)C=C3)cc1
REMARK SMILES IDX 19 1 18 2 17 3 2 4 1 5 3 6 4 7 5 8 10 9 6 10 7 11 8 12 9 14
REMARK SMILES IDX 11 15 12 16 16 17 13 18 15 19 14 20 20 21 21 22 22 23 23 24
REMARK SMILES IDX 24 25 88 26 25 27 87 28 26 29 27 30 28 31 81 32 29 33 86 34
REMARK SMILES IDX 80 35 82 36 30 37 85 38 79 39 78 40 31 42 65 43 44 44 64 45
REMARK SMILES IDX 45 46 48 47 63 48 83 49 46 50 47 51 62 53 84 54 49 55 32 56
REMARK SMILES IDX 33 57 42 58 34 59 35 60 41 61 43 62 36 63 37 64 38 65 39 66
REMARK SMILES IDX 40 67 66 68 67 69 76 70 68 71 69 72 75 73 77 74 70 75 71 76
REMARK SMILES IDX 72 77 73 78 74 79 50 80 51 81 60 82 52 83 53 84 59 85 61 86
REMARK SMILES IDX 54 87 55 88 56 89 57 90 58 91
REMARK H PARENT 7 13 82 41 48 52
REMARK Flexibility Score: inf
ROOT
ATOM      1  C   UNL A   1      34.958  31.428  28.843  1.00  0.00     0.275 C 
ENDROOT
BRANCH   1   2
ATOM      2  C   UNL A   1      33.966  31.291  27.689  1.00  0.00     0.274 C 
BRANCH   2   3
ATOM      3  O   UNL A   1      34.148  30.072  26.941  1.00  0.00    -0.462 OA
BRANCH   3   4
ATOM      4  C   UNL A   1      33.281  29.519  26.070  1.00  0.00     0.308 C 
ATOM      5  O   UNL A   1      32.093  29.833  26.125  1.00  0.00    -0.252 OA
BRANCH   4   6
ATOM      6  C   UNL A   1      33.758  28.504  25.060  1.00  0.00     0.158 C 
BRANCH   6   7
ATOM      7  C   UNL A   1      32.826  27.348  24.725  1.00  0.00     0.190 C 
ATOM      8  C   UNL A   1      33.621  26.047  24.766  1.00  0.00     0.249 C 
ATOM      9  N   UNL A   1      32.226  27.252  23.399  1.00  0.00    -0.306 N 
ATOM     10  O   UNL A   1      34.270  25.622  25.711  1.00  0.00    -0.272 OA
ATOM     11  N   UNL A   1      33.572  25.463  23.544  1.00  0.00    -0.301 N 
ATOM     12  C   UNL A   1      32.761  26.156  22.697  1.00  0.00     0.180 C 
ATOM     13  H   UNL A   1      34.060  24.645  23.299  1.00  0.00     0.172 HD
ATOM     14  S   UNL A   1      32.586  25.678  21.117  1.00  0.00    -0.040 S 
BRANCH   9  15
ATOM     15  C   UNL A   1      31.027  27.957  23.096  1.00  0.00     0.044 A 
ATOM     16  C   UNL A   1      29.775  27.430  23.440  1.00  0.00     0.026 A 
ATOM     17  C   UNL A   1      31.059  29.233  22.521  1.00  0.00     0.026 A 
ATOM     18  C   UNL A   1      28.596  28.135  23.182  1.00  0.00     0.002 A 
ATOM     19  C   UNL A   1      29.879  29.927  22.232  1.00  0.00     0.002 A 
ATOM     20  C   UNL A   1      28.646  29.378  22.563  1.00  0.00     0.000 A 
ENDBRANCH   9  15
ENDBRANCH   6   7
ENDBRANCH   4   6
ENDBRANCH   3   4
ENDBRANCH   2   3
ENDBRANCH   1   2
BRANCH   1  21
ATOM     21  O   UNL A   1      35.650  30.185  29.055  1.00  0.00    -0.458 OA
BRANCH  21  22
ATOM     22  C   UNL A   1      36.414  30.118  30.173  1.00  0.00     0.338 C 
ATOM     23  O   UNL A   1      36.009  30.076  31.323  1.00  0.00    -0.246 OA
BRANCH  22  24
ATOM     24  C   UNL A   1      37.833  29.917  29.794  1.00  0.00     0.060 A 
ATOM     25  C   UNL A   1      38.151  29.941  28.430  1.00  0.00     0.016 A 
ATOM     26  C   UNL A   1      38.844  29.726  30.743  1.00  0.00     0.016 A 
ATOM     27  C   UNL A   1      39.465  29.723  28.012  1.00  0.00     0.010 A 
ATOM     28  C   UNL A   1      40.163  29.508  30.322  1.00  0.00     0.010 A 
ATOM     29  C   UNL A   1      40.473  29.469  28.952  1.00  0.00    -0.014 A 
BRANCH  29  30
ATOM     30  C   UNL A   1      41.803  29.003  28.483  1.00  0.00     0.031 A 
ATOM     31  C   UNL A   1      42.931  29.996  28.401  1.00  0.00     0.074 A 
ATOM     32  C   UNL A   1      42.026  27.710  28.183  1.00  0.00     0.049 A 
ATOM     33  N   UNL A   1      44.189  29.800  28.102  1.00  0.00    -0.248 NA
ATOM     34  C   UNL A   1      42.595  31.398  28.699  1.00  0.00     0.031 C 
ATOM     35  C   UNL A   1      41.024  26.646  28.216  1.00  0.00     0.029 A 
ATOM     36  N   UNL A   1      43.178  27.074  27.790  1.00  0.00    -0.354 N 
ATOM     37  C   UNL A   1      44.800  31.044  28.206  1.00  0.00     0.074 A 
ATOM     38  C   UNL A   1      43.764  31.999  28.536  1.00  0.00     0.031 C 
ATOM     39  C   UNL A   1      41.604  25.489  27.849  1.00  0.00     0.029 A 
ATOM     40  C   UNL A   1      43.016  25.730  27.553  1.00  0.00     0.049 A 
ATOM     41  H   UNL A   1      44.041  27.538  27.688  1.00  0.00     0.167 HD
ATOM     42  C   UNL A   1      46.109  31.363  28.069  1.00  0.00     0.037 A 
ATOM     43  C   UNL A   1      43.906  24.802  27.146  1.00  0.00     0.037 A 
ATOM     44  C   UNL A   1      47.142  30.424  27.718  1.00  0.00     0.049 A 
ATOM     45  C   UNL A   1      45.350  25.190  26.944  1.00  0.00     0.074 A 
ATOM     46  C   UNL A   1      48.497  30.657  27.548  1.00  0.00     0.029 A 
ATOM     47  N   UNL A   1      46.936  29.076  27.475  1.00  0.00    -0.354 N 
ATOM     48  N   UNL A   1      45.921  26.361  27.098  1.00  0.00    -0.248 NA
ATOM     49  C   UNL A   1      46.274  24.123  26.532  1.00  0.00     0.031 C 
ATOM     50  C   UNL A   1      49.103  29.455  27.169  1.00  0.00     0.029 A 
ATOM     51  C   UNL A   1      48.135  28.465  27.144  1.00  0.00     0.049 A 
ATOM     52  H   UNL A   1      46.065  28.618  27.531  1.00  0.00     0.167 HD
ATOM     53  C   UNL A   1      47.273  26.164  26.830  1.00  0.00     0.074 A 
ATOM     54  C   UNL A   1      47.437  24.760  26.519  1.00  0.00     0.031 C 
ATOM     55  C   UNL A   1      48.287  27.065  26.842  1.00  0.00     0.037 A 
BRANCH  42  56
ATOM     56  C   UNL A   1      46.496  32.795  28.307  1.00  0.00     0.058 A 
ATOM     57  C   UNL A   1      46.511  33.728  27.257  1.00  0.00     0.135 A 
ATOM     58  C   UNL A   1      46.830  33.247  29.593  1.00  0.00     0.135 A 
ATOM     59  F   UNL A   1      46.219  33.341  26.005  1.00  0.00    -0.206 F 
ATOM     60  C   UNL A   1      46.866  35.055  27.470  1.00  0.00     0.059 A 
ATOM     61  C   UNL A   1      47.166  34.575  29.833  1.00  0.00     0.059 A 
ATOM     62  F   UNL A   1      46.835  32.394  30.629  1.00  0.00    -0.206 F 
ATOM     63  C   UNL A   1      47.194  35.469  28.762  1.00  0.00     0.060 A 
BRANCH  63  64
ATOM     64  S   UNL A   1      47.652  37.195  29.022  1.00  0.00     0.124 S 
ATOM     65  O   UNL A   1      47.018  37.474  30.308  1.00  0.00    -0.237 OA
ATOM     66  O   UNL A   1      49.110  37.135  29.035  1.00  0.00    -0.237 OA
ATOM     67  O   UNL A   1      47.066  37.878  27.874  1.00  0.00    -0.744 OA
ENDBRANCH  63  64
ENDBRANCH  42  56
BRANCH  43  68
ATOM     68  C   UNL A   1      43.465  23.403  26.899  1.00  0.00     0.058 A 
ATOM     69  C   UNL A   1      43.214  22.518  27.958  1.00  0.00     0.135 A 
ATOM     70  C   UNL A   1      43.320  22.914  25.591  1.00  0.00     0.135 A 
ATOM     71  F   UNL A   1      43.350  22.936  29.226  1.00  0.00    -0.206 F 
ATOM     72  C   UNL A   1      42.863  21.191  27.732  1.00  0.00     0.059 A 
ATOM     73  C   UNL A   1      42.947  21.598  25.339  1.00  0.00     0.059 A 
ATOM     74  F   UNL A   1      43.538  23.723  24.543  1.00  0.00    -0.206 F 
ATOM     75  C   UNL A   1      42.735  20.739  26.417  1.00  0.00     0.060 A 
BRANCH  75  76
ATOM     76  S   UNL A   1      42.253  19.022  26.129  1.00  0.00     0.124 S 
ATOM     77  O   UNL A   1      40.839  19.167  25.803  1.00  0.00    -0.237 OA
ATOM     78  O   UNL A   1      43.128  18.636  25.027  1.00  0.00    -0.237 OA
ATOM     79  O   UNL A   1      42.545  18.377  27.406  1.00  0.00    -0.744 OA
ENDBRANCH  75  76
ENDBRANCH  43  68
BRANCH  55  80
ATOM     80  C   UNL A   1      49.672  26.556  26.541  1.00  0.00     0.058 A 
ATOM     81  C   UNL A   1      50.486  25.994  27.538  1.00  0.00     0.135 A 
ATOM     82  C   UNL A   1      50.177  26.598  25.231  1.00  0.00     0.135 A 
ATOM     83  F   UNL A   1      50.053  25.930  28.807  1.00  0.00    -0.206 F 
ATOM     84  C   UNL A   1      51.764  25.522  27.253  1.00  0.00     0.059 A 
ATOM     85  C   UNL A   1      51.442  26.107  24.919  1.00  0.00     0.059 A 
ATOM     86  F   UNL A   1      49.435  27.112  24.237  1.00  0.00    -0.206 F 
ATOM     87  C   UNL A   1      52.234  25.586  25.941  1.00  0.00     0.060 A 
BRANCH  87  88
ATOM     88  S   UNL A   1      53.889  24.960  25.578  1.00  0.00     0.124 S 
ATOM     89  O   UNL A   1      54.602  25.283  26.809  1.00  0.00    -0.237 OA
ATOM     90  O   UNL A   1      53.644  23.540  25.344  1.00  0.00    -0.237 OA
ATOM     91  O   UNL A   1      54.290  25.722  24.400  1.00  0.00    -0.744 OA
ENDBRANCH  87  88
ENDBRANCH  55  80
ENDBRANCH  29  30
ENDBRANCH  22  24
ENDBRANCH  21  22
ENDBRANCH   1  21
TORSDOF 16
ENDMDL
