MODEL 1
REMARK VINA RESULT:     -10.5      0.000      0.000
REMARK SMILES [NH3+]CC(=O)N1C[C@H](O)C[C@H]1C(=O)OCCOC(=O)c1ccc(-c2c3nc(c(-c4c(F)cc(S(=O)(=O)[O-])cc4F)c4ccc([nH]4)c(-c4c(F)cc(S(=O)(=O)[O-])cc4F)c4nc(c(-c5c(F)cc(S(=O)(=O)[O-])cc5F)c5ccc2[nH]5)C=C4)C=C3)cc1
REMARK SMILES IDX 14 1 13 2 11 3 12 4 10 5 5 6 6 7 7 8 9 9 3 10 4 11 2 12 1 13
REMARK SMILES IDX 8 17 15 19 16 20 17 21 18 22 19 23 20 24 84 25 21 26 83 27
REMARK SMILES IDX 22 28 23 29 24 30 77 31 25 32 82 33 76 34 78 35 26 36 81 37
REMARK SMILES IDX 75 38 74 39 27 41 61 42 40 43 60 44 41 45 44 46 59 47 79 48
REMARK SMILES IDX 42 49 43 50 58 52 80 53 45 54 28 55 29 56 38 57 30 58 31 59
REMARK SMILES IDX 37 60 39 61 32 62 33 63 34 64 35 65 36 66 62 67 63 68 72 69
REMARK SMILES IDX 64 70 65 71 71 72 73 73 66 74 67 75 68 76 69 77 70 78 46 79
REMARK SMILES IDX 47 80 56 81 48 82 49 83 55 84 57 85 50 86 51 87 52 88 53 89
REMARK SMILES IDX 54 90
REMARK H PARENT 1 14 1 15 1 16 8 18 78 40 44 51
REMARK Flexibility Score: inf
ROOT
ATOM      1  C   UNL A   1      35.774  32.084  32.920  1.00  0.00     0.274 C 
ENDROOT
BRANCH   1   2
ATOM      2  O   UNL A   1      34.790  32.668  32.046  1.00  0.00    -0.461 OA
BRANCH   2   3
ATOM      3  C   UNL A   1      35.057  33.917  31.597  1.00  0.00     0.329 C 
ATOM      4  O   UNL A   1      36.073  34.551  31.871  1.00  0.00    -0.250 OA
BRANCH   3   5
ATOM      5  C   UNL A   1      34.012  34.459  30.615  1.00  0.00     0.198 C 
ATOM      6  N   UNL A   1      33.630  35.870  30.589  1.00  0.00    -0.321 N 
ATOM      7  C   UNL A   1      33.377  36.312  29.221  1.00  0.00     0.152 C 
ATOM      8  C   UNL A   1      33.603  35.082  28.341  1.00  0.00     0.136 C 
ATOM      9  C   UNL A   1      34.501  34.194  29.187  1.00  0.00     0.070 C 
BRANCH   6  10
ATOM     10  C   UNL A   1      32.963  36.451  31.654  1.00  0.00     0.278 C 
ATOM     11  O   UNL A   1      31.810  36.126  31.938  1.00  0.00    -0.268 OA
BRANCH  10  12
ATOM     12  C   UNL A   1      33.801  37.362  32.567  1.00  0.00     0.360 C 
BRANCH  12  13
ATOM     13  N   UNL A   1      33.851  36.791  33.924  1.00  0.00    -0.350 N 
ATOM     14  H   UNL A   1      33.475  35.843  33.908  1.00  0.00     0.344 HD
ATOM     15  H   UNL A   1      33.295  37.366  34.556  1.00  0.00     0.344 HD
ATOM     16  H   UNL A   1      34.818  36.767  34.248  1.00  0.00     0.344 HD
ENDBRANCH  12  13
ENDBRANCH  10  12
ENDBRANCH   6  10
BRANCH   8  17
ATOM     17  O   UNL A   1      32.380  34.412  28.047  1.00  0.00    -0.391 OA
ATOM     18  H   UNL A   1      32.572  33.568  27.606  1.00  0.00     0.211 HD
ENDBRANCH   8  17
ENDBRANCH   3   5
ENDBRANCH   2   3
ENDBRANCH   1   2
BRANCH   1  19
ATOM     19  C   UNL A   1      36.758  31.195  32.151  1.00  0.00     0.275 C 
BRANCH  19  20
ATOM     20  O   UNL A   1      36.104  30.175  31.369  1.00  0.00    -0.458 OA
BRANCH  20  21
ATOM     21  C   UNL A   1      36.238  30.309  30.030  1.00  0.00     0.338 C 
ATOM     22  O   UNL A   1      35.497  30.906  29.267  1.00  0.00    -0.246 OA
BRANCH  21  23
ATOM     23  C   UNL A   1      37.507  29.737  29.561  1.00  0.00     0.060 A 
ATOM     24  C   UNL A   1      38.315  29.107  30.511  1.00  0.00     0.016 A 
ATOM     25  C   UNL A   1      37.972  29.958  28.264  1.00  0.00     0.016 A 
ATOM     26  C   UNL A   1      39.612  28.737  30.187  1.00  0.00     0.010 A 
ATOM     27  C   UNL A   1      39.270  29.557  27.930  1.00  0.00     0.010 A 
ATOM     28  C   UNL A   1      40.103  28.966  28.896  1.00  0.00    -0.014 A 
BRANCH  28  29
ATOM     29  C   UNL A   1      41.503  28.594  28.584  1.00  0.00     0.031 A 
ATOM     30  C   UNL A   1      42.597  29.619  28.671  1.00  0.00     0.074 A 
ATOM     31  C   UNL A   1      41.787  27.318  28.267  1.00  0.00     0.049 A 
ATOM     32  N   UNL A   1      43.867  29.493  28.387  1.00  0.00    -0.248 NA
ATOM     33  C   UNL A   1      42.214  30.960  29.139  1.00  0.00     0.031 C 
ATOM     34  C   UNL A   1      40.808  26.231  28.193  1.00  0.00     0.029 A 
ATOM     35  N   UNL A   1      42.979  26.717  27.957  1.00  0.00    -0.354 N 
ATOM     36  C   UNL A   1      44.433  30.742  28.613  1.00  0.00     0.074 A 
ATOM     37  C   UNL A   1      43.366  31.614  29.056  1.00  0.00     0.031 C 
ATOM     38  C   UNL A   1      41.442  25.093  27.868  1.00  0.00     0.029 A 
ATOM     39  C   UNL A   1      42.859  25.380  27.666  1.00  0.00     0.049 A 
ATOM     40  H   UNL A   1      43.838  27.197  27.944  1.00  0.00     0.167 HD
ATOM     41  C   UNL A   1      45.724  31.122  28.463  1.00  0.00     0.037 A 
ATOM     42  C   UNL A   1      43.782  24.491  27.254  1.00  0.00     0.037 A 
ATOM     43  C   UNL A   1      46.784  30.240  28.044  1.00  0.00     0.049 A 
ATOM     44  C   UNL A   1      45.201  24.943  27.070  1.00  0.00     0.074 A 
ATOM     45  C   UNL A   1      48.127  30.526  27.875  1.00  0.00     0.029 A 
ATOM     46  N   UNL A   1      46.619  28.899  27.730  1.00  0.00    -0.354 N 
ATOM     47  N   UNL A   1      45.717  26.133  27.267  1.00  0.00    -0.248 NA
ATOM     48  C   UNL A   1      46.162  23.937  26.598  1.00  0.00     0.031 C 
ATOM     49  C   UNL A   1      48.770  29.364  27.431  1.00  0.00     0.029 A 
ATOM     50  C   UNL A   1      47.831  28.347  27.353  1.00  0.00     0.049 A 
ATOM     51  H   UNL A   1      45.764  28.412  27.769  1.00  0.00     0.167 HD
ATOM     52  C   UNL A   1      47.063  26.021  26.944  1.00  0.00     0.074 A 
ATOM     53  C   UNL A   1      47.285  24.641  26.557  1.00  0.00     0.031 C 
ATOM     54  C   UNL A   1      48.026  26.974  26.960  1.00  0.00     0.037 A 
BRANCH  41  55
ATOM     55  C   UNL A   1      46.054  32.563  28.723  1.00  0.00     0.058 A 
ATOM     56  C   UNL A   1      45.985  33.533  27.711  1.00  0.00     0.135 A 
ATOM     57  C   UNL A   1      46.426  32.983  30.010  1.00  0.00     0.135 A 
ATOM     58  F   UNL A   1      45.652  33.180  26.459  1.00  0.00    -0.206 F 
ATOM     59  C   UNL A   1      46.300  34.866  27.960  1.00  0.00     0.059 A 
ATOM     60  C   UNL A   1      46.727  34.314  30.286  1.00  0.00     0.059 A 
ATOM     61  F   UNL A   1      46.509  32.094  31.012  1.00  0.00    -0.206 F 
ATOM     62  C   UNL A   1      46.676  35.245  29.250  1.00  0.00     0.060 A 
BRANCH  62  63
ATOM     63  S   UNL A   1      47.091  36.974  29.564  1.00  0.00     0.124 S 
ATOM     64  O   UNL A   1      45.772  37.600  29.526  1.00  0.00    -0.237 OA
ATOM     65  O   UNL A   1      47.726  36.916  30.876  1.00  0.00    -0.237 OA
ATOM     66  O   UNL A   1      47.979  37.315  28.456  1.00  0.00    -0.744 OA
ENDBRANCH  62  63
ENDBRANCH  41  55
BRANCH  42  67
ATOM     67  C   UNL A   1      43.372  23.095  26.967  1.00  0.00     0.058 A 
ATOM     68  C   UNL A   1      43.308  22.614  25.652  1.00  0.00     0.135 A 
ATOM     69  C   UNL A   1      43.084  22.200  28.010  1.00  0.00     0.135 A 
ATOM     70  F   UNL A   1      43.569  23.437  24.625  1.00  0.00    -0.206 F 
ATOM     71  C   UNL A   1      42.978  21.291  25.378  1.00  0.00     0.059 A 
ATOM     72  C   UNL A   1      42.770  20.869  27.762  1.00  0.00     0.059 A 
ATOM     73  F   UNL A   1      43.144  22.612  29.285  1.00  0.00    -0.206 F 
ATOM     74  C   UNL A   1      42.716  20.424  26.441  1.00  0.00     0.060 A 
BRANCH  74  75
ATOM     75  S   UNL A   1      42.370  18.688  26.087  1.00  0.00     0.124 S 
ATOM     76  O   UNL A   1      42.680  18.061  27.367  1.00  0.00    -0.237 OA
ATOM     77  O   UNL A   1      40.959  18.719  25.716  1.00  0.00    -0.237 OA
ATOM     78  O   UNL A   1      43.288  18.383  24.993  1.00  0.00    -0.744 OA
ENDBRANCH  74  75
ENDBRANCH  42  67
BRANCH  54  79
ATOM     79  C   UNL A   1      49.405  26.551  26.549  1.00  0.00     0.058 A 
ATOM     80  C   UNL A   1      50.309  26.013  27.478  1.00  0.00     0.135 A 
ATOM     81  C   UNL A   1      49.819  26.660  25.213  1.00  0.00     0.135 A 
ATOM     82  F   UNL A   1      49.960  25.897  28.769  1.00  0.00    -0.206 F 
ATOM     83  C   UNL A   1      51.586  25.615  27.100  1.00  0.00     0.059 A 
ATOM     84  C   UNL A   1      51.086  26.253  24.808  1.00  0.00     0.059 A 
ATOM     85  F   UNL A   1      48.988  27.163  24.287  1.00  0.00    -0.206 F 
ATOM     86  C   UNL A   1      51.968  25.743  25.762  1.00  0.00     0.060 A 
BRANCH  86  87
ATOM     87  S   UNL A   1      53.620  25.208  25.273  1.00  0.00     0.124 S 
ATOM     88  O   UNL A   1      54.453  25.889  26.259  1.00  0.00    -0.237 OA
ATOM     89  O   UNL A   1      53.538  23.756  25.407  1.00  0.00    -0.237 OA
ATOM     90  O   UNL A   1      53.740  25.697  23.902  1.00  0.00    -0.744 OA
ENDBRANCH  86  87
ENDBRANCH  54  79
ENDBRANCH  28  29
ENDBRANCH  21  23
ENDBRANCH  20  21
ENDBRANCH  19  20
ENDBRANCH   1  19
TORSDOF 18
ENDMDL
MODEL 2
REMARK VINA RESULT:     -10.4      6.294     14.462
REMARK SMILES [NH3+]CC(=O)N1C[C@H](O)C[C@H]1C(=O)OCCOC(=O)c1ccc(-c2c3nc(c(-c4c(F)cc(S(=O)(=O)[O-])cc4F)c4ccc([nH]4)c(-c4c(F)cc(S(=O)(=O)[O-])cc4F)c4nc(c(-c5c(F)cc(S(=O)(=O)[O-])cc5F)c5ccc2[nH]5)C=C4)C=C3)cc1
REMARK SMILES IDX 14 1 13 2 11 3 12 4 10 5 5 6 6 7 7 8 9 9 3 10 4 11 2 12 1 13
REMARK SMILES IDX 8 17 15 19 16 20 17 21 18 22 19 23 20 24 84 25 21 26 83 27
REMARK SMILES IDX 22 28 23 29 24 30 77 31 25 32 82 33 76 34 78 35 26 36 81 37
REMARK SMILES IDX 75 38 74 39 27 41 61 42 40 43 60 44 41 45 44 46 59 47 79 48
REMARK SMILES IDX 42 49 43 50 58 52 80 53 45 54 28 55 29 56 38 57 30 58 31 59
REMARK SMILES IDX 37 60 39 61 32 62 33 63 34 64 35 65 36 66 62 67 63 68 72 69
REMARK SMILES IDX 64 70 65 71 71 72 73 73 66 74 67 75 68 76 69 77 70 78 46 79
REMARK SMILES IDX 47 80 56 81 48 82 49 83 55 84 57 85 50 86 51 87 52 88 53 89
REMARK SMILES IDX 54 90
REMARK H PARENT 1 14 1 15 1 16 8 18 78 40 44 51
REMARK Flexibility Score: inf
ROOT
ATOM      1  C   UNL A   1      40.281  21.142  26.307  1.00  0.00     0.274 C 
ENDROOT
BRANCH   1   2
ATOM      2  O   UNL A   1      41.564  21.237  25.662  1.00  0.00    -0.461 OA
BRANCH   2   3
ATOM      3  C   UNL A   1      42.577  20.553  26.245  1.00  0.00     0.329 C 
ATOM      4  O   UNL A   1      42.430  19.544  26.929  1.00  0.00    -0.250 OA
BRANCH   3   5
ATOM      5  C   UNL A   1      43.969  21.092  25.895  1.00  0.00     0.198 C 
ATOM      6  N   UNL A   1      44.575  20.883  24.580  1.00  0.00    -0.321 N 
ATOM      7  C   UNL A   1      45.347  22.053  24.176  1.00  0.00     0.152 C 
ATOM      8  C   UNL A   1      45.225  23.048  25.330  1.00  0.00     0.136 C 
ATOM      9  C   UNL A   1      43.956  22.616  26.045  1.00  0.00     0.070 C 
BRANCH   6  10
ATOM     10  C   UNL A   1      44.930  19.617  24.148  1.00  0.00     0.278 C 
ATOM     11  O   UNL A   1      44.550  19.185  23.059  1.00  0.00    -0.268 OA
BRANCH  10  12
ATOM     12  C   UNL A   1      45.971  18.873  25.001  1.00  0.00     0.360 C 
BRANCH  12  13
ATOM     13  N   UNL A   1      45.286  18.076  26.033  1.00  0.00    -0.350 N 
ATOM     14  H   UNL A   1      44.382  18.499  26.246  1.00  0.00     0.344 HD
ATOM     15  H   UNL A   1      45.856  18.052  26.879  1.00  0.00     0.344 HD
ATOM     16  H   UNL A   1      45.144  17.126  25.691  1.00  0.00     0.344 HD
ENDBRANCH  12  13
ENDBRANCH  10  12
ENDBRANCH   6  10
BRANCH   8  17
ATOM     17  O   UNL A   1      46.341  22.972  26.214  1.00  0.00    -0.391 OA
ATOM     18  H   UNL A   1      46.038  23.092  27.128  1.00  0.00     0.211 HD
ENDBRANCH   8  17
ENDBRANCH   3   5
ENDBRANCH   2   3
ENDBRANCH   1   2
BRANCH   1  19
ATOM     19  C   UNL A   1      39.505  22.461  26.220  1.00  0.00     0.275 C 
BRANCH  19  20
ATOM     20  O   UNL A   1      39.814  23.369  27.297  1.00  0.00    -0.458 OA
BRANCH  20  21
ATOM     21  C   UNL A   1      40.541  24.452  26.940  1.00  0.00     0.338 C 
ATOM     22  O   UNL A   1      41.249  24.577  25.954  1.00  0.00    -0.246 OA
BRANCH  21  23
ATOM     23  C   UNL A   1      40.290  25.585  27.840  1.00  0.00     0.060 A 
ATOM     24  C   UNL A   1      41.241  26.607  27.863  1.00  0.00     0.016 A 
ATOM     25  C   UNL A   1      39.238  25.569  28.757  1.00  0.00     0.016 A 
ATOM     26  C   UNL A   1      41.179  27.595  28.835  1.00  0.00     0.010 A 
ATOM     27  C   UNL A   1      39.159  26.583  29.718  1.00  0.00     0.010 A 
ATOM     28  C   UNL A   1      40.142  27.587  29.776  1.00  0.00    -0.014 A 
BRANCH  28  29
ATOM     29  C   UNL A   1      40.117  28.632  30.826  1.00  0.00     0.031 A 
ATOM     30  C   UNL A   1      41.079  28.574  31.977  1.00  0.00     0.074 A 
ATOM     31  C   UNL A   1      39.253  29.657  30.710  1.00  0.00     0.049 A 
ATOM     32  N   UNL A   1      41.172  29.366  33.013  1.00  0.00    -0.248 NA
ATOM     33  C   UNL A   1      42.067  27.484  31.961  1.00  0.00     0.031 C 
ATOM     34  C   UNL A   1      38.301  29.835  29.611  1.00  0.00     0.029 A 
ATOM     35  N   UNL A   1      39.040  30.743  31.517  1.00  0.00    -0.354 N 
ATOM     36  C   UNL A   1      42.207  28.858  33.788  1.00  0.00     0.074 A 
ATOM     37  C   UNL A   1      42.710  27.685  33.104  1.00  0.00     0.031 C 
ATOM     38  C   UNL A   1      37.612  30.970  29.810  1.00  0.00     0.029 A 
ATOM     39  C   UNL A   1      38.040  31.572  31.069  1.00  0.00     0.049 A 
ATOM     40  H   UNL A   1      39.554  30.913  32.339  1.00  0.00     0.167 HD
ATOM     41  C   UNL A   1      42.689  29.328  34.964  1.00  0.00     0.037 A 
ATOM     42  C   UNL A   1      37.508  32.676  31.624  1.00  0.00     0.037 A 
ATOM     43  C   UNL A   1      42.197  30.509  35.625  1.00  0.00     0.049 A 
ATOM     44  C   UNL A   1      38.043  33.163  32.939  1.00  0.00     0.074 A 
ATOM     45  C   UNL A   1      42.627  31.076  36.812  1.00  0.00     0.029 A 
ATOM     46  N   UNL A   1      41.164  31.306  35.155  1.00  0.00    -0.354 N 
ATOM     47  N   UNL A   1      39.007  32.659  33.672  1.00  0.00    -0.248 NA
ATOM     48  C   UNL A   1      37.410  34.360  33.510  1.00  0.00     0.031 C 
ATOM     49  C   UNL A   1      41.836  32.201  37.073  1.00  0.00     0.029 A 
ATOM     50  C   UNL A   1      40.932  32.351  36.034  1.00  0.00     0.049 A 
ATOM     51  H   UNL A   1      40.667  31.151  34.318  1.00  0.00     0.167 HD
ATOM     52  C   UNL A   1      39.100  33.477  34.790  1.00  0.00     0.074 A 
ATOM     53  C   UNL A   1      38.106  34.520  34.628  1.00  0.00     0.031 C 
ATOM     54  C   UNL A   1      39.928  33.371  35.858  1.00  0.00     0.037 A 
BRANCH  41  55
ATOM     55  C   UNL A   1      43.785  28.543  35.623  1.00  0.00     0.058 A 
ATOM     56  C   UNL A   1      45.140  28.827  35.396  1.00  0.00     0.135 A 
ATOM     57  C   UNL A   1      43.472  27.499  36.510  1.00  0.00     0.135 A 
ATOM     58  F   UNL A   1      45.491  29.802  34.544  1.00  0.00    -0.206 F 
ATOM     59  C   UNL A   1      46.150  28.088  36.007  1.00  0.00     0.059 A 
ATOM     60  C   UNL A   1      44.466  26.760  37.146  1.00  0.00     0.059 A 
ATOM     61  F   UNL A   1      42.192  27.186  36.759  1.00  0.00    -0.206 F 
ATOM     62  C   UNL A   1      45.802  27.052  36.875  1.00  0.00     0.060 A 
BRANCH  62  63
ATOM     63  S   UNL A   1      47.116  26.092  37.657  1.00  0.00     0.124 S 
ATOM     64  O   UNL A   1      46.355  25.015  38.284  1.00  0.00    -0.237 OA
ATOM     65  O   UNL A   1      47.944  25.702  36.520  1.00  0.00    -0.237 OA
ATOM     66  O   UNL A   1      47.730  27.045  38.576  1.00  0.00    -0.744 OA
ENDBRANCH  62  63
ENDBRANCH  41  55
BRANCH  42  67
ATOM     67  C   UNL A   1      36.392  33.371  30.938  1.00  0.00     0.058 A 
ATOM     68  C   UNL A   1      35.084  33.307  31.435  1.00  0.00     0.135 A 
ATOM     69  C   UNL A   1      36.624  34.156  29.797  1.00  0.00     0.135 A 
ATOM     70  F   UNL A   1      34.815  32.563  32.520  1.00  0.00    -0.206 F 
ATOM     71  C   UNL A   1      34.041  34.000  30.829  1.00  0.00     0.059 A 
ATOM     72  C   UNL A   1      35.603  34.874  29.185  1.00  0.00     0.059 A 
ATOM     73  F   UNL A   1      37.864  34.258  29.292  1.00  0.00    -0.206 F 
ATOM     74  C   UNL A   1      34.313  34.786  29.707  1.00  0.00     0.060 A 
BRANCH  74  75
ATOM     75  S   UNL A   1      32.976  35.753  28.973  1.00  0.00     0.124 S 
ATOM     76  O   UNL A   1      32.168  36.073  30.144  1.00  0.00    -0.237 OA
ATOM     77  O   UNL A   1      33.694  36.870  28.367  1.00  0.00    -0.237 OA
ATOM     78  O   UNL A   1      32.374  34.820  28.023  1.00  0.00    -0.744 OA
ENDBRANCH  74  75
ENDBRANCH  42  67
BRANCH  54  79
ATOM     79  C   UNL A   1      39.791  34.413  36.928  1.00  0.00     0.058 A 
ATOM     80  C   UNL A   1      39.020  34.178  38.077  1.00  0.00     0.135 A 
ATOM     81  C   UNL A   1      40.454  35.644  36.817  1.00  0.00     0.135 A 
ATOM     82  F   UNL A   1      38.362  33.018  38.223  1.00  0.00    -0.206 F 
ATOM     83  C   UNL A   1      38.896  35.139  39.074  1.00  0.00     0.059 A 
ATOM     84  C   UNL A   1      40.357  36.614  37.810  1.00  0.00     0.059 A 
ATOM     85  F   UNL A   1      41.207  35.912  35.739  1.00  0.00    -0.206 F 
ATOM     86  C   UNL A   1      39.564  36.357  38.929  1.00  0.00     0.060 A 
BRANCH  86  87
ATOM     87  S   UNL A   1      39.414  37.594  40.235  1.00  0.00     0.124 S 
ATOM     88  O   UNL A   1      40.791  38.061  40.356  1.00  0.00    -0.237 OA
ATOM     89  O   UNL A   1      38.469  38.549  39.662  1.00  0.00    -0.237 OA
ATOM     90  O   UNL A   1      38.908  36.827  41.369  1.00  0.00    -0.744 OA
ENDBRANCH  86  87
ENDBRANCH  54  79
ENDBRANCH  28  29
ENDBRANCH  21  23
ENDBRANCH  20  21
ENDBRANCH  19  20
ENDBRANCH   1  19
TORSDOF 18
ENDMDL
MODEL 3
REMARK VINA RESULT:     -10.4      6.373     14.269
REMARK SMILES [NH3+]CC(=O)N1C[C@H](O)C[C@H]1C(=O)OCCOC(=O)c1ccc(-c2c3nc(c(-c4c(F)cc(S(=O)(=O)[O-])cc4F)c4ccc([nH]4)c(-c4c(F)cc(S(=O)(=O)[O-])cc4F)c4nc(c(-c5c(F)cc(S(=O)(=O)[O-])cc5F)c5ccc2[nH]5)C=C4)C=C3)cc1
REMARK SMILES IDX 14 1 13 2 11 3 12 4 10 5 5 6 6 7 7 8 9 9 3 10 4 11 2 12 1 13
REMARK SMILES IDX 8 17 15 19 16 20 17 21 18 22 19 23 20 24 84 25 21 26 83 27
REMARK SMILES IDX 22 28 23 29 24 30 77 31 25 32 82 33 76 34 78 35 26 36 81 37
REMARK SMILES IDX 75 38 74 39 27 41 61 42 40 43 60 44 41 45 44 46 59 47 79 48
REMARK SMILES IDX 42 49 43 50 58 52 80 53 45 54 28 55 29 56 38 57 30 58 31 59
REMARK SMILES IDX 37 60 39 61 32 62 33 63 34 64 35 65 36 66 62 67 63 68 72 69
REMARK SMILES IDX 64 70 65 71 71 72 73 73 66 74 67 75 68 76 69 77 70 78 46 79
REMARK SMILES IDX 47 80 56 81 48 82 49 83 55 84 57 85 50 86 51 87 52 88 53 89
REMARK SMILES IDX 54 90
REMARK H PARENT 1 14 1 15 1 16 8 18 78 40 44 51
REMARK Flexibility Score: inf
ROOT
ATOM      1  C   UNL A   1      40.046  21.086  26.376  1.00  0.00     0.274 C 
ENDROOT
BRANCH   1   2
ATOM      2  O   UNL A   1      41.295  21.101  27.092  1.00  0.00    -0.461 OA
BRANCH   2   3
ATOM      3  C   UNL A   1      42.081  20.009  26.944  1.00  0.00     0.329 C 
ATOM      4  O   UNL A   1      42.023  19.010  27.657  1.00  0.00    -0.250 OA
BRANCH   3   5
ATOM      5  C   UNL A   1      43.008  20.074  25.725  1.00  0.00     0.198 C 
ATOM      6  N   UNL A   1      44.050  21.092  25.595  1.00  0.00    -0.321 N 
ATOM      7  C   UNL A   1      45.238  20.537  24.954  1.00  0.00     0.152 C 
ATOM      8  C   UNL A   1      44.898  19.077  24.650  1.00  0.00     0.136 C 
ATOM      9  C   UNL A   1      43.781  18.755  25.628  1.00  0.00     0.070 C 
BRANCH   6  10
ATOM     10  C   UNL A   1      43.730  22.431  25.453  1.00  0.00     0.278 C 
ATOM     11  O   UNL A   1      43.008  22.818  24.533  1.00  0.00    -0.268 OA
BRANCH  10  12
ATOM     12  C   UNL A   1      44.154  23.359  26.602  1.00  0.00     0.360 C 
BRANCH  12  13
ATOM     13  N   UNL A   1      44.001  22.657  27.888  1.00  0.00    -0.350 N 
ATOM     14  H   UNL A   1      43.225  23.067  28.409  1.00  0.00     0.344 HD
ATOM     15  H   UNL A   1      44.860  22.748  28.431  1.00  0.00     0.344 HD
ATOM     16  H   UNL A   1      43.810  21.670  27.716  1.00  0.00     0.344 HD
ENDBRANCH  12  13
ENDBRANCH  10  12
ENDBRANCH   6  10
BRANCH   8  17
ATOM     17  O   UNL A   1      44.445  18.908  23.309  1.00  0.00    -0.391 OA
ATOM     18  H   UNL A   1      44.458  17.965  23.080  1.00  0.00     0.211 HD
ENDBRANCH   8  17
ENDBRANCH   3   5
ENDBRANCH   2   3
ENDBRANCH   1   2
BRANCH   1  19
ATOM     19  C   UNL A   1      39.544  22.504  26.083  1.00  0.00     0.275 C 
BRANCH  19  20
ATOM     20  O   UNL A   1      39.780  23.421  27.170  1.00  0.00    -0.458 OA
BRANCH  20  21
ATOM     21  C   UNL A   1      40.341  24.599  26.812  1.00  0.00     0.338 C 
ATOM     22  O   UNL A   1      40.621  24.974  25.685  1.00  0.00    -0.246 OA
BRANCH  21  23
ATOM     23  C   UNL A   1      40.480  25.497  27.965  1.00  0.00     0.060 A 
ATOM     24  C   UNL A   1      39.388  25.601  28.830  1.00  0.00     0.016 A 
ATOM     25  C   UNL A   1      41.582  26.341  28.105  1.00  0.00     0.016 A 
ATOM     26  C   UNL A   1      39.366  26.582  29.810  1.00  0.00     0.010 A 
ATOM     27  C   UNL A   1      41.572  27.310  29.113  1.00  0.00     0.010 A 
ATOM     28  C   UNL A   1      40.455  27.450  29.956  1.00  0.00    -0.014 A 
BRANCH  28  29
ATOM     29  C   UNL A   1      40.394  28.513  30.987  1.00  0.00     0.031 A 
ATOM     30  C   UNL A   1      41.338  28.491  32.154  1.00  0.00     0.074 A 
ATOM     31  C   UNL A   1      39.513  29.519  30.839  1.00  0.00     0.049 A 
ATOM     32  N   UNL A   1      41.399  29.303  33.178  1.00  0.00    -0.248 NA
ATOM     33  C   UNL A   1      42.345  27.420  32.174  1.00  0.00     0.031 C 
ATOM     34  C   UNL A   1      38.577  29.660  29.722  1.00  0.00     0.029 A 
ATOM     35  N   UNL A   1      39.267  30.614  31.624  1.00  0.00    -0.354 N 
ATOM     36  C   UNL A   1      42.429  28.827  33.979  1.00  0.00     0.074 A 
ATOM     37  C   UNL A   1      42.965  27.653  33.324  1.00  0.00     0.031 C 
ATOM     38  C   UNL A   1      37.864  30.786  29.890  1.00  0.00     0.029 A 
ATOM     39  C   UNL A   1      38.260  31.416  31.145  1.00  0.00     0.049 A 
ATOM     40  H   UNL A   1      39.764  30.808  32.452  1.00  0.00     0.167 HD
ATOM     41  C   UNL A   1      42.883  29.326  35.154  1.00  0.00     0.037 A 
ATOM     42  C   UNL A   1      37.699  32.520  31.673  1.00  0.00     0.037 A 
ATOM     43  C   UNL A   1      42.358  30.509  35.787  1.00  0.00     0.049 A 
ATOM     44  C   UNL A   1      38.202  33.039  32.988  1.00  0.00     0.074 A 
ATOM     45  C   UNL A   1      42.759  31.104  36.971  1.00  0.00     0.029 A 
ATOM     46  N   UNL A   1      41.319  31.279  35.286  1.00  0.00    -0.354 N 
ATOM     47  N   UNL A   1      39.163  32.566  33.745  1.00  0.00    -0.248 NA
ATOM     48  C   UNL A   1      37.538  34.233  33.527  1.00  0.00     0.031 C 
ATOM     49  C   UNL A   1      41.942  32.218  37.199  1.00  0.00     0.029 A 
ATOM     50  C   UNL A   1      41.053  32.334  36.143  1.00  0.00     0.049 A 
ATOM     51  H   UNL A   1      40.839  31.100  34.444  1.00  0.00     0.167 HD
ATOM     52  C   UNL A   1      39.223  33.404  34.850  1.00  0.00     0.074 A 
ATOM     53  C   UNL A   1      38.212  34.426  34.654  1.00  0.00     0.031 C 
ATOM     54  C   UNL A   1      40.034  33.332  35.933  1.00  0.00     0.037 A 
BRANCH  41  55
ATOM     55  C   UNL A   1      43.982  28.572  35.845  1.00  0.00     0.058 A 
ATOM     56  C   UNL A   1      43.714  27.506  36.716  1.00  0.00     0.135 A 
ATOM     57  C   UNL A   1      45.325  28.913  35.618  1.00  0.00     0.135 A 
ATOM     58  F   UNL A   1      42.446  27.152  36.981  1.00  0.00    -0.206 F 
ATOM     59  C   UNL A   1      44.739  26.817  37.358  1.00  0.00     0.059 A 
ATOM     60  C   UNL A   1      46.367  28.226  36.234  1.00  0.00     0.059 A 
ATOM     61  F   UNL A   1      45.635  29.927  34.795  1.00  0.00    -0.206 F 
ATOM     62  C   UNL A   1      46.063  27.189  37.116  1.00  0.00     0.060 A 
BRANCH  62  63
ATOM     63  S   UNL A   1      47.388  26.298  37.959  1.00  0.00     0.124 S 
ATOM     64  O   UNL A   1      48.237  25.910  36.836  1.00  0.00    -0.237 OA
ATOM     65  O   UNL A   1      47.939  27.314  38.849  1.00  0.00    -0.237 OA
ATOM     66  O   UNL A   1      46.687  25.202  38.623  1.00  0.00    -0.744 OA
ENDBRANCH  62  63
ENDBRANCH  41  55
BRANCH  42  67
ATOM     67  C   UNL A   1      36.581  33.183  30.956  1.00  0.00     0.058 A 
ATOM     68  C   UNL A   1      35.264  33.089  31.424  1.00  0.00     0.135 A 
ATOM     69  C   UNL A   1      36.821  33.965  29.815  1.00  0.00     0.135 A 
ATOM     70  F   UNL A   1      34.990  32.346  32.508  1.00  0.00    -0.206 F 
ATOM     71  C   UNL A   1      34.219  33.752  30.790  1.00  0.00     0.059 A 
ATOM     72  C   UNL A   1      35.796  34.653  29.175  1.00  0.00     0.059 A 
ATOM     73  F   UNL A   1      38.068  34.094  29.338  1.00  0.00    -0.206 F 
ATOM     74  C   UNL A   1      34.497  34.537  29.669  1.00  0.00     0.060 A 
BRANCH  74  75
ATOM     75  S   UNL A   1      33.153  35.465  28.897  1.00  0.00     0.124 S 
ATOM     76  O   UNL A   1      33.889  36.459  28.125  1.00  0.00    -0.237 OA
ATOM     77  O   UNL A   1      32.466  34.435  28.123  1.00  0.00    -0.237 OA
ATOM     78  O   UNL A   1      32.404  35.978  30.041  1.00  0.00    -0.744 OA
ENDBRANCH  74  75
ENDBRANCH  42  67
BRANCH  54  79
ATOM     79  C   UNL A   1      39.860  34.389  36.983  1.00  0.00     0.058 A 
ATOM     80  C   UNL A   1      40.477  35.643  36.861  1.00  0.00     0.135 A 
ATOM     81  C   UNL A   1      39.052  34.156  38.106  1.00  0.00     0.135 A 
ATOM     82  F   UNL A   1      41.265  35.908  35.808  1.00  0.00    -0.206 F 
ATOM     83  C   UNL A   1      40.314  36.627  37.829  1.00  0.00     0.059 A 
ATOM     84  C   UNL A   1      38.861  35.131  39.079  1.00  0.00     0.059 A 
ATOM     85  F   UNL A   1      38.437  32.973  38.262  1.00  0.00    -0.206 F 
ATOM     86  C   UNL A   1      39.507  36.361  38.938  1.00  0.00     0.060 A 
BRANCH  86  87
ATOM     87  S   UNL A   1      39.283  37.648  40.183  1.00  0.00     0.124 S 
ATOM     88  O   UNL A   1      38.198  38.431  39.602  1.00  0.00    -0.237 OA
ATOM     89  O   UNL A   1      38.943  36.880  41.377  1.00  0.00    -0.237 OA
ATOM     90  O   UNL A   1      40.585  38.308  40.221  1.00  0.00    -0.744 OA
ENDBRANCH  86  87
ENDBRANCH  54  79
ENDBRANCH  28  29
ENDBRANCH  21  23
ENDBRANCH  20  21
ENDBRANCH  19  20
ENDBRANCH   1  19
TORSDOF 18
ENDMDL
