MODEL 1
REMARK VINA RESULT:     -10.4      0.000      0.000
REMARK SMILES O=C(OCCOC(=O)c1cccc2c(C(F)(F)F)cc(Br)nc12)c1ccc(-c2c3nc(c(-c4c(F)cc(S(=O)(=O)[O-])cc4F)c4ccc([nH]4)c(-c4c(F)cc(S(=O)(=O)[O-])cc4F)c4nc(c(-c5c(F)cc(S(=O)(=O)[O-])cc5F)c5ccc2[nH]5)C=C4)C=C3)cc1
REMARK SMILES IDX 4 1 3 2 2 3 1 4 24 5 25 6 89 7 26 8 88 9 27 10 28 11 29 12
REMARK SMILES IDX 82 13 30 14 87 15 81 16 83 17 31 18 86 19 80 20 79 21 32 23
REMARK SMILES IDX 66 24 45 25 65 26 46 27 49 28 64 29 84 30 47 31 48 32 63 34
REMARK SMILES IDX 85 35 50 36 33 37 34 38 43 39 35 40 36 41 42 42 44 43 37 44
REMARK SMILES IDX 38 45 39 46 40 47 41 48 67 49 68 50 77 51 69 52 70 53 76 54
REMARK SMILES IDX 78 55 71 56 72 57 73 58 74 59 75 60 51 61 52 62 61 63 53 64
REMARK SMILES IDX 54 65 60 66 62 67 55 68 56 69 57 70 58 71 59 72 5 73 6 74
REMARK SMILES IDX 7 75 8 76 9 77 10 78 23 79 11 80 13 81 22 82 12 83 14 84
REMARK SMILES IDX 20 85 19 86 21 87 15 88 16 89 17 90 18 91
REMARK H PARENT 83 22 49 33
REMARK Flexibility Score: inf
ROOT
ATOM      1  C   UNL A   1      44.480  18.195  25.859  1.00  0.00     0.275 C 
ENDROOT
BRANCH   1   2
ATOM      2  O   UNL A   1      45.305  18.817  24.863  1.00  0.00    -0.458 OA
BRANCH   2   3
ATOM      3  C   UNL A   1      44.966  19.842  24.041  1.00  0.00     0.338 C 
ATOM      4  O   UNL A   1      44.747  19.625  22.851  1.00  0.00    -0.246 OA
BRANCH   3   5
ATOM      5  C   UNL A   1      45.034  21.261  24.500  1.00  0.00     0.060 A 
ATOM      6  C   UNL A   1      45.481  21.468  25.811  1.00  0.00     0.016 A 
ATOM      7  C   UNL A   1      44.718  22.381  23.727  1.00  0.00     0.016 A 
ATOM      8  C   UNL A   1      45.480  22.745  26.380  1.00  0.00     0.010 A 
ATOM      9  C   UNL A   1      44.730  23.664  24.285  1.00  0.00     0.010 A 
ATOM     10  C   UNL A   1      45.098  23.857  25.618  1.00  0.00    -0.014 A 
BRANCH  10  11
ATOM     11  C   UNL A   1      45.349  25.230  26.111  1.00  0.00     0.031 A 
ATOM     12  C   UNL A   1      44.250  26.184  26.482  1.00  0.00     0.074 A 
ATOM     13  C   UNL A   1      46.636  25.621  26.148  1.00  0.00     0.049 A 
ATOM     14  N   UNL A   1      44.344  27.351  27.065  1.00  0.00    -0.248 NA
ATOM     15  C   UNL A   1      42.868  25.779  26.195  1.00  0.00     0.031 C 
ATOM     16  C   UNL A   1      47.782  24.785  25.772  1.00  0.00     0.029 A 
ATOM     17  N   UNL A   1      47.197  26.822  26.481  1.00  0.00    -0.354 N 
ATOM     18  C   UNL A   1      43.042  27.756  27.330  1.00  0.00     0.074 A 
ATOM     19  C   UNL A   1      42.167  26.748  26.778  1.00  0.00     0.031 C 
ATOM     20  C   UNL A   1      48.906  25.503  25.882  1.00  0.00     0.029 A 
ATOM     21  C   UNL A   1      48.554  26.856  26.286  1.00  0.00     0.049 A 
ATOM     22  H   UNL A   1      46.679  27.584  26.827  1.00  0.00     0.167 HD
ATOM     23  C   UNL A   1      42.627  28.874  27.972  1.00  0.00     0.037 A 
ATOM     24  C   UNL A   1      49.417  27.880  26.385  1.00  0.00     0.037 A 
ATOM     25  C   UNL A   1      43.499  29.982  28.266  1.00  0.00     0.049 A 
ATOM     26  C   UNL A   1      48.890  29.209  26.831  1.00  0.00     0.074 A 
ATOM     27  C   UNL A   1      43.176  31.222  28.793  1.00  0.00     0.029 A 
ATOM     28  N   UNL A   1      44.856  30.015  27.975  1.00  0.00    -0.354 N 
ATOM     29  N   UNL A   1      47.672  29.531  27.198  1.00  0.00    -0.248 NA
ATOM     30  C   UNL A   1      49.853  30.313  26.885  1.00  0.00     0.031 C 
ATOM     31  C   UNL A   1      44.315  32.031  28.724  1.00  0.00     0.029 A 
ATOM     32  C   UNL A   1      45.369  31.272  28.239  1.00  0.00     0.049 A 
ATOM     33  H   UNL A   1      45.377  29.254  27.630  1.00  0.00     0.167 HD
ATOM     34  C   UNL A   1      47.730  30.868  27.569  1.00  0.00     0.074 A 
ATOM     35  C   UNL A   1      49.106  31.288  27.383  1.00  0.00     0.031 C 
ATOM     36  C   UNL A   1      46.740  31.670  28.032  1.00  0.00     0.037 A 
BRANCH  23  37
ATOM     37  C   UNL A   1      41.178  28.984  28.369  1.00  0.00     0.058 A 
ATOM     38  C   UNL A   1      40.797  28.880  29.717  1.00  0.00     0.135 A 
ATOM     39  C   UNL A   1      40.185  29.322  27.437  1.00  0.00     0.135 A 
ATOM     40  F   UNL A   1      41.701  28.542  30.650  1.00  0.00    -0.206 F 
ATOM     41  C   UNL A   1      39.489  29.123  30.129  1.00  0.00     0.059 A 
ATOM     42  C   UNL A   1      38.871  29.581  27.827  1.00  0.00     0.059 A 
ATOM     43  F   UNL A   1      40.490  29.427  26.135  1.00  0.00    -0.206 F 
ATOM     44  C   UNL A   1      38.534  29.485  29.177  1.00  0.00     0.060 A 
BRANCH  44  45
ATOM     45  S   UNL A   1      36.850  29.830  29.736  1.00  0.00     0.124 S 
ATOM     46  O   UNL A   1      36.062  29.368  28.598  1.00  0.00    -0.237 OA
ATOM     47  O   UNL A   1      36.755  29.019  30.945  1.00  0.00    -0.237 OA
ATOM     48  O   UNL A   1      36.851  31.275  29.948  1.00  0.00    -0.744 OA
ENDBRANCH  44  45
ENDBRANCH  23  37
BRANCH  24  49
ATOM     49  C   UNL A   1      50.847  27.670  26.050  1.00  0.00     0.058 A 
ATOM     50  C   UNL A   1      51.772  27.326  27.043  1.00  0.00     0.135 A 
ATOM     51  C   UNL A   1      51.307  27.764  24.725  1.00  0.00     0.135 A 
ATOM     52  F   UNL A   1      51.377  27.217  28.320  1.00  0.00    -0.206 F 
ATOM     53  C   UNL A   1      53.111  27.107  26.741  1.00  0.00     0.059 A 
ATOM     54  C   UNL A   1      52.633  27.518  24.394  1.00  0.00     0.059 A 
ATOM     55  F   UNL A   1      50.452  28.063  23.734  1.00  0.00    -0.206 F 
ATOM     56  C   UNL A   1      53.531  27.205  25.413  1.00  0.00     0.060 A 
BRANCH  56  57
ATOM     57  S   UNL A   1      55.270  26.902  25.035  1.00  0.00     0.124 S 
ATOM     58  O   UNL A   1      55.863  28.200  25.337  1.00  0.00    -0.237 OA
ATOM     59  O   UNL A   1      55.596  25.820  25.957  1.00  0.00    -0.237 OA
ATOM     60  O   UNL A   1      55.247  26.531  23.623  1.00  0.00    -0.744 OA
ENDBRANCH  56  57
ENDBRANCH  24  49
BRANCH  36  61
ATOM     61  C   UNL A   1      47.126  33.074  28.402  1.00  0.00     0.058 A 
ATOM     62  C   UNL A   1      47.565  33.405  29.693  1.00  0.00     0.135 A 
ATOM     63  C   UNL A   1      47.068  34.096  27.442  1.00  0.00     0.135 A 
ATOM     64  F   UNL A   1      47.631  32.463  30.649  1.00  0.00    -0.206 F 
ATOM     65  C   UNL A   1      47.890  34.713  30.033  1.00  0.00     0.059 A 
ATOM     66  C   UNL A   1      47.425  35.404  27.749  1.00  0.00     0.059 A 
ATOM     67  F   UNL A   1      46.667  33.828  26.189  1.00  0.00    -0.206 F 
ATOM     68  C   UNL A   1      47.816  35.705  29.053  1.00  0.00     0.060 A 
BRANCH  68  69
ATOM     69  S   UNL A   1      48.243  37.397  29.508  1.00  0.00     0.124 S 
ATOM     70  O   UNL A   1      47.771  38.140  28.344  1.00  0.00    -0.237 OA
ATOM     71  O   UNL A   1      47.481  37.589  30.737  1.00  0.00    -0.237 OA
ATOM     72  O   UNL A   1      49.693  37.348  29.675  1.00  0.00    -0.744 OA
ENDBRANCH  68  69
ENDBRANCH  36  61
ENDBRANCH  10  11
ENDBRANCH   3   5
ENDBRANCH   2   3
ENDBRANCH   1   2
BRANCH   1  73
ATOM     73  C   UNL A   1      42.973  18.365  25.653  1.00  0.00     0.275 C 
BRANCH  73  74
ATOM     74  O   UNL A   1      42.306  19.004  26.751  1.00  0.00    -0.458 OA
BRANCH  74  75
ATOM     75  C   UNL A   1      41.211  19.750  26.432  1.00  0.00     0.340 C 
ATOM     76  O   UNL A   1      40.300  19.417  25.691  1.00  0.00    -0.246 OA
BRANCH  75  77
ATOM     77  C   UNL A   1      41.330  21.066  27.097  1.00  0.00     0.086 A 
ATOM     78  C   UNL A   1      42.441  21.282  27.922  1.00  0.00     0.018 A 
ATOM     79  C   UNL A   1      40.335  22.038  26.914  1.00  0.00     0.087 A 
ATOM     80  C   UNL A   1      42.566  22.484  28.601  1.00  0.00     0.002 A 
ATOM     81  C   UNL A   1      40.443  23.245  27.655  1.00  0.00     0.013 A 
ATOM     82  N   UNL A   1      39.273  21.807  26.114  1.00  0.00    -0.240 NA
ATOM     83  C   UNL A   1      41.566  23.444  28.490  1.00  0.00     0.011 A 
ATOM     84  C   UNL A   1      39.389  24.191  27.553  1.00  0.00     0.068 A 
ATOM     85  C   UNL A   1      38.289  22.722  26.027  1.00  0.00     0.107 A 
ATOM     86  C   UNL A   1      38.296  23.907  26.726  1.00  0.00     0.049 A 
ATOM     87  Br  UNL A   1      36.802  22.315  24.926  1.00  0.00    -0.029 Br
BRANCH  84  88
ATOM     88  C   UNL A   1      39.389  25.480  28.339  1.00  0.00     0.417 C 
ATOM     89  F   UNL A   1      40.626  25.815  28.789  1.00  0.00    -0.166 F 
ATOM     90  F   UNL A   1      38.937  26.541  27.618  1.00  0.00    -0.166 F 
ATOM     91  F   UNL A   1      38.594  25.431  29.447  1.00  0.00    -0.166 F 
ENDBRANCH  84  88
ENDBRANCH  75  77
ENDBRANCH  74  75
ENDBRANCH  73  74
ENDBRANCH   1  73
TORSDOF 15
ENDMDL
MODEL 2
REMARK VINA RESULT:     -10.3      3.200      5.205
REMARK SMILES O=C(OCCOC(=O)c1cccc2c(C(F)(F)F)cc(Br)nc12)c1ccc(-c2c3nc(c(-c4c(F)cc(S(=O)(=O)[O-])cc4F)c4ccc([nH]4)c(-c4c(F)cc(S(=O)(=O)[O-])cc4F)c4nc(c(-c5c(F)cc(S(=O)(=O)[O-])cc5F)c5ccc2[nH]5)C=C4)C=C3)cc1
REMARK SMILES IDX 4 1 3 2 2 3 1 4 24 5 25 6 89 7 26 8 88 9 27 10 28 11 29 12
REMARK SMILES IDX 82 13 30 14 87 15 81 16 83 17 31 18 86 19 80 20 79 21 32 23
REMARK SMILES IDX 66 24 45 25 65 26 46 27 49 28 64 29 84 30 47 31 48 32 63 34
REMARK SMILES IDX 85 35 50 36 33 37 34 38 43 39 35 40 36 41 42 42 44 43 37 44
REMARK SMILES IDX 38 45 39 46 40 47 41 48 67 49 68 50 77 51 69 52 70 53 76 54
REMARK SMILES IDX 78 55 71 56 72 57 73 58 74 59 75 60 51 61 52 62 61 63 53 64
REMARK SMILES IDX 54 65 60 66 62 67 55 68 56 69 57 70 58 71 59 72 5 73 6 74
REMARK SMILES IDX 7 75 8 76 9 77 10 78 23 79 11 80 13 81 22 82 12 83 14 84
REMARK SMILES IDX 20 85 19 86 21 87 15 88 16 89 17 90 18 91
REMARK H PARENT 83 22 49 33
REMARK Flexibility Score: inf
ROOT
ATOM      1  C   UNL A   1      40.281  20.889  26.635  1.00  0.00     0.275 C 
ENDROOT
BRANCH   1   2
ATOM      2  O   UNL A   1      39.375  21.632  25.805  1.00  0.00    -0.458 OA
BRANCH   2   3
ATOM      3  C   UNL A   1      38.599  22.683  26.174  1.00  0.00     0.338 C 
ATOM      4  O   UNL A   1      37.381  22.629  26.015  1.00  0.00    -0.246 OA
BRANCH   3   5
ATOM      5  C   UNL A   1      39.201  23.982  26.595  1.00  0.00     0.060 A 
ATOM      6  C   UNL A   1      38.909  24.408  27.897  1.00  0.00     0.016 A 
ATOM      7  C   UNL A   1      40.040  24.780  25.813  1.00  0.00     0.016 A 
ATOM      8  C   UNL A   1      39.328  25.660  28.357  1.00  0.00     0.010 A 
ATOM      9  C   UNL A   1      40.477  26.027  26.273  1.00  0.00     0.010 A 
ATOM     10  C   UNL A   1      40.116  26.484  27.543  1.00  0.00    -0.014 A 
BRANCH  10  11
ATOM     11  C   UNL A   1      40.790  27.676  28.105  1.00  0.00     0.031 A 
ATOM     12  C   UNL A   1      40.050  28.905  28.550  1.00  0.00     0.074 A 
ATOM     13  C   UNL A   1      42.134  27.638  28.136  1.00  0.00     0.049 A 
ATOM     14  N   UNL A   1      40.510  29.946  29.194  1.00  0.00    -0.248 NA
ATOM     15  C   UNL A   1      38.610  28.975  28.270  1.00  0.00     0.031 C 
ATOM     16  C   UNL A   1      42.956  26.506  27.691  1.00  0.00     0.029 A 
ATOM     17  N   UNL A   1      43.047  28.579  28.523  1.00  0.00    -0.354 N 
ATOM     18  C   UNL A   1      39.403  30.726  29.507  1.00  0.00     0.074 A 
ATOM     19  C   UNL A   1      38.253  30.080  28.919  1.00  0.00     0.031 C 
ATOM     20  C   UNL A   1      44.249  26.825  27.816  1.00  0.00     0.029 A 
ATOM     21  C   UNL A   1      44.345  28.194  28.301  1.00  0.00     0.049 A 
ATOM     22  H   UNL A   1      42.798  29.444  28.920  1.00  0.00     0.167 HD
ATOM     23  C   UNL A   1      39.365  31.878  30.218  1.00  0.00     0.037 A 
ATOM     24  C   UNL A   1      45.488  28.886  28.438  1.00  0.00     0.037 A 
ATOM     25  C   UNL A   1      40.544  32.635  30.554  1.00  0.00     0.049 A 
ATOM     26  C   UNL A   1      45.410  30.285  28.967  1.00  0.00     0.074 A 
ATOM     27  C   UNL A   1      40.631  33.880  31.154  1.00  0.00     0.029 A 
ATOM     28  N   UNL A   1      41.840  32.254  30.236  1.00  0.00    -0.354 N 
ATOM     29  N   UNL A   1      44.356  30.952  29.376  1.00  0.00    -0.248 NA
ATOM     30  C   UNL A   1      46.672  31.022  29.061  1.00  0.00     0.031 C 
ATOM     31  C   UNL A   1      41.968  34.291  31.105  1.00  0.00     0.029 A 
ATOM     32  C   UNL A   1      42.726  33.268  30.558  1.00  0.00     0.049 A 
ATOM     33  H   UNL A   1      42.093  31.390  29.839  1.00  0.00     0.167 HD
ATOM     34  C   UNL A   1      44.836  32.178  29.818  1.00  0.00     0.074 A 
ATOM     35  C   UNL A   1      46.273  32.153  29.626  1.00  0.00     0.031 C 
ATOM     36  C   UNL A   1      44.151  33.224  30.344  1.00  0.00     0.037 A 
BRANCH  23  37
ATOM     37  C   UNL A   1      38.026  32.417  30.650  1.00  0.00     0.058 A 
ATOM     38  C   UNL A   1      37.531  32.148  31.937  1.00  0.00     0.135 A 
ATOM     39  C   UNL A   1      37.296  33.303  29.843  1.00  0.00     0.135 A 
ATOM     40  F   UNL A   1      38.178  31.295  32.746  1.00  0.00    -0.206 F 
ATOM     41  C   UNL A   1      36.369  32.752  32.414  1.00  0.00     0.059 A 
ATOM     42  C   UNL A   1      36.137  33.927  30.304  1.00  0.00     0.059 A 
ATOM     43  F   UNL A   1      37.718  33.588  28.602  1.00  0.00    -0.206 F 
ATOM     44  C   UNL A   1      35.685  33.650  31.593  1.00  0.00     0.060 A 
BRANCH  44  45
ATOM     45  S   UNL A   1      34.200  34.449  32.244  1.00  0.00     0.124 S 
ATOM     46  O   UNL A   1      34.768  35.583  32.966  1.00  0.00    -0.237 OA
ATOM     47  O   UNL A   1      33.467  34.776  31.025  1.00  0.00    -0.237 OA
ATOM     48  O   UNL A   1      33.595  33.417  33.081  1.00  0.00    -0.744 OA
ENDBRANCH  44  45
ENDBRANCH  23  37
BRANCH  24  49
ATOM     49  C   UNL A   1      46.776  28.254  28.062  1.00  0.00     0.058 A 
ATOM     50  C   UNL A   1      47.534  27.553  29.009  1.00  0.00     0.135 A 
ATOM     51  C   UNL A   1      47.254  28.301  26.741  1.00  0.00     0.135 A 
ATOM     52  F   UNL A   1      47.113  27.475  30.280  1.00  0.00    -0.206 F 
ATOM     53  C   UNL A   1      48.733  26.940  28.667  1.00  0.00     0.059 A 
ATOM     54  C   UNL A   1      48.433  27.669  26.368  1.00  0.00     0.059 A 
ATOM     55  F   UNL A   1      46.550  28.938  25.792  1.00  0.00    -0.206 F 
ATOM     56  C   UNL A   1      49.174  27.004  27.343  1.00  0.00     0.060 A 
BRANCH  56  57
ATOM     57  S   UNL A   1      50.726  26.190  26.912  1.00  0.00     0.124 S 
ATOM     58  O   UNL A   1      50.744  26.347  25.463  1.00  0.00    -0.237 OA
ATOM     59  O   UNL A   1      51.701  26.983  27.654  1.00  0.00    -0.237 OA
ATOM     60  O   UNL A   1      50.535  24.826  27.398  1.00  0.00    -0.744 OA
ENDBRANCH  56  57
ENDBRANCH  24  49
BRANCH  36  61
ATOM     61  C   UNL A   1      44.963  34.410  30.782  1.00  0.00     0.058 A 
ATOM     62  C   UNL A   1      45.497  34.504  32.077  1.00  0.00     0.135 A 
ATOM     63  C   UNL A   1      45.219  35.458  29.885  1.00  0.00     0.135 A 
ATOM     64  F   UNL A   1      45.273  33.530  32.975  1.00  0.00    -0.206 F 
ATOM     65  C   UNL A   1      46.220  35.620  32.481  1.00  0.00     0.059 A 
ATOM     66  C   UNL A   1      45.972  36.566  30.255  1.00  0.00     0.059 A 
ATOM     67  F   UNL A   1      44.741  35.409  28.631  1.00  0.00    -0.206 F 
ATOM     68  C   UNL A   1      46.451  36.646  31.562  1.00  0.00     0.060 A 
BRANCH  68  69
ATOM     69  S   UNL A   1      47.393  38.087  32.100  1.00  0.00     0.124 S 
ATOM     70  O   UNL A   1      47.786  38.671  30.822  1.00  0.00    -0.237 OA
ATOM     71  O   UNL A   1      46.402  38.837  32.864  1.00  0.00    -0.237 OA
ATOM     72  O   UNL A   1      48.479  37.508  32.886  1.00  0.00    -0.744 OA
ENDBRANCH  68  69
ENDBRANCH  36  61
ENDBRANCH  10  11
ENDBRANCH   3   5
ENDBRANCH   2   3
ENDBRANCH   1   2
BRANCH   1  73
ATOM     73  C   UNL A   1      40.527  19.444  26.195  1.00  0.00     0.275 C 
BRANCH  73  74
ATOM     74  O   UNL A   1      41.623  19.293  25.281  1.00  0.00    -0.458 OA
BRANCH  74  75
ATOM     75  C   UNL A   1      42.814  18.927  25.832  1.00  0.00     0.340 C 
ATOM     76  O   UNL A   1      42.990  18.033  26.646  1.00  0.00    -0.246 OA
BRANCH  75  77
ATOM     77  C   UNL A   1      43.866  19.830  25.319  1.00  0.00     0.086 A 
ATOM     78  C   UNL A   1      44.682  19.359  24.282  1.00  0.00     0.018 A 
ATOM     79  C   UNL A   1      44.041  21.101  25.888  1.00  0.00     0.087 A 
ATOM     80  C   UNL A   1      45.710  20.155  23.804  1.00  0.00     0.002 A 
ATOM     81  C   UNL A   1      45.131  21.888  25.430  1.00  0.00     0.013 A 
ATOM     82  N   UNL A   1      43.244  21.533  26.887  1.00  0.00    -0.240 NA
ATOM     83  C   UNL A   1      45.950  21.395  24.389  1.00  0.00     0.011 A 
ATOM     84  C   UNL A   1      45.376  23.131  26.071  1.00  0.00     0.068 A 
ATOM     85  C   UNL A   1      43.490  22.719  27.475  1.00  0.00     0.107 A 
ATOM     86  C   UNL A   1      44.537  23.537  27.115  1.00  0.00     0.049 A 
ATOM     87  Br  UNL A   1      42.364  23.245  28.905  1.00  0.00    -0.029 Br
BRANCH  84  88
ATOM     88  C   UNL A   1      46.539  24.016  25.689  1.00  0.00     0.417 C 
ATOM     89  F   UNL A   1      47.072  23.682  24.485  1.00  0.00    -0.166 F 
ATOM     90  F   UNL A   1      46.202  25.331  25.614  1.00  0.00    -0.166 F 
ATOM     91  F   UNL A   1      47.571  23.957  26.579  1.00  0.00    -0.166 F 
ENDBRANCH  84  88
ENDBRANCH  75  77
ENDBRANCH  74  75
ENDBRANCH  73  74
ENDBRANCH   1  73
TORSDOF 15
ENDMDL
MODEL 3
REMARK VINA RESULT:     -10.3      4.737      9.775
REMARK SMILES O=C(OCCOC(=O)c1cccc2c(C(F)(F)F)cc(Br)nc12)c1ccc(-c2c3nc(c(-c4c(F)cc(S(=O)(=O)[O-])cc4F)c4ccc([nH]4)c(-c4c(F)cc(S(=O)(=O)[O-])cc4F)c4nc(c(-c5c(F)cc(S(=O)(=O)[O-])cc5F)c5ccc2[nH]5)C=C4)C=C3)cc1
REMARK SMILES IDX 4 1 3 2 2 3 1 4 24 5 25 6 89 7 26 8 88 9 27 10 28 11 29 12
REMARK SMILES IDX 82 13 30 14 87 15 81 16 83 17 31 18 86 19 80 20 79 21 32 23
REMARK SMILES IDX 66 24 45 25 65 26 46 27 49 28 64 29 84 30 47 31 48 32 63 34
REMARK SMILES IDX 85 35 50 36 33 37 34 38 43 39 35 40 36 41 42 42 44 43 37 44
REMARK SMILES IDX 38 45 39 46 40 47 41 48 67 49 68 50 77 51 69 52 70 53 76 54
REMARK SMILES IDX 78 55 71 56 72 57 73 58 74 59 75 60 51 61 52 62 61 63 53 64
REMARK SMILES IDX 54 65 60 66 62 67 55 68 56 69 57 70 58 71 59 72 5 73 6 74
REMARK SMILES IDX 7 75 8 76 9 77 10 78 23 79 11 80 13 81 22 82 12 83 14 84
REMARK SMILES IDX 20 85 19 86 21 87 15 88 16 89 17 90 18 91
REMARK H PARENT 83 22 49 33
REMARK Flexibility Score: inf
ROOT
ATOM      1  C   UNL A   1      33.787  28.653  26.471  1.00  0.00     0.275 C 
ENDROOT
BRANCH   1   2
ATOM      2  O   UNL A   1      34.025  30.038  26.770  1.00  0.00    -0.458 OA
BRANCH   2   3
ATOM      3  C   UNL A   1      34.611  30.547  27.884  1.00  0.00     0.338 C 
ATOM      4  O   UNL A   1      34.093  31.497  28.466  1.00  0.00    -0.246 OA
BRANCH   3   5
ATOM      5  C   UNL A   1      35.970  30.106  28.316  1.00  0.00     0.060 A 
ATOM      6  C   UNL A   1      36.976  30.151  27.342  1.00  0.00     0.016 A 
ATOM      7  C   UNL A   1      36.317  29.687  29.602  1.00  0.00     0.016 A 
ATOM      8  C   UNL A   1      38.257  29.659  27.605  1.00  0.00     0.010 A 
ATOM      9  C   UNL A   1      37.602  29.208  29.878  1.00  0.00     0.010 A 
ATOM     10  C   UNL A   1      38.580  29.177  28.881  1.00  0.00    -0.014 A 
BRANCH  10  11
ATOM     11  C   UNL A   1      39.988  28.912  29.252  1.00  0.00     0.031 A 
ATOM     12  C   UNL A   1      40.897  29.958  29.831  1.00  0.00     0.074 A 
ATOM     13  C   UNL A   1      40.452  27.679  28.977  1.00  0.00     0.049 A 
ATOM     14  N   UNL A   1      42.096  29.811  30.333  1.00  0.00    -0.248 NA
ATOM     15  C   UNL A   1      40.402  31.339  29.885  1.00  0.00     0.031 C 
ATOM     16  C   UNL A   1      39.663  26.596  28.378  1.00  0.00     0.029 A 
ATOM     17  N   UNL A   1      41.698  27.138  29.127  1.00  0.00    -0.354 N 
ATOM     18  C   UNL A   1      42.441  31.042  30.875  1.00  0.00     0.074 A 
ATOM     19  C   UNL A   1      41.359  31.952  30.577  1.00  0.00     0.031 C 
ATOM     20  C   UNL A   1      40.447  25.527  28.199  1.00  0.00     0.029 A 
ATOM     21  C   UNL A   1      41.797  25.866  28.623  1.00  0.00     0.049 A 
ATOM     22  H   UNL A   1      42.447  27.612  29.554  1.00  0.00     0.167 HD
ATOM     23  C   UNL A   1      43.565  31.373  31.554  1.00  0.00     0.037 A 
ATOM     24  C   UNL A   1      42.872  25.072  28.482  1.00  0.00     0.037 A 
ATOM     25  C   UNL A   1      44.734  30.532  31.598  1.00  0.00     0.049 A 
ATOM     26  C   UNL A   1      44.190  25.570  28.988  1.00  0.00     0.074 A 
ATOM     27  C   UNL A   1      45.979  30.807  32.138  1.00  0.00     0.029 A 
ATOM     28  N   UNL A   1      44.827  29.282  31.000  1.00  0.00    -0.354 N 
ATOM     29  N   UNL A   1      44.462  26.692  29.614  1.00  0.00    -0.248 NA
ATOM     30  C   UNL A   1      45.347  24.695  28.778  1.00  0.00     0.031 C 
ATOM     31  C   UNL A   1      46.846  29.770  31.779  1.00  0.00     0.029 A 
ATOM     32  C   UNL A   1      46.123  28.807  31.092  1.00  0.00     0.049 A 
ATOM     33  H   UNL A   1      44.080  28.805  30.573  1.00  0.00     0.167 HD
ATOM     34  C   UNL A   1      45.817  26.639  29.911  1.00  0.00     0.074 A 
ATOM     35  C   UNL A   1      46.303  25.373  29.398  1.00  0.00     0.031 C 
ATOM     36  C   UNL A   1      46.586  27.549  30.560  1.00  0.00     0.037 A 
BRANCH  23  37
ATOM     37  C   UNL A   1      43.615  32.698  32.269  1.00  0.00     0.058 A 
ATOM     38  C   UNL A   1      44.072  33.850  31.607  1.00  0.00     0.135 A 
ATOM     39  C   UNL A   1      43.091  32.855  33.561  1.00  0.00     0.135 A 
ATOM     40  F   UNL A   1      44.599  33.758  30.376  1.00  0.00    -0.206 F 
ATOM     41  C   UNL A   1      43.991  35.111  32.193  1.00  0.00     0.059 A 
ATOM     42  C   UNL A   1      42.990  34.109  34.164  1.00  0.00     0.059 A 
ATOM     43  F   UNL A   1      42.648  31.788  34.243  1.00  0.00    -0.206 F 
ATOM     44  C   UNL A   1      43.437  35.232  33.469  1.00  0.00     0.060 A 
BRANCH  44  45
ATOM     45  S   UNL A   1      43.309  36.881  34.198  1.00  0.00     0.124 S 
ATOM     46  O   UNL A   1      42.011  36.809  34.862  1.00  0.00    -0.237 OA
ATOM     47  O   UNL A   1      44.471  36.919  35.080  1.00  0.00    -0.237 OA
ATOM     48  O   UNL A   1      43.369  37.771  33.042  1.00  0.00    -0.744 OA
ENDBRANCH  44  45
ENDBRANCH  23  37
BRANCH  24  49
ATOM     49  C   UNL A   1      42.724  23.746  27.835  1.00  0.00     0.058 A 
ATOM     50  C   UNL A   1      42.805  23.614  26.443  1.00  0.00     0.135 A 
ATOM     51  C   UNL A   1      42.543  22.579  28.598  1.00  0.00     0.135 A 
ATOM     52  F   UNL A   1      42.986  24.699  25.676  1.00  0.00    -0.206 F 
ATOM     53  C   UNL A   1      42.688  22.375  25.825  1.00  0.00     0.059 A 
ATOM     54  C   UNL A   1      42.455  21.326  28.005  1.00  0.00     0.059 A 
ATOM     55  F   UNL A   1      42.486  22.651  29.937  1.00  0.00    -0.206 F 
ATOM     56  C   UNL A   1      42.513  21.237  26.616  1.00  0.00     0.060 A 
BRANCH  56  57
ATOM     57  S   UNL A   1      42.378  19.634  25.798  1.00  0.00     0.124 S 
ATOM     58  O   UNL A   1      40.980  19.635  25.384  1.00  0.00    -0.237 OA
ATOM     59  O   UNL A   1      43.362  19.754  24.728  1.00  0.00    -0.237 OA
ATOM     60  O   UNL A   1      42.722  18.687  26.856  1.00  0.00    -0.744 OA
ENDBRANCH  56  57
ENDBRANCH  24  49
BRANCH  36  61
ATOM     61  C   UNL A   1      48.025  27.182  30.779  1.00  0.00     0.058 A 
ATOM     62  C   UNL A   1      49.036  27.587  29.893  1.00  0.00     0.135 A 
ATOM     63  C   UNL A   1      48.397  26.426  31.902  1.00  0.00     0.135 A 
ATOM     64  F   UNL A   1      48.731  28.306  28.801  1.00  0.00    -0.206 F 
ATOM     65  C   UNL A   1      50.361  27.215  30.090  1.00  0.00     0.059 A 
ATOM     66  C   UNL A   1      49.720  26.075  32.139  1.00  0.00     0.059 A 
ATOM     67  F   UNL A   1      47.469  26.025  32.786  1.00  0.00    -0.206 F 
ATOM     68  C   UNL A   1      50.692  26.458  31.215  1.00  0.00     0.060 A 
BRANCH  68  69
ATOM     69  S   UNL A   1      52.415  25.986  31.458  1.00  0.00     0.124 S 
ATOM     70  O   UNL A   1      52.882  27.037  32.357  1.00  0.00    -0.237 OA
ATOM     71  O   UNL A   1      52.292  24.655  32.045  1.00  0.00    -0.237 OA
ATOM     72  O   UNL A   1      52.971  26.022  30.108  1.00  0.00    -0.744 OA
ENDBRANCH  68  69
ENDBRANCH  36  61
ENDBRANCH  10  11
ENDBRANCH   3   5
ENDBRANCH   2   3
ENDBRANCH   1   2
BRANCH   1  73
ATOM     73  C   UNL A   1      32.826  28.397  25.307  1.00  0.00     0.275 C 
BRANCH  73  74
ATOM     74  O   UNL A   1      32.582  27.006  25.052  1.00  0.00    -0.458 OA
BRANCH  74  75
ATOM     75  C   UNL A   1      33.010  26.536  23.847  1.00  0.00     0.340 C 
ATOM     76  O   UNL A   1      33.661  27.155  23.019  1.00  0.00    -0.246 OA
BRANCH  75  77
ATOM     77  C   UNL A   1      32.509  25.156  23.676  1.00  0.00     0.086 A 
ATOM     78  C   UNL A   1      31.186  24.991  23.245  1.00  0.00     0.018 A 
ATOM     79  C   UNL A   1      33.340  24.065  23.970  1.00  0.00     0.087 A 
ATOM     80  C   UNL A   1      30.662  23.714  23.117  1.00  0.00     0.002 A 
ATOM     81  C   UNL A   1      32.779  22.763  23.889  1.00  0.00     0.013 A 
ATOM     82  N   UNL A   1      34.611  24.248  24.384  1.00  0.00    -0.240 NA
ATOM     83  C   UNL A   1      31.440  22.614  23.461  1.00  0.00     0.011 A 
ATOM     84  C   UNL A   1      33.583  21.660  24.282  1.00  0.00     0.068 A 
ATOM     85  C   UNL A   1      35.357  23.188  24.745  1.00  0.00     0.107 A 
ATOM     86  C   UNL A   1      34.890  21.893  24.723  1.00  0.00     0.049 A 
ATOM     87  Br  UNL A   1      37.117  23.517  25.365  1.00  0.00    -0.029 Br
BRANCH  84  88
ATOM     88  C   UNL A   1      33.059  20.244  24.279  1.00  0.00     0.417 C 
ATOM     89  F   UNL A   1      34.041  19.327  24.481  1.00  0.00    -0.166 F 
ATOM     90  F   UNL A   1      32.119  20.024  25.236  1.00  0.00    -0.166 F 
ATOM     91  F   UNL A   1      32.465  19.895  23.101  1.00  0.00    -0.166 F 
ENDBRANCH  84  88
ENDBRANCH  75  77
ENDBRANCH  74  75
ENDBRANCH  73  74
ENDBRANCH   1  73
TORSDOF 15
ENDMDL
