MODEL 1
REMARK VINA RESULT:     -11.4      0.000      0.000
REMARK SMILES O=C(OCCOC(=O)c1cn(C2CC2)c2cc(N3CC[NH2+]CC3)ccc2c1=O)c1ccc(-c2c3nc(c(-c4c(F)cc(S(=O)(=O)[O-])cc4F)c4ccc([nH]4)c(-c4c(F)cc(S(=O)(=O)[O-])cc4F)c4nc(c(-c5c(F)cc(S(=O)(=O)[O-])cc5F)c5ccc2[nH]5)C=C4)C=C3)cc1
REMARK SMILES IDX 4 1 3 2 2 3 1 4 29 5 30 6 94 7 31 8 93 9 32 10 33 11 34 12
REMARK SMILES IDX 87 13 35 14 92 15 86 16 88 17 36 18 91 19 85 20 84 21 37 23
REMARK SMILES IDX 71 24 50 25 70 26 51 27 54 28 69 29 89 30 52 31 53 32 68 34
REMARK SMILES IDX 90 35 55 36 38 37 39 38 48 39 40 40 41 41 47 42 49 43 42 44
REMARK SMILES IDX 43 45 44 46 45 47 46 48 72 49 73 50 82 51 74 52 75 53 81 54
REMARK SMILES IDX 83 55 76 56 77 57 78 58 79 59 80 60 56 61 57 62 66 63 58 64
REMARK SMILES IDX 59 65 65 66 67 67 60 68 61 69 62 70 63 71 64 72 5 73 6 74
REMARK SMILES IDX 7 75 8 76 9 77 10 78 27 79 11 80 26 81 28 82 15 83 25 84
REMARK SMILES IDX 16 85 24 86 17 87 12 88 13 89 14 90 18 91 19 92 23 93 20 94
REMARK SMILES IDX 22 95 21 96
REMARK H PARENT 88 22 54 33 21 97 21 98
REMARK Flexibility Score: inf
ROOT
ATOM      1  C   UNL A   1      33.069  29.346  25.196  1.00  0.00     0.275 C 
ENDROOT
BRANCH   1   2
ATOM      2  O   UNL A   1      33.484  29.321  26.571  1.00  0.00    -0.458 OA
BRANCH   2   3
ATOM      3  C   UNL A   1      34.221  30.225  27.266  1.00  0.00     0.338 C 
ATOM      4  O   UNL A   1      33.811  31.381  27.348  1.00  0.00    -0.246 OA
BRANCH   3   5
ATOM      5  C   UNL A   1      35.584  29.926  27.814  1.00  0.00     0.060 A 
ATOM      6  C   UNL A   1      35.641  29.557  29.165  1.00  0.00     0.016 A 
ATOM      7  C   UNL A   1      36.791  29.962  27.111  1.00  0.00     0.016 A 
ATOM      8  C   UNL A   1      36.871  29.347  29.806  1.00  0.00     0.010 A 
ATOM      9  C   UNL A   1      38.022  29.744  27.752  1.00  0.00     0.010 A 
ATOM     10  C   UNL A   1      38.088  29.472  29.118  1.00  0.00    -0.014 A 
BRANCH  10  11
ATOM     11  C   UNL A   1      39.370  29.124  29.786  1.00  0.00     0.031 A 
ATOM     12  C   UNL A   1      40.034  29.945  30.860  1.00  0.00     0.074 A 
ATOM     13  C   UNL A   1      40.036  28.043  29.346  1.00  0.00     0.049 A 
ATOM     14  N   UNL A   1      40.901  29.549  31.763  1.00  0.00    -0.248 NA
ATOM     15  C   UNL A   1      39.724  31.378  30.935  1.00  0.00     0.031 C 
ATOM     16  C   UNL A   1      39.619  27.175  28.244  1.00  0.00     0.029 A 
ATOM     17  N   UNL A   1      41.241  27.534  29.744  1.00  0.00    -0.354 N 
ATOM     18  C   UNL A   1      41.068  30.624  32.626  1.00  0.00     0.074 A 
ATOM     19  C   UNL A   1      40.393  31.743  32.025  1.00  0.00     0.031 C 
ATOM     20  C   UNL A   1      40.577  26.265  28.027  1.00  0.00     0.029 A 
ATOM     21  C   UNL A   1      41.677  26.507  28.955  1.00  0.00     0.049 A 
ATOM     22  H   UNL A   1      41.742  27.873  30.520  1.00  0.00     0.167 HD
ATOM     23  C   UNL A   1      41.705  30.655  33.820  1.00  0.00     0.037 A 
ATOM     24  C   UNL A   1      42.853  25.857  28.955  1.00  0.00     0.037 A 
ATOM     25  C   UNL A   1      42.820  29.799  34.108  1.00  0.00     0.049 A 
ATOM     26  C   UNL A   1      43.871  26.180  30.004  1.00  0.00     0.074 A 
ATOM     27  C   UNL A   1      43.733  29.885  35.143  1.00  0.00     0.029 A 
ATOM     28  N   UNL A   1      43.285  28.828  33.237  1.00  0.00    -0.354 N 
ATOM     29  N   UNL A   1      43.769  26.988  31.034  1.00  0.00    -0.248 NA
ATOM     30  C   UNL A   1      45.162  25.495  29.896  1.00  0.00     0.031 C 
ATOM     31  C   UNL A   1      44.838  29.093  34.796  1.00  0.00     0.029 A 
ATOM     32  C   UNL A   1      44.554  28.434  33.610  1.00  0.00     0.049 A 
ATOM     33  H   UNL A   1      42.784  28.474  32.467  1.00  0.00     0.167 HD
ATOM     34  C   UNL A   1      44.978  26.892  31.712  1.00  0.00     0.074 A 
ATOM     35  C   UNL A   1      45.789  25.940  30.977  1.00  0.00     0.031 C 
ATOM     36  C   UNL A   1      45.373  27.525  32.847  1.00  0.00     0.037 A 
BRANCH  23  37
ATOM     37  C   UNL A   1      41.303  31.687  34.835  1.00  0.00     0.058 A 
ATOM     38  C   UNL A   1      41.906  32.959  34.811  1.00  0.00     0.135 A 
ATOM     39  C   UNL A   1      40.287  31.472  35.773  1.00  0.00     0.135 A 
ATOM     40  F   UNL A   1      42.872  33.233  33.918  1.00  0.00    -0.206 F 
ATOM     41  C   UNL A   1      41.552  33.959  35.713  1.00  0.00     0.059 A 
ATOM     42  C   UNL A   1      39.910  32.462  36.683  1.00  0.00     0.059 A 
ATOM     43  F   UNL A   1      39.658  30.289  35.821  1.00  0.00    -0.206 F 
ATOM     44  C   UNL A   1      40.565  33.694  36.661  1.00  0.00     0.060 A 
BRANCH  44  45
ATOM     45  S   UNL A   1      40.172  34.971  37.877  1.00  0.00     0.124 S 
ATOM     46  O   UNL A   1      41.001  34.558  39.005  1.00  0.00    -0.237 OA
ATOM     47  O   UNL A   1      40.588  36.193  37.197  1.00  0.00    -0.237 OA
ATOM     48  O   UNL A   1      38.732  34.822  38.072  1.00  0.00    -0.744 OA
ENDBRANCH  44  45
ENDBRANCH  23  37
BRANCH  24  49
ATOM     49  C   UNL A   1      43.076  24.834  27.912  1.00  0.00     0.058 A 
ATOM     50  C   UNL A   1      43.675  25.184  26.697  1.00  0.00     0.135 A 
ATOM     51  C   UNL A   1      42.843  23.472  28.173  1.00  0.00     0.135 A 
ATOM     52  F   UNL A   1      43.917  26.473  26.416  1.00  0.00    -0.206 F 
ATOM     53  C   UNL A   1      44.065  24.215  25.784  1.00  0.00     0.059 A 
ATOM     54  C   UNL A   1      43.246  22.484  27.285  1.00  0.00     0.059 A 
ATOM     55  F   UNL A   1      42.293  23.094  29.339  1.00  0.00    -0.206 F 
ATOM     56  C   UNL A   1      43.866  22.868  26.096  1.00  0.00     0.060 A 
BRANCH  56  57
ATOM     57  S   UNL A   1      44.498  21.623  24.953  1.00  0.00     0.124 S 
ATOM     58  O   UNL A   1      43.569  20.522  25.175  1.00  0.00    -0.237 OA
ATOM     59  O   UNL A   1      44.385  22.309  23.670  1.00  0.00    -0.237 OA
ATOM     60  O   UNL A   1      45.864  21.400  25.419  1.00  0.00    -0.744 OA
ENDBRANCH  56  57
ENDBRANCH  24  49
BRANCH  36  61
ATOM     61  C   UNL A   1      46.753  27.228  33.356  1.00  0.00     0.058 A 
ATOM     62  C   UNL A   1      47.855  28.024  33.005  1.00  0.00     0.135 A 
ATOM     63  C   UNL A   1      46.970  26.150  34.229  1.00  0.00     0.135 A 
ATOM     64  F   UNL A   1      47.700  29.071  32.180  1.00  0.00    -0.206 F 
ATOM     65  C   UNL A   1      49.134  27.727  33.459  1.00  0.00     0.059 A 
ATOM     66  C   UNL A   1      48.234  25.858  34.724  1.00  0.00     0.059 A 
ATOM     67  F   UNL A   1      45.946  25.372  34.613  1.00  0.00    -0.206 F 
ATOM     68  C   UNL A   1      49.314  26.639  34.314  1.00  0.00     0.060 A 
BRANCH  68  69
ATOM     69  S   UNL A   1      50.982  26.251  34.878  1.00  0.00     0.124 S 
ATOM     70  O   UNL A   1      50.974  24.793  34.830  1.00  0.00    -0.237 OA
ATOM     71  O   UNL A   1      51.810  26.915  33.876  1.00  0.00    -0.237 OA
ATOM     72  O   UNL A   1      51.033  26.836  36.214  1.00  0.00    -0.744 OA
ENDBRANCH  68  69
ENDBRANCH  36  61
ENDBRANCH  10  11
ENDBRANCH   3   5
ENDBRANCH   2   3
ENDBRANCH   1   2
BRANCH   1  73
ATOM     73  C   UNL A   1      32.789  27.969  24.593  1.00  0.00     0.275 C 
BRANCH  73  74
ATOM     74  O   UNL A   1      33.986  27.237  24.304  1.00  0.00    -0.458 OA
BRANCH  74  75
ATOM     75  C   UNL A   1      33.889  26.282  23.330  1.00  0.00     0.343 C 
ATOM     76  O   UNL A   1      33.821  26.504  22.131  1.00  0.00    -0.246 OA
BRANCH  75  77
ATOM     77  C   UNL A   1      33.914  24.949  23.953  1.00  0.00     0.124 A 
ATOM     78  C   UNL A   1      35.053  24.501  24.496  1.00  0.00     0.106 A 
ATOM     79  C   UNL A   1      32.741  24.050  24.026  1.00  0.00     0.203 A 
ATOM     80  N   UNL A   1      35.244  23.277  25.107  1.00  0.00    -0.343 N 
ATOM     81  C   UNL A   1      33.004  22.626  24.378  1.00  0.00     0.047 A 
ATOM     82  O   UNL A   1      31.612  24.418  23.726  1.00  0.00    -0.288 OA
ATOM     83  C   UNL A   1      34.251  22.262  24.926  1.00  0.00     0.054 A 
ATOM     84  C   UNL A   1      32.044  21.661  24.048  1.00  0.00     0.016 A 
ATOM     85  C   UNL A   1      34.474  20.891  25.166  1.00  0.00     0.053 A 
ATOM     86  C   UNL A   1      32.322  20.307  24.241  1.00  0.00     0.027 A 
ATOM     87  C   UNL A   1      33.530  19.898  24.812  1.00  0.00     0.039 A 
BRANCH  80  88
ATOM     88  C   UNL A   1      36.371  23.128  26.060  1.00  0.00     0.087 C 
ATOM     89  C   UNL A   1      37.745  22.575  25.725  1.00  0.00     0.027 C 
ATOM     90  C   UNL A   1      37.567  24.041  25.936  1.00  0.00     0.027 C 
ENDBRANCH  80  88
BRANCH  87  91
ATOM     91  N   UNL A   1      33.808  18.563  25.037  1.00  0.00    -0.360 N 
ATOM     92  C   UNL A   1      32.858  17.782  25.837  1.00  0.00     0.178 C 
ATOM     93  C   UNL A   1      34.723  17.779  24.194  1.00  0.00     0.178 C 
ATOM     94  C   UNL A   1      32.120  16.767  24.928  1.00  0.00     0.282 C 
ATOM     95  C   UNL A   1      33.967  16.695  23.385  1.00  0.00     0.282 C 
ATOM     96  N   UNL A   1      33.031  15.868  24.183  1.00  0.00    -0.343 N 
ATOM     97  H   UNL A   1      32.488  15.267  23.563  1.00  0.00     0.346 HD
ATOM     98  H   UNL A   1      33.553  15.283  24.836  1.00  0.00     0.346 HD
ENDBRANCH  87  91
ENDBRANCH  75  77
ENDBRANCH  74  75
ENDBRANCH  73  74
ENDBRANCH   1  73
TORSDOF 16
ENDMDL
MODEL 2
REMARK VINA RESULT:     -11.4      3.268      9.559
REMARK SMILES O=C(OCCOC(=O)c1cn(C2CC2)c2cc(N3CC[NH2+]CC3)ccc2c1=O)c1ccc(-c2c3nc(c(-c4c(F)cc(S(=O)(=O)[O-])cc4F)c4ccc([nH]4)c(-c4c(F)cc(S(=O)(=O)[O-])cc4F)c4nc(c(-c5c(F)cc(S(=O)(=O)[O-])cc5F)c5ccc2[nH]5)C=C4)C=C3)cc1
REMARK SMILES IDX 4 1 3 2 2 3 1 4 29 5 30 6 94 7 31 8 93 9 32 10 33 11 34 12
REMARK SMILES IDX 87 13 35 14 92 15 86 16 88 17 36 18 91 19 85 20 84 21 37 23
REMARK SMILES IDX 71 24 50 25 70 26 51 27 54 28 69 29 89 30 52 31 53 32 68 34
REMARK SMILES IDX 90 35 55 36 38 37 39 38 48 39 40 40 41 41 47 42 49 43 42 44
REMARK SMILES IDX 43 45 44 46 45 47 46 48 72 49 73 50 82 51 74 52 75 53 81 54
REMARK SMILES IDX 83 55 76 56 77 57 78 58 79 59 80 60 56 61 57 62 66 63 58 64
REMARK SMILES IDX 59 65 65 66 67 67 60 68 61 69 62 70 63 71 64 72 5 73 6 74
REMARK SMILES IDX 7 75 8 76 9 77 10 78 27 79 11 80 26 81 28 82 15 83 25 84
REMARK SMILES IDX 16 85 24 86 17 87 12 88 13 89 14 90 18 91 19 92 23 93 20 94
REMARK SMILES IDX 22 95 21 96
REMARK H PARENT 88 22 54 33 21 97 21 98
REMARK Flexibility Score: inf
ROOT
ATOM      1  C   UNL A   1      41.095  22.025  26.932  1.00  0.00     0.275 C 
ENDROOT
BRANCH   1   2
ATOM      2  O   UNL A   1      40.743  23.375  26.587  1.00  0.00    -0.458 OA
BRANCH   2   3
ATOM      3  C   UNL A   1      41.529  24.478  26.508  1.00  0.00     0.338 C 
ATOM      4  O   UNL A   1      42.377  24.535  25.620  1.00  0.00    -0.246 OA
BRANCH   3   5
ATOM      5  C   UNL A   1      41.521  25.568  27.538  1.00  0.00     0.060 A 
ATOM      6  C   UNL A   1      40.354  25.688  28.304  1.00  0.00     0.016 A 
ATOM      7  C   UNL A   1      42.563  26.456  27.818  1.00  0.00     0.016 A 
ATOM      8  C   UNL A   1      40.200  26.731  29.229  1.00  0.00     0.010 A 
ATOM      9  C   UNL A   1      42.411  27.496  28.752  1.00  0.00     0.010 A 
ATOM     10  C   UNL A   1      41.215  27.676  29.445  1.00  0.00    -0.014 A 
BRANCH  10  11
ATOM     11  C   UNL A   1      41.079  28.696  30.518  1.00  0.00     0.031 A 
ATOM     12  C   UNL A   1      41.812  28.668  31.833  1.00  0.00     0.074 A 
ATOM     13  C   UNL A   1      40.173  29.673  30.347  1.00  0.00     0.049 A 
ATOM     14  N   UNL A   1      42.074  29.673  32.637  1.00  0.00    -0.248 NA
ATOM     15  C   UNL A   1      42.299  27.377  32.334  1.00  0.00     0.031 C 
ATOM     16  C   UNL A   1      39.283  29.818  29.195  1.00  0.00     0.029 A 
ATOM     17  N   UNL A   1      39.816  30.694  31.183  1.00  0.00    -0.354 N 
ATOM     18  C   UNL A   1      42.923  29.168  33.613  1.00  0.00     0.074 A 
ATOM     19  C   UNL A   1      42.959  27.742  33.430  1.00  0.00     0.031 C 
ATOM     20  C   UNL A   1      38.452  30.845  29.417  1.00  0.00     0.029 A 
ATOM     21  C   UNL A   1      38.738  31.405  30.734  1.00  0.00     0.049 A 
ATOM     22  H   UNL A   1      40.288  30.896  32.023  1.00  0.00     0.167 HD
ATOM     23  C   UNL A   1      43.625  29.846  34.552  1.00  0.00     0.037 A 
ATOM     24  C   UNL A   1      38.033  32.376  31.338  1.00  0.00     0.037 A 
ATOM     25  C   UNL A   1      43.154  31.084  35.104  1.00  0.00     0.049 A 
ATOM     26  C   UNL A   1      38.476  32.886  32.673  1.00  0.00     0.074 A 
ATOM     27  C   UNL A   1      43.595  31.751  36.233  1.00  0.00     0.029 A 
ATOM     28  N   UNL A   1      42.004  31.724  34.677  1.00  0.00    -0.354 N 
ATOM     29  N   UNL A   1      39.551  32.577  33.360  1.00  0.00    -0.248 NA
ATOM     30  C   UNL A   1      37.615  33.886  33.311  1.00  0.00     0.031 C 
ATOM     31  C   UNL A   1      42.603  32.679  36.586  1.00  0.00     0.029 A 
ATOM     32  C   UNL A   1      41.616  32.662  35.613  1.00  0.00     0.049 A 
ATOM     33  H   UNL A   1      41.533  31.538  33.833  1.00  0.00     0.167 HD
ATOM     34  C   UNL A   1      39.507  33.362  34.506  1.00  0.00     0.074 A 
ATOM     35  C   UNL A   1      38.304  34.165  34.410  1.00  0.00     0.031 C 
ATOM     36  C   UNL A   1      40.392  33.421  35.536  1.00  0.00     0.037 A 
BRANCH  23  37
ATOM     37  C   UNL A   1      44.877  29.233  35.110  1.00  0.00     0.058 A 
ATOM     38  C   UNL A   1      44.803  28.412  36.251  1.00  0.00     0.135 A 
ATOM     39  C   UNL A   1      46.128  29.376  34.499  1.00  0.00     0.135 A 
ATOM     40  F   UNL A   1      43.625  28.217  36.868  1.00  0.00    -0.206 F 
ATOM     41  C   UNL A   1      45.930  27.800  36.793  1.00  0.00     0.059 A 
ATOM     42  C   UNL A   1      47.271  28.767  35.019  1.00  0.00     0.059 A 
ATOM     43  F   UNL A   1      46.253  30.123  33.391  1.00  0.00    -0.206 F 
ATOM     44  C   UNL A   1      47.166  28.000  36.181  1.00  0.00     0.060 A 
BRANCH  44  45
ATOM     45  S   UNL A   1      48.634  27.268  36.940  1.00  0.00     0.124 S 
ATOM     46  O   UNL A   1      49.277  28.445  37.516  1.00  0.00    -0.237 OA
ATOM     47  O   UNL A   1      48.058  26.329  37.896  1.00  0.00    -0.237 OA
ATOM     48  O   UNL A   1      49.333  26.663  35.811  1.00  0.00    -0.744 OA
ENDBRANCH  44  45
ENDBRANCH  23  37
BRANCH  24  49
ATOM     49  C   UNL A   1      36.846  32.906  30.633  1.00  0.00     0.058 A 
ATOM     50  C   UNL A   1      35.560  32.559  31.058  1.00  0.00     0.135 A 
ATOM     51  C   UNL A   1      36.976  33.886  29.633  1.00  0.00     0.135 A 
ATOM     52  F   UNL A   1      35.397  31.631  32.014  1.00  0.00    -0.206 F 
ATOM     53  C   UNL A   1      34.437  33.187  30.538  1.00  0.00     0.059 A 
ATOM     54  C   UNL A   1      35.869  34.545  29.115  1.00  0.00     0.059 A 
ATOM     55  F   UNL A   1      38.195  34.265  29.216  1.00  0.00    -0.206 F 
ATOM     56  C   UNL A   1      34.604  34.193  29.582  1.00  0.00     0.060 A 
BRANCH  56  57
ATOM     57  S   UNL A   1      33.141  35.084  29.017  1.00  0.00     0.124 S 
ATOM     58  O   UNL A   1      33.730  36.310  28.490  1.00  0.00    -0.237 OA
ATOM     59  O   UNL A   1      32.592  34.162  28.028  1.00  0.00    -0.237 OA
ATOM     60  O   UNL A   1      32.347  35.237  30.233  1.00  0.00    -0.744 OA
ENDBRANCH  56  57
ENDBRANCH  24  49
BRANCH  36  61
ATOM     61  C   UNL A   1      40.083  34.369  36.656  1.00  0.00     0.058 A 
ATOM     62  C   UNL A   1      40.484  35.713  36.615  1.00  0.00     0.135 A 
ATOM     63  C   UNL A   1      39.352  33.934  37.772  1.00  0.00     0.135 A 
ATOM     64  F   UNL A   1      41.179  36.182  35.567  1.00  0.00    -0.206 F 
ATOM     65  C   UNL A   1      40.218  36.579  37.669  1.00  0.00     0.059 A 
ATOM     66  C   UNL A   1      39.042  34.792  38.820  1.00  0.00     0.059 A 
ATOM     67  F   UNL A   1      38.926  32.663  37.850  1.00  0.00    -0.206 F 
ATOM     68  C   UNL A   1      39.501  36.107  38.769  1.00  0.00     0.060 A 
BRANCH  68  69
ATOM     69  S   UNL A   1      39.181  37.234  40.139  1.00  0.00     0.124 S 
ATOM     70  O   UNL A   1      38.414  36.384  41.042  1.00  0.00    -0.237 OA
ATOM     71  O   UNL A   1      40.530  37.576  40.581  1.00  0.00    -0.237 OA
ATOM     72  O   UNL A   1      38.436  38.323  39.516  1.00  0.00    -0.744 OA
ENDBRANCH  68  69
ENDBRANCH  36  61
ENDBRANCH  10  11
ENDBRANCH   3   5
ENDBRANCH   2   3
ENDBRANCH   1   2
BRANCH   1  73
ATOM     73  C   UNL A   1      40.131  20.963  26.403  1.00  0.00     0.275 C 
BRANCH  73  74
ATOM     74  O   UNL A   1      38.982  21.528  25.761  1.00  0.00    -0.458 OA
BRANCH  74  75
ATOM     75  C   UNL A   1      38.061  20.639  25.282  1.00  0.00     0.343 C 
ATOM     76  O   UNL A   1      38.299  19.485  24.955  1.00  0.00    -0.246 OA
BRANCH  75  77
ATOM     77  C   UNL A   1      36.736  21.279  25.254  1.00  0.00     0.124 A 
ATOM     78  C   UNL A   1      35.662  20.548  24.929  1.00  0.00     0.106 A 
ATOM     79  C   UNL A   1      36.502  22.705  25.570  1.00  0.00     0.203 A 
ATOM     80  N   UNL A   1      34.359  20.997  24.848  1.00  0.00    -0.343 N 
ATOM     81  C   UNL A   1      35.182  23.274  25.177  1.00  0.00     0.047 A 
ATOM     82  O   UNL A   1      37.371  23.423  26.049  1.00  0.00    -0.288 OA
ATOM     83  C   UNL A   1      34.124  22.409  24.833  1.00  0.00     0.054 A 
ATOM     84  C   UNL A   1      35.058  24.664  25.049  1.00  0.00     0.016 A 
ATOM     85  C   UNL A   1      32.923  23.002  24.394  1.00  0.00     0.053 A 
ATOM     86  C   UNL A   1      33.876  25.214  24.552  1.00  0.00     0.027 A 
ATOM     87  C   UNL A   1      32.787  24.401  24.228  1.00  0.00     0.039 A 
BRANCH  80  88
ATOM     88  C   UNL A   1      33.259  20.007  24.960  1.00  0.00     0.087 C 
ATOM     89  C   UNL A   1      32.538  19.352  23.794  1.00  0.00     0.027 C 
ATOM     90  C   UNL A   1      33.523  18.567  24.593  1.00  0.00     0.027 C 
ENDBRANCH  80  88
BRANCH  87  91
ATOM     91  N   UNL A   1      31.600  24.934  23.762  1.00  0.00    -0.360 N 
ATOM     92  C   UNL A   1      30.528  25.191  24.730  1.00  0.00     0.178 C 
ATOM     93  C   UNL A   1      31.488  25.653  22.484  1.00  0.00     0.178 C 
ATOM     94  C   UNL A   1      30.345  26.719  24.913  1.00  0.00     0.282 C 
ATOM     95  C   UNL A   1      31.189  27.158  22.701  1.00  0.00     0.282 C 
ATOM     96  N   UNL A   1      30.082  27.440  23.645  1.00  0.00    -0.343 N 
ATOM     97  H   UNL A   1      30.030  28.442  23.826  1.00  0.00     0.346 HD
ATOM     98  H   UNL A   1      29.196  27.129  23.246  1.00  0.00     0.346 HD
ENDBRANCH  87  91
ENDBRANCH  75  77
ENDBRANCH  74  75
ENDBRANCH  73  74
ENDBRANCH   1  73
TORSDOF 16
ENDMDL
MODEL 3
REMARK VINA RESULT:     -11.3      4.661     10.190
REMARK SMILES O=C(OCCOC(=O)c1cn(C2CC2)c2cc(N3CC[NH2+]CC3)ccc2c1=O)c1ccc(-c2c3nc(c(-c4c(F)cc(S(=O)(=O)[O-])cc4F)c4ccc([nH]4)c(-c4c(F)cc(S(=O)(=O)[O-])cc4F)c4nc(c(-c5c(F)cc(S(=O)(=O)[O-])cc5F)c5ccc2[nH]5)C=C4)C=C3)cc1
REMARK SMILES IDX 4 1 3 2 2 3 1 4 29 5 30 6 94 7 31 8 93 9 32 10 33 11 34 12
REMARK SMILES IDX 87 13 35 14 92 15 86 16 88 17 36 18 91 19 85 20 84 21 37 23
REMARK SMILES IDX 71 24 50 25 70 26 51 27 54 28 69 29 89 30 52 31 53 32 68 34
REMARK SMILES IDX 90 35 55 36 38 37 39 38 48 39 40 40 41 41 47 42 49 43 42 44
REMARK SMILES IDX 43 45 44 46 45 47 46 48 72 49 73 50 82 51 74 52 75 53 81 54
REMARK SMILES IDX 83 55 76 56 77 57 78 58 79 59 80 60 56 61 57 62 66 63 58 64
REMARK SMILES IDX 59 65 65 66 67 67 60 68 61 69 62 70 63 71 64 72 5 73 6 74
REMARK SMILES IDX 7 75 8 76 9 77 10 78 27 79 11 80 26 81 28 82 15 83 25 84
REMARK SMILES IDX 16 85 24 86 17 87 12 88 13 89 14 90 18 91 19 92 23 93 20 94
REMARK SMILES IDX 22 95 21 96
REMARK H PARENT 88 22 54 33 21 97 21 98
REMARK Flexibility Score: inf
ROOT
ATOM      1  C   UNL A   1      36.977  23.333  24.470  1.00  0.00     0.275 C 
ENDROOT
BRANCH   1   2
ATOM      2  O   UNL A   1      37.452  22.945  25.769  1.00  0.00    -0.458 OA
BRANCH   2   3
ATOM      3  C   UNL A   1      38.704  23.018  26.287  1.00  0.00     0.338 C 
ATOM      4  O   UNL A   1      39.375  21.990  26.355  1.00  0.00    -0.246 OA
BRANCH   3   5
ATOM      5  C   UNL A   1      39.261  24.259  26.919  1.00  0.00     0.060 A 
ATOM      6  C   UNL A   1      40.052  25.071  26.096  1.00  0.00     0.016 A 
ATOM      7  C   UNL A   1      39.054  24.690  28.231  1.00  0.00     0.016 A 
ATOM      8  C   UNL A   1      40.702  26.205  26.607  1.00  0.00     0.010 A 
ATOM      9  C   UNL A   1      39.697  25.831  28.740  1.00  0.00     0.010 A 
ATOM     10  C   UNL A   1      40.563  26.586  27.950  1.00  0.00    -0.014 A 
BRANCH  10  11
ATOM     11  C   UNL A   1      41.158  27.858  28.437  1.00  0.00     0.031 A 
ATOM     12  C   UNL A   1      42.626  28.087  28.680  1.00  0.00     0.074 A 
ATOM     13  C   UNL A   1      40.323  28.857  28.769  1.00  0.00     0.049 A 
ATOM     14  N   UNL A   1      43.276  29.228  28.709  1.00  0.00    -0.248 NA
ATOM     15  C   UNL A   1      43.480  26.922  28.944  1.00  0.00     0.031 C 
ATOM     16  C   UNL A   1      38.863  28.802  28.712  1.00  0.00     0.029 A 
ATOM     17  N   UNL A   1      40.597  30.095  29.281  1.00  0.00    -0.354 N 
ATOM     18  C   UNL A   1      44.622  28.897  28.782  1.00  0.00     0.074 A 
ATOM     19  C   UNL A   1      44.686  27.478  29.010  1.00  0.00     0.031 C 
ATOM     20  C   UNL A   1      38.368  29.942  29.212  1.00  0.00     0.029 A 
ATOM     21  C   UNL A   1      39.476  30.787  29.644  1.00  0.00     0.049 A 
ATOM     22  H   UNL A   1      41.510  30.452  29.377  1.00  0.00     0.167 HD
ATOM     23  C   UNL A   1      45.698  29.708  28.643  1.00  0.00     0.037 A 
ATOM     24  C   UNL A   1      39.356  31.958  30.292  1.00  0.00     0.037 A 
ATOM     25  C   UNL A   1      45.657  31.093  29.014  1.00  0.00     0.049 A 
ATOM     26  C   UNL A   1      40.586  32.741  30.629  1.00  0.00     0.074 A 
ATOM     27  C   UNL A   1      46.709  31.973  29.189  1.00  0.00     0.029 A 
ATOM     28  N   UNL A   1      44.514  31.732  29.463  1.00  0.00    -0.354 N 
ATOM     29  N   UNL A   1      41.835  32.496  30.309  1.00  0.00    -0.248 NA
ATOM     30  C   UNL A   1      40.389  33.967  31.408  1.00  0.00     0.031 C 
ATOM     31  C   UNL A   1      46.222  33.071  29.914  1.00  0.00     0.029 A 
ATOM     32  C   UNL A   1      44.854  32.919  30.080  1.00  0.00     0.049 A 
ATOM     33  H   UNL A   1      43.597  31.389  29.359  1.00  0.00     0.167 HD
ATOM     34  C   UNL A   1      42.574  33.552  30.830  1.00  0.00     0.074 A 
ATOM     35  C   UNL A   1      41.626  34.439  31.477  1.00  0.00     0.031 C 
ATOM     36  C   UNL A   1      43.913  33.771  30.765  1.00  0.00     0.037 A 
BRANCH  23  37
ATOM     37  C   UNL A   1      47.002  29.117  28.188  1.00  0.00     0.058 A 
ATOM     38  C   UNL A   1      47.274  29.007  26.811  1.00  0.00     0.135 A 
ATOM     39  C   UNL A   1      48.012  28.734  29.077  1.00  0.00     0.135 A 
ATOM     40  F   UNL A   1      46.352  29.381  25.907  1.00  0.00    -0.206 F 
ATOM     41  C   UNL A   1      48.477  28.491  26.336  1.00  0.00     0.059 A 
ATOM     42  C   UNL A   1      49.229  28.220  28.626  1.00  0.00     0.059 A 
ATOM     43  F   UNL A   1      47.819  28.845  30.400  1.00  0.00    -0.206 F 
ATOM     44  C   UNL A   1      49.443  28.080  27.254  1.00  0.00     0.060 A 
BRANCH  44  45
ATOM     45  S   UNL A   1      50.966  27.336  26.627  1.00  0.00     0.124 S 
ATOM     46  O   UNL A   1      50.561  26.943  25.281  1.00  0.00    -0.237 OA
ATOM     47  O   UNL A   1      51.913  28.442  26.707  1.00  0.00    -0.237 OA
ATOM     48  O   UNL A   1      51.210  26.234  27.554  1.00  0.00    -0.744 OA
ENDBRANCH  44  45
ENDBRANCH  23  37
BRANCH  24  49
ATOM     49  C   UNL A   1      37.994  32.423  30.630  1.00  0.00     0.058 A 
ATOM     50  C   UNL A   1      37.456  32.168  31.896  1.00  0.00     0.135 A 
ATOM     51  C   UNL A   1      37.278  33.261  29.757  1.00  0.00     0.135 A 
ATOM     52  F   UNL A   1      38.113  31.377  32.757  1.00  0.00    -0.206 F 
ATOM     53  C   UNL A   1      36.264  32.752  32.300  1.00  0.00     0.059 A 
ATOM     54  C   UNL A   1      36.097  33.876  30.149  1.00  0.00     0.059 A 
ATOM     55  F   UNL A   1      37.775  33.550  28.543  1.00  0.00    -0.206 F 
ATOM     56  C   UNL A   1      35.603  33.621  31.427  1.00  0.00     0.060 A 
BRANCH  56  57
ATOM     57  S   UNL A   1      34.127  34.469  32.023  1.00  0.00     0.124 S 
ATOM     58  O   UNL A   1      33.573  33.484  32.944  1.00  0.00    -0.237 OA
ATOM     59  O   UNL A   1      34.695  35.668  32.632  1.00  0.00    -0.237 OA
ATOM     60  O   UNL A   1      33.354  34.698  30.805  1.00  0.00    -0.744 OA
ENDBRANCH  56  57
ENDBRANCH  24  49
BRANCH  36  61
ATOM     61  C   UNL A   1      44.442  35.007  31.430  1.00  0.00     0.058 A 
ATOM     62  C   UNL A   1      44.471  36.245  30.769  1.00  0.00     0.135 A 
ATOM     63  C   UNL A   1      44.900  34.958  32.756  1.00  0.00     0.135 A 
ATOM     64  F   UNL A   1      44.037  36.347  29.502  1.00  0.00    -0.206 F 
ATOM     65  C   UNL A   1      44.987  37.380  31.381  1.00  0.00     0.059 A 
ATOM     66  C   UNL A   1      45.386  36.089  33.400  1.00  0.00     0.059 A 
ATOM     67  F   UNL A   1      44.874  33.804  33.441  1.00  0.00    -0.206 F 
ATOM     68  C   UNL A   1      45.447  37.290  32.696  1.00  0.00     0.060 A 
BRANCH  68  69
ATOM     69  S   UNL A   1      46.134  38.765  33.472  1.00  0.00     0.124 S 
ATOM     70  O   UNL A   1      47.506  38.742  32.976  1.00  0.00    -0.237 OA
ATOM     71  O   UNL A   1      45.282  39.823  32.936  1.00  0.00    -0.237 OA
ATOM     72  O   UNL A   1      45.977  38.503  34.899  1.00  0.00    -0.744 OA
ENDBRANCH  68  69
ENDBRANCH  36  61
ENDBRANCH  10  11
ENDBRANCH   3   5
ENDBRANCH   2   3
ENDBRANCH   1   2
BRANCH   1  73
ATOM     73  C   UNL A   1      35.506  23.748  24.430  1.00  0.00     0.275 C 
BRANCH  73  74
ATOM     74  O   UNL A   1      35.212  24.833  25.318  1.00  0.00    -0.458 OA
BRANCH  74  75
ATOM     75  C   UNL A   1      33.939  24.878  25.815  1.00  0.00     0.343 C 
ATOM     76  O   UNL A   1      33.470  24.088  26.621  1.00  0.00    -0.246 OA
BRANCH  75  77
ATOM     77  C   UNL A   1      33.238  26.044  25.253  1.00  0.00     0.124 A 
ATOM     78  C   UNL A   1      33.332  27.226  25.874  1.00  0.00     0.106 A 
ATOM     79  C   UNL A   1      32.422  26.001  24.021  1.00  0.00     0.203 A 
ATOM     80  N   UNL A   1      32.732  28.407  25.484  1.00  0.00    -0.343 N 
ATOM     81  C   UNL A   1      31.518  27.158  23.771  1.00  0.00     0.047 A 
ATOM     82  O   UNL A   1      32.407  25.027  23.277  1.00  0.00    -0.288 OA
ATOM     83  C   UNL A   1      31.695  28.352  24.499  1.00  0.00     0.054 A 
ATOM     84  C   UNL A   1      30.437  26.993  22.894  1.00  0.00     0.016 A 
ATOM     85  C   UNL A   1      30.763  29.386  24.278  1.00  0.00     0.053 A 
ATOM     86  C   UNL A   1      29.498  28.015  22.746  1.00  0.00     0.027 A 
ATOM     87  C   UNL A   1      29.648  29.229  23.422  1.00  0.00     0.039 A 
BRANCH  80  88
ATOM     88  C   UNL A   1      33.304  29.688  25.967  1.00  0.00     0.087 C 
ATOM     89  C   UNL A   1      32.860  30.443  27.208  1.00  0.00     0.027 C 
ATOM     90  C   UNL A   1      34.150  29.693  27.217  1.00  0.00     0.027 C 
ENDBRANCH  80  88
BRANCH  87  91
ATOM     91  N   UNL A   1      28.742  30.261  23.263  1.00  0.00    -0.360 N 
ATOM     92  C   UNL A   1      29.057  31.560  23.868  1.00  0.00     0.178 C 
ATOM     93  C   UNL A   1      27.730  30.285  22.196  1.00  0.00     0.178 C 
ATOM     94  C   UNL A   1      29.379  32.589  22.755  1.00  0.00     0.282 C 
ATOM     95  C   UNL A   1      28.018  31.403  21.162  1.00  0.00     0.282 C 
ATOM     96  N   UNL A   1      28.299  32.734  21.751  1.00  0.00    -0.343 N 
ATOM     97  H   UNL A   1      28.597  33.379  21.019  1.00  0.00     0.346 HD
ATOM     98  H   UNL A   1      27.458  33.103  22.196  1.00  0.00     0.346 HD
ENDBRANCH  87  91
ENDBRANCH  75  77
ENDBRANCH  74  75
ENDBRANCH  73  74
ENDBRANCH   1  73
TORSDOF 16
ENDMDL
