MODEL 1
REMARK VINA RESULT:     -11.6      0.000      0.000
REMARK SMILES C[C@@H]1CCC[C@H](C)N1C(=O)Cn1cccc1C(=O)OCCOC(=O)c1ccc(-c2c3nc(c(-c4c(F)cc(S(=O)(=O)[O-])cc4F)c4ccc([nH]4)c(-c4c(F)cc(S(=O)(=O)[O-])cc4F)c4nc(c(-c5c(F)cc(S(=O)(=O)[O-])cc5F)c5ccc2[nH]5)C=C4)C=C3)cc1
REMARK SMILES IDX 20 1 19 2 17 3 18 4 16 5 12 6 13 7 14 8 15 9 11 10 9 11
REMARK SMILES IDX 10 12 8 13 1 14 2 15 3 16 4 17 6 18 5 19 7 20 21 21 22 22
REMARK SMILES IDX 23 23 24 24 25 25 26 26 90 27 27 28 89 29 28 30 29 31 30 32
REMARK SMILES IDX 83 33 31 34 88 35 82 36 84 37 32 38 87 39 81 40 80 41 33 43
REMARK SMILES IDX 67 44 46 45 66 46 47 47 50 48 65 49 85 50 48 51 49 52 64 54
REMARK SMILES IDX 86 55 51 56 34 57 35 58 44 59 36 60 37 61 43 62 45 63 38 64
REMARK SMILES IDX 39 65 40 66 41 67 42 68 68 69 69 70 78 71 70 72 71 73 77 74
REMARK SMILES IDX 79 75 72 76 73 77 74 78 75 79 76 80 52 81 53 82 62 83 54 84
REMARK SMILES IDX 55 85 61 86 63 87 56 88 57 89 58 90 59 91 60 92
REMARK H PARENT 84 42 50 53
REMARK Flexibility Score: inf
ROOT
ATOM      1  C   UNL A   1      33.212  29.713  26.267  1.00  0.00     0.275 C 
ENDROOT
BRANCH   1   2
ATOM      2  O   UNL A   1      32.065  29.159  26.931  1.00  0.00    -0.457 OA
BRANCH   2   3
ATOM      3  C   UNL A   1      31.631  27.982  26.400  1.00  0.00     0.355 C 
ATOM      4  O   UNL A   1      31.210  27.034  27.052  1.00  0.00    -0.244 OA
BRANCH   3   5
ATOM      5  C   UNL A   1      31.584  28.060  24.954  1.00  0.00     0.128 A 
ATOM      6  N   UNL A   1      32.318  27.355  24.013  1.00  0.00    -0.333 N 
ATOM      7  C   UNL A   1      31.761  27.557  22.765  1.00  0.00     0.087 A 
ATOM      8  C   UNL A   1      30.762  28.492  22.875  1.00  0.00     0.020 A 
ATOM      9  C   UNL A   1      30.661  28.819  24.243  1.00  0.00     0.035 A 
BRANCH   6  10
ATOM     10  C   UNL A   1      33.409  26.401  24.207  1.00  0.00     0.222 C 
BRANCH  10  11
ATOM     11  C   UNL A   1      32.975  24.982  24.486  1.00  0.00     0.242 C 
ATOM     12  O   UNL A   1      31.768  24.743  24.598  1.00  0.00    -0.273 OA
BRANCH  11  13
ATOM     13  N   UNL A   1      33.935  23.988  24.658  1.00  0.00    -0.336 N 
ATOM     14  C   UNL A   1      33.830  21.582  23.949  1.00  0.00     0.031 C 
ATOM     15  C   UNL A   1      34.346  22.991  23.634  1.00  0.00     0.082 C 
ATOM     16  C   UNL A   1      35.867  22.961  23.449  1.00  0.00     0.025 C 
ATOM     17  C   UNL A   1      36.584  22.817  24.787  1.00  0.00     0.004 C 
ATOM     18  C   UNL A   1      34.669  24.031  25.935  1.00  0.00     0.082 C 
ATOM     19  C   UNL A   1      36.171  23.962  25.687  1.00  0.00     0.025 C 
ATOM     20  C   UNL A   1      34.199  23.044  26.992  1.00  0.00     0.031 C 
ENDBRANCH  11  13
ENDBRANCH  10  11
ENDBRANCH   6  10
ENDBRANCH   3   5
ENDBRANCH   2   3
ENDBRANCH   1   2
BRANCH   1  21
ATOM     21  C   UNL A   1      34.538  29.389  26.973  1.00  0.00     0.275 C 
BRANCH  21  22
ATOM     22  O   UNL A   1      34.947  30.187  28.098  1.00  0.00    -0.458 OA
BRANCH  22  23
ATOM     23  C   UNL A   1      36.075  30.924  28.099  1.00  0.00     0.338 C 
ATOM     24  O   UNL A   1      36.218  32.071  27.707  1.00  0.00    -0.246 OA
BRANCH  23  25
ATOM     25  C   UNL A   1      37.178  30.007  28.487  1.00  0.00     0.060 A 
ATOM     26  C   UNL A   1      38.302  29.920  27.655  1.00  0.00     0.016 A 
ATOM     27  C   UNL A   1      37.068  29.175  29.613  1.00  0.00     0.016 A 
ATOM     28  C   UNL A   1      39.315  29.007  27.948  1.00  0.00     0.010 A 
ATOM     29  C   UNL A   1      38.084  28.268  29.916  1.00  0.00     0.010 A 
ATOM     30  C   UNL A   1      39.222  28.203  29.096  1.00  0.00    -0.014 A 
BRANCH  30  31
ATOM     31  C   UNL A   1      40.468  27.589  29.628  1.00  0.00     0.031 A 
ATOM     32  C   UNL A   1      40.761  26.247  28.842  1.00  0.00     0.074 A 
ATOM     33  C   UNL A   1      41.122  28.257  30.639  1.00  0.00     0.049 A 
ATOM     34  N   UNL A   1      41.588  25.274  29.082  1.00  0.00    -0.248 NA
ATOM     35  C   UNL A   1      39.973  25.939  27.603  1.00  0.00     0.031 C 
ATOM     36  C   UNL A   1      40.701  29.548  31.244  1.00  0.00     0.029 A 
ATOM     37  N   UNL A   1      42.271  28.008  31.368  1.00  0.00    -0.354 N 
ATOM     38  C   UNL A   1      41.594  24.409  27.948  1.00  0.00     0.074 A 
ATOM     39  C   UNL A   1      40.505  24.815  27.124  1.00  0.00     0.031 C 
ATOM     40  C   UNL A   1      41.503  29.899  32.280  1.00  0.00     0.029 A 
ATOM     41  C   UNL A   1      42.556  28.914  32.440  1.00  0.00     0.049 A 
ATOM     42  H   UNL A   1      42.863  27.248  31.161  1.00  0.00     0.167 HD
ATOM     43  C   UNL A   1      42.563  23.475  27.700  1.00  0.00     0.037 A 
ATOM     44  C   UNL A   1      43.551  28.839  33.391  1.00  0.00     0.037 A 
ATOM     45  C   UNL A   1      43.485  23.456  28.781  1.00  0.00     0.049 A 
ATOM     46  C   UNL A   1      44.409  27.756  32.897  1.00  0.00     0.074 A 
ATOM     47  C   UNL A   1      43.378  22.922  30.035  1.00  0.00     0.029 A 
ATOM     48  N   UNL A   1      44.508  24.370  28.753  1.00  0.00    -0.354 N 
ATOM     49  N   UNL A   1      45.176  27.850  31.853  1.00  0.00    -0.248 NA
ATOM     50  C   UNL A   1      44.325  26.443  33.543  1.00  0.00     0.031 C 
ATOM     51  C   UNL A   1      43.975  23.907  30.840  1.00  0.00     0.029 A 
ATOM     52  C   UNL A   1      44.662  24.828  30.039  1.00  0.00     0.049 A 
ATOM     53  H   UNL A   1      45.030  24.645  27.965  1.00  0.00     0.167 HD
ATOM     54  C   UNL A   1      45.384  26.536  31.526  1.00  0.00     0.074 A 
ATOM     55  C   UNL A   1      45.124  25.765  32.726  1.00  0.00     0.031 C 
ATOM     56  C   UNL A   1      45.252  26.130  30.238  1.00  0.00     0.037 A 
BRANCH  43  57
ATOM     57  C   UNL A   1      42.918  22.624  26.507  1.00  0.00     0.058 A 
ATOM     58  C   UNL A   1      42.454  21.283  26.486  1.00  0.00     0.135 A 
ATOM     59  C   UNL A   1      43.948  22.929  25.608  1.00  0.00     0.135 A 
ATOM     60  F   UNL A   1      41.412  20.904  27.244  1.00  0.00    -0.206 F 
ATOM     61  C   UNL A   1      43.075  20.280  25.751  1.00  0.00     0.059 A 
ATOM     62  C   UNL A   1      44.562  21.941  24.822  1.00  0.00     0.059 A 
ATOM     63  F   UNL A   1      44.436  24.175  25.523  1.00  0.00    -0.206 F 
ATOM     64  C   UNL A   1      44.158  20.611  24.950  1.00  0.00     0.060 A 
BRANCH  64  65
ATOM     65  S   UNL A   1      45.038  19.267  24.122  1.00  0.00     0.124 S 
ATOM     66  O   UNL A   1      44.528  19.368  22.760  1.00  0.00    -0.237 OA
ATOM     67  O   UNL A   1      46.435  19.656  24.303  1.00  0.00    -0.237 OA
ATOM     68  O   UNL A   1      44.625  18.082  24.867  1.00  0.00    -0.744 OA
ENDBRANCH  64  65
ENDBRANCH  43  57
BRANCH  44  69
ATOM     69  C   UNL A   1      43.970  29.423  34.742  1.00  0.00     0.058 A 
ATOM     70  C   UNL A   1      44.993  30.350  34.973  1.00  0.00     0.135 A 
ATOM     71  C   UNL A   1      43.159  29.174  35.897  1.00  0.00     0.135 A 
ATOM     72  F   UNL A   1      45.928  30.581  34.042  1.00  0.00    -0.206 F 
ATOM     73  C   UNL A   1      45.082  31.098  36.174  1.00  0.00     0.059 A 
ATOM     74  C   UNL A   1      43.184  29.940  37.062  1.00  0.00     0.059 A 
ATOM     75  F   UNL A   1      42.252  28.185  35.924  1.00  0.00    -0.206 F 
ATOM     76  C   UNL A   1      44.126  30.937  37.179  1.00  0.00     0.060 A 
BRANCH  76  77
ATOM     77  S   UNL A   1      44.005  32.111  38.555  1.00  0.00     0.124 S 
ATOM     78  O   UNL A   1      43.735  31.234  39.688  1.00  0.00    -0.237 OA
ATOM     79  O   UNL A   1      45.321  32.743  38.537  1.00  0.00    -0.237 OA
ATOM     80  O   UNL A   1      42.902  32.985  38.159  1.00  0.00    -0.744 OA
ENDBRANCH  76  77
ENDBRANCH  44  69
BRANCH  56  81
ATOM     81  C   UNL A   1      45.420  27.223  29.189  1.00  0.00     0.058 A 
ATOM     82  C   UNL A   1      46.668  27.842  29.017  1.00  0.00     0.135 A 
ATOM     83  C   UNL A   1      44.379  27.736  28.392  1.00  0.00     0.135 A 
ATOM     84  F   UNL A   1      47.726  27.419  29.727  1.00  0.00    -0.206 F 
ATOM     85  C   UNL A   1      46.870  28.891  28.110  1.00  0.00     0.059 A 
ATOM     86  C   UNL A   1      44.550  28.778  27.474  1.00  0.00     0.059 A 
ATOM     87  F   UNL A   1      43.151  27.234  28.474  1.00  0.00    -0.206 F 
ATOM     88  C   UNL A   1      45.806  29.350  27.335  1.00  0.00     0.060 A 
BRANCH  88  89
ATOM     89  S   UNL A   1      46.094  30.664  26.128  1.00  0.00     0.124 S 
ATOM     90  O   UNL A   1      44.818  31.373  26.125  1.00  0.00    -0.237 OA
ATOM     91  O   UNL A   1      47.214  31.383  26.725  1.00  0.00    -0.237 OA
ATOM     92  O   UNL A   1      46.403  29.943  24.896  1.00  0.00    -0.744 OA
ENDBRANCH  88  89
ENDBRANCH  56  81
ENDBRANCH  30  31
ENDBRANCH  23  25
ENDBRANCH  22  23
ENDBRANCH  21  22
ENDBRANCH   1  21
TORSDOF 17
ENDMDL
MODEL 2
REMARK VINA RESULT:     -11.5      5.053     11.319
REMARK SMILES C[C@@H]1CCC[C@H](C)N1C(=O)Cn1cccc1C(=O)OCCOC(=O)c1ccc(-c2c3nc(c(-c4c(F)cc(S(=O)(=O)[O-])cc4F)c4ccc([nH]4)c(-c4c(F)cc(S(=O)(=O)[O-])cc4F)c4nc(c(-c5c(F)cc(S(=O)(=O)[O-])cc5F)c5ccc2[nH]5)C=C4)C=C3)cc1
REMARK SMILES IDX 20 1 19 2 17 3 18 4 16 5 12 6 13 7 14 8 15 9 11 10 9 11
REMARK SMILES IDX 10 12 8 13 1 14 2 15 3 16 4 17 6 18 5 19 7 20 21 21 22 22
REMARK SMILES IDX 23 23 24 24 25 25 26 26 90 27 27 28 89 29 28 30 29 31 30 32
REMARK SMILES IDX 83 33 31 34 88 35 82 36 84 37 32 38 87 39 81 40 80 41 33 43
REMARK SMILES IDX 67 44 46 45 66 46 47 47 50 48 65 49 85 50 48 51 49 52 64 54
REMARK SMILES IDX 86 55 51 56 34 57 35 58 44 59 36 60 37 61 43 62 45 63 38 64
REMARK SMILES IDX 39 65 40 66 41 67 42 68 68 69 69 70 78 71 70 72 71 73 77 74
REMARK SMILES IDX 79 75 72 76 73 77 74 78 75 79 76 80 52 81 53 82 62 83 54 84
REMARK SMILES IDX 55 85 61 86 63 87 56 88 57 89 58 90 59 91 60 92
REMARK H PARENT 84 42 50 53
REMARK Flexibility Score: inf
ROOT
ATOM      1  C   UNL A   1      41.157  20.605  27.329  1.00  0.00     0.275 C 
ENDROOT
BRANCH   1   2
ATOM      2  O   UNL A   1      41.910  20.657  26.107  1.00  0.00    -0.457 OA
BRANCH   2   3
ATOM      3  C   UNL A   1      42.558  19.496  25.805  1.00  0.00     0.355 C 
ATOM      4  O   UNL A   1      42.028  18.393  25.757  1.00  0.00    -0.244 OA
BRANCH   3   5
ATOM      5  C   UNL A   1      43.921  19.764  25.395  1.00  0.00     0.128 A 
ATOM      6  N   UNL A   1      44.576  20.978  25.268  1.00  0.00    -0.333 N 
ATOM      7  C   UNL A   1      45.929  20.746  25.110  1.00  0.00     0.087 A 
ATOM      8  C   UNL A   1      46.132  19.393  24.998  1.00  0.00     0.020 A 
ATOM      9  C   UNL A   1      44.874  18.779  25.161  1.00  0.00     0.035 A 
BRANCH   6  10
ATOM     10  C   UNL A   1      44.057  22.338  25.421  1.00  0.00     0.222 C 
BRANCH  10  11
ATOM     11  C   UNL A   1      44.811  23.400  24.658  1.00  0.00     0.242 C 
ATOM     12  O   UNL A   1      45.100  23.187  23.475  1.00  0.00    -0.273 OA
BRANCH  11  13
ATOM     13  N   UNL A   1      45.206  24.567  25.308  1.00  0.00    -0.336 N 
ATOM     14  C   UNL A   1      47.231  24.937  26.744  1.00  0.00     0.031 C 
ATOM     15  C   UNL A   1      46.592  25.104  25.361  1.00  0.00     0.082 C 
ATOM     16  C   UNL A   1      46.649  26.573  24.931  1.00  0.00     0.025 C 
ATOM     17  C   UNL A   1      45.623  27.410  25.688  1.00  0.00     0.004 C 
ATOM     18  C   UNL A   1      44.115  25.373  25.881  1.00  0.00     0.082 C 
ATOM     19  C   UNL A   1      44.246  26.829  25.448  1.00  0.00     0.025 C 
ATOM     20  C   UNL A   1      43.907  25.220  27.379  1.00  0.00     0.031 C 
ENDBRANCH  11  13
ENDBRANCH  10  11
ENDBRANCH   6  10
ENDBRANCH   3   5
ENDBRANCH   2   3
ENDBRANCH   1   2
BRANCH   1  21
ATOM     21  C   UNL A   1      41.311  21.867  28.192  1.00  0.00     0.275 C 
BRANCH  21  22
ATOM     22  O   UNL A   1      41.190  23.160  27.572  1.00  0.00    -0.458 OA
BRANCH  22  23
ATOM     23  C   UNL A   1      40.006  23.678  27.189  1.00  0.00     0.338 C 
ATOM     24  O   UNL A   1      39.114  23.123  26.569  1.00  0.00    -0.246 OA
BRANCH  23  25
ATOM     25  C   UNL A   1      40.063  25.131  27.494  1.00  0.00     0.060 A 
ATOM     26  C   UNL A   1      39.691  25.563  28.774  1.00  0.00     0.016 A 
ATOM     27  C   UNL A   1      40.392  26.068  26.501  1.00  0.00     0.016 A 
ATOM     28  C   UNL A   1      39.653  26.927  29.064  1.00  0.00     0.010 A 
ATOM     29  C   UNL A   1      40.366  27.434  26.790  1.00  0.00     0.010 A 
ATOM     30  C   UNL A   1      40.022  27.862  28.082  1.00  0.00    -0.014 A 
BRANCH  30  31
ATOM     31  C   UNL A   1      40.405  29.230  28.522  1.00  0.00     0.031 A 
ATOM     32  C   UNL A   1      39.097  30.103  28.699  1.00  0.00     0.074 A 
ATOM     33  C   UNL A   1      41.746  29.485  28.702  1.00  0.00     0.049 A 
ATOM     34  N   UNL A   1      38.934  31.383  28.854  1.00  0.00    -0.248 NA
ATOM     35  C   UNL A   1      37.758  29.428  28.669  1.00  0.00     0.031 C 
ATOM     36  C   UNL A   1      42.851  28.509  28.507  1.00  0.00     0.029 A 
ATOM     37  N   UNL A   1      42.469  30.599  29.089  1.00  0.00    -0.354 N 
ATOM     38  C   UNL A   1      37.564  31.618  29.172  1.00  0.00     0.074 A 
ATOM     39  C   UNL A   1      36.877  30.392  28.938  1.00  0.00     0.031 C 
ATOM     40  C   UNL A   1      44.066  29.090  28.675  1.00  0.00     0.029 A 
ATOM     41  C   UNL A   1      43.896  30.484  29.039  1.00  0.00     0.049 A 
ATOM     42  H   UNL A   1      42.026  31.428  29.383  1.00  0.00     0.167 HD
ATOM     43  C   UNL A   1      37.090  32.782  29.714  1.00  0.00     0.037 A 
ATOM     44  C   UNL A   1      44.847  31.459  29.250  1.00  0.00     0.037 A 
ATOM     45  C   UNL A   1      38.153  33.718  29.818  1.00  0.00     0.049 A 
ATOM     46  C   UNL A   1      44.069  32.580  29.789  1.00  0.00     0.074 A 
ATOM     47  C   UNL A   1      38.764  34.484  28.863  1.00  0.00     0.029 A 
ATOM     48  N   UNL A   1      38.950  33.647  30.933  1.00  0.00    -0.354 N 
ATOM     49  N   UNL A   1      43.539  32.598  30.975  1.00  0.00    -0.248 NA
ATOM     50  C   UNL A   1      43.764  33.711  28.910  1.00  0.00     0.031 C 
ATOM     51  C   UNL A   1      40.119  34.402  29.225  1.00  0.00     0.029 A 
ATOM     52  C   UNL A   1      40.240  33.856  30.509  1.00  0.00     0.049 A 
ATOM     53  H   UNL A   1      38.655  33.479  31.857  1.00  0.00     0.167 HD
ATOM     54  C   UNL A   1      42.574  33.561  30.848  1.00  0.00     0.074 A 
ATOM     55  C   UNL A   1      42.962  34.390  29.724  1.00  0.00     0.031 C 
ATOM     56  C   UNL A   1      41.319  33.327  31.309  1.00  0.00     0.037 A 
BRANCH  43  57
ATOM     57  C   UNL A   1      35.779  33.192  30.336  1.00  0.00     0.058 A 
ATOM     58  C   UNL A   1      34.900  33.994  29.562  1.00  0.00     0.135 A 
ATOM     59  C   UNL A   1      35.518  33.150  31.711  1.00  0.00     0.135 A 
ATOM     60  F   UNL A   1      35.005  34.036  28.223  1.00  0.00    -0.206 F 
ATOM     61  C   UNL A   1      33.940  34.825  30.128  1.00  0.00     0.059 A 
ATOM     62  C   UNL A   1      34.525  33.948  32.301  1.00  0.00     0.059 A 
ATOM     63  F   UNL A   1      36.269  32.396  32.527  1.00  0.00    -0.206 F 
ATOM     64  C   UNL A   1      33.786  34.826  31.507  1.00  0.00     0.060 A 
BRANCH  64  65
ATOM     65  S   UNL A   1      32.637  36.021  32.227  1.00  0.00     0.124 S 
ATOM     66  O   UNL A   1      31.594  35.152  32.760  1.00  0.00    -0.237 OA
ATOM     67  O   UNL A   1      33.471  36.689  33.225  1.00  0.00    -0.237 OA
ATOM     68  O   UNL A   1      32.252  36.850  31.089  1.00  0.00    -0.744 OA
ENDBRANCH  64  65
ENDBRANCH  43  57
BRANCH  44  69
ATOM     69  C   UNL A   1      46.333  31.755  29.037  1.00  0.00     0.058 A 
ATOM     70  C   UNL A   1      47.017  31.774  27.816  1.00  0.00     0.135 A 
ATOM     71  C   UNL A   1      47.116  32.245  30.133  1.00  0.00     0.135 A 
ATOM     72  F   UNL A   1      46.481  31.213  26.724  1.00  0.00    -0.206 F 
ATOM     73  C   UNL A   1      48.282  32.395  27.665  1.00  0.00     0.059 A 
ATOM     74  C   UNL A   1      48.330  32.918  30.001  1.00  0.00     0.059 A 
ATOM     75  F   UNL A   1      46.701  32.131  31.404  1.00  0.00    -0.206 F 
ATOM     76  C   UNL A   1      48.892  33.029  28.749  1.00  0.00     0.060 A 
BRANCH  76  77
ATOM     77  S   UNL A   1      50.320  34.123  28.514  1.00  0.00     0.124 S 
ATOM     78  O   UNL A   1      50.366  34.847  29.779  1.00  0.00    -0.237 OA
ATOM     79  O   UNL A   1      51.402  33.171  28.284  1.00  0.00    -0.237 OA
ATOM     80  O   UNL A   1      49.947  34.919  27.346  1.00  0.00    -0.744 OA
ENDBRANCH  76  77
ENDBRANCH  44  69
BRANCH  56  81
ATOM     81  C   UNL A   1      41.210  32.263  32.394  1.00  0.00     0.058 A 
ATOM     82  C   UNL A   1      41.784  32.489  33.656  1.00  0.00     0.135 A 
ATOM     83  C   UNL A   1      40.622  30.996  32.220  1.00  0.00     0.135 A 
ATOM     84  F   UNL A   1      42.363  33.670  33.922  1.00  0.00    -0.206 F 
ATOM     85  C   UNL A   1      41.766  31.527  34.674  1.00  0.00     0.059 A 
ATOM     86  C   UNL A   1      40.584  30.017  33.219  1.00  0.00     0.059 A 
ATOM     87  F   UNL A   1      40.054  30.664  31.064  1.00  0.00    -0.206 F 
ATOM     88  C   UNL A   1      41.157  30.294  34.451  1.00  0.00     0.060 A 
BRANCH  88  89
ATOM     89  S   UNL A   1      41.091  29.085  35.792  1.00  0.00     0.124 S 
ATOM     90  O   UNL A   1      39.769  29.319  36.363  1.00  0.00    -0.237 OA
ATOM     91  O   UNL A   1      41.253  27.826  35.073  1.00  0.00    -0.237 OA
ATOM     92  O   UNL A   1      42.211  29.458  36.653  1.00  0.00    -0.744 OA
ENDBRANCH  88  89
ENDBRANCH  56  81
ENDBRANCH  30  31
ENDBRANCH  23  25
ENDBRANCH  22  23
ENDBRANCH  21  22
ENDBRANCH   1  21
TORSDOF 17
ENDMDL
MODEL 3
REMARK VINA RESULT:     -11.3      3.280      6.695
REMARK SMILES C[C@@H]1CCC[C@H](C)N1C(=O)Cn1cccc1C(=O)OCCOC(=O)c1ccc(-c2c3nc(c(-c4c(F)cc(S(=O)(=O)[O-])cc4F)c4ccc([nH]4)c(-c4c(F)cc(S(=O)(=O)[O-])cc4F)c4nc(c(-c5c(F)cc(S(=O)(=O)[O-])cc5F)c5ccc2[nH]5)C=C4)C=C3)cc1
REMARK SMILES IDX 20 1 19 2 17 3 18 4 16 5 12 6 13 7 14 8 15 9 11 10 9 11
REMARK SMILES IDX 10 12 8 13 1 14 2 15 3 16 4 17 6 18 5 19 7 20 21 21 22 22
REMARK SMILES IDX 23 23 24 24 25 25 26 26 90 27 27 28 89 29 28 30 29 31 30 32
REMARK SMILES IDX 83 33 31 34 88 35 82 36 84 37 32 38 87 39 81 40 80 41 33 43
REMARK SMILES IDX 67 44 46 45 66 46 47 47 50 48 65 49 85 50 48 51 49 52 64 54
REMARK SMILES IDX 86 55 51 56 34 57 35 58 44 59 36 60 37 61 43 62 45 63 38 64
REMARK SMILES IDX 39 65 40 66 41 67 42 68 68 69 69 70 78 71 70 72 71 73 77 74
REMARK SMILES IDX 79 75 72 76 73 77 74 78 75 79 76 80 52 81 53 82 62 83 54 84
REMARK SMILES IDX 55 85 61 86 63 87 56 88 57 89 58 90 59 91 60 92
REMARK H PARENT 84 42 50 53
REMARK Flexibility Score: inf
ROOT
ATOM      1  C   UNL A   1      34.793  32.573  31.091  1.00  0.00     0.275 C 
ENDROOT
BRANCH   1   2
ATOM      2  O   UNL A   1      35.947  32.983  31.843  1.00  0.00    -0.457 OA
BRANCH   2   3
ATOM      3  C   UNL A   1      35.884  32.671  33.168  1.00  0.00     0.355 C 
ATOM      4  O   UNL A   1      35.002  33.042  33.932  1.00  0.00    -0.244 OA
BRANCH   3   5
ATOM      5  C   UNL A   1      36.913  31.712  33.516  1.00  0.00     0.128 A 
ATOM      6  N   UNL A   1      37.695  31.639  34.658  1.00  0.00    -0.333 N 
ATOM      7  C   UNL A   1      38.348  30.421  34.679  1.00  0.00     0.087 A 
ATOM      8  C   UNL A   1      38.100  29.769  33.498  1.00  0.00     0.020 A 
ATOM      9  C   UNL A   1      37.215  30.583  32.762  1.00  0.00     0.035 A 
BRANCH   6  10
ATOM     10  C   UNL A   1      37.770  32.557  35.795  1.00  0.00     0.222 C 
BRANCH  10  11
ATOM     11  C   UNL A   1      39.117  32.623  36.474  1.00  0.00     0.242 C 
ATOM     12  O   UNL A   1      39.299  31.948  37.494  1.00  0.00    -0.273 OA
BRANCH  11  13
ATOM     13  N   UNL A   1      40.101  33.472  35.974  1.00  0.00    -0.336 N 
ATOM     14  C   UNL A   1      40.046  35.974  35.780  1.00  0.00     0.031 C 
ATOM     15  C   UNL A   1      40.528  34.760  36.583  1.00  0.00     0.082 C 
ATOM     16  C   UNL A   1      42.047  34.825  36.769  1.00  0.00     0.025 C 
ATOM     17  C   UNL A   1      42.777  34.469  35.478  1.00  0.00     0.004 C 
ATOM     18  C   UNL A   1      40.843  32.963  34.808  1.00  0.00     0.082 C 
ATOM     19  C   UNL A   1      42.345  33.087  35.038  1.00  0.00     0.025 C 
ATOM     20  C   UNL A   1      40.405  33.518  33.462  1.00  0.00     0.031 C 
ENDBRANCH  11  13
ENDBRANCH  10  11
ENDBRANCH   6  10
ENDBRANCH   3   5
ENDBRANCH   2   3
ENDBRANCH   1   2
BRANCH   1  21
ATOM     21  C   UNL A   1      35.036  32.544  29.574  1.00  0.00     0.275 C 
BRANCH  21  22
ATOM     22  O   UNL A   1      36.228  31.919  29.065  1.00  0.00    -0.458 OA
BRANCH  22  23
ATOM     23  C   UNL A   1      36.199  30.918  28.163  1.00  0.00     0.338 C 
ATOM     24  O   UNL A   1      35.346  30.699  27.318  1.00  0.00    -0.246 OA
BRANCH  23  25
ATOM     25  C   UNL A   1      37.312  29.999  28.516  1.00  0.00     0.060 A 
ATOM     26  C   UNL A   1      38.486  30.045  27.753  1.00  0.00     0.016 A 
ATOM     27  C   UNL A   1      37.167  29.040  29.531  1.00  0.00     0.016 A 
ATOM     28  C   UNL A   1      39.515  29.138  28.006  1.00  0.00     0.010 A 
ATOM     29  C   UNL A   1      38.199  28.137  29.795  1.00  0.00     0.010 A 
ATOM     30  C   UNL A   1      39.385  28.205  29.048  1.00  0.00    -0.014 A 
BRANCH  30  31
ATOM     31  C   UNL A   1      40.621  27.575  29.586  1.00  0.00     0.031 A 
ATOM     32  C   UNL A   1      40.910  26.239  28.789  1.00  0.00     0.074 A 
ATOM     33  C   UNL A   1      41.270  28.226  30.611  1.00  0.00     0.049 A 
ATOM     34  N   UNL A   1      41.727  25.256  29.028  1.00  0.00    -0.248 NA
ATOM     35  C   UNL A   1      40.133  25.950  27.539  1.00  0.00     0.031 C 
ATOM     36  C   UNL A   1      40.853  29.514  31.225  1.00  0.00     0.029 A 
ATOM     37  N   UNL A   1      42.409  27.960  31.350  1.00  0.00    -0.354 N 
ATOM     38  C   UNL A   1      41.737  24.403  27.886  1.00  0.00     0.074 A 
ATOM     39  C   UNL A   1      40.661  24.826  27.054  1.00  0.00     0.031 C 
ATOM     40  C   UNL A   1      41.647  29.849  32.273  1.00  0.00     0.029 A 
ATOM     41  C   UNL A   1      42.690  28.853  32.434  1.00  0.00     0.049 A 
ATOM     42  H   UNL A   1      42.996  27.198  31.141  1.00  0.00     0.167 HD
ATOM     43  C   UNL A   1      42.701  23.464  27.637  1.00  0.00     0.037 A 
ATOM     44  C   UNL A   1      43.674  28.759  33.395  1.00  0.00     0.037 A 
ATOM     45  C   UNL A   1      43.611  23.426  28.728  1.00  0.00     0.049 A 
ATOM     46  C   UNL A   1      44.528  27.674  32.898  1.00  0.00     0.074 A 
ATOM     47  C   UNL A   1      43.487  22.879  29.975  1.00  0.00     0.029 A 
ATOM     48  N   UNL A   1      44.643  24.332  28.720  1.00  0.00    -0.354 N 
ATOM     49  N   UNL A   1      45.307  27.772  31.864  1.00  0.00    -0.248 NA
ATOM     50  C   UNL A   1      44.426  26.356  33.529  1.00  0.00     0.031 C 
ATOM     51  C   UNL A   1      44.084  23.851  30.796  1.00  0.00     0.029 A 
ATOM     52  C   UNL A   1      44.787  24.774  30.012  1.00  0.00     0.049 A 
ATOM     53  H   UNL A   1      45.175  24.610  27.940  1.00  0.00     0.167 HD
ATOM     54  C   UNL A   1      45.507  26.460  31.525  1.00  0.00     0.074 A 
ATOM     55  C   UNL A   1      45.229  25.679  32.713  1.00  0.00     0.031 C 
ATOM     56  C   UNL A   1      45.386  26.069  30.231  1.00  0.00     0.037 A 
BRANCH  43  57
ATOM     57  C   UNL A   1      43.062  22.622  26.440  1.00  0.00     0.058 A 
ATOM     58  C   UNL A   1      42.615  21.275  26.415  1.00  0.00     0.135 A 
ATOM     59  C   UNL A   1      44.084  22.944  25.537  1.00  0.00     0.135 A 
ATOM     60  F   UNL A   1      41.581  20.880  27.177  1.00  0.00    -0.206 F 
ATOM     61  C   UNL A   1      43.245  20.283  25.673  1.00  0.00     0.059 A 
ATOM     62  C   UNL A   1      44.707  21.967  24.745  1.00  0.00     0.059 A 
ATOM     63  F   UNL A   1      44.555  24.197  25.455  1.00  0.00    -0.206 F 
ATOM     64  C   UNL A   1      44.320  20.631  24.868  1.00  0.00     0.060 A 
BRANCH  64  65
ATOM     65  S   UNL A   1      45.214  19.302  24.031  1.00  0.00     0.124 S 
ATOM     66  O   UNL A   1      46.589  19.784  24.087  1.00  0.00    -0.237 OA
ATOM     67  O   UNL A   1      44.916  18.148  24.877  1.00  0.00    -0.237 OA
ATOM     68  O   UNL A   1      44.607  19.268  22.704  1.00  0.00    -0.744 OA
ENDBRANCH  64  65
ENDBRANCH  43  57
BRANCH  44  69
ATOM     69  C   UNL A   1      44.084  29.326  34.756  1.00  0.00     0.058 A 
ATOM     70  C   UNL A   1      44.917  30.426  34.989  1.00  0.00     0.135 A 
ATOM     71  C   UNL A   1      43.441  28.840  35.941  1.00  0.00     0.135 A 
ATOM     72  F   UNL A   1      45.703  30.905  34.016  1.00  0.00    -0.206 F 
ATOM     73  C   UNL A   1      44.959  31.094  36.238  1.00  0.00     0.059 A 
ATOM     74  C   UNL A   1      43.414  29.515  37.161  1.00  0.00     0.059 A 
ATOM     75  F   UNL A   1      42.757  27.686  35.950  1.00  0.00    -0.206 F 
ATOM     76  C   UNL A   1      44.145  30.674  37.292  1.00  0.00     0.060 A 
BRANCH  76  77
ATOM     77  S   UNL A   1      43.913  31.704  38.766  1.00  0.00     0.124 S 
ATOM     78  O   UNL A   1      42.461  31.808  38.845  1.00  0.00    -0.237 OA
ATOM     79  O   UNL A   1      44.553  30.904  39.805  1.00  0.00    -0.237 OA
ATOM     80  O   UNL A   1      44.615  32.941  38.428  1.00  0.00    -0.744 OA
ENDBRANCH  76  77
ENDBRANCH  44  69
BRANCH  56  81
ATOM     81  C   UNL A   1      45.573  27.172  29.195  1.00  0.00     0.058 A 
ATOM     82  C   UNL A   1      46.840  27.750  29.010  1.00  0.00     0.135 A 
ATOM     83  C   UNL A   1      44.538  27.733  28.424  1.00  0.00     0.135 A 
ATOM     84  F   UNL A   1      47.893  27.279  29.696  1.00  0.00    -0.206 F 
ATOM     85  C   UNL A   1      47.062  28.804  28.115  1.00  0.00     0.059 A 
ATOM     86  C   UNL A   1      44.729  28.782  27.519  1.00  0.00     0.059 A 
ATOM     87  F   UNL A   1      43.294  27.272  28.520  1.00  0.00    -0.206 F 
ATOM     88  C   UNL A   1      46.002  29.311  27.366  1.00  0.00     0.060 A 
BRANCH  88  89
ATOM     89  S   UNL A   1      46.315  30.633  26.174  1.00  0.00     0.124 S 
ATOM     90  O   UNL A   1      46.430  29.902  24.916  1.00  0.00    -0.237 OA
ATOM     91  O   UNL A   1      45.120  31.459  26.317  1.00  0.00    -0.237 OA
ATOM     92  O   UNL A   1      47.554  31.245  26.649  1.00  0.00    -0.744 OA
ENDBRANCH  88  89
ENDBRANCH  56  81
ENDBRANCH  30  31
ENDBRANCH  23  25
ENDBRANCH  22  23
ENDBRANCH  21  22
ENDBRANCH   1  21
TORSDOF 17
ENDMDL
