MODEL 1
REMARK VINA RESULT:     -10.6      0.000      0.000
REMARK SMILES C[C@@H]1CC[N@@H+]1CC1(CC(=O)OCCOC(=O)c2ccc(-c3c4nc(c(-c5c(F)cc(S(=O)(=O)[O-])cc5F)c5ccc([nH]5)c(-c5c(F)cc(S(=O)(=O)[O-])cc5F)c5nc(c(-c6c(F)cc(S(=O)(=O)[O-])cc6F)c6ccc3[nH]6)C=C5)C=C4)cc2)CCCCC1
REMARK SMILES IDX 12 1 11 2 9 3 10 4 8 5 7 6 83 7 87 8 84 9 86 10 85 11 6 12
REMARK SMILES IDX 5 13 1 14 2 15 3 16 4 17 13 19 14 20 15 21 16 22 17 23 18 24
REMARK SMILES IDX 82 25 19 26 81 27 20 28 21 29 22 30 75 31 23 32 80 33 74 34
REMARK SMILES IDX 76 35 24 36 79 37 73 38 72 39 25 41 59 42 38 43 58 44 39 45
REMARK SMILES IDX 42 46 57 47 77 48 40 49 41 50 56 52 78 53 43 54 26 55 27 56
REMARK SMILES IDX 36 57 28 58 29 59 35 60 37 61 30 62 31 63 32 64 33 65 34 66
REMARK SMILES IDX 60 67 61 68 70 69 62 70 63 71 69 72 71 73 64 74 65 75 66 76
REMARK SMILES IDX 67 77 68 78 44 79 45 80 54 81 46 82 47 83 53 84 55 85 48 86
REMARK SMILES IDX 49 87 50 88 51 89 52 90
REMARK H PARENT 5 18 76 40 42 51
REMARK Flexibility Score: inf
ROOT
ATOM      1  C   UNL A   1      37.925  22.122  25.579  1.00  0.00     0.274 C 
ENDROOT
BRANCH   1   2
ATOM      2  O   UNL A   1      37.283  23.239  24.929  1.00  0.00    -0.462 OA
BRANCH   2   3
ATOM      3  C   UNL A   1      36.515  22.922  23.861  1.00  0.00     0.306 C 
ATOM      4  O   UNL A   1      36.738  23.299  22.714  1.00  0.00    -0.252 OA
BRANCH   3   5
ATOM      5  C   UNL A   1      35.272  22.116  24.180  1.00  0.00     0.135 C 
BRANCH   5   6
ATOM      6  C   UNL A   1      33.899  22.771  24.582  1.00  0.00     0.030 C 
ATOM      7  C   UNL A   1      34.192  23.616  25.855  1.00  0.00     0.013 C 
ATOM      8  C   UNL A   1      32.858  21.696  24.975  1.00  0.00     0.013 C 
ATOM      9  C   UNL A   1      34.598  22.796  27.085  1.00  0.00     0.001 C 
ATOM     10  C   UNL A   1      33.292  20.827  26.158  1.00  0.00     0.001 C 
ATOM     11  C   UNL A   1      33.599  21.684  27.383  1.00  0.00     0.000 C 
BRANCH   6  12
ATOM     12  C   UNL A   1      33.443  23.687  23.373  1.00  0.00     0.269 C 
BRANCH  12  13
ATOM     13  N   UNL A   1      33.302  25.140  23.257  1.00  0.00    -0.332 N 
ATOM     14  C   UNL A   1      31.096  25.290  24.605  1.00  0.00     0.075 C 
ATOM     15  C   UNL A   1      32.068  25.870  23.600  1.00  0.00     0.186 C 
ATOM     16  C   UNL A   1      31.755  25.950  22.083  1.00  0.00     0.126 C 
ATOM     17  C   UNL A   1      33.270  25.699  21.901  1.00  0.00     0.268 C 
ATOM     18  H   UNL A   1      34.091  25.259  23.892  1.00  0.00     0.348 HD
ENDBRANCH  12  13
ENDBRANCH   6  12
ENDBRANCH   5   6
ENDBRANCH   3   5
ENDBRANCH   2   3
ENDBRANCH   1   2
BRANCH   1  19
ATOM     19  C   UNL A   1      39.258  22.525  26.204  1.00  0.00     0.275 C 
BRANCH  19  20
ATOM     20  O   UNL A   1      39.332  23.952  26.335  1.00  0.00    -0.458 OA
BRANCH  20  21
ATOM     21  C   UNL A   1      40.545  24.445  26.675  1.00  0.00     0.338 C 
ATOM     22  O   UNL A   1      41.636  24.051  26.305  1.00  0.00    -0.246 OA
BRANCH  21  23
ATOM     23  C   UNL A   1      40.366  25.574  27.600  1.00  0.00     0.060 A 
ATOM     24  C   UNL A   1      41.258  26.646  27.565  1.00  0.00     0.016 A 
ATOM     25  C   UNL A   1      39.371  25.509  28.574  1.00  0.00     0.016 A 
ATOM     26  C   UNL A   1      41.184  27.644  28.535  1.00  0.00     0.010 A 
ATOM     27  C   UNL A   1      39.269  26.533  29.520  1.00  0.00     0.010 A 
ATOM     28  C   UNL A   1      40.191  27.594  29.524  1.00  0.00    -0.014 A 
BRANCH  28  29
ATOM     29  C   UNL A   1      40.153  28.623  30.593  1.00  0.00     0.031 A 
ATOM     30  C   UNL A   1      41.112  28.540  31.750  1.00  0.00     0.074 A 
ATOM     31  C   UNL A   1      39.271  29.638  30.517  1.00  0.00     0.049 A 
ATOM     32  N   UNL A   1      41.181  29.287  32.820  1.00  0.00    -0.248 NA
ATOM     33  C   UNL A   1      42.121  27.471  31.696  1.00  0.00     0.031 C 
ATOM     34  C   UNL A   1      38.308  29.841  29.433  1.00  0.00     0.029 A 
ATOM     35  N   UNL A   1      39.043  30.688  31.369  1.00  0.00    -0.354 N 
ATOM     36  C   UNL A   1      42.217  28.762  33.585  1.00  0.00     0.074 A 
ATOM     37  C   UNL A   1      42.743  27.627  32.856  1.00  0.00     0.031 C 
ATOM     38  C   UNL A   1      37.604  30.958  29.678  1.00  0.00     0.029 A 
ATOM     39  C   UNL A   1      38.033  31.523  30.954  1.00  0.00     0.049 A 
ATOM     40  H   UNL A   1      39.554  30.831  32.198  1.00  0.00     0.167 HD
ATOM     41  C   UNL A   1      42.685  29.189  34.782  1.00  0.00     0.037 A 
ATOM     42  C   UNL A   1      37.499  32.609  31.545  1.00  0.00     0.037 A 
ATOM     43  C   UNL A   1      42.178  30.337  35.489  1.00  0.00     0.049 A 
ATOM     44  C   UNL A   1      38.038  33.065  32.871  1.00  0.00     0.074 A 
ATOM     45  C   UNL A   1      42.587  30.850  36.708  1.00  0.00     0.029 A 
ATOM     46  N   UNL A   1      41.158  31.158  35.032  1.00  0.00    -0.354 N 
ATOM     47  N   UNL A   1      38.998  32.539  33.595  1.00  0.00    -0.248 NA
ATOM     48  C   UNL A   1      37.420  34.259  33.465  1.00  0.00     0.031 C 
ATOM     49  C   UNL A   1      41.800  31.970  36.998  1.00  0.00     0.029 A 
ATOM     50  C   UNL A   1      40.922  32.173  35.946  1.00  0.00     0.049 A 
ATOM     51  H   UNL A   1      40.673  31.038  34.184  1.00  0.00     0.167 HD
ATOM     52  C   UNL A   1      39.108  33.344  34.722  1.00  0.00     0.074 A 
ATOM     53  C   UNL A   1      38.127  34.401  34.578  1.00  0.00     0.031 C 
ATOM     54  C   UNL A   1      39.943  33.217  35.784  1.00  0.00     0.037 A 
BRANCH  41  55
ATOM     55  C   UNL A   1      43.790  28.391  35.416  1.00  0.00     0.058 A 
ATOM     56  C   UNL A   1      43.526  27.363  36.332  1.00  0.00     0.135 A 
ATOM     57  C   UNL A   1      45.130  28.649  35.085  1.00  0.00     0.135 A 
ATOM     58  F   UNL A   1      42.264  27.088  36.696  1.00  0.00    -0.206 F 
ATOM     59  C   UNL A   1      44.555  26.631  36.918  1.00  0.00     0.059 A 
ATOM     60  C   UNL A   1      46.173  27.917  35.643  1.00  0.00     0.059 A 
ATOM     61  F   UNL A   1      45.436  29.625  34.215  1.00  0.00    -0.206 F 
ATOM     62  C   UNL A   1      45.876  26.918  36.570  1.00  0.00     0.060 A 
BRANCH  62  63
ATOM     63  S   UNL A   1      47.205  25.963  37.333  1.00  0.00     0.124 S 
ATOM     64  O   UNL A   1      48.366  26.425  36.578  1.00  0.00    -0.237 OA
ATOM     65  O   UNL A   1      47.144  26.393  38.727  1.00  0.00    -0.237 OA
ATOM     66  O   UNL A   1      46.809  24.579  37.092  1.00  0.00    -0.744 OA
ENDBRANCH  62  63
ENDBRANCH  41  55
BRANCH  42  67
ATOM     67  C   UNL A   1      36.387  33.336  30.881  1.00  0.00     0.058 A 
ATOM     68  C   UNL A   1      35.078  33.263  31.378  1.00  0.00     0.135 A 
ATOM     69  C   UNL A   1      36.617  34.141  29.754  1.00  0.00     0.135 A 
ATOM     70  F   UNL A   1      34.809  32.498  32.448  1.00  0.00    -0.206 F 
ATOM     71  C   UNL A   1      34.033  33.959  30.781  1.00  0.00     0.059 A 
ATOM     72  C   UNL A   1      35.593  34.863  29.152  1.00  0.00     0.059 A 
ATOM     73  F   UNL A   1      37.856  34.251  29.250  1.00  0.00    -0.206 F 
ATOM     74  C   UNL A   1      34.301  34.760  29.669  1.00  0.00     0.060 A 
BRANCH  74  75
ATOM     75  S   UNL A   1      32.956  35.717  28.937  1.00  0.00     0.124 S 
ATOM     76  O   UNL A   1      32.339  34.733  28.057  1.00  0.00    -0.237 OA
ATOM     77  O   UNL A   1      32.175  36.104  30.108  1.00  0.00    -0.237 OA
ATOM     78  O   UNL A   1      33.654  36.814  28.271  1.00  0.00    -0.744 OA
ENDBRANCH  74  75
ENDBRANCH  42  67
BRANCH  54  79
ATOM     79  C   UNL A   1      39.844  34.264  36.855  1.00  0.00     0.058 A 
ATOM     80  C   UNL A   1      40.524  35.487  36.750  1.00  0.00     0.135 A 
ATOM     81  C   UNL A   1      39.045  34.049  37.989  1.00  0.00     0.135 A 
ATOM     82  F   UNL A   1      41.306  35.735  35.687  1.00  0.00    -0.206 F 
ATOM     83  C   UNL A   1      40.439  36.452  37.748  1.00  0.00     0.059 A 
ATOM     84  C   UNL A   1      38.929  35.008  38.989  1.00  0.00     0.059 A 
ATOM     85  F   UNL A   1      38.368  32.899  38.130  1.00  0.00    -0.206 F 
ATOM     86  C   UNL A   1      39.643  36.200  38.867  1.00  0.00     0.060 A 
BRANCH  86  87
ATOM     87  S   UNL A   1      39.527  37.460  40.156  1.00  0.00     0.124 S 
ATOM     88  O   UNL A   1      38.956  36.696  41.261  1.00  0.00    -0.237 OA
ATOM     89  O   UNL A   1      40.917  37.873  40.324  1.00  0.00    -0.237 OA
ATOM     90  O   UNL A   1      38.649  38.465  39.566  1.00  0.00    -0.744 OA
ENDBRANCH  86  87
ENDBRANCH  54  79
ENDBRANCH  28  29
ENDBRANCH  21  23
ENDBRANCH  20  21
ENDBRANCH  19  20
ENDBRANCH   1  19
TORSDOF 17
ENDMDL
MODEL 2
REMARK VINA RESULT:     -10.5      1.343      8.827
REMARK SMILES C[C@@H]1CC[N@@H+]1CC1(CC(=O)OCCOC(=O)c2ccc(-c3c4nc(c(-c5c(F)cc(S(=O)(=O)[O-])cc5F)c5ccc([nH]5)c(-c5c(F)cc(S(=O)(=O)[O-])cc5F)c5nc(c(-c6c(F)cc(S(=O)(=O)[O-])cc6F)c6ccc3[nH]6)C=C5)C=C4)cc2)CCCCC1
REMARK SMILES IDX 12 1 11 2 9 3 10 4 8 5 7 6 83 7 87 8 84 9 86 10 85 11 6 12
REMARK SMILES IDX 5 13 1 14 2 15 3 16 4 17 13 19 14 20 15 21 16 22 17 23 18 24
REMARK SMILES IDX 82 25 19 26 81 27 20 28 21 29 22 30 75 31 23 32 80 33 74 34
REMARK SMILES IDX 76 35 24 36 79 37 73 38 72 39 25 41 59 42 38 43 58 44 39 45
REMARK SMILES IDX 42 46 57 47 77 48 40 49 41 50 56 52 78 53 43 54 26 55 27 56
REMARK SMILES IDX 36 57 28 58 29 59 35 60 37 61 30 62 31 63 32 64 33 65 34 66
REMARK SMILES IDX 60 67 61 68 70 69 62 70 63 71 69 72 71 73 64 74 65 75 66 76
REMARK SMILES IDX 67 77 68 78 44 79 45 80 54 81 46 82 47 83 53 84 55 85 48 86
REMARK SMILES IDX 49 87 50 88 51 89 52 90
REMARK H PARENT 5 18 76 40 42 51
REMARK Flexibility Score: inf
ROOT
ATOM      1  C   UNL A   1      39.379  21.718  26.257  1.00  0.00     0.274 C 
ENDROOT
BRANCH   1   2
ATOM      2  O   UNL A   1      38.130  22.170  25.694  1.00  0.00    -0.462 OA
BRANCH   2   3
ATOM      3  C   UNL A   1      37.411  21.223  25.049  1.00  0.00     0.306 C 
ATOM      4  O   UNL A   1      37.782  20.064  24.889  1.00  0.00    -0.252 OA
BRANCH   3   5
ATOM      5  C   UNL A   1      36.113  21.708  24.436  1.00  0.00     0.135 C 
BRANCH   5   6
ATOM      6  C   UNL A   1      34.695  21.321  24.998  1.00  0.00     0.030 C 
ATOM      7  C   UNL A   1      33.686  22.261  24.275  1.00  0.00     0.013 C 
ATOM      8  C   UNL A   1      34.592  21.617  26.513  1.00  0.00     0.013 C 
ATOM      9  C   UNL A   1      33.840  23.747  24.618  1.00  0.00     0.001 C 
ATOM     10  C   UNL A   1      34.817  23.089  26.867  1.00  0.00     0.001 C 
ATOM     11  C   UNL A   1      33.833  23.988  26.124  1.00  0.00     0.000 C 
BRANCH   6  12
ATOM     12  C   UNL A   1      34.440  19.803  24.626  1.00  0.00     0.269 C 
BRANCH  12  13
ATOM     13  N   UNL A   1      33.214  19.003  24.611  1.00  0.00    -0.332 N 
ATOM     14  C   UNL A   1      34.399  16.727  24.260  1.00  0.00     0.075 C 
ATOM     15  C   UNL A   1      33.163  17.596  24.172  1.00  0.00     0.186 C 
ATOM     16  C   UNL A   1      32.582  18.092  22.822  1.00  0.00     0.126 C 
ATOM     17  C   UNL A   1      32.198  19.362  23.615  1.00  0.00     0.268 C 
ATOM     18  H   UNL A   1      33.101  19.170  25.610  1.00  0.00     0.348 HD
ENDBRANCH  12  13
ENDBRANCH   6  12
ENDBRANCH   5   6
ENDBRANCH   3   5
ENDBRANCH   2   3
ENDBRANCH   1   2
BRANCH   1  19
ATOM     19  C   UNL A   1      40.292  22.887  26.615  1.00  0.00     0.275 C 
BRANCH  19  20
ATOM     20  O   UNL A   1      39.543  24.112  26.634  1.00  0.00    -0.458 OA
BRANCH  20  21
ATOM     21  C   UNL A   1      40.257  25.235  26.390  1.00  0.00     0.338 C 
ATOM     22  O   UNL A   1      40.765  25.578  25.339  1.00  0.00    -0.246 OA
BRANCH  21  23
ATOM     23  C   UNL A   1      40.346  26.028  27.625  1.00  0.00     0.060 A 
ATOM     24  C   UNL A   1      39.388  25.861  28.626  1.00  0.00     0.016 A 
ATOM     25  C   UNL A   1      41.326  27.013  27.737  1.00  0.00     0.016 A 
ATOM     26  C   UNL A   1      39.380  26.711  29.730  1.00  0.00     0.010 A 
ATOM     27  C   UNL A   1      41.345  27.836  28.867  1.00  0.00     0.010 A 
ATOM     28  C   UNL A   1      40.356  27.710  29.858  1.00  0.00    -0.014 A 
BRANCH  28  29
ATOM     29  C   UNL A   1      40.309  28.654  31.002  1.00  0.00     0.031 A 
ATOM     30  C   UNL A   1      39.312  29.781  31.004  1.00  0.00     0.074 A 
ATOM     31  C   UNL A   1      41.147  28.492  32.042  1.00  0.00     0.049 A 
ATOM     32  N   UNL A   1      39.170  30.757  31.863  1.00  0.00    -0.248 NA
ATOM     33  C   UNL A   1      38.353  29.818  29.889  1.00  0.00     0.031 C 
ATOM     34  C   UNL A   1      42.140  27.423  32.168  1.00  0.00     0.029 A 
ATOM     35  N   UNL A   1      41.297  29.224  33.192  1.00  0.00    -0.354 N 
ATOM     36  C   UNL A   1      38.130  31.543  31.379  1.00  0.00     0.074 A 
ATOM     37  C   UNL A   1      37.683  30.932  30.144  1.00  0.00     0.031 C 
ATOM     38  C   UNL A   1      42.785  27.561  33.338  1.00  0.00     0.029 A 
ATOM     39  C   UNL A   1      42.284  28.750  34.022  1.00  0.00     0.049 A 
ATOM     40  H   UNL A   1      40.750  30.015  33.403  1.00  0.00     0.167 HD
ATOM     41  C   UNL A   1      37.599  32.667  31.914  1.00  0.00     0.037 A 
ATOM     42  C   UNL A   1      42.747  29.229  35.192  1.00  0.00     0.037 A 
ATOM     43  C   UNL A   1      38.028  33.254  33.158  1.00  0.00     0.049 A 
ATOM     44  C   UNL A   1      42.139  30.476  35.769  1.00  0.00     0.074 A 
ATOM     45  C   UNL A   1      37.551  34.392  33.785  1.00  0.00     0.029 A 
ATOM     46  N   UNL A   1      39.027  32.740  33.971  1.00  0.00    -0.354 N 
ATOM     47  N   UNL A   1      41.177  31.224  35.282  1.00  0.00    -0.248 NA
ATOM     48  C   UNL A   1      42.681  30.949  37.050  1.00  0.00     0.031 C 
ATOM     49  C   UNL A   1      38.277  34.578  34.968  1.00  0.00     0.029 A 
ATOM     50  C   UNL A   1      39.184  33.538  35.092  1.00  0.00     0.049 A 
ATOM     51  H   UNL A   1      39.549  31.927  33.779  1.00  0.00     0.167 HD
ATOM     52  C   UNL A   1      40.989  32.247  36.204  1.00  0.00     0.074 A 
ATOM     53  C   UNL A   1      41.927  32.015  37.283  1.00  0.00     0.031 C 
ATOM     54  C   UNL A   1      40.122  33.289  36.157  1.00  0.00     0.037 A 
BRANCH  41  55
ATOM     55  C   UNL A   1      36.507  33.352  31.141  1.00  0.00     0.058 A 
ATOM     56  C   UNL A   1      36.776  34.088  29.977  1.00  0.00     0.135 A 
ATOM     57  C   UNL A   1      35.172  33.254  31.563  1.00  0.00     0.135 A 
ATOM     58  F   UNL A   1      38.038  34.227  29.542  1.00  0.00    -0.206 F 
ATOM     59  C   UNL A   1      35.760  34.722  29.268  1.00  0.00     0.059 A 
ATOM     60  C   UNL A   1      34.138  33.864  30.859  1.00  0.00     0.059 A 
ATOM     61  F   UNL A   1      34.862  32.565  32.672  1.00  0.00    -0.206 F 
ATOM     62  C   UNL A   1      34.444  34.608  29.719  1.00  0.00     0.060 A 
BRANCH  62  63
ATOM     63  S   UNL A   1      33.131  35.434  28.794  1.00  0.00     0.124 S 
ATOM     64  O   UNL A   1      33.894  36.393  28.001  1.00  0.00    -0.237 OA
ATOM     65  O   UNL A   1      32.530  34.333  28.048  1.00  0.00    -0.237 OA
ATOM     66  O   UNL A   1      32.291  36.009  29.839  1.00  0.00    -0.744 OA
ENDBRANCH  62  63
ENDBRANCH  41  55
BRANCH  42  67
ATOM     67  C   UNL A   1      43.850  28.522  35.893  1.00  0.00     0.058 A 
ATOM     68  C   UNL A   1      45.185  28.906  35.708  1.00  0.00     0.135 A 
ATOM     69  C   UNL A   1      43.587  27.468  36.782  1.00  0.00     0.135 A 
ATOM     70  F   UNL A   1      45.485  29.903  34.860  1.00  0.00    -0.206 F 
ATOM     71  C   UNL A   1      46.224  28.269  36.377  1.00  0.00     0.059 A 
ATOM     72  C   UNL A   1      44.607  26.830  37.478  1.00  0.00     0.059 A 
ATOM     73  F   UNL A   1      42.323  27.073  37.000  1.00  0.00    -0.206 F 
ATOM     74  C   UNL A   1      45.925  27.233  37.264  1.00  0.00     0.060 A 
BRANCH  74  75
ATOM     75  S   UNL A   1      47.270  26.454  38.183  1.00  0.00     0.124 S 
ATOM     76  O   UNL A   1      47.823  25.547  37.185  1.00  0.00    -0.237 OA
ATOM     77  O   UNL A   1      48.106  27.596  38.541  1.00  0.00    -0.237 OA
ATOM     78  O   UNL A   1      46.581  25.819  39.303  1.00  0.00    -0.744 OA
ENDBRANCH  74  75
ENDBRANCH  42  67
BRANCH  54  79
ATOM     79  C   UNL A   1      40.133  34.236  37.322  1.00  0.00     0.058 A 
ATOM     80  C   UNL A   1      39.334  34.016  38.454  1.00  0.00     0.135 A 
ATOM     81  C   UNL A   1      40.968  35.364  37.313  1.00  0.00     0.135 A 
ATOM     82  F   UNL A   1      38.515  32.954  38.506  1.00  0.00    -0.206 F 
ATOM     83  C   UNL A   1      39.340  34.899  39.528  1.00  0.00     0.059 A 
ATOM     84  C   UNL A   1      41.005  36.250  38.384  1.00  0.00     0.059 A 
ATOM     85  F   UNL A   1      41.757  35.613  36.257  1.00  0.00    -0.206 F 
ATOM     86  C   UNL A   1      40.175  36.018  39.482  1.00  0.00     0.060 A 
BRANCH  86  87
ATOM     87  S   UNL A   1      40.186  37.157  40.883  1.00  0.00     0.124 S 
ATOM     88  O   UNL A   1      40.301  38.447  40.210  1.00  0.00    -0.237 OA
ATOM     89  O   UNL A   1      38.903  36.888  41.522  1.00  0.00    -0.237 OA
ATOM     90  O   UNL A   1      41.359  36.739  41.646  1.00  0.00    -0.744 OA
ENDBRANCH  86  87
ENDBRANCH  54  79
ENDBRANCH  28  29
ENDBRANCH  21  23
ENDBRANCH  20  21
ENDBRANCH  19  20
ENDBRANCH   1  19
TORSDOF 17
ENDMDL
MODEL 3
REMARK VINA RESULT:     -10.4      7.046     12.427
REMARK SMILES C[C@@H]1CC[N@@H+]1CC1(CC(=O)OCCOC(=O)c2ccc(-c3c4nc(c(-c5c(F)cc(S(=O)(=O)[O-])cc5F)c5ccc([nH]5)c(-c5c(F)cc(S(=O)(=O)[O-])cc5F)c5nc(c(-c6c(F)cc(S(=O)(=O)[O-])cc6F)c6ccc3[nH]6)C=C5)C=C4)cc2)CCCCC1
REMARK SMILES IDX 12 1 11 2 9 3 10 4 8 5 7 6 83 7 87 8 84 9 86 10 85 11 6 12
REMARK SMILES IDX 5 13 1 14 2 15 3 16 4 17 13 19 14 20 15 21 16 22 17 23 18 24
REMARK SMILES IDX 82 25 19 26 81 27 20 28 21 29 22 30 75 31 23 32 80 33 74 34
REMARK SMILES IDX 76 35 24 36 79 37 73 38 72 39 25 41 59 42 38 43 58 44 39 45
REMARK SMILES IDX 42 46 57 47 77 48 40 49 41 50 56 52 78 53 43 54 26 55 27 56
REMARK SMILES IDX 36 57 28 58 29 59 35 60 37 61 30 62 31 63 32 64 33 65 34 66
REMARK SMILES IDX 60 67 61 68 70 69 62 70 63 71 69 72 71 73 64 74 65 75 66 76
REMARK SMILES IDX 67 77 68 78 44 79 45 80 54 81 46 82 47 83 53 84 55 85 48 86
REMARK SMILES IDX 49 87 50 88 51 89 52 90
REMARK H PARENT 5 18 76 40 42 51
REMARK Flexibility Score: inf
ROOT
ATOM      1  C   UNL A   1      33.642  30.152  27.438  1.00  0.00     0.274 C 
ENDROOT
BRANCH   1   2
ATOM      2  O   UNL A   1      33.193  29.403  26.289  1.00  0.00    -0.462 OA
BRANCH   2   3
ATOM      3  C   UNL A   1      32.028  29.825  25.746  1.00  0.00     0.306 C 
ATOM      4  O   UNL A   1      31.535  30.932  25.941  1.00  0.00    -0.252 OA
BRANCH   3   5
ATOM      5  C   UNL A   1      31.292  28.789  24.920  1.00  0.00     0.135 C 
BRANCH   5   6
ATOM      6  C   UNL A   1      31.277  28.791  23.346  1.00  0.00     0.030 C 
ATOM      7  C   UNL A   1      30.757  27.385  22.929  1.00  0.00     0.013 C 
ATOM      8  C   UNL A   1      32.705  28.941  22.771  1.00  0.00     0.013 C 
ATOM      9  C   UNL A   1      31.689  26.225  23.299  1.00  0.00     0.001 C 
ATOM     10  C   UNL A   1      33.658  27.822  23.198  1.00  0.00     0.001 C 
ATOM     11  C   UNL A   1      33.111  26.454  22.800  1.00  0.00     0.000 C 
BRANCH   6  12
ATOM     12  C   UNL A   1      30.282  29.935  22.888  1.00  0.00     0.269 C 
BRANCH  12  13
ATOM     13  N   UNL A   1      29.231  30.652  23.612  1.00  0.00    -0.332 N 
ATOM     14  C   UNL A   1      27.342  28.973  23.050  1.00  0.00     0.075 C 
ATOM     15  C   UNL A   1      27.794  30.355  23.472  1.00  0.00     0.186 C 
ATOM     16  C   UNL A   1      27.680  31.593  22.545  1.00  0.00     0.126 C 
ATOM     17  C   UNL A   1      28.991  32.047  23.227  1.00  0.00     0.268 C 
ATOM     18  H   UNL A   1      29.666  30.383  24.495  1.00  0.00     0.348 HD
ENDBRANCH  12  13
ENDBRANCH   6  12
ENDBRANCH   5   6
ENDBRANCH   3   5
ENDBRANCH   2   3
ENDBRANCH   1   2
BRANCH   1  19
ATOM     19  C   UNL A   1      35.080  29.802  27.811  1.00  0.00     0.275 C 
BRANCH  19  20
ATOM     20  O   UNL A   1      35.637  30.829  28.646  1.00  0.00    -0.458 OA
BRANCH  20  21
ATOM     21  C   UNL A   1      36.274  30.394  29.758  1.00  0.00     0.338 C 
ATOM     22  O   UNL A   1      35.798  30.214  30.863  1.00  0.00    -0.246 OA
BRANCH  21  23
ATOM     23  C   UNL A   1      37.691  30.159  29.442  1.00  0.00     0.060 A 
ATOM     24  C   UNL A   1      38.095  30.049  28.111  1.00  0.00     0.016 A 
ATOM     25  C   UNL A   1      38.597  29.943  30.480  1.00  0.00     0.016 A 
ATOM     26  C   UNL A   1      39.405  29.680  27.810  1.00  0.00     0.010 A 
ATOM     27  C   UNL A   1      39.922  29.616  30.177  1.00  0.00     0.010 A 
ATOM     28  C   UNL A   1      40.329  29.455  28.841  1.00  0.00    -0.014 A 
BRANCH  28  29
ATOM     29  C   UNL A   1      41.704  29.000  28.520  1.00  0.00     0.031 A 
ATOM     30  C   UNL A   1      42.847  29.978  28.559  1.00  0.00     0.074 A 
ATOM     31  C   UNL A   1      41.930  27.709  28.212  1.00  0.00     0.049 A 
ATOM     32  N   UNL A   1      44.099  29.799  28.231  1.00  0.00    -0.248 NA
ATOM     33  C   UNL A   1      42.536  31.340  29.021  1.00  0.00     0.031 C 
ATOM     34  C   UNL A   1      40.909  26.660  28.166  1.00  0.00     0.029 A 
ATOM     35  N   UNL A   1      43.091  27.060  27.878  1.00  0.00    -0.354 N 
ATOM     36  C   UNL A   1      44.721  31.028  28.414  1.00  0.00     0.074 A 
ATOM     37  C   UNL A   1      43.704  31.949  28.876  1.00  0.00     0.031 C 
ATOM     38  C   UNL A   1      41.493  25.496  27.840  1.00  0.00     0.029 A 
ATOM     39  C   UNL A   1      42.917  25.723  27.610  1.00  0.00     0.049 A 
ATOM     40  H   UNL A   1      43.967  27.509  27.835  1.00  0.00     0.167 HD
ATOM     41  C   UNL A   1      46.020  31.358  28.216  1.00  0.00     0.037 A 
ATOM     42  C   UNL A   1      43.800  24.791  27.206  1.00  0.00     0.037 A 
ATOM     43  C   UNL A   1      47.035  30.431  27.785  1.00  0.00     0.049 A 
ATOM     44  C   UNL A   1      45.237  25.180  26.997  1.00  0.00     0.074 A 
ATOM     45  C   UNL A   1      48.380  30.668  27.556  1.00  0.00     0.029 A 
ATOM     46  N   UNL A   1      46.819  29.085  27.529  1.00  0.00    -0.354 N 
ATOM     47  N   UNL A   1      45.802  26.354  27.146  1.00  0.00    -0.248 NA
ATOM     48  C   UNL A   1      46.156  24.119  26.561  1.00  0.00     0.031 C 
ATOM     49  C   UNL A   1      48.972  29.470  27.142  1.00  0.00     0.029 A 
ATOM     50  C   UNL A   1      48.003  28.480  27.143  1.00  0.00     0.049 A 
ATOM     51  H   UNL A   1      45.951  28.628  27.609  1.00  0.00     0.167 HD
ATOM     52  C   UNL A   1      47.144  26.171  26.834  1.00  0.00     0.074 A 
ATOM     53  C   UNL A   1      47.309  24.771  26.503  1.00  0.00     0.031 C 
ATOM     54  C   UNL A   1      48.148  27.083  26.819  1.00  0.00     0.037 A 
BRANCH  41  55
ATOM     55  C   UNL A   1      46.412  32.791  28.442  1.00  0.00     0.058 A 
ATOM     56  C   UNL A   1      46.880  33.242  29.685  1.00  0.00     0.135 A 
ATOM     57  C   UNL A   1      46.336  33.720  27.392  1.00  0.00     0.135 A 
ATOM     58  F   UNL A   1      46.955  32.398  30.726  1.00  0.00    -0.206 F 
ATOM     59  C   UNL A   1      47.239  34.572  29.886  1.00  0.00     0.059 A 
ATOM     60  C   UNL A   1      46.707  35.050  27.565  1.00  0.00     0.059 A 
ATOM     61  F   UNL A   1      45.891  33.340  26.184  1.00  0.00    -0.206 F 
ATOM     62  C   UNL A   1      47.145  35.470  28.822  1.00  0.00     0.060 A 
BRANCH  62  63
ATOM     63  S   UNL A   1      47.612  37.193  29.091  1.00  0.00     0.124 S 
ATOM     64  O   UNL A   1      47.946  37.184  30.512  1.00  0.00    -0.237 OA
ATOM     65  O   UNL A   1      48.737  37.362  28.177  1.00  0.00    -0.237 OA
ATOM     66  O   UNL A   1      46.405  37.931  28.734  1.00  0.00    -0.744 OA
ENDBRANCH  62  63
ENDBRANCH  41  55
BRANCH  42  67
ATOM     67  C   UNL A   1      43.344  23.397  26.971  1.00  0.00     0.058 A 
ATOM     68  C   UNL A   1      43.176  22.903  25.670  1.00  0.00     0.135 A 
ATOM     69  C   UNL A   1      43.095  22.525  28.042  1.00  0.00     0.135 A 
ATOM     70  F   UNL A   1      43.393  23.704  24.614  1.00  0.00    -0.206 F 
ATOM     71  C   UNL A   1      42.773  21.593  25.436  1.00  0.00     0.059 A 
ATOM     72  C   UNL A   1      42.712  21.205  27.833  1.00  0.00     0.059 A 
ATOM     73  F   UNL A   1      43.254  22.949  29.305  1.00  0.00    -0.206 F 
ATOM     74  C   UNL A   1      42.546  20.749  26.525  1.00  0.00     0.060 A 
BRANCH  74  75
ATOM     75  S   UNL A   1      42.091  19.029  26.217  1.00  0.00     0.124 S 
ATOM     76  O   UNL A   1      42.338  18.422  27.520  1.00  0.00    -0.237 OA
ATOM     77  O   UNL A   1      40.691  19.142  25.821  1.00  0.00    -0.237 OA
ATOM     78  O   UNL A   1      43.004  18.630  25.150  1.00  0.00    -0.744 OA
ENDBRANCH  74  75
ENDBRANCH  42  67
BRANCH  54  79
ATOM     79  C   UNL A   1      49.516  26.582  26.457  1.00  0.00     0.058 A 
ATOM     80  C   UNL A   1      50.347  25.966  27.406  1.00  0.00     0.135 A 
ATOM     81  C   UNL A   1      49.993  26.701  25.143  1.00  0.00     0.135 A 
ATOM     82  F   UNL A   1      49.937  25.836  28.678  1.00  0.00    -0.206 F 
ATOM     83  C   UNL A   1      51.617  25.510  27.071  1.00  0.00     0.059 A 
ATOM     84  C   UNL A   1      51.252  26.234  24.781  1.00  0.00     0.059 A 
ATOM     85  F   UNL A   1      49.233  27.274  24.197  1.00  0.00    -0.206 F 
ATOM     86  C   UNL A   1      52.063  25.654  25.756  1.00  0.00     0.060 A 
BRANCH  86  87
ATOM     87  S   UNL A   1      53.710  25.052  25.322  1.00  0.00     0.124 S 
ATOM     88  O   UNL A   1      53.954  25.750  24.064  1.00  0.00    -0.237 OA
ATOM     89  O   UNL A   1      54.517  25.490  26.456  1.00  0.00    -0.237 OA
ATOM     90  O   UNL A   1      53.522  23.608  25.216  1.00  0.00    -0.744 OA
ENDBRANCH  86  87
ENDBRANCH  54  79
ENDBRANCH  28  29
ENDBRANCH  21  23
ENDBRANCH  20  21
ENDBRANCH  19  20
ENDBRANCH   1  19
TORSDOF 17
ENDMDL
