MODEL 1
REMARK VINA RESULT:     -12.2      0.000      0.000
REMARK SMILES O=C(OCCOC(=O)c1cc(S(=O)(=O)Nc2ccccc2-n2cc(Br)cn2)c[nH]1)c1ccc(-c2c3nc(c(-c4c(F)cc(S(=O)(=O)[O-])cc4F)c4ccc([nH]4)c(-c4c(F)cc(S(=O)(=O)[O-])cc4F)c4nc(c(-c5c(F)cc(S(=O)(=O)[O-])cc5F)c5ccc2[nH]5)C=C4)C=C3)cc1
REMARK SMILES IDX 5 1 4 2 3 3 2 4 1 5 30 6 31 7 95 8 32 9 94 10 33 11 34 12
REMARK SMILES IDX 35 13 88 14 36 15 93 16 87 17 89 18 37 19 92 20 86 21 85 22
REMARK SMILES IDX 38 24 72 25 51 26 71 27 52 28 55 29 70 30 90 31 53 32 54 33
REMARK SMILES IDX 69 35 91 36 56 37 39 38 40 39 49 40 41 41 42 42 48 43 50 44
REMARK SMILES IDX 43 45 44 46 45 47 46 48 47 49 73 50 74 51 83 52 75 53 76 54
REMARK SMILES IDX 82 55 84 56 77 57 78 58 79 59 80 60 81 61 57 62 58 63 67 64
REMARK SMILES IDX 59 65 60 66 66 67 68 68 61 69 62 70 63 71 64 72 65 73 6 74
REMARK SMILES IDX 7 75 8 76 9 77 10 78 29 79 11 80 28 81 12 83 13 84 14 85
REMARK SMILES IDX 15 86 16 88 17 89 21 90 18 91 20 92 19 93 22 94 23 95 27 96
REMARK SMILES IDX 24 97 26 98 25 99
REMARK H PARENT 89 23 55 34 29 82 15 87
REMARK Flexibility Score: inf
ROOT
ATOM      1  C   UNL A   1      32.453  29.491  26.829  1.00  0.00     0.275 C 
ENDROOT
BRANCH   1   2
ATOM      2  C   UNL A   1      33.543  30.473  27.275  1.00  0.00     0.275 C 
BRANCH   2   3
ATOM      3  O   UNL A   1      34.837  29.864  27.466  1.00  0.00    -0.458 OA
BRANCH   3   4
ATOM      4  C   UNL A   1      35.997  30.491  27.771  1.00  0.00     0.338 C 
ATOM      5  O   UNL A   1      36.035  31.718  27.842  1.00  0.00    -0.246 OA
BRANCH   4   6
ATOM      6  C   UNL A   1      37.189  29.725  28.227  1.00  0.00     0.060 A 
ATOM      7  C   UNL A   1      37.254  28.931  29.373  1.00  0.00     0.016 A 
ATOM      8  C   UNL A   1      38.317  29.788  27.383  1.00  0.00     0.016 A 
ATOM      9  C   UNL A   1      38.442  28.301  29.730  1.00  0.00     0.010 A 
ATOM     10  C   UNL A   1      39.498  29.130  27.715  1.00  0.00     0.010 A 
ATOM     11  C   UNL A   1      39.565  28.408  28.907  1.00  0.00    -0.014 A 
BRANCH  11  12
ATOM     12  C   UNL A   1      40.788  27.684  29.313  1.00  0.00     0.031 A 
ATOM     13  C   UNL A   1      41.018  26.404  28.514  1.00  0.00     0.074 A 
ATOM     14  C   UNL A   1      41.476  28.206  30.369  1.00  0.00     0.049 A 
ATOM     15  N   UNL A   1      41.545  25.278  28.889  1.00  0.00    -0.248 NA
ATOM     16  C   UNL A   1      40.482  26.323  27.131  1.00  0.00     0.031 C 
ATOM     17  C   UNL A   1      41.091  29.453  31.054  1.00  0.00     0.029 A 
ATOM     18  N   UNL A   1      42.598  27.830  31.083  1.00  0.00    -0.354 N 
ATOM     19  C   UNL A   1      41.606  24.451  27.749  1.00  0.00     0.074 A 
ATOM     20  C   UNL A   1      40.802  25.085  26.745  1.00  0.00     0.031 C 
ATOM     21  C   UNL A   1      41.910  29.699  32.093  1.00  0.00     0.029 A 
ATOM     22  C   UNL A   1      42.909  28.655  32.195  1.00  0.00     0.049 A 
ATOM     23  H   UNL A   1      43.142  27.047  30.837  1.00  0.00     0.167 HD
ATOM     24  C   UNL A   1      42.442  23.377  27.642  1.00  0.00     0.037 A 
ATOM     25  C   UNL A   1      43.871  28.500  33.158  1.00  0.00     0.037 A 
ATOM     26  C   UNL A   1      43.234  23.240  28.822  1.00  0.00     0.049 A 
ATOM     27  C   UNL A   1      44.674  27.329  32.748  1.00  0.00     0.074 A 
ATOM     28  C   UNL A   1      42.983  22.790  30.090  1.00  0.00     0.029 A 
ATOM     29  N   UNL A   1      44.463  23.857  28.809  1.00  0.00    -0.354 N 
ATOM     30  N   UNL A   1      45.486  27.296  31.734  1.00  0.00    -0.248 NA
ATOM     31  C   UNL A   1      44.506  26.065  33.478  1.00  0.00     0.031 C 
ATOM     32  C   UNL A   1      43.911  23.479  30.902  1.00  0.00     0.029 A 
ATOM     33  C   UNL A   1      44.735  24.269  30.091  1.00  0.00     0.049 A 
ATOM     34  H   UNL A   1      45.043  23.980  28.023  1.00  0.00     0.167 HD
ATOM     35  C   UNL A   1      45.659  25.948  31.519  1.00  0.00     0.074 A 
ATOM     36  C   UNL A   1      45.299  25.284  32.751  1.00  0.00     0.031 C 
ATOM     37  C   UNL A   1      45.559  25.451  30.260  1.00  0.00     0.037 A 
BRANCH  24  38
ATOM     38  C   UNL A   1      42.862  22.544  26.457  1.00  0.00     0.058 A 
ATOM     39  C   UNL A   1      42.462  21.183  26.434  1.00  0.00     0.135 A 
ATOM     40  C   UNL A   1      43.896  22.897  25.578  1.00  0.00     0.135 A 
ATOM     41  F   UNL A   1      41.433  20.759  27.188  1.00  0.00    -0.206 F 
ATOM     42  C   UNL A   1      43.154  20.211  25.722  1.00  0.00     0.059 A 
ATOM     43  C   UNL A   1      44.574  21.942  24.813  1.00  0.00     0.059 A 
ATOM     44  F   UNL A   1      44.344  24.157  25.504  1.00  0.00    -0.206 F 
ATOM     45  C   UNL A   1      44.242  20.595  24.948  1.00  0.00     0.060 A 
BRANCH  45  46
ATOM     46  S   UNL A   1      45.251  19.311  24.180  1.00  0.00     0.124 S 
ATOM     47  O   UNL A   1      46.592  19.867  24.324  1.00  0.00    -0.237 OA
ATOM     48  O   UNL A   1      44.962  18.142  25.007  1.00  0.00    -0.237 OA
ATOM     49  O   UNL A   1      44.731  19.247  22.818  1.00  0.00    -0.744 OA
ENDBRANCH  45  46
ENDBRANCH  24  38
BRANCH  25  50
ATOM     50  C   UNL A   1      44.194  29.116  34.510  1.00  0.00     0.058 A 
ATOM     51  C   UNL A   1      43.476  28.934  35.702  1.00  0.00     0.135 A 
ATOM     52  C   UNL A   1      45.405  29.846  34.683  1.00  0.00     0.135 A 
ATOM     53  F   UNL A   1      42.248  28.408  35.713  1.00  0.00    -0.206 F 
ATOM     54  C   UNL A   1      43.988  29.278  36.963  1.00  0.00     0.059 A 
ATOM     55  C   UNL A   1      45.957  30.160  35.925  1.00  0.00     0.059 A 
ATOM     56  F   UNL A   1      46.136  30.255  33.636  1.00  0.00    -0.206 F 
ATOM     57  C   UNL A   1      45.254  29.838  37.070  1.00  0.00     0.060 A 
BRANCH  57  58
ATOM     58  S   UNL A   1      46.042  30.029  38.681  1.00  0.00     0.124 S 
ATOM     59  O   UNL A   1      46.225  31.473  38.761  1.00  0.00    -0.237 OA
ATOM     60  O   UNL A   1      45.051  29.462  39.591  1.00  0.00    -0.237 OA
ATOM     61  O   UNL A   1      47.264  29.241  38.541  1.00  0.00    -0.744 OA
ENDBRANCH  57  58
ENDBRANCH  25  50
BRANCH  37  62
ATOM     62  C   UNL A   1      45.914  26.451  29.173  1.00  0.00     0.058 A 
ATOM     63  C   UNL A   1      47.243  26.858  28.981  1.00  0.00     0.135 A 
ATOM     64  C   UNL A   1      44.955  27.101  28.380  1.00  0.00     0.135 A 
ATOM     65  F   UNL A   1      48.227  26.292  29.700  1.00  0.00    -0.206 F 
ATOM     66  C   UNL A   1      47.594  27.851  28.059  1.00  0.00     0.059 A 
ATOM     67  C   UNL A   1      45.272  28.082  27.441  1.00  0.00     0.059 A 
ATOM     68  F   UNL A   1      43.663  26.804  28.511  1.00  0.00    -0.206 F 
ATOM     69  C   UNL A   1      46.599  28.460  27.291  1.00  0.00     0.060 A 
BRANCH  69  70
ATOM     70  S   UNL A   1      47.057  29.749  26.111  1.00  0.00     0.124 S 
ATOM     71  O   UNL A   1      48.514  29.732  26.179  1.00  0.00    -0.237 OA
ATOM     72  O   UNL A   1      46.478  29.248  24.869  1.00  0.00    -0.237 OA
ATOM     73  O   UNL A   1      46.427  30.953  26.650  1.00  0.00    -0.744 OA
ENDBRANCH  69  70
ENDBRANCH  37  62
ENDBRANCH  11  12
ENDBRANCH   4   6
ENDBRANCH   3   4
ENDBRANCH   2   3
ENDBRANCH   1   2
BRANCH   1  74
ATOM     74  O   UNL A   1      32.856  28.664  25.726  1.00  0.00    -0.457 OA
BRANCH  74  75
ATOM     75  C   UNL A   1      32.089  27.555  25.531  1.00  0.00     0.354 C 
ATOM     76  O   UNL A   1      31.167  27.204  26.261  1.00  0.00    -0.244 OA
BRANCH  75  77
ATOM     77  C   UNL A   1      32.474  26.869  24.329  1.00  0.00     0.126 A 
ATOM     78  C   UNL A   1      33.483  25.946  24.106  1.00  0.00     0.057 A 
ATOM     79  N   UNL A   1      31.755  26.965  23.156  1.00  0.00    -0.354 N 
ATOM     80  C   UNL A   1      33.139  25.250  22.913  1.00  0.00     0.106 A 
ATOM     81  C   UNL A   1      32.130  25.962  22.298  1.00  0.00     0.105 A 
ATOM     82  H   UNL A   1      31.075  27.650  22.962  1.00  0.00     0.166 HD
BRANCH  80  83
ATOM     83  S   UNL A   1      33.784  23.710  22.458  1.00  0.00     0.263 S 
ATOM     84  O   UNL A   1      33.446  23.550  21.048  1.00  0.00    -0.201 OA
ATOM     85  O   UNL A   1      35.137  23.702  22.926  1.00  0.00    -0.201 OA
BRANCH  83  86
ATOM     86  N   UNL A   1      32.936  22.457  23.284  1.00  0.00    -0.277 N 
ATOM     87  H   UNL A   1      32.784  21.573  22.877  1.00  0.00     0.180 HD
BRANCH  86  88
ATOM     88  C   UNL A   1      32.465  22.782  24.604  1.00  0.00     0.075 A 
ATOM     89  C   UNL A   1      31.149  23.249  24.723  1.00  0.00     0.029 A 
ATOM     90  C   UNL A   1      33.189  22.449  25.767  1.00  0.00     0.089 A 
ATOM     91  C   UNL A   1      30.539  23.358  25.975  1.00  0.00     0.002 A 
ATOM     92  C   UNL A   1      32.554  22.545  27.021  1.00  0.00     0.030 A 
ATOM     93  C   UNL A   1      31.237  22.994  27.122  1.00  0.00     0.002 A 
BRANCH  90  94
ATOM     94  N   UNL A   1      34.521  21.943  25.731  1.00  0.00    -0.238 N 
ATOM     95  C   UNL A   1      35.685  22.518  26.198  1.00  0.00     0.130 A 
ATOM     96  N   UNL A   1      34.780  20.736  25.150  1.00  0.00    -0.175 NA
ATOM     97  C   UNL A   1      36.710  21.779  25.678  1.00  0.00     0.056 A 
ATOM     98  C   UNL A   1      36.109  20.710  25.016  1.00  0.00     0.151 A 
ATOM     99  Br  UNL A   1      38.542  22.100  25.810  1.00  0.00    -0.047 Br
ENDBRANCH  90  94
ENDBRANCH  86  88
ENDBRANCH  83  86
ENDBRANCH  80  83
ENDBRANCH  75  77
ENDBRANCH  74  75
ENDBRANCH   1  74
TORSDOF 18
ENDMDL
MODEL 2
REMARK VINA RESULT:     -12.1      1.367      2.397
REMARK SMILES O=C(OCCOC(=O)c1cc(S(=O)(=O)Nc2ccccc2-n2cc(Br)cn2)c[nH]1)c1ccc(-c2c3nc(c(-c4c(F)cc(S(=O)(=O)[O-])cc4F)c4ccc([nH]4)c(-c4c(F)cc(S(=O)(=O)[O-])cc4F)c4nc(c(-c5c(F)cc(S(=O)(=O)[O-])cc5F)c5ccc2[nH]5)C=C4)C=C3)cc1
REMARK SMILES IDX 5 1 4 2 3 3 2 4 1 5 30 6 31 7 95 8 32 9 94 10 33 11 34 12
REMARK SMILES IDX 35 13 88 14 36 15 93 16 87 17 89 18 37 19 92 20 86 21 85 22
REMARK SMILES IDX 38 24 72 25 51 26 71 27 52 28 55 29 70 30 90 31 53 32 54 33
REMARK SMILES IDX 69 35 91 36 56 37 39 38 40 39 49 40 41 41 42 42 48 43 50 44
REMARK SMILES IDX 43 45 44 46 45 47 46 48 47 49 73 50 74 51 83 52 75 53 76 54
REMARK SMILES IDX 82 55 84 56 77 57 78 58 79 59 80 60 81 61 57 62 58 63 67 64
REMARK SMILES IDX 59 65 60 66 66 67 68 68 61 69 62 70 63 71 64 72 65 73 6 74
REMARK SMILES IDX 7 75 8 76 9 77 10 78 29 79 11 80 28 81 12 83 13 84 14 85
REMARK SMILES IDX 15 86 16 88 17 89 21 90 18 91 20 92 19 93 22 94 23 95 27 96
REMARK SMILES IDX 24 97 26 98 25 99
REMARK H PARENT 89 23 55 34 29 82 15 87
REMARK Flexibility Score: inf
ROOT
ATOM      1  C   UNL A   1      32.910  29.909  26.015  1.00  0.00     0.275 C 
ENDROOT
BRANCH   1   2
ATOM      2  C   UNL A   1      33.550  30.532  27.261  1.00  0.00     0.275 C 
BRANCH   2   3
ATOM      3  O   UNL A   1      34.787  29.905  27.658  1.00  0.00    -0.458 OA
BRANCH   3   4
ATOM      4  C   UNL A   1      35.991  30.503  27.817  1.00  0.00     0.338 C 
ATOM      5  O   UNL A   1      36.083  31.728  27.766  1.00  0.00    -0.246 OA
BRANCH   4   6
ATOM      6  C   UNL A   1      37.183  29.729  28.261  1.00  0.00     0.060 A 
ATOM      7  C   UNL A   1      37.251  28.926  29.400  1.00  0.00     0.016 A 
ATOM      8  C   UNL A   1      38.306  29.794  27.411  1.00  0.00     0.016 A 
ATOM      9  C   UNL A   1      38.439  28.289  29.745  1.00  0.00     0.010 A 
ATOM     10  C   UNL A   1      39.486  29.129  27.730  1.00  0.00     0.010 A 
ATOM     11  C   UNL A   1      39.558  28.397  28.916  1.00  0.00    -0.014 A 
BRANCH  11  12
ATOM     12  C   UNL A   1      40.780  27.665  29.309  1.00  0.00     0.031 A 
ATOM     13  C   UNL A   1      40.981  26.372  28.525  1.00  0.00     0.074 A 
ATOM     14  C   UNL A   1      41.493  28.194  30.346  1.00  0.00     0.049 A 
ATOM     15  N   UNL A   1      41.503  25.246  28.905  1.00  0.00    -0.248 NA
ATOM     16  C   UNL A   1      40.418  26.278  27.152  1.00  0.00     0.031 C 
ATOM     17  C   UNL A   1      41.135  29.455  31.020  1.00  0.00     0.029 A 
ATOM     18  N   UNL A   1      42.624  27.815  31.044  1.00  0.00    -0.354 N 
ATOM     19  C   UNL A   1      41.533  24.402  27.775  1.00  0.00     0.074 A 
ATOM     20  C   UNL A   1      40.718  25.032  26.778  1.00  0.00     0.031 C 
ATOM     21  C   UNL A   1      41.976  29.706  32.040  1.00  0.00     0.029 A 
ATOM     22  C   UNL A   1      42.965  28.652  32.139  1.00  0.00     0.049 A 
ATOM     23  H   UNL A   1      43.155  27.023  30.799  1.00  0.00     0.167 HD
ATOM     24  C   UNL A   1      42.356  23.318  27.668  1.00  0.00     0.037 A 
ATOM     25  C   UNL A   1      43.943  28.500  33.085  1.00  0.00     0.037 A 
ATOM     26  C   UNL A   1      43.168  23.188  28.836  1.00  0.00     0.049 A 
ATOM     27  C   UNL A   1      44.725  27.315  32.676  1.00  0.00     0.074 A 
ATOM     28  C   UNL A   1      42.936  22.759  30.114  1.00  0.00     0.029 A 
ATOM     29  N   UNL A   1      44.403  23.792  28.791  1.00  0.00    -0.354 N 
ATOM     30  N   UNL A   1      45.518  27.258  31.648  1.00  0.00    -0.248 NA
ATOM     31  C   UNL A   1      44.557  26.062  33.428  1.00  0.00     0.031 C 
ATOM     32  C   UNL A   1      43.886  23.448  30.899  1.00  0.00     0.029 A 
ATOM     33  C   UNL A   1      44.704  24.218  30.062  1.00  0.00     0.049 A 
ATOM     34  H   UNL A   1      44.969  23.898  27.993  1.00  0.00     0.167 HD
ATOM     35  C   UNL A   1      45.673  25.906  31.449  1.00  0.00     0.074 A 
ATOM     36  C   UNL A   1      45.328  25.262  32.696  1.00  0.00     0.031 C 
ATOM     37  C   UNL A   1      45.543  25.393  30.199  1.00  0.00     0.037 A 
BRANCH  24  38
ATOM     38  C   UNL A   1      42.744  22.464  26.487  1.00  0.00     0.058 A 
ATOM     39  C   UNL A   1      42.405  21.088  26.530  1.00  0.00     0.135 A 
ATOM     40  C   UNL A   1      43.710  22.831  25.539  1.00  0.00     0.135 A 
ATOM     41  F   UNL A   1      41.441  20.645  27.356  1.00  0.00    -0.206 F 
ATOM     42  C   UNL A   1      43.098  20.122  25.809  1.00  0.00     0.059 A 
ATOM     43  C   UNL A   1      44.385  21.881  24.766  1.00  0.00     0.059 A 
ATOM     44  F   UNL A   1      44.096  24.106  25.400  1.00  0.00    -0.206 F 
ATOM     45  C   UNL A   1      44.122  20.526  24.962  1.00  0.00     0.060 A 
BRANCH  45  46
ATOM     46  S   UNL A   1      45.143  19.262  24.176  1.00  0.00     0.124 S 
ATOM     47  O   UNL A   1      44.567  19.211  22.837  1.00  0.00    -0.237 OA
ATOM     48  O   UNL A   1      46.483  19.837  24.264  1.00  0.00    -0.237 OA
ATOM     49  O   UNL A   1      44.920  18.087  25.011  1.00  0.00    -0.744 OA
ENDBRANCH  45  46
ENDBRANCH  24  38
BRANCH  25  50
ATOM     50  C   UNL A   1      44.298  29.130  34.423  1.00  0.00     0.058 A 
ATOM     51  C   UNL A   1      45.403  29.953  34.690  1.00  0.00     0.135 A 
ATOM     52  C   UNL A   1      43.388  29.029  35.514  1.00  0.00     0.135 A 
ATOM     53  F   UNL A   1      46.433  30.047  33.846  1.00  0.00    -0.206 F 
ATOM     54  C   UNL A   1      45.509  30.738  35.849  1.00  0.00     0.059 A 
ATOM     55  C   UNL A   1      43.445  29.829  36.656  1.00  0.00     0.059 A 
ATOM     56  F   UNL A   1      42.365  28.163  35.500  1.00  0.00    -0.206 F 
ATOM     57  C   UNL A   1      44.497  30.714  36.800  1.00  0.00     0.060 A 
BRANCH  57  58
ATOM     58  S   UNL A   1      44.474  31.911  38.148  1.00  0.00     0.124 S 
ATOM     59  O   UNL A   1      45.863  31.900  38.588  1.00  0.00    -0.237 OA
ATOM     60  O   UNL A   1      44.026  33.132  37.485  1.00  0.00    -0.237 OA
ATOM     61  O   UNL A   1      43.508  31.333  39.081  1.00  0.00    -0.744 OA
ENDBRANCH  57  58
ENDBRANCH  25  50
BRANCH  37  62
ATOM     62  C   UNL A   1      45.889  26.374  29.092  1.00  0.00     0.058 A 
ATOM     63  C   UNL A   1      44.880  26.961  28.314  1.00  0.00     0.135 A 
ATOM     64  C   UNL A   1      47.208  26.670  28.709  1.00  0.00     0.135 A 
ATOM     65  F   UNL A   1      43.590  26.729  28.605  1.00  0.00    -0.206 F 
ATOM     66  C   UNL A   1      45.167  27.788  27.221  1.00  0.00     0.059 A 
ATOM     67  C   UNL A   1      47.527  27.504  27.638  1.00  0.00     0.059 A 
ATOM     68  F   UNL A   1      48.234  26.136  29.369  1.00  0.00    -0.206 F 
ATOM     69  C   UNL A   1      46.496  28.054  26.889  1.00  0.00     0.060 A 
BRANCH  69  70
ATOM     70  S   UNL A   1      46.859  29.114  25.471  1.00  0.00     0.124 S 
ATOM     71  O   UNL A   1      46.219  30.370  25.848  1.00  0.00    -0.237 OA
ATOM     72  O   UNL A   1      48.318  29.127  25.464  1.00  0.00    -0.237 OA
ATOM     73  O   UNL A   1      46.237  28.416  24.347  1.00  0.00    -0.744 OA
ENDBRANCH  69  70
ENDBRANCH  37  62
ENDBRANCH  11  12
ENDBRANCH   4   6
ENDBRANCH   3   4
ENDBRANCH   2   3
ENDBRANCH   1   2
BRANCH   1  74
ATOM     74  O   UNL A   1      31.618  29.335  26.270  1.00  0.00    -0.457 OA
BRANCH  74  75
ATOM     75  C   UNL A   1      31.643  28.081  26.802  1.00  0.00     0.354 C 
ATOM     76  O   UNL A   1      31.368  27.809  27.967  1.00  0.00    -0.244 OA
BRANCH  75  77
ATOM     77  C   UNL A   1      31.993  27.107  25.805  1.00  0.00     0.126 A 
ATOM     78  C   UNL A   1      32.655  25.897  25.925  1.00  0.00     0.057 A 
ATOM     79  N   UNL A   1      31.580  27.207  24.492  1.00  0.00    -0.354 N 
ATOM     80  C   UNL A   1      32.326  25.138  24.767  1.00  0.00     0.106 A 
ATOM     81  C   UNL A   1      31.749  26.002  23.861  1.00  0.00     0.105 A 
ATOM     82  H   UNL A   1      31.219  28.021  24.072  1.00  0.00     0.166 HD
BRANCH  80  83
ATOM     83  S   UNL A   1      32.489  23.419  24.646  1.00  0.00     0.263 S 
ATOM     84  O   UNL A   1      31.159  22.885  24.916  1.00  0.00    -0.201 OA
ATOM     85  O   UNL A   1      33.173  23.180  23.412  1.00  0.00    -0.201 OA
BRANCH  83  86
ATOM     86  N   UNL A   1      33.490  22.837  25.923  1.00  0.00    -0.277 N 
ATOM     87  H   UNL A   1      33.128  22.614  26.811  1.00  0.00     0.180 HD
BRANCH  86  88
ATOM     88  C   UNL A   1      34.888  22.696  25.609  1.00  0.00     0.075 A 
ATOM     89  C   UNL A   1      35.705  23.822  25.783  1.00  0.00     0.029 A 
ATOM     90  C   UNL A   1      35.481  21.444  25.352  1.00  0.00     0.089 A 
ATOM     91  C   UNL A   1      37.097  23.710  25.733  1.00  0.00     0.002 A 
ATOM     92  C   UNL A   1      36.886  21.342  25.326  1.00  0.00     0.030 A 
ATOM     93  C   UNL A   1      37.687  22.469  25.518  1.00  0.00     0.002 A 
BRANCH  90  94
ATOM     94  N   UNL A   1      34.724  20.247  25.191  1.00  0.00    -0.238 N 
ATOM     95  C   UNL A   1      35.103  19.044  24.631  1.00  0.00     0.130 A 
ATOM     96  N   UNL A   1      33.421  20.199  25.596  1.00  0.00    -0.175 NA
ATOM     97  C   UNL A   1      33.954  18.325  24.457  1.00  0.00     0.056 A 
ATOM     98  C   UNL A   1      32.940  19.085  25.037  1.00  0.00     0.151 A 
ATOM     99  Br  UNL A   1      33.747  16.670  23.625  1.00  0.00    -0.047 Br
ENDBRANCH  90  94
ENDBRANCH  86  88
ENDBRANCH  83  86
ENDBRANCH  80  83
ENDBRANCH  75  77
ENDBRANCH  74  75
ENDBRANCH   1  74
TORSDOF 18
ENDMDL
MODEL 3
REMARK VINA RESULT:     -11.7      4.648      9.982
REMARK SMILES O=C(OCCOC(=O)c1cc(S(=O)(=O)Nc2ccccc2-n2cc(Br)cn2)c[nH]1)c1ccc(-c2c3nc(c(-c4c(F)cc(S(=O)(=O)[O-])cc4F)c4ccc([nH]4)c(-c4c(F)cc(S(=O)(=O)[O-])cc4F)c4nc(c(-c5c(F)cc(S(=O)(=O)[O-])cc5F)c5ccc2[nH]5)C=C4)C=C3)cc1
REMARK SMILES IDX 5 1 4 2 3 3 2 4 1 5 30 6 31 7 95 8 32 9 94 10 33 11 34 12
REMARK SMILES IDX 35 13 88 14 36 15 93 16 87 17 89 18 37 19 92 20 86 21 85 22
REMARK SMILES IDX 38 24 72 25 51 26 71 27 52 28 55 29 70 30 90 31 53 32 54 33
REMARK SMILES IDX 69 35 91 36 56 37 39 38 40 39 49 40 41 41 42 42 48 43 50 44
REMARK SMILES IDX 43 45 44 46 45 47 46 48 47 49 73 50 74 51 83 52 75 53 76 54
REMARK SMILES IDX 82 55 84 56 77 57 78 58 79 59 80 60 81 61 57 62 58 63 67 64
REMARK SMILES IDX 59 65 60 66 66 67 68 68 61 69 62 70 63 71 64 72 65 73 6 74
REMARK SMILES IDX 7 75 8 76 9 77 10 78 29 79 11 80 28 81 12 83 13 84 14 85
REMARK SMILES IDX 15 86 16 88 17 89 21 90 18 91 20 92 19 93 22 94 23 95 27 96
REMARK SMILES IDX 24 97 26 98 25 99
REMARK H PARENT 89 23 55 34 29 82 15 87
REMARK Flexibility Score: inf
ROOT
ATOM      1  C   UNL A   1      36.996  21.619  25.723  1.00  0.00     0.275 C 
ENDROOT
BRANCH   1   2
ATOM      2  C   UNL A   1      38.007  22.717  25.370  1.00  0.00     0.275 C 
BRANCH   2   3
ATOM      3  O   UNL A   1      38.161  23.720  26.395  1.00  0.00    -0.458 OA
BRANCH   3   4
ATOM      4  C   UNL A   1      39.275  23.983  27.118  1.00  0.00     0.338 C 
ATOM      5  O   UNL A   1      40.180  23.154  27.181  1.00  0.00    -0.246 OA
BRANCH   4   6
ATOM      6  C   UNL A   1      39.528  25.341  27.675  1.00  0.00     0.060 A 
ATOM      7  C   UNL A   1      39.338  25.721  29.005  1.00  0.00     0.016 A 
ATOM      8  C   UNL A   1      40.051  26.286  26.770  1.00  0.00     0.016 A 
ATOM      9  C   UNL A   1      39.557  27.036  29.402  1.00  0.00     0.010 A 
ATOM     10  C   UNL A   1      40.309  27.595  27.169  1.00  0.00     0.010 A 
ATOM     11  C   UNL A   1      40.034  27.974  28.484  1.00  0.00    -0.014 A 
BRANCH  11  12
ATOM     12  C   UNL A   1      40.290  29.346  28.971  1.00  0.00     0.031 A 
ATOM     13  C   UNL A   1      39.011  30.143  29.209  1.00  0.00     0.074 A 
ATOM     14  C   UNL A   1      41.599  29.721  29.058  1.00  0.00     0.049 A 
ATOM     15  N   UNL A   1      38.788  31.414  29.058  1.00  0.00    -0.248 NA
ATOM     16  C   UNL A   1      37.768  29.408  29.557  1.00  0.00     0.031 C 
ATOM     17  C   UNL A   1      42.725  28.819  28.756  1.00  0.00     0.029 A 
ATOM     18  N   UNL A   1      42.258  30.886  29.399  1.00  0.00    -0.354 N 
ATOM     19  C   UNL A   1      37.471  31.657  29.498  1.00  0.00     0.074 A 
ATOM     20  C   UNL A   1      36.849  30.373  29.644  1.00  0.00     0.031 C 
ATOM     21  C   UNL A   1      43.899  29.467  28.870  1.00  0.00     0.029 A 
ATOM     22  C   UNL A   1      43.670  30.843  29.259  1.00  0.00     0.049 A 
ATOM     23  H   UNL A   1      41.783  31.688  29.717  1.00  0.00     0.167 HD
ATOM     24  C   UNL A   1      37.018  32.890  29.872  1.00  0.00     0.037 A 
ATOM     25  C   UNL A   1      44.595  31.844  29.404  1.00  0.00     0.037 A 
ATOM     26  C   UNL A   1      38.062  33.858  29.769  1.00  0.00     0.049 A 
ATOM     27  C   UNL A   1      43.848  33.021  29.894  1.00  0.00     0.074 A 
ATOM     28  C   UNL A   1      38.658  34.507  28.722  1.00  0.00     0.029 A 
ATOM     29  N   UNL A   1      38.802  34.083  30.906  1.00  0.00    -0.354 N 
ATOM     30  N   UNL A   1      43.330  33.139  31.081  1.00  0.00    -0.248 NA
ATOM     31  C   UNL A   1      43.589  34.132  28.967  1.00  0.00     0.031 C 
ATOM     32  C   UNL A   1      39.959  34.805  29.183  1.00  0.00     0.029 A 
ATOM     33  C   UNL A   1      40.083  34.387  30.514  1.00  0.00     0.049 A 
ATOM     34  H   UNL A   1      38.473  34.035  31.832  1.00  0.00     0.167 HD
ATOM     35  C   UNL A   1      42.427  34.165  30.924  1.00  0.00     0.074 A 
ATOM     36  C   UNL A   1      42.835  34.899  29.749  1.00  0.00     0.031 C 
ATOM     37  C   UNL A   1      41.167  34.028  31.409  1.00  0.00     0.037 A 
BRANCH  24  38
ATOM     38  C   UNL A   1      35.776  33.322  30.611  1.00  0.00     0.058 A 
ATOM     39  C   UNL A   1      34.713  33.867  29.847  1.00  0.00     0.135 A 
ATOM     40  C   UNL A   1      35.730  33.564  31.992  1.00  0.00     0.135 A 
ATOM     41  F   UNL A   1      34.628  33.634  28.527  1.00  0.00    -0.206 F 
ATOM     42  C   UNL A   1      33.770  34.734  30.388  1.00  0.00     0.059 A 
ATOM     43  C   UNL A   1      34.760  34.392  32.565  1.00  0.00     0.059 A 
ATOM     44  F   UNL A   1      36.675  33.084  32.812  1.00  0.00    -0.206 F 
ATOM     45  C   UNL A   1      33.831  35.028  31.744  1.00  0.00     0.060 A 
BRANCH  45  46
ATOM     46  S   UNL A   1      32.729  36.297  32.403  1.00  0.00     0.124 S 
ATOM     47  O   UNL A   1      33.492  36.782  33.547  1.00  0.00    -0.237 OA
ATOM     48  O   UNL A   1      32.612  37.228  31.283  1.00  0.00    -0.237 OA
ATOM     49  O   UNL A   1      31.513  35.554  32.716  1.00  0.00    -0.744 OA
ENDBRANCH  45  46
ENDBRANCH  24  38
BRANCH  25  50
ATOM     50  C   UNL A   1      46.064  32.050  29.073  1.00  0.00     0.058 A 
ATOM     51  C   UNL A   1      47.144  31.929  29.961  1.00  0.00     0.135 A 
ATOM     52  C   UNL A   1      46.462  32.250  27.720  1.00  0.00     0.135 A 
ATOM     53  F   UNL A   1      46.969  31.888  31.284  1.00  0.00    -0.206 F 
ATOM     54  C   UNL A   1      48.478  31.834  29.534  1.00  0.00     0.059 A 
ATOM     55  C   UNL A   1      47.773  32.118  27.263  1.00  0.00     0.059 A 
ATOM     56  F   UNL A   1      45.573  32.548  26.762  1.00  0.00    -0.206 F 
ATOM     57  C   UNL A   1      48.778  31.871  28.179  1.00  0.00     0.060 A 
BRANCH  57  58
ATOM     58  S   UNL A   1      50.437  31.474  27.594  1.00  0.00     0.124 S 
ATOM     59  O   UNL A   1      50.159  30.633  26.437  1.00  0.00    -0.237 OA
ATOM     60  O   UNL A   1      50.998  32.791  27.302  1.00  0.00    -0.237 OA
ATOM     61  O   UNL A   1      51.034  30.797  28.742  1.00  0.00    -0.744 OA
ENDBRANCH  57  58
ENDBRANCH  25  50
BRANCH  37  62
ATOM     62  C   UNL A   1      41.063  33.092  32.601  1.00  0.00     0.058 A 
ATOM     63  C   UNL A   1      41.557  33.476  33.857  1.00  0.00     0.135 A 
ATOM     64  C   UNL A   1      40.580  31.776  32.509  1.00  0.00     0.135 A 
ATOM     65  F   UNL A   1      42.042  34.715  34.036  1.00  0.00    -0.206 F 
ATOM     66  C   UNL A   1      41.570  32.603  34.952  1.00  0.00     0.059 A 
ATOM     67  C   UNL A   1      40.563  30.888  33.583  1.00  0.00     0.059 A 
ATOM     68  F   UNL A   1      40.118  31.312  31.349  1.00  0.00    -0.206 F 
ATOM     69  C   UNL A   1      41.071  31.307  34.805  1.00  0.00     0.060 A 
BRANCH  69  70
ATOM     70  S   UNL A   1      41.102  30.182  36.218  1.00  0.00     0.124 S 
ATOM     71  O   UNL A   1      41.580  31.044  37.294  1.00  0.00    -0.237 OA
ATOM     72  O   UNL A   1      39.705  29.770  36.314  1.00  0.00    -0.237 OA
ATOM     73  O   UNL A   1      42.033  29.132  35.807  1.00  0.00    -0.744 OA
ENDBRANCH  69  70
ENDBRANCH  37  62
ENDBRANCH  11  12
ENDBRANCH   4   6
ENDBRANCH   3   4
ENDBRANCH   2   3
ENDBRANCH   1   2
BRANCH   1  74
ATOM     74  O   UNL A   1      35.973  21.452  24.728  1.00  0.00    -0.457 OA
BRANCH  74  75
ATOM     75  C   UNL A   1      34.765  21.992  25.051  1.00  0.00     0.354 C 
ATOM     76  O   UNL A   1      33.943  21.472  25.799  1.00  0.00    -0.244 OA
BRANCH  75  77
ATOM     77  C   UNL A   1      34.596  23.278  24.433  1.00  0.00     0.126 A 
ATOM     78  C   UNL A   1      34.309  23.612  23.119  1.00  0.00     0.057 A 
ATOM     79  N   UNL A   1      34.589  24.454  25.154  1.00  0.00    -0.354 N 
ATOM     80  C   UNL A   1      33.794  24.939  23.142  1.00  0.00     0.106 A 
ATOM     81  C   UNL A   1      34.070  25.465  24.386  1.00  0.00     0.105 A 
ATOM     82  H   UNL A   1      34.907  24.553  26.080  1.00  0.00     0.166 HD
BRANCH  80  83
ATOM     83  S   UNL A   1      32.853  25.644  21.871  1.00  0.00     0.263 S 
ATOM     84  O   UNL A   1      32.945  27.085  22.078  1.00  0.00    -0.201 OA
ATOM     85  O   UNL A   1      33.297  25.015  20.665  1.00  0.00    -0.201 OA
BRANCH  83  86
ATOM     86  N   UNL A   1      31.190  25.248  22.090  1.00  0.00    -0.277 N 
ATOM     87  H   UNL A   1      30.545  25.274  21.347  1.00  0.00     0.180 HD
BRANCH  86  88
ATOM     88  C   UNL A   1      30.804  24.877  23.426  1.00  0.00     0.075 A 
ATOM     89  C   UNL A   1      31.014  23.545  23.811  1.00  0.00     0.029 A 
ATOM     90  C   UNL A   1      30.437  25.830  24.398  1.00  0.00     0.089 A 
ATOM     91  C   UNL A   1      30.894  23.161  25.149  1.00  0.00     0.002 A 
ATOM     92  C   UNL A   1      30.340  25.431  25.746  1.00  0.00     0.030 A 
ATOM     93  C   UNL A   1      30.569  24.106  26.117  1.00  0.00     0.002 A 
BRANCH  90  94
ATOM     94  N   UNL A   1      30.232  27.206  24.093  1.00  0.00    -0.238 N 
ATOM     95  C   UNL A   1      29.288  27.787  23.271  1.00  0.00     0.130 A 
ATOM     96  N   UNL A   1      31.054  28.157  24.626  1.00  0.00    -0.175 NA
ATOM     97  C   UNL A   1      29.683  29.083  23.092  1.00  0.00     0.056 A 
ATOM     98  C   UNL A   1      30.789  29.259  23.920  1.00  0.00     0.151 A 
ATOM     99  Br  UNL A   1      28.923  30.374  21.983  1.00  0.00    -0.047 Br
ENDBRANCH  90  94
ENDBRANCH  86  88
ENDBRANCH  83  86
ENDBRANCH  80  83
ENDBRANCH  75  77
ENDBRANCH  74  75
ENDBRANCH   1  74
TORSDOF 18
ENDMDL
