MODEL 1
REMARK VINA RESULT:     -10.3      0.000      0.000
REMARK SMILES Cc1ccc(C(N)=O)c(NCc2ccc(C(=O)OCCOC(=O)c3ccc(-c4c5nc(c(-c6c(F)cc(S(=O)(=O)[O-])cc6F)c6ccc([nH]6)c(-c6c(F)cc(S(=O)(=O)[O-])cc6F)c6nc(c(-c7c(F)cc(S(=O)(=O)[O-])cc7F)c7ccc4[nH]7)C=C6)C=C5)cc3)o2)n1
REMARK SMILES IDX 19 1 18 2 16 3 17 4 15 5 12 6 13 7 90 8 14 9 11 10 10 11
REMARK SMILES IDX 9 13 1 14 2 15 3 16 91 17 4 18 5 19 6 20 7 21 8 22 20 25
REMARK SMILES IDX 21 26 22 27 23 28 24 29 25 30 89 31 26 32 88 33 27 34 28 35
REMARK SMILES IDX 29 36 82 37 30 38 87 39 81 40 83 41 31 42 86 43 80 44 79 45
REMARK SMILES IDX 32 47 66 48 45 49 65 50 46 51 49 52 64 53 84 54 47 55 48 56
REMARK SMILES IDX 63 58 85 59 50 60 33 61 34 62 43 63 35 64 36 65 42 66 44 67
REMARK SMILES IDX 37 68 38 69 39 70 40 71 41 72 67 73 68 74 77 75 69 76 70 77
REMARK SMILES IDX 76 78 78 79 71 80 72 81 73 82 74 83 75 84 51 85 52 86 61 87
REMARK SMILES IDX 53 88 54 89 60 90 62 91 55 92 56 93 57 94 58 95 59 96
REMARK H PARENT 10 12 7 23 7 24 83 46 49 57
REMARK Flexibility Score: inf
ROOT
ATOM      1  C   UNL A   1      40.898  19.974  26.464  1.00  0.00     0.275 C 
ENDROOT
BRANCH   1   2
ATOM      2  O   UNL A   1      41.991  20.036  25.530  1.00  0.00    -0.456 OA
BRANCH   2   3
ATOM      3  C   UNL A   1      42.874  18.991  25.589  1.00  0.00     0.374 C 
ATOM      4  O   UNL A   1      42.561  17.843  25.862  1.00  0.00    -0.242 OA
BRANCH   3   5
ATOM      5  C   UNL A   1      44.193  19.430  25.186  1.00  0.00     0.211 A 
ATOM      6  C   UNL A   1      45.636  20.989  24.574  1.00  0.00     0.124 A 
ATOM      7  C   UNL A   1      46.372  19.846  24.806  1.00  0.00     0.048 A 
ATOM      8  O   UNL A   1      44.311  20.718  24.734  1.00  0.00    -0.452 OA
ATOM      9  C   UNL A   1      45.447  18.850  25.215  1.00  0.00     0.058 A 
BRANCH   6  10
ATOM     10  C   UNL A   1      45.968  22.413  24.266  1.00  0.00     0.190 C 
BRANCH  10  11
ATOM     11  N   UNL A   1      46.081  23.284  25.431  1.00  0.00    -0.362 N 
ATOM     12  H   UNL A   1      46.548  22.974  26.241  1.00  0.00     0.162 HD
BRANCH  11  13
ATOM     13  C   UNL A   1      45.523  24.558  25.386  1.00  0.00     0.139 A 
ATOM     14  C   UNL A   1      46.810  27.875  24.431  1.00  0.00     0.067 C 
ATOM     15  C   UNL A   1      45.844  26.825  24.888  1.00  0.00     0.040 A 
ATOM     16  C   UNL A   1      44.504  27.114  25.084  1.00  0.00     0.024 A 
ATOM     17  N   UNL A   1      46.347  25.581  25.056  1.00  0.00    -0.236 NA
ATOM     18  C   UNL A   1      43.659  26.082  25.471  1.00  0.00     0.019 A 
ATOM     19  C   UNL A   1      44.160  24.782  25.632  1.00  0.00     0.081 A 
BRANCH  19  20
ATOM     20  C   UNL A   1      43.191  23.739  26.071  1.00  0.00     0.252 C 
ATOM     21  N   UNL A   1      42.616  22.946  25.120  1.00  0.00    -0.365 N 
ATOM     22  O   UNL A   1      42.937  23.561  27.258  1.00  0.00    -0.269 OA
ATOM     23  H   UNL A   1      42.820  23.091  24.168  1.00  0.00     0.159 HD
ATOM     24  H   UNL A   1      41.994  22.230  25.387  1.00  0.00     0.159 HD
ENDBRANCH  19  20
ENDBRANCH  11  13
ENDBRANCH  10  11
ENDBRANCH   6  10
ENDBRANCH   3   5
ENDBRANCH   2   3
ENDBRANCH   1   2
BRANCH   1  25
ATOM     25  C   UNL A   1      39.729  20.868  26.033  1.00  0.00     0.275 C 
BRANCH  25  26
ATOM     26  O   UNL A   1      40.030  22.270  26.173  1.00  0.00    -0.458 OA
BRANCH  26  27
ATOM     27  C   UNL A   1      38.954  23.092  26.217  1.00  0.00     0.338 C 
ATOM     28  O   UNL A   1      37.825  22.834  25.831  1.00  0.00    -0.246 OA
BRANCH  27  29
ATOM     29  C   UNL A   1      39.293  24.333  26.938  1.00  0.00     0.060 A 
ATOM     30  C   UNL A   1      40.051  25.288  26.259  1.00  0.00     0.016 A 
ATOM     31  C   UNL A   1      38.940  24.536  28.273  1.00  0.00     0.016 A 
ATOM     32  C   UNL A   1      40.460  26.453  26.902  1.00  0.00     0.010 A 
ATOM     33  C   UNL A   1      39.356  25.706  28.924  1.00  0.00     0.010 A 
ATOM     34  C   UNL A   1      40.126  26.667  28.244  1.00  0.00    -0.014 A 
BRANCH  34  35
ATOM     35  C   UNL A   1      40.627  27.883  28.931  1.00  0.00     0.031 A 
ATOM     36  C   UNL A   1      42.058  27.952  29.384  1.00  0.00     0.074 A 
ATOM     37  C   UNL A   1      39.810  28.938  29.105  1.00  0.00     0.049 A 
ATOM     38  N   UNL A   1      42.679  28.911  30.019  1.00  0.00    -0.248 NA
ATOM     39  C   UNL A   1      42.904  26.787  29.079  1.00  0.00     0.031 C 
ATOM     40  C   UNL A   1      38.414  29.005  28.670  1.00  0.00     0.029 A 
ATOM     41  N   UNL A   1      40.038  30.160  29.688  1.00  0.00    -0.354 N 
ATOM     42  C   UNL A   1      43.982  28.466  30.203  1.00  0.00     0.074 A 
ATOM     43  C   UNL A   1      44.058  27.139  29.628  1.00  0.00     0.031 C 
ATOM     44  C   UNL A   1      37.910  30.206  29.001  1.00  0.00     0.029 A 
ATOM     45  C   UNL A   1      38.932  30.977  29.702  1.00  0.00     0.049 A 
ATOM     46  H   UNL A   1      40.909  30.425  30.063  1.00  0.00     0.167 HD
ATOM     47  C   UNL A   1      45.019  29.107  30.794  1.00  0.00     0.037 A 
ATOM     48  C   UNL A   1      38.758  32.201  30.239  1.00  0.00     0.037 A 
ATOM     49  C   UNL A   1      44.939  30.431  31.357  1.00  0.00     0.049 A 
ATOM     50  C   UNL A   1      39.911  32.871  30.935  1.00  0.00     0.074 A 
ATOM     51  C   UNL A   1      45.939  31.168  31.968  1.00  0.00     0.029 A 
ATOM     52  N   UNL A   1      43.795  31.214  31.380  1.00  0.00    -0.354 N 
ATOM     53  N   UNL A   1      41.139  32.437  31.099  1.00  0.00    -0.248 NA
ATOM     54  C   UNL A   1      39.658  34.196  31.520  1.00  0.00     0.031 C 
ATOM     55  C   UNL A   1      45.389  32.383  32.394  1.00  0.00     0.029 A 
ATOM     56  C   UNL A   1      44.058  32.419  32.011  1.00  0.00     0.049 A 
ATOM     57  H   UNL A   1      42.923  30.952  31.003  1.00  0.00     0.167 HD
ATOM     58  C   UNL A   1      41.807  33.442  31.790  1.00  0.00     0.074 A 
ATOM     59  C   UNL A   1      40.853  34.510  32.001  1.00  0.00     0.031 C 
ATOM     60  C   UNL A   1      43.096  33.475  32.212  1.00  0.00     0.037 A 
BRANCH  47  61
ATOM     61  C   UNL A   1      46.326  28.371  30.887  1.00  0.00     0.058 A 
ATOM     62  C   UNL A   1      47.311  28.485  29.893  1.00  0.00     0.135 A 
ATOM     63  C   UNL A   1      46.608  27.561  31.998  1.00  0.00     0.135 A 
ATOM     64  F   UNL A   1      47.086  29.233  28.801  1.00  0.00    -0.206 F 
ATOM     65  C   UNL A   1      48.520  27.802  29.986  1.00  0.00     0.059 A 
ATOM     66  C   UNL A   1      47.819  26.887  32.124  1.00  0.00     0.059 A 
ATOM     67  F   UNL A   1      45.700  27.417  32.977  1.00  0.00    -0.206 F 
ATOM     68  C   UNL A   1      48.762  27.001  31.104  1.00  0.00     0.060 A 
BRANCH  68  69
ATOM     69  S   UNL A   1      50.331  26.113  31.208  1.00  0.00     0.124 S 
ATOM     70  O   UNL A   1      51.078  26.955  32.138  1.00  0.00    -0.237 OA
ATOM     71  O   UNL A   1      49.922  24.810  31.723  1.00  0.00    -0.237 OA
ATOM     72  O   UNL A   1      50.815  26.116  29.831  1.00  0.00    -0.744 OA
ENDBRANCH  68  69
ENDBRANCH  47  61
BRANCH  48  73
ATOM     73  C   UNL A   1      37.430  32.863  30.154  1.00  0.00     0.058 A 
ATOM     74  C   UNL A   1      36.488  32.738  31.186  1.00  0.00     0.135 A 
ATOM     75  C   UNL A   1      37.081  33.645  29.041  1.00  0.00     0.135 A 
ATOM     76  F   UNL A   1      36.771  31.993  32.265  1.00  0.00    -0.206 F 
ATOM     77  C   UNL A   1      35.244  33.357  31.114  1.00  0.00     0.059 A 
ATOM     78  C   UNL A   1      35.853  34.292  28.957  1.00  0.00     0.059 A 
ATOM     79  F   UNL A   1      37.951  33.803  28.032  1.00  0.00    -0.206 F 
ATOM     80  C   UNL A   1      34.936  34.134  29.996  1.00  0.00     0.060 A 
BRANCH  80  81
ATOM     81  S   UNL A   1      33.340  34.976  29.933  1.00  0.00     0.124 S 
ATOM     82  O   UNL A   1      32.612  34.155  28.972  1.00  0.00    -0.237 OA
ATOM     83  O   UNL A   1      32.889  34.888  31.318  1.00  0.00    -0.237 OA
ATOM     84  O   UNL A   1      33.689  36.320  29.480  1.00  0.00    -0.744 OA
ENDBRANCH  80  81
ENDBRANCH  48  73
BRANCH  60  85
ATOM     85  C   UNL A   1      43.557  34.717  32.921  1.00  0.00     0.058 A 
ATOM     86  C   UNL A   1      43.480  34.838  34.318  1.00  0.00     0.135 A 
ATOM     87  C   UNL A   1      44.128  35.778  32.201  1.00  0.00     0.135 A 
ATOM     88  F   UNL A   1      42.937  33.854  35.051  1.00  0.00    -0.206 F 
ATOM     89  C   UNL A   1      43.935  35.977  34.974  1.00  0.00     0.059 A 
ATOM     90  C   UNL A   1      44.611  36.917  32.838  1.00  0.00     0.059 A 
ATOM     91  F   UNL A   1      44.235  35.708  30.864  1.00  0.00    -0.206 F 
ATOM     92  C   UNL A   1      44.499  37.012  34.225  1.00  0.00     0.060 A 
BRANCH  92  93
ATOM     93  S   UNL A   1      45.118  38.471  35.089  1.00  0.00     0.124 S 
ATOM     94  O   UNL A   1      46.229  38.871  34.231  1.00  0.00    -0.237 OA
ATOM     95  O   UNL A   1      43.959  39.358  35.080  1.00  0.00    -0.237 OA
ATOM     96  O   UNL A   1      45.492  37.954  36.402  1.00  0.00    -0.744 OA
ENDBRANCH  92  93
ENDBRANCH  60  85
ENDBRANCH  34  35
ENDBRANCH  27  29
ENDBRANCH  26  27
ENDBRANCH  25  26
ENDBRANCH   1  25
TORSDOF 18
ENDMDL
MODEL 2
REMARK VINA RESULT:      -9.8      5.006     12.276
REMARK SMILES Cc1ccc(C(N)=O)c(NCc2ccc(C(=O)OCCOC(=O)c3ccc(-c4c5nc(c(-c6c(F)cc(S(=O)(=O)[O-])cc6F)c6ccc([nH]6)c(-c6c(F)cc(S(=O)(=O)[O-])cc6F)c6nc(c(-c7c(F)cc(S(=O)(=O)[O-])cc7F)c7ccc4[nH]7)C=C6)C=C5)cc3)o2)n1
REMARK SMILES IDX 19 1 18 2 16 3 17 4 15 5 12 6 13 7 90 8 14 9 11 10 10 11
REMARK SMILES IDX 9 13 1 14 2 15 3 16 91 17 4 18 5 19 6 20 7 21 8 22 20 25
REMARK SMILES IDX 21 26 22 27 23 28 24 29 25 30 89 31 26 32 88 33 27 34 28 35
REMARK SMILES IDX 29 36 82 37 30 38 87 39 81 40 83 41 31 42 86 43 80 44 79 45
REMARK SMILES IDX 32 47 66 48 45 49 65 50 46 51 49 52 64 53 84 54 47 55 48 56
REMARK SMILES IDX 63 58 85 59 50 60 33 61 34 62 43 63 35 64 36 65 42 66 44 67
REMARK SMILES IDX 37 68 38 69 39 70 40 71 41 72 67 73 68 74 77 75 69 76 70 77
REMARK SMILES IDX 76 78 78 79 71 80 72 81 73 82 74 83 75 84 51 85 52 86 61 87
REMARK SMILES IDX 53 88 54 89 60 90 62 91 55 92 56 93 57 94 58 95 59 96
REMARK H PARENT 10 12 7 23 7 24 83 46 49 57
REMARK Flexibility Score: inf
ROOT
ATOM      1  C   UNL A   1      34.967  32.789  30.579  1.00  0.00     0.275 C 
ENDROOT
BRANCH   1   2
ATOM      2  O   UNL A   1      34.509  33.395  29.356  1.00  0.00    -0.456 OA
BRANCH   2   3
ATOM      3  C   UNL A   1      35.127  32.956  28.216  1.00  0.00     0.374 C 
ATOM      4  O   UNL A   1      36.022  33.560  27.645  1.00  0.00    -0.242 OA
BRANCH   3   5
ATOM      5  C   UNL A   1      34.637  31.643  27.857  1.00  0.00     0.211 A 
ATOM      6  C   UNL A   1      33.099  30.285  27.031  1.00  0.00     0.124 A 
ATOM      7  C   UNL A   1      34.239  29.527  27.201  1.00  0.00     0.048 A 
ATOM      8  O   UNL A   1      33.319  31.547  27.495  1.00  0.00    -0.452 OA
ATOM      9  C   UNL A   1      35.230  30.403  27.717  1.00  0.00     0.058 A 
BRANCH   6  10
ATOM     10  C   UNL A   1      31.759  30.051  26.413  1.00  0.00     0.190 C 
BRANCH  10  11
ATOM     11  N   UNL A   1      31.786  29.731  24.989  1.00  0.00    -0.362 N 
ATOM     12  H   UNL A   1      32.318  30.279  24.367  1.00  0.00     0.162 HD
BRANCH  11  13
ATOM     13  C   UNL A   1      31.055  28.645  24.521  1.00  0.00     0.139 A 
ATOM     14  C   UNL A   1      30.812  25.109  25.529  1.00  0.00     0.067 C 
ATOM     15  C   UNL A   1      30.541  26.372  24.769  1.00  0.00     0.040 A 
ATOM     16  C   UNL A   1      29.544  26.437  23.811  1.00  0.00     0.024 A 
ATOM     17  N   UNL A   1      31.294  27.444  25.102  1.00  0.00    -0.236 NA
ATOM     18  C   UNL A   1      29.323  27.651  23.173  1.00  0.00     0.019 A 
ATOM     19  C   UNL A   1      30.083  28.778  23.519  1.00  0.00     0.081 A 
BRANCH  19  20
ATOM     20  C   UNL A   1      29.798  30.034  22.771  1.00  0.00     0.252 C 
ATOM     21  N   UNL A   1      30.336  30.185  21.525  1.00  0.00    -0.365 N 
ATOM     22  O   UNL A   1      29.068  30.904  23.236  1.00  0.00    -0.269 OA
ATOM     23  H   UNL A   1      30.921  29.486  21.154  1.00  0.00     0.159 HD
ATOM     24  H   UNL A   1      30.138  30.993  20.998  1.00  0.00     0.159 HD
ENDBRANCH  19  20
ENDBRANCH  11  13
ENDBRANCH  10  11
ENDBRANCH   6  10
ENDBRANCH   3   5
ENDBRANCH   2   3
ENDBRANCH   1   2
BRANCH   1  25
ATOM     25  C   UNL A   1      36.441  33.113  30.856  1.00  0.00     0.275 C 
BRANCH  25  26
ATOM     26  O   UNL A   1      37.039  32.193  31.789  1.00  0.00    -0.458 OA
BRANCH  26  27
ATOM     27  C   UNL A   1      36.902  30.881  31.478  1.00  0.00     0.338 C 
ATOM     28  O   UNL A   1      35.891  30.207  31.598  1.00  0.00    -0.246 OA
BRANCH  27  29
ATOM     29  C   UNL A   1      38.128  30.383  30.828  1.00  0.00     0.060 A 
ATOM     30  C   UNL A   1      39.153  29.918  31.653  1.00  0.00     0.016 A 
ATOM     31  C   UNL A   1      38.305  30.431  29.444  1.00  0.00     0.016 A 
ATOM     32  C   UNL A   1      40.361  29.495  31.106  1.00  0.00     0.010 A 
ATOM     33  C   UNL A   1      39.524  30.010  28.893  1.00  0.00     0.010 A 
ATOM     34  C   UNL A   1      40.562  29.547  29.722  1.00  0.00    -0.014 A 
BRANCH  34  35
ATOM     35  C   UNL A   1      41.880  29.155  29.164  1.00  0.00     0.031 A 
ATOM     36  C   UNL A   1      42.994  30.160  29.095  1.00  0.00     0.074 A 
ATOM     37  C   UNL A   1      42.086  27.886  28.765  1.00  0.00     0.049 A 
ATOM     38  N   UNL A   1      44.206  30.019  28.624  1.00  0.00    -0.248 NA
ATOM     39  C   UNL A   1      42.709  31.500  29.631  1.00  0.00     0.031 C 
ATOM     40  C   UNL A   1      41.093  26.811  28.823  1.00  0.00     0.029 A 
ATOM     41  N   UNL A   1      43.201  27.284  28.237  1.00  0.00    -0.354 N 
ATOM     42  C   UNL A   1      44.825  31.252  28.791  1.00  0.00     0.074 A 
ATOM     43  C   UNL A   1      43.847  32.135  29.392  1.00  0.00     0.031 C 
ATOM     44  C   UNL A   1      41.645  25.681  28.350  1.00  0.00     0.029 A 
ATOM     45  C   UNL A   1      43.013  25.958  27.922  1.00  0.00     0.049 A 
ATOM     46  H   UNL A   1      44.053  27.756  28.095  1.00  0.00     0.167 HD
ATOM     47  C   UNL A   1      46.093  31.611  28.477  1.00  0.00     0.037 A 
ATOM     48  C   UNL A   1      43.843  25.075  27.335  1.00  0.00     0.037 A 
ATOM     49  C   UNL A   1      47.063  30.724  27.886  1.00  0.00     0.049 A 
ATOM     50  C   UNL A   1      45.230  25.512  26.948  1.00  0.00     0.074 A 
ATOM     51  C   UNL A   1      48.376  30.993  27.541  1.00  0.00     0.029 A 
ATOM     52  N   UNL A   1      46.826  29.399  27.553  1.00  0.00    -0.354 N 
ATOM     53  N   UNL A   1      45.801  26.681  27.115  1.00  0.00    -0.248 NA
ATOM     54  C   UNL A   1      46.085  24.512  26.292  1.00  0.00     0.031 C 
ATOM     55  C   UNL A   1      48.922  29.841  26.963  1.00  0.00     0.029 A 
ATOM     56  C   UNL A   1      47.962  28.842  26.988  1.00  0.00     0.049 A 
ATOM     57  H   UNL A   1      45.976  28.923  27.697  1.00  0.00     0.167 HD
ATOM     58  C   UNL A   1      47.087  26.552  26.601  1.00  0.00     0.074 A 
ATOM     59  C   UNL A   1      47.214  25.188  26.130  1.00  0.00     0.031 C 
ATOM     60  C   UNL A   1      48.073  27.480  26.526  1.00  0.00     0.037 A 
BRANCH  47  61
ATOM     61  C   UNL A   1      46.495  33.034  28.739  1.00  0.00     0.058 A 
ATOM     62  C   UNL A   1      46.351  34.035  27.765  1.00  0.00     0.135 A 
ATOM     63  C   UNL A   1      47.007  33.409  29.991  1.00  0.00     0.135 A 
ATOM     64  F   UNL A   1      45.882  33.729  26.545  1.00  0.00    -0.206 F 
ATOM     65  C   UNL A   1      46.724  35.352  28.015  1.00  0.00     0.059 A 
ATOM     66  C   UNL A   1      47.366  34.724  30.272  1.00  0.00     0.059 A 
ATOM     67  F   UNL A   1      47.167  32.490  30.958  1.00  0.00    -0.206 F 
ATOM     68  C   UNL A   1      47.236  35.685  29.272  1.00  0.00     0.060 A 
BRANCH  68  69
ATOM     69  S   UNL A   1      47.724  37.396  29.581  1.00  0.00     0.124 S 
ATOM     70  O   UNL A   1      46.475  38.105  29.318  1.00  0.00    -0.237 OA
ATOM     71  O   UNL A   1      48.148  37.356  30.977  1.00  0.00    -0.237 OA
ATOM     72  O   UNL A   1      48.791  37.625  28.611  1.00  0.00    -0.744 OA
ENDBRANCH  68  69
ENDBRANCH  47  61
BRANCH  48  73
ATOM     73  C   UNL A   1      43.375  23.690  27.061  1.00  0.00     0.058 A 
ATOM     74  C   UNL A   1      42.816  23.344  25.822  1.00  0.00     0.135 A 
ATOM     75  C   UNL A   1      43.490  22.683  28.032  1.00  0.00     0.135 A 
ATOM     76  F   UNL A   1      42.676  24.274  24.866  1.00  0.00    -0.206 F 
ATOM     77  C   UNL A   1      42.379  22.050  25.558  1.00  0.00     0.059 A 
ATOM     78  C   UNL A   1      43.081  21.377  27.783  1.00  0.00     0.059 A 
ATOM     79  F   UNL A   1      44.027  22.962  29.230  1.00  0.00    -0.206 F 
ATOM     80  C   UNL A   1      42.517  21.072  26.545  1.00  0.00     0.060 A 
BRANCH  80  81
ATOM     81  S   UNL A   1      41.995  19.383  26.176  1.00  0.00     0.124 S 
ATOM     82  O   UNL A   1      42.302  18.702  27.429  1.00  0.00    -0.237 OA
ATOM     83  O   UNL A   1      40.578  19.555  25.874  1.00  0.00    -0.237 OA
ATOM     84  O   UNL A   1      42.831  19.017  25.036  1.00  0.00    -0.744 OA
ENDBRANCH  80  81
ENDBRANCH  48  73
BRANCH  60  85
ATOM     85  C   UNL A   1      49.385  27.046  25.936  1.00  0.00     0.058 A 
ATOM     86  C   UNL A   1      49.669  27.212  24.571  1.00  0.00     0.135 A 
ATOM     87  C   UNL A   1      50.389  26.503  26.754  1.00  0.00     0.135 A 
ATOM     88  F   UNL A   1      48.740  27.720  23.746  1.00  0.00    -0.206 F 
ATOM     89  C   UNL A   1      50.895  26.836  24.034  1.00  0.00     0.059 A 
ATOM     90  C   UNL A   1      51.631  26.141  26.242  1.00  0.00     0.059 A 
ATOM     91  F   UNL A   1      50.172  26.333  28.068  1.00  0.00    -0.206 F 
ATOM     92  C   UNL A   1      51.871  26.301  24.877  1.00  0.00     0.060 A 
BRANCH  92  93
ATOM     93  S   UNL A   1      53.472  25.848  24.177  1.00  0.00     0.124 S 
ATOM     94  O   UNL A   1      54.336  26.890  24.720  1.00  0.00    -0.237 OA
ATOM     95  O   UNL A   1      53.683  24.507  24.713  1.00  0.00    -0.237 OA
ATOM     96  O   UNL A   1      53.241  25.910  22.736  1.00  0.00    -0.744 OA
ENDBRANCH  92  93
ENDBRANCH  60  85
ENDBRANCH  34  35
ENDBRANCH  27  29
ENDBRANCH  26  27
ENDBRANCH  25  26
ENDBRANCH   1  25
TORSDOF 18
ENDMDL
MODEL 3
REMARK VINA RESULT:      -9.8      4.418      6.542
REMARK SMILES Cc1ccc(C(N)=O)c(NCc2ccc(C(=O)OCCOC(=O)c3ccc(-c4c5nc(c(-c6c(F)cc(S(=O)(=O)[O-])cc6F)c6ccc([nH]6)c(-c6c(F)cc(S(=O)(=O)[O-])cc6F)c6nc(c(-c7c(F)cc(S(=O)(=O)[O-])cc7F)c7ccc4[nH]7)C=C6)C=C5)cc3)o2)n1
REMARK SMILES IDX 19 1 18 2 16 3 17 4 15 5 12 6 13 7 90 8 14 9 11 10 10 11
REMARK SMILES IDX 9 13 1 14 2 15 3 16 91 17 4 18 5 19 6 20 7 21 8 22 20 25
REMARK SMILES IDX 21 26 22 27 23 28 24 29 25 30 89 31 26 32 88 33 27 34 28 35
REMARK SMILES IDX 29 36 82 37 30 38 87 39 81 40 83 41 31 42 86 43 80 44 79 45
REMARK SMILES IDX 32 47 66 48 45 49 65 50 46 51 49 52 64 53 84 54 47 55 48 56
REMARK SMILES IDX 63 58 85 59 50 60 33 61 34 62 43 63 35 64 36 65 42 66 44 67
REMARK SMILES IDX 37 68 38 69 39 70 40 71 41 72 67 73 68 74 77 75 69 76 70 77
REMARK SMILES IDX 76 78 78 79 71 80 72 81 73 82 74 83 75 84 51 85 52 86 61 87
REMARK SMILES IDX 53 88 54 89 60 90 62 91 55 92 56 93 57 94 58 95 59 96
REMARK H PARENT 10 12 7 23 7 24 83 46 49 57
REMARK Flexibility Score: inf
ROOT
ATOM      1  C   UNL A   1      42.933  21.942  25.920  1.00  0.00     0.275 C 
ENDROOT
BRANCH   1   2
ATOM      2  O   UNL A   1      41.637  21.321  25.832  1.00  0.00    -0.456 OA
BRANCH   2   3
ATOM      3  C   UNL A   1      40.788  21.586  26.873  1.00  0.00     0.374 C 
ATOM      4  O   UNL A   1      41.072  21.422  28.049  1.00  0.00    -0.242 OA
BRANCH   3   5
ATOM      5  C   UNL A   1      39.563  22.175  26.378  1.00  0.00     0.211 A 
ATOM      6  C   UNL A   1      37.604  22.055  25.360  1.00  0.00     0.124 A 
ATOM      7  C   UNL A   1      37.674  23.312  25.923  1.00  0.00     0.048 A 
ATOM      8  O   UNL A   1      38.775  21.394  25.573  1.00  0.00    -0.452 OA
ATOM      9  C   UNL A   1      38.925  23.383  26.590  1.00  0.00     0.058 A 
BRANCH   6  10
ATOM     10  C   UNL A   1      36.542  21.272  24.657  1.00  0.00     0.190 C 
BRANCH  10  11
ATOM     11  N   UNL A   1      35.522  20.698  25.528  1.00  0.00    -0.362 N 
ATOM     12  H   UNL A   1      35.555  20.853  26.500  1.00  0.00     0.162 HD
BRANCH  11  13
ATOM     13  C   UNL A   1      34.504  19.932  24.972  1.00  0.00     0.139 A 
ATOM     14  C   UNL A   1      34.353  16.538  23.546  1.00  0.00     0.067 C 
ATOM     15  C   UNL A   1      33.890  17.887  24.006  1.00  0.00     0.040 A 
ATOM     16  C   UNL A   1      32.549  18.230  23.999  1.00  0.00     0.024 A 
ATOM     17  N   UNL A   1      34.848  18.725  24.461  1.00  0.00    -0.236 NA
ATOM     18  C   UNL A   1      32.189  19.484  24.475  1.00  0.00     0.019 A 
ATOM     19  C   UNL A   1      33.168  20.360  24.968  1.00  0.00     0.081 A 
BRANCH  19  20
ATOM     20  C   UNL A   1      32.700  21.693  25.438  1.00  0.00     0.252 C 
ATOM     21  N   UNL A   1      31.425  21.803  25.915  1.00  0.00    -0.365 N 
ATOM     22  O   UNL A   1      33.444  22.669  25.439  1.00  0.00    -0.269 OA
ATOM     23  H   UNL A   1      30.829  21.019  25.913  1.00  0.00     0.159 HD
ATOM     24  H   UNL A   1      31.101  22.667  26.259  1.00  0.00     0.159 HD
ENDBRANCH  19  20
ENDBRANCH  11  13
ENDBRANCH  10  11
ENDBRANCH   6  10
ENDBRANCH   3   5
ENDBRANCH   2   3
ENDBRANCH   1   2
BRANCH   1  25
ATOM     25  C   UNL A   1      42.947  23.322  25.249  1.00  0.00     0.275 C 
BRANCH  25  26
ATOM     26  O   UNL A   1      42.384  24.347  26.091  1.00  0.00    -0.458 OA
BRANCH  26  27
ATOM     27  C   UNL A   1      43.063  25.520  26.108  1.00  0.00     0.338 C 
ATOM     28  O   UNL A   1      43.868  25.907  25.276  1.00  0.00    -0.246 OA
BRANCH  27  29
ATOM     29  C   UNL A   1      42.592  26.363  27.223  1.00  0.00     0.060 A 
ATOM     30  C   UNL A   1      43.161  27.630  27.360  1.00  0.00     0.016 A 
ATOM     31  C   UNL A   1      41.665  25.903  28.160  1.00  0.00     0.016 A 
ATOM     32  C   UNL A   1      42.809  28.449  28.428  1.00  0.00     0.010 A 
ATOM     33  C   UNL A   1      41.314  26.726  29.240  1.00  0.00     0.010 A 
ATOM     34  C   UNL A   1      41.891  28.000  29.385  1.00  0.00    -0.014 A 
BRANCH  34  35
ATOM     35  C   UNL A   1      41.579  28.862  30.552  1.00  0.00     0.031 A 
ATOM     36  C   UNL A   1      42.429  28.785  31.789  1.00  0.00     0.074 A 
ATOM     37  C   UNL A   1      40.563  29.743  30.481  1.00  0.00     0.049 A 
ATOM     38  N   UNL A   1      42.307  29.436  32.916  1.00  0.00    -0.248 NA
ATOM     39  C   UNL A   1      43.569  27.857  31.750  1.00  0.00     0.031 C 
ATOM     40  C   UNL A   1      39.695  29.937  29.319  1.00  0.00     0.029 A 
ATOM     41  N   UNL A   1      40.093  30.643  31.404  1.00  0.00    -0.354 N 
ATOM     42  C   UNL A   1      43.342  28.988  33.728  1.00  0.00     0.074 A 
ATOM     43  C   UNL A   1      44.073  27.996  32.967  1.00  0.00     0.031 C 
ATOM     44  C   UNL A   1      38.799  30.898  29.599  1.00  0.00     0.029 A 
ATOM     45  C   UNL A   1      39.004  31.360  30.968  1.00  0.00     0.049 A 
ATOM     46  H   UNL A   1      40.496  30.763  32.294  1.00  0.00     0.167 HD
ATOM     47  C   UNL A   1      43.656  29.373  34.988  1.00  0.00     0.037 A 
ATOM     48  C   UNL A   1      38.244  32.269  31.610  1.00  0.00     0.037 A 
ATOM     49  C   UNL A   1      42.929  30.368  35.736  1.00  0.00     0.049 A 
ATOM     50  C   UNL A   1      38.582  32.644  33.027  1.00  0.00     0.074 A 
ATOM     51  C   UNL A   1      43.176  30.833  37.016  1.00  0.00     0.029 A 
ATOM     52  N   UNL A   1      41.812  31.048  35.273  1.00  0.00    -0.354 N 
ATOM     53  N   UNL A   1      39.566  32.212  33.780  1.00  0.00    -0.248 NA
ATOM     54  C   UNL A   1      37.707  33.625  33.684  1.00  0.00     0.031 C 
ATOM     55  C   UNL A   1      42.186  31.767  37.342  1.00  0.00     0.029 A 
ATOM     56  C   UNL A   1      41.348  31.916  36.248  1.00  0.00     0.049 A 
ATOM     57  H   UNL A   1      41.409  30.932  34.382  1.00  0.00     0.167 HD
ATOM     58  C   UNL A   1      39.438  32.883  34.992  1.00  0.00     0.074 A 
ATOM     59  C   UNL A   1      38.291  33.757  34.867  1.00  0.00     0.031 C 
ATOM     60  C   UNL A   1      40.203  32.782  36.107  1.00  0.00     0.037 A 
BRANCH  47  61
ATOM     61  C   UNL A   1      44.821  28.695  35.650  1.00  0.00     0.058 A 
ATOM     62  C   UNL A   1      44.664  27.522  36.404  1.00  0.00     0.135 A 
ATOM     63  C   UNL A   1      46.119  29.212  35.506  1.00  0.00     0.135 A 
ATOM     64  F   UNL A   1      43.443  26.995  36.588  1.00  0.00    -0.206 F 
ATOM     65  C   UNL A   1      45.749  26.898  37.013  1.00  0.00     0.059 A 
ATOM     66  C   UNL A   1      47.222  28.592  36.087  1.00  0.00     0.059 A 
ATOM     67  F   UNL A   1      46.325  30.333  34.796  1.00  0.00    -0.206 F 
ATOM     68  C   UNL A   1      47.024  27.445  36.853  1.00  0.00     0.060 A 
BRANCH  68  69
ATOM     69  S   UNL A   1      48.421  26.631  37.655  1.00  0.00     0.124 S 
ATOM     70  O   UNL A   1      47.772  26.010  38.807  1.00  0.00    -0.237 OA
ATOM     71  O   UNL A   1      48.888  25.713  36.621  1.00  0.00    -0.237 OA
ATOM     72  O   UNL A   1      49.325  27.735  37.964  1.00  0.00    -0.744 OA
ENDBRANCH  68  69
ENDBRANCH  47  61
BRANCH  48  73
ATOM     73  C   UNL A   1      37.076  32.876  30.918  1.00  0.00     0.058 A 
ATOM     74  C   UNL A   1      35.763  32.533  31.272  1.00  0.00     0.135 A 
ATOM     75  C   UNL A   1      37.253  33.822  29.896  1.00  0.00     0.135 A 
ATOM     76  F   UNL A   1      35.544  31.625  32.236  1.00  0.00    -0.206 F 
ATOM     77  C   UNL A   1      34.666  33.098  30.631  1.00  0.00     0.059 A 
ATOM     78  C   UNL A   1      36.171  34.419  29.256  1.00  0.00     0.059 A 
ATOM     79  F   UNL A   1      38.489  34.191  29.527  1.00  0.00    -0.206 F 
ATOM     80  C   UNL A   1      34.879  34.042  29.625  1.00  0.00     0.060 A 
BRANCH  80  81
ATOM     81  S   UNL A   1      33.449  34.811  28.833  1.00  0.00     0.124 S 
ATOM     82  O   UNL A   1      33.123  33.830  27.804  1.00  0.00    -0.237 OA
ATOM     83  O   UNL A   1      32.503  34.915  29.938  1.00  0.00    -0.237 OA
ATOM     84  O   UNL A   1      33.979  36.083  28.350  1.00  0.00    -0.744 OA
ENDBRANCH  80  81
ENDBRANCH  48  73
BRANCH  60  85
ATOM     85  C   UNL A   1      39.841  33.658  37.273  1.00  0.00     0.058 A 
ATOM     86  C   UNL A   1      38.885  33.261  38.222  1.00  0.00     0.135 A 
ATOM     87  C   UNL A   1      40.491  34.886  37.471  1.00  0.00     0.135 A 
ATOM     88  F   UNL A   1      38.231  32.099  38.075  1.00  0.00    -0.206 F 
ATOM     89  C   UNL A   1      38.573  34.061  39.316  1.00  0.00     0.059 A 
ATOM     90  C   UNL A   1      40.212  35.692  38.570  1.00  0.00     0.059 A 
ATOM     91  F   UNL A   1      41.421  35.308  36.598  1.00  0.00    -0.206 F 
ATOM     92  C   UNL A   1      39.241  35.276  39.483  1.00  0.00     0.060 A 
BRANCH  92  93
ATOM     93  S   UNL A   1      38.854  36.291  40.924  1.00  0.00     0.124 S 
ATOM     94  O   UNL A   1      40.117  36.259  41.653  1.00  0.00    -0.237 OA
ATOM     95  O   UNL A   1      38.502  37.573  40.321  1.00  0.00    -0.237 OA
ATOM     96  O   UNL A   1      37.746  35.577  41.553  1.00  0.00    -0.744 OA
ENDBRANCH  92  93
ENDBRANCH  60  85
ENDBRANCH  34  35
ENDBRANCH  27  29
ENDBRANCH  26  27
ENDBRANCH  25  26
ENDBRANCH   1  25
TORSDOF 18
ENDMDL
