MODEL 1
REMARK VINA RESULT:     -10.9      0.000      0.000
REMARK SMILES CC(C)[C@H](NC(=O)[C@H](C)NC(=O)CNC(=O)OCc1ccccc1)C(=O)OCCOC(=O)c1ccc(-c2c3nc(c(-c4c(F)cc(S(=O)(=O)[O-])cc4F)c4ccc([nH]4)c(-c4c(F)cc(S(=O)(=O)[O-])cc4F)c4nc(c(-c5c(F)cc(S(=O)(=O)[O-])cc5F)c5ccc2[nH]5)C=C4)C=C3)cc1
REMARK SMILES IDX 25 1 26 2 4 3 2 4 1 5 3 6 5 7 6 8 7 10 8 11 9 12 10 13 11 14
REMARK SMILES IDX 12 16 13 17 14 18 15 19 16 21 17 22 18 23 19 24 20 25 24 26
REMARK SMILES IDX 21 27 23 28 22 29 27 30 28 31 29 32 30 33 31 34 32 35 33 36
REMARK SMILES IDX 34 37 98 38 35 39 97 40 36 41 37 42 38 43 91 44 39 45 96 46
REMARK SMILES IDX 90 47 92 48 40 49 95 50 89 51 88 52 41 54 75 55 54 56 74 57
REMARK SMILES IDX 55 58 58 59 73 60 93 61 56 62 57 63 72 65 94 66 59 67 42 68
REMARK SMILES IDX 43 69 52 70 44 71 45 72 51 73 53 74 46 75 47 76 48 77 49 78
REMARK SMILES IDX 50 79 76 80 77 81 86 82 78 83 79 84 85 85 87 86 80 87 81 88
REMARK SMILES IDX 82 89 83 90 84 91 60 92 61 93 70 94 62 95 63 96 69 97 71 98
REMARK SMILES IDX 64 99 65 100 66 101 67 102 68 103
REMARK H PARENT 5 9 10 15 14 20 92 53 58 64
REMARK Flexibility Score: inf
ROOT
ATOM      1  C   UNL A   1      31.531  28.821  23.490  1.00  0.00     0.329 C 
ATOM      2  O   UNL A   1      32.484  28.992  22.743  1.00  0.00    -0.250 OA
ENDROOT
BRANCH   1   3
ATOM      3  C   UNL A   1      30.288  27.960  23.145  1.00  0.00     0.194 C 
BRANCH   3   4
ATOM      4  C   UNL A   1      29.159  28.743  22.426  1.00  0.00     0.017 C 
ATOM      5  C   UNL A   1      27.837  28.662  23.211  1.00  0.00     0.010 C 
ATOM      6  C   UNL A   1      29.488  30.226  22.221  1.00  0.00     0.010 C 
ENDBRANCH   3   4
BRANCH   3   7
ATOM      7  N   UNL A   1      29.858  27.025  24.197  1.00  0.00    -0.341 N 
ATOM      8  C   UNL A   1      30.445  25.974  24.827  1.00  0.00     0.242 C 
ATOM      9  H   UNL A   1      28.944  27.201  24.515  1.00  0.00     0.164 HD
ATOM     10  O   UNL A   1      29.789  25.435  25.725  1.00  0.00    -0.273 OA
BRANCH   8  11
ATOM     11  C   UNL A   1      31.760  25.346  24.318  1.00  0.00     0.168 C 
ATOM     12  C   UNL A   1      32.919  25.743  25.237  1.00  0.00     0.041 C 
BRANCH  11  13
ATOM     13  N   UNL A   1      32.118  25.698  22.950  1.00  0.00    -0.343 N 
ATOM     14  C   UNL A   1      32.861  24.986  22.051  1.00  0.00     0.240 C 
ATOM     15  H   UNL A   1      31.781  26.565  22.631  1.00  0.00     0.164 HD
ATOM     16  O   UNL A   1      33.311  25.578  21.069  1.00  0.00    -0.273 OA
BRANCH  14  17
ATOM     17  C   UNL A   1      33.164  23.507  22.296  1.00  0.00     0.219 C 
BRANCH  17  18
ATOM     18  N   UNL A   1      34.430  23.352  22.984  1.00  0.00    -0.312 N 
ATOM     19  C   UNL A   1      34.694  22.520  24.029  1.00  0.00     0.407 C 
ATOM     20  H   UNL A   1      35.177  23.906  22.662  1.00  0.00     0.167 HD
ATOM     21  O   UNL A   1      35.760  22.564  24.626  1.00  0.00    -0.225 OA
BRANCH  19  22
ATOM     22  O   UNL A   1      33.658  21.703  24.331  1.00  0.00    -0.445 OA
BRANCH  22  23
ATOM     23  C   UNL A   1      33.925  20.699  25.319  1.00  0.00     0.270 C 
BRANCH  23  24
ATOM     24  C   UNL A   1      33.796  19.304  24.764  1.00  0.00    -0.011 A 
ATOM     25  C   UNL A   1      34.915  18.492  24.530  1.00  0.00     0.007 A 
ATOM     26  C   UNL A   1      32.528  18.812  24.426  1.00  0.00     0.007 A 
ATOM     27  C   UNL A   1      34.770  17.215  23.989  1.00  0.00     0.000 A 
ATOM     28  C   UNL A   1      32.382  17.530  23.893  1.00  0.00     0.000 A 
ATOM     29  C   UNL A   1      33.503  16.732  23.676  1.00  0.00     0.000 A 
ENDBRANCH  23  24
ENDBRANCH  22  23
ENDBRANCH  19  22
ENDBRANCH  17  18
ENDBRANCH  14  17
ENDBRANCH  11  13
ENDBRANCH   8  11
ENDBRANCH   3   7
ENDBRANCH   1   3
BRANCH   1  30
ATOM     30  O   UNL A   1      31.487  29.298  24.764  1.00  0.00    -0.461 OA
BRANCH  30  31
ATOM     31  C   UNL A   1      32.760  29.535  25.402  1.00  0.00     0.274 C 
BRANCH  31  32
ATOM     32  C   UNL A   1      32.631  29.282  26.907  1.00  0.00     0.275 C 
BRANCH  32  33
ATOM     33  O   UNL A   1      33.938  29.101  27.471  1.00  0.00    -0.458 OA
BRANCH  33  34
ATOM     34  C   UNL A   1      34.495  30.227  27.986  1.00  0.00     0.338 C 
ATOM     35  O   UNL A   1      33.938  31.227  28.376  1.00  0.00    -0.246 OA
BRANCH  34  36
ATOM     36  C   UNL A   1      35.885  29.870  28.307  1.00  0.00     0.060 A 
ATOM     37  C   UNL A   1      36.815  29.940  27.267  1.00  0.00     0.016 A 
ATOM     38  C   UNL A   1      36.280  29.571  29.610  1.00  0.00     0.016 A 
ATOM     39  C   UNL A   1      38.160  29.727  27.518  1.00  0.00     0.010 A 
ATOM     40  C   UNL A   1      37.627  29.344  29.864  1.00  0.00     0.010 A 
ATOM     41  C   UNL A   1      38.567  29.421  28.819  1.00  0.00    -0.014 A 
BRANCH  41  42
ATOM     42  C   UNL A   1      39.972  29.077  29.084  1.00  0.00     0.031 A 
ATOM     43  C   UNL A   1      40.876  30.159  29.586  1.00  0.00     0.074 A 
ATOM     44  C   UNL A   1      40.411  27.831  28.844  1.00  0.00     0.049 A 
ATOM     45  N   UNL A   1      42.172  30.162  29.705  1.00  0.00    -0.248 NA
ATOM     46  C   UNL A   1      40.224  31.416  29.996  1.00  0.00     0.031 C 
ATOM     47  C   UNL A   1      39.573  26.710  28.409  1.00  0.00     0.029 A 
ATOM     48  N   UNL A   1      41.671  27.302  28.910  1.00  0.00    -0.354 N 
ATOM     49  C   UNL A   1      42.500  31.429  30.168  1.00  0.00     0.074 A 
ATOM     50  C   UNL A   1      41.268  32.172  30.303  1.00  0.00     0.031 C 
ATOM     51  C   UNL A   1      40.351  25.630  28.222  1.00  0.00     0.029 A 
ATOM     52  C   UNL A   1      41.740  26.001  28.471  1.00  0.00     0.049 A 
ATOM     53  H   UNL A   1      42.451  27.804  29.238  1.00  0.00     0.167 HD
ATOM     54  C   UNL A   1      43.729  31.920  30.445  1.00  0.00     0.037 A 
ATOM     55  C   UNL A   1      42.817  25.222  28.252  1.00  0.00     0.037 A 
ATOM     56  C   UNL A   1      44.931  31.143  30.305  1.00  0.00     0.049 A 
ATOM     57  C   UNL A   1      44.178  25.806  28.517  1.00  0.00     0.074 A 
ATOM     58  C   UNL A   1      46.236  31.514  30.566  1.00  0.00     0.029 A 
ATOM     59  N   UNL A   1      44.967  29.827  29.859  1.00  0.00    -0.354 N 
ATOM     60  N   UNL A   1      44.487  27.008  28.950  1.00  0.00    -0.248 NA
ATOM     61  C   UNL A   1      45.337  24.944  28.257  1.00  0.00     0.031 C 
ATOM     62  C   UNL A   1      47.064  30.436  30.239  1.00  0.00     0.029 A 
ATOM     63  C   UNL A   1      46.273  29.377  29.815  1.00  0.00     0.049 A 
ATOM     64  H   UNL A   1      44.177  29.294  29.610  1.00  0.00     0.167 HD
ATOM     65  C   UNL A   1      45.873  27.044  29.023  1.00  0.00     0.074 A 
ATOM     66  C   UNL A   1      46.342  25.736  28.606  1.00  0.00     0.031 C 
ATOM     67  C   UNL A   1      46.690  28.061  29.396  1.00  0.00     0.037 A 
BRANCH  54  68
ATOM     68  C   UNL A   1      43.825  33.354  30.880  1.00  0.00     0.058 A 
ATOM     69  C   UNL A   1      44.048  34.394  29.963  1.00  0.00     0.135 A 
ATOM     70  C   UNL A   1      43.695  33.693  32.236  1.00  0.00     0.135 A 
ATOM     71  F   UNL A   1      44.209  34.123  28.658  1.00  0.00    -0.206 F 
ATOM     72  C   UNL A   1      44.161  35.717  30.379  1.00  0.00     0.059 A 
ATOM     73  C   UNL A   1      43.779  35.014  32.671  1.00  0.00     0.059 A 
ATOM     74  F   UNL A   1      43.494  32.737  33.156  1.00  0.00    -0.206 F 
ATOM     75  C   UNL A   1      44.027  36.017  31.735  1.00  0.00     0.060 A 
BRANCH  75  76
ATOM     76  S   UNL A   1      44.176  37.738  32.259  1.00  0.00     0.124 S 
ATOM     77  O   UNL A   1      43.291  37.768  33.419  1.00  0.00    -0.237 OA
ATOM     78  O   UNL A   1      45.602  37.852  32.549  1.00  0.00    -0.237 OA
ATOM     79  O   UNL A   1      43.713  38.490  31.097  1.00  0.00    -0.744 OA
ENDBRANCH  75  76
ENDBRANCH  54  68
BRANCH  55  80
ATOM     80  C   UNL A   1      42.647  23.843  27.722  1.00  0.00     0.058 A 
ATOM     81  C   UNL A   1      42.496  22.749  28.584  1.00  0.00     0.135 A 
ATOM     82  C   UNL A   1      42.603  23.594  26.340  1.00  0.00     0.135 A 
ATOM     83  F   UNL A   1      42.536  22.933  29.913  1.00  0.00    -0.206 F 
ATOM     84  C   UNL A   1      42.315  21.456  28.100  1.00  0.00     0.059 A 
ATOM     85  C   UNL A   1      42.400  22.315  25.831  1.00  0.00     0.059 A 
ATOM     86  F   UNL A   1      42.730  24.607  25.469  1.00  0.00    -0.206 F 
ATOM     87  C   UNL A   1      42.266  21.250  26.720  1.00  0.00     0.060 A 
BRANCH  87  88
ATOM     88  S   UNL A   1      41.976  19.577  26.101  1.00  0.00     0.124 S 
ATOM     89  O   UNL A   1      42.351  18.769  27.256  1.00  0.00    -0.237 OA
ATOM     90  O   UNL A   1      40.553  19.611  25.780  1.00  0.00    -0.237 OA
ATOM     91  O   UNL A   1      42.868  19.487  24.949  1.00  0.00    -0.744 OA
ENDBRANCH  87  88
ENDBRANCH  55  80
BRANCH  67  92
ATOM     92  C   UNL A   1      48.166  27.791  29.381  1.00  0.00     0.058 A 
ATOM     93  C   UNL A   1      48.934  28.002  28.226  1.00  0.00     0.135 A 
ATOM     94  C   UNL A   1      48.825  27.400  30.556  1.00  0.00     0.135 A 
ATOM     95  F   UNL A   1      48.344  28.367  27.079  1.00  0.00    -0.206 F 
ATOM     96  C   UNL A   1      50.312  27.826  28.237  1.00  0.00     0.059 A 
ATOM     97  C   UNL A   1      50.205  27.242  30.595  1.00  0.00     0.059 A 
ATOM     98  F   UNL A   1      48.131  27.197  31.686  1.00  0.00    -0.206 F 
ATOM     99  C   UNL A   1      50.940  27.453  29.428  1.00  0.00     0.060 A 
BRANCH  99 100
ATOM    100  S   UNL A   1      52.737  27.292  29.443  1.00  0.00     0.124 S 
ATOM    101  O   UNL A   1      53.044  27.324  28.017  1.00  0.00    -0.237 OA
ATOM    102  O   UNL A   1      53.150  28.464  30.208  1.00  0.00    -0.237 OA
ATOM    103  O   UNL A   1      52.955  26.010  30.105  1.00  0.00    -0.744 OA
ENDBRANCH  99 100
ENDBRANCH  67  92
ENDBRANCH  41  42
ENDBRANCH  34  36
ENDBRANCH  33  34
ENDBRANCH  32  33
ENDBRANCH  31  32
ENDBRANCH  30  31
ENDBRANCH   1  30
TORSDOF 23
ENDMDL
MODEL 2
REMARK VINA RESULT:     -10.9      1.348      2.107
REMARK SMILES CC(C)[C@H](NC(=O)[C@H](C)NC(=O)CNC(=O)OCc1ccccc1)C(=O)OCCOC(=O)c1ccc(-c2c3nc(c(-c4c(F)cc(S(=O)(=O)[O-])cc4F)c4ccc([nH]4)c(-c4c(F)cc(S(=O)(=O)[O-])cc4F)c4nc(c(-c5c(F)cc(S(=O)(=O)[O-])cc5F)c5ccc2[nH]5)C=C4)C=C3)cc1
REMARK SMILES IDX 25 1 26 2 4 3 2 4 1 5 3 6 5 7 6 8 7 10 8 11 9 12 10 13 11 14
REMARK SMILES IDX 12 16 13 17 14 18 15 19 16 21 17 22 18 23 19 24 20 25 24 26
REMARK SMILES IDX 21 27 23 28 22 29 27 30 28 31 29 32 30 33 31 34 32 35 33 36
REMARK SMILES IDX 34 37 98 38 35 39 97 40 36 41 37 42 38 43 91 44 39 45 96 46
REMARK SMILES IDX 90 47 92 48 40 49 95 50 89 51 88 52 41 54 75 55 54 56 74 57
REMARK SMILES IDX 55 58 58 59 73 60 93 61 56 62 57 63 72 65 94 66 59 67 42 68
REMARK SMILES IDX 43 69 52 70 44 71 45 72 51 73 53 74 46 75 47 76 48 77 49 78
REMARK SMILES IDX 50 79 76 80 77 81 86 82 78 83 79 84 85 85 87 86 80 87 81 88
REMARK SMILES IDX 82 89 83 90 84 91 60 92 61 93 70 94 62 95 63 96 69 97 71 98
REMARK SMILES IDX 64 99 65 100 66 101 67 102 68 103
REMARK H PARENT 5 9 10 15 14 20 92 53 58 64
REMARK Flexibility Score: inf
ROOT
ATOM      1  C   UNL A   1      31.539  29.186  25.607  1.00  0.00     0.329 C 
ATOM      2  O   UNL A   1      31.501  30.406  25.699  1.00  0.00    -0.250 OA
ENDROOT
BRANCH   1   3
ATOM      3  C   UNL A   1      31.421  28.403  24.273  1.00  0.00     0.194 C 
BRANCH   3   4
ATOM      4  C   UNL A   1      32.102  29.103  23.069  1.00  0.00     0.017 C 
ATOM      5  C   UNL A   1      33.258  28.252  22.510  1.00  0.00     0.010 C 
ATOM      6  C   UNL A   1      31.138  29.393  21.915  1.00  0.00     0.010 C 
ENDBRANCH   3   4
BRANCH   3   7
ATOM      7  N   UNL A   1      30.104  27.801  24.011  1.00  0.00    -0.341 N 
ATOM      8  C   UNL A   1      29.553  26.585  24.262  1.00  0.00     0.242 C 
ATOM      9  H   UNL A   1      29.486  28.416  23.555  1.00  0.00     0.164 HD
ATOM     10  O   UNL A   1      28.367  26.442  23.942  1.00  0.00    -0.273 OA
BRANCH   8  11
ATOM     11  C   UNL A   1      30.402  25.381  24.722  1.00  0.00     0.168 C 
ATOM     12  C   UNL A   1      30.367  24.281  23.657  1.00  0.00     0.041 C 
BRANCH  11  13
ATOM     13  N   UNL A   1      30.002  24.798  25.995  1.00  0.00    -0.343 N 
ATOM     14  C   UNL A   1      30.366  23.598  26.539  1.00  0.00     0.240 C 
ATOM     15  H   UNL A   1      29.386  25.341  26.538  1.00  0.00     0.164 HD
ATOM     16  O   UNL A   1      29.689  23.150  27.465  1.00  0.00    -0.273 OA
BRANCH  14  17
ATOM     17  C   UNL A   1      31.549  22.816  25.966  1.00  0.00     0.219 C 
BRANCH  17  18
ATOM     18  N   UNL A   1      32.735  23.020  26.774  1.00  0.00    -0.312 N 
ATOM     19  C   UNL A   1      33.670  22.086  27.101  1.00  0.00     0.407 C 
ATOM     20  H   UNL A   1      32.879  23.929  27.122  1.00  0.00     0.167 HD
ATOM     21  O   UNL A   1      34.563  22.329  27.901  1.00  0.00    -0.225 OA
BRANCH  19  22
ATOM     22  O   UNL A   1      33.471  20.897  26.484  1.00  0.00    -0.445 OA
BRANCH  22  23
ATOM     23  C   UNL A   1      34.438  20.545  25.485  1.00  0.00     0.270 C 
BRANCH  23  24
ATOM     24  C   UNL A   1      33.980  19.391  24.631  1.00  0.00    -0.011 A 
ATOM     25  C   UNL A   1      34.749  18.228  24.484  1.00  0.00     0.007 A 
ATOM     26  C   UNL A   1      32.775  19.493  23.924  1.00  0.00     0.007 A 
ATOM     27  C   UNL A   1      34.316  17.185  23.665  1.00  0.00     0.000 A 
ATOM     28  C   UNL A   1      32.337  18.445  23.112  1.00  0.00     0.000 A 
ATOM     29  C   UNL A   1      33.107  17.292  22.984  1.00  0.00     0.000 A 
ENDBRANCH  23  24
ENDBRANCH  22  23
ENDBRANCH  19  22
ENDBRANCH  17  18
ENDBRANCH  14  17
ENDBRANCH  11  13
ENDBRANCH   8  11
ENDBRANCH   3   7
ENDBRANCH   1   3
BRANCH   1  30
ATOM     30  O   UNL A   1      31.783  28.365  26.665  1.00  0.00    -0.461 OA
BRANCH  30  31
ATOM     31  C   UNL A   1      32.963  27.538  26.572  1.00  0.00     0.274 C 
BRANCH  31  32
ATOM     32  C   UNL A   1      34.212  28.415  26.697  1.00  0.00     0.275 C 
BRANCH  32  33
ATOM     33  O   UNL A   1      34.197  29.082  27.967  1.00  0.00    -0.458 OA
BRANCH  33  34
ATOM     34  C   UNL A   1      34.857  30.269  27.993  1.00  0.00     0.338 C 
ATOM     35  O   UNL A   1      34.394  31.381  28.087  1.00  0.00    -0.246 OA
BRANCH  34  36
ATOM     36  C   UNL A   1      36.268  29.931  28.234  1.00  0.00     0.060 A 
ATOM     37  C   UNL A   1      36.595  29.432  29.498  1.00  0.00     0.016 A 
ATOM     38  C   UNL A   1      37.221  30.009  27.221  1.00  0.00     0.016 A 
ATOM     39  C   UNL A   1      37.879  28.989  29.762  1.00  0.00     0.010 A 
ATOM     40  C   UNL A   1      38.515  29.577  27.486  1.00  0.00     0.010 A 
ATOM     41  C   UNL A   1      38.844  29.068  28.756  1.00  0.00    -0.014 A 
BRANCH  41  42
ATOM     42  C   UNL A   1      40.240  28.712  29.052  1.00  0.00     0.031 A 
ATOM     43  C   UNL A   1      41.134  29.778  29.602  1.00  0.00     0.074 A 
ATOM     44  C   UNL A   1      40.680  27.468  28.797  1.00  0.00     0.049 A 
ATOM     45  N   UNL A   1      42.427  29.772  29.757  1.00  0.00    -0.248 NA
ATOM     46  C   UNL A   1      40.476  31.029  30.022  1.00  0.00     0.031 C 
ATOM     47  C   UNL A   1      39.851  26.361  28.315  1.00  0.00     0.029 A 
ATOM     48  N   UNL A   1      41.937  26.932  28.886  1.00  0.00    -0.354 N 
ATOM     49  C   UNL A   1      42.747  31.028  30.257  1.00  0.00     0.074 A 
ATOM     50  C   UNL A   1      41.514  31.773  30.374  1.00  0.00     0.031 C 
ATOM     51  C   UNL A   1      40.630  25.282  28.126  1.00  0.00     0.029 A 
ATOM     52  C   UNL A   1      42.013  25.641  28.422  1.00  0.00     0.049 A 
ATOM     53  H   UNL A   1      42.709  27.424  29.247  1.00  0.00     0.167 HD
ATOM     54  C   UNL A   1      43.969  31.506  30.579  1.00  0.00     0.037 A 
ATOM     55  C   UNL A   1      43.092  24.862  28.216  1.00  0.00     0.037 A 
ATOM     56  C   UNL A   1      45.172  30.727  30.455  1.00  0.00     0.049 A 
ATOM     57  C   UNL A   1      44.448  25.434  28.531  1.00  0.00     0.074 A 
ATOM     58  C   UNL A   1      46.470  31.087  30.760  1.00  0.00     0.029 A 
ATOM     59  N   UNL A   1      45.214  29.421  29.982  1.00  0.00    -0.354 N 
ATOM     60  N   UNL A   1      44.749  26.625  28.999  1.00  0.00    -0.248 NA
ATOM     61  C   UNL A   1      45.609  24.572  28.284  1.00  0.00     0.031 C 
ATOM     62  C   UNL A   1      47.303  30.012  30.433  1.00  0.00     0.029 A 
ATOM     63  C   UNL A   1      46.519  28.966  29.965  1.00  0.00     0.049 A 
ATOM     64  H   UNL A   1      44.430  28.897  29.699  1.00  0.00     0.167 HD
ATOM     65  C   UNL A   1      46.132  26.653  29.111  1.00  0.00     0.074 A 
ATOM     66  C   UNL A   1      46.607  25.352  28.679  1.00  0.00     0.031 C 
ATOM     67  C   UNL A   1      46.943  27.658  29.528  1.00  0.00     0.037 A 
BRANCH  54  68
ATOM     68  C   UNL A   1      44.059  32.930  31.048  1.00  0.00     0.058 A 
ATOM     69  C   UNL A   1      43.863  33.282  32.393  1.00  0.00     0.135 A 
ATOM     70  C   UNL A   1      44.344  33.960  30.136  1.00  0.00     0.135 A 
ATOM     71  F   UNL A   1      43.560  32.341  33.302  1.00  0.00    -0.206 F 
ATOM     72  C   UNL A   1      43.923  34.607  32.813  1.00  0.00     0.059 A 
ATOM     73  C   UNL A   1      44.434  35.290  30.539  1.00  0.00     0.059 A 
ATOM     74  F   UNL A   1      44.527  33.680  28.837  1.00  0.00    -0.206 F 
ATOM     75  C   UNL A   1      44.208  35.604  31.879  1.00  0.00     0.060 A 
BRANCH  75  76
ATOM     76  S   UNL A   1      44.282  37.319  32.439  1.00  0.00     0.124 S 
ATOM     77  O   UNL A   1      45.696  37.457  32.770  1.00  0.00    -0.237 OA
ATOM     78  O   UNL A   1      43.834  38.051  31.259  1.00  0.00    -0.237 OA
ATOM     79  O   UNL A   1      43.366  37.346  33.575  1.00  0.00    -0.744 OA
ENDBRANCH  75  76
ENDBRANCH  54  68
BRANCH  55  80
ATOM     80  C   UNL A   1      42.931  23.496  27.651  1.00  0.00     0.058 A 
ATOM     81  C   UNL A   1      42.480  22.432  28.444  1.00  0.00     0.135 A 
ATOM     82  C   UNL A   1      43.199  23.231  26.297  1.00  0.00     0.135 A 
ATOM     83  F   UNL A   1      42.216  22.632  29.745  1.00  0.00    -0.206 F 
ATOM     84  C   UNL A   1      42.305  21.154  27.922  1.00  0.00     0.059 A 
ATOM     85  C   UNL A   1      43.010  21.967  25.746  1.00  0.00     0.059 A 
ATOM     86  F   UNL A   1      43.621  24.215  25.489  1.00  0.00    -0.206 F 
ATOM     87  C   UNL A   1      42.571  20.932  26.569  1.00  0.00     0.060 A 
BRANCH  87  88
ATOM     88  S   UNL A   1      42.289  19.282  25.888  1.00  0.00     0.124 S 
ATOM     89  O   UNL A   1      43.068  19.337  24.657  1.00  0.00    -0.237 OA
ATOM     90  O   UNL A   1      42.818  18.421  26.940  1.00  0.00    -0.237 OA
ATOM     91  O   UNL A   1      40.839  19.233  25.718  1.00  0.00    -0.744 OA
ENDBRANCH  87  88
ENDBRANCH  55  80
BRANCH  67  92
ATOM     92  C   UNL A   1      48.417  27.381  29.549  1.00  0.00     0.058 A 
ATOM     93  C   UNL A   1      49.230  27.676  28.444  1.00  0.00     0.135 A 
ATOM     94  C   UNL A   1      49.030  26.897  30.714  1.00  0.00     0.135 A 
ATOM     95  F   UNL A   1      48.685  28.132  27.306  1.00  0.00    -0.206 F 
ATOM     96  C   UNL A   1      50.605  27.493  28.493  1.00  0.00     0.059 A 
ATOM     97  C   UNL A   1      50.407  26.729  30.793  1.00  0.00     0.059 A 
ATOM     98  F   UNL A   1      48.292  26.610  31.798  1.00  0.00    -0.206 F 
ATOM     99  C   UNL A   1      51.186  27.025  29.675  1.00  0.00     0.060 A 
BRANCH  99 100
ATOM    100  S   UNL A   1      52.981  26.852  29.746  1.00  0.00     0.124 S 
ATOM    101  O   UNL A   1      53.146  25.989  30.910  1.00  0.00    -0.237 OA
ATOM    102  O   UNL A   1      53.287  26.243  28.455  1.00  0.00    -0.237 OA
ATOM    103  O   UNL A   1      53.447  28.225  29.910  1.00  0.00    -0.744 OA
ENDBRANCH  99 100
ENDBRANCH  67  92
ENDBRANCH  41  42
ENDBRANCH  34  36
ENDBRANCH  33  34
ENDBRANCH  32  33
ENDBRANCH  31  32
ENDBRANCH  30  31
ENDBRANCH   1  30
TORSDOF 23
ENDMDL
MODEL 3
REMARK VINA RESULT:     -10.9      4.852     10.600
REMARK SMILES CC(C)[C@H](NC(=O)[C@H](C)NC(=O)CNC(=O)OCc1ccccc1)C(=O)OCCOC(=O)c1ccc(-c2c3nc(c(-c4c(F)cc(S(=O)(=O)[O-])cc4F)c4ccc([nH]4)c(-c4c(F)cc(S(=O)(=O)[O-])cc4F)c4nc(c(-c5c(F)cc(S(=O)(=O)[O-])cc5F)c5ccc2[nH]5)C=C4)C=C3)cc1
REMARK SMILES IDX 25 1 26 2 4 3 2 4 1 5 3 6 5 7 6 8 7 10 8 11 9 12 10 13 11 14
REMARK SMILES IDX 12 16 13 17 14 18 15 19 16 21 17 22 18 23 19 24 20 25 24 26
REMARK SMILES IDX 21 27 23 28 22 29 27 30 28 31 29 32 30 33 31 34 32 35 33 36
REMARK SMILES IDX 34 37 98 38 35 39 97 40 36 41 37 42 38 43 91 44 39 45 96 46
REMARK SMILES IDX 90 47 92 48 40 49 95 50 89 51 88 52 41 54 75 55 54 56 74 57
REMARK SMILES IDX 55 58 58 59 73 60 93 61 56 62 57 63 72 65 94 66 59 67 42 68
REMARK SMILES IDX 43 69 52 70 44 71 45 72 51 73 53 74 46 75 47 76 48 77 49 78
REMARK SMILES IDX 50 79 76 80 77 81 86 82 78 83 79 84 85 85 87 86 80 87 81 88
REMARK SMILES IDX 82 89 83 90 84 91 60 92 61 93 70 94 62 95 63 96 69 97 71 98
REMARK SMILES IDX 64 99 65 100 66 101 67 102 68 103
REMARK H PARENT 5 9 10 15 14 20 92 53 58 64
REMARK Flexibility Score: inf
ROOT
ATOM      1  C   UNL A   1      35.295  23.856  25.688  1.00  0.00     0.329 C 
ATOM      2  O   UNL A   1      35.526  24.891  25.077  1.00  0.00    -0.250 OA
ENDROOT
BRANCH   1   3
ATOM      3  C   UNL A   1      33.885  23.234  25.859  1.00  0.00     0.194 C 
BRANCH   3   4
ATOM      4  C   UNL A   1      33.563  22.793  27.311  1.00  0.00     0.017 C 
ATOM      5  C   UNL A   1      32.062  22.949  27.621  1.00  0.00     0.010 C 
ATOM      6  C   UNL A   1      33.950  21.339  27.600  1.00  0.00     0.010 C 
ENDBRANCH   3   4
BRANCH   3   7
ATOM      7  N   UNL A   1      33.472  22.305  24.794  1.00  0.00    -0.341 N 
ATOM      8  C   UNL A   1      32.921  22.463  23.563  1.00  0.00     0.242 C 
ATOM      9  H   UNL A   1      33.633  21.363  25.025  1.00  0.00     0.164 HD
ATOM     10  O   UNL A   1      32.754  21.433  22.900  1.00  0.00    -0.273 OA
BRANCH   8  11
ATOM     11  C   UNL A   1      32.337  23.812  23.095  1.00  0.00     0.168 C 
ATOM     12  C   UNL A   1      30.807  23.739  23.069  1.00  0.00     0.041 C 
BRANCH  11  13
ATOM     13  N   UNL A   1      32.795  24.259  21.786  1.00  0.00    -0.343 N 
ATOM     14  C   UNL A   1      32.791  25.521  21.263  1.00  0.00     0.240 C 
ATOM     15  H   UNL A   1      33.157  23.557  21.199  1.00  0.00     0.164 HD
ATOM     16  O   UNL A   1      32.927  25.647  20.046  1.00  0.00    -0.273 OA
BRANCH  14  17
ATOM     17  C   UNL A   1      32.567  26.733  22.168  1.00  0.00     0.219 C 
BRANCH  17  18
ATOM     18  N   UNL A   1      31.365  27.445  21.782  1.00  0.00    -0.312 N 
ATOM     19  C   UNL A   1      30.507  28.106  22.607  1.00  0.00     0.407 C 
ATOM     20  H   UNL A   1      31.146  27.450  20.823  1.00  0.00     0.167 HD
ATOM     21  O   UNL A   1      29.448  28.559  22.196  1.00  0.00    -0.225 OA
BRANCH  19  22
ATOM     22  O   UNL A   1      30.940  28.162  23.888  1.00  0.00    -0.445 OA
BRANCH  22  23
ATOM     23  C   UNL A   1      31.153  29.477  24.417  1.00  0.00     0.270 C 
BRANCH  23  24
ATOM     24  C   UNL A   1      32.280  29.514  25.417  1.00  0.00    -0.011 A 
ATOM     25  C   UNL A   1      33.363  28.626  25.346  1.00  0.00     0.007 A 
ATOM     26  C   UNL A   1      32.229  30.428  26.478  1.00  0.00     0.007 A 
ATOM     27  C   UNL A   1      34.379  28.663  26.301  1.00  0.00     0.000 A 
ATOM     28  C   UNL A   1      33.250  30.470  27.429  1.00  0.00     0.000 A 
ATOM     29  C   UNL A   1      34.325  29.589  27.339  1.00  0.00     0.000 A 
ENDBRANCH  23  24
ENDBRANCH  22  23
ENDBRANCH  19  22
ENDBRANCH  17  18
ENDBRANCH  14  17
ENDBRANCH  11  13
ENDBRANCH   8  11
ENDBRANCH   3   7
ENDBRANCH   1   3
BRANCH   1  30
ATOM     30  O   UNL A   1      36.271  23.070  26.219  1.00  0.00    -0.461 OA
BRANCH  30  31
ATOM     31  C   UNL A   1      37.380  22.754  25.350  1.00  0.00     0.274 C 
BRANCH  31  32
ATOM     32  C   UNL A   1      38.678  22.748  26.164  1.00  0.00     0.275 C 
BRANCH  32  33
ATOM     33  O   UNL A   1      39.021  24.096  26.519  1.00  0.00    -0.458 OA
BRANCH  33  34
ATOM     34  C   UNL A   1      40.327  24.282  26.841  1.00  0.00     0.338 C 
ATOM     35  O   UNL A   1      41.306  23.873  26.263  1.00  0.00    -0.246 OA
BRANCH  34  36
ATOM     36  C   UNL A   1      40.338  25.369  27.832  1.00  0.00     0.060 A 
ATOM     37  C   UNL A   1      41.395  26.281  27.762  1.00  0.00     0.016 A 
ATOM     38  C   UNL A   1      39.293  25.543  28.737  1.00  0.00     0.016 A 
ATOM     39  C   UNL A   1      41.413  27.392  28.588  1.00  0.00     0.010 A 
ATOM     40  C   UNL A   1      39.314  26.650  29.576  1.00  0.00     0.010 A 
ATOM     41  C   UNL A   1      40.373  27.574  29.503  1.00  0.00    -0.014 A 
BRANCH  41  42
ATOM     42  C   UNL A   1      40.434  28.682  30.468  1.00  0.00     0.031 A 
ATOM     43  C   UNL A   1      41.421  28.583  31.588  1.00  0.00     0.074 A 
ATOM     44  C   UNL A   1      39.596  29.725  30.340  1.00  0.00     0.049 A 
ATOM     45  N   UNL A   1      41.532  29.318  32.657  1.00  0.00    -0.248 NA
ATOM     46  C   UNL A   1      42.410  27.494  31.493  1.00  0.00     0.031 C 
ATOM     47  C   UNL A   1      38.648  29.917  29.240  1.00  0.00     0.029 A 
ATOM     48  N   UNL A   1      39.391  30.807  31.152  1.00  0.00    -0.354 N 
ATOM     49  C   UNL A   1      42.576  28.762  33.384  1.00  0.00     0.074 A 
ATOM     50  C   UNL A   1      43.063  27.624  32.638  1.00  0.00     0.031 C 
ATOM     51  C   UNL A   1      37.943  31.039  29.462  1.00  0.00     0.029 A 
ATOM     52  C   UNL A   1      38.353  31.609  30.741  1.00  0.00     0.049 A 
ATOM     53  H   UNL A   1      39.934  30.993  31.953  1.00  0.00     0.167 HD
ATOM     54  C   UNL A   1      43.070  29.171  34.574  1.00  0.00     0.037 A 
ATOM     55  C   UNL A   1      37.774  32.654  31.362  1.00  0.00     0.037 A 
ATOM     56  C   UNL A   1      42.561  30.316  35.280  1.00  0.00     0.049 A 
ATOM     57  C   UNL A   1      38.307  33.060  32.709  1.00  0.00     0.074 A 
ATOM     58  C   UNL A   1      42.981  30.845  36.485  1.00  0.00     0.029 A 
ATOM     59  N   UNL A   1      41.509  31.107  34.835  1.00  0.00    -0.354 N 
ATOM     60  N   UNL A   1      39.292  32.528  33.398  1.00  0.00    -0.248 NA
ATOM     61  C   UNL A   1      37.650  34.192  33.372  1.00  0.00     0.031 C 
ATOM     62  C   UNL A   1      42.156  31.933  36.788  1.00  0.00     0.029 A 
ATOM     63  C   UNL A   1      41.250  32.108  35.752  1.00  0.00     0.049 A 
ATOM     64  H   UNL A   1      41.019  30.973  33.992  1.00  0.00     0.167 HD
ATOM     65  C   UNL A   1      39.380  33.266  34.570  1.00  0.00     0.074 A 
ATOM     66  C   UNL A   1      38.359  34.294  34.489  1.00  0.00     0.031 C 
ATOM     67  C   UNL A   1      40.222  33.113  35.624  1.00  0.00     0.037 A 
BRANCH  54  68
ATOM     68  C   UNL A   1      44.174  28.358  35.187  1.00  0.00     0.058 A 
ATOM     69  C   UNL A   1      45.527  28.630  34.930  1.00  0.00     0.135 A 
ATOM     70  C   UNL A   1      43.873  27.287  36.044  1.00  0.00     0.135 A 
ATOM     71  F   UNL A   1      45.871  29.625  34.095  1.00  0.00    -0.206 F 
ATOM     72  C   UNL A   1      46.542  27.856  35.483  1.00  0.00     0.059 A 
ATOM     73  C   UNL A   1      44.874  26.514  36.628  1.00  0.00     0.059 A 
ATOM     74  F   UNL A   1      42.596  26.975  36.312  1.00  0.00    -0.206 F 
ATOM     75  C   UNL A   1      46.205  26.799  36.329  1.00  0.00     0.060 A 
BRANCH  75  76
ATOM     76  S   UNL A   1      47.533  25.802  37.038  1.00  0.00     0.124 S 
ATOM     77  O   UNL A   1      47.148  25.761  38.445  1.00  0.00    -0.237 OA
ATOM     78  O   UNL A   1      47.401  24.544  36.310  1.00  0.00    -0.237 OA
ATOM     79  O   UNL A   1      48.736  26.573  36.739  1.00  0.00    -0.744 OA
ENDBRANCH  75  76
ENDBRANCH  54  68
BRANCH  55  80
ATOM     80  C   UNL A   1      36.616  33.347  30.737  1.00  0.00     0.058 A 
ATOM     81  C   UNL A   1      35.312  33.148  31.209  1.00  0.00     0.135 A 
ATOM     82  C   UNL A   1      36.793  34.246  29.672  1.00  0.00     0.135 A 
ATOM     83  F   UNL A   1      35.089  32.295  32.221  1.00  0.00    -0.206 F 
ATOM     84  C   UNL A   1      34.222  33.806  30.647  1.00  0.00     0.059 A 
ATOM     85  C   UNL A   1      35.723  34.935  29.108  1.00  0.00     0.059 A 
ATOM     86  F   UNL A   1      38.022  34.484  29.189  1.00  0.00    -0.206 F 
ATOM     87  C   UNL A   1      34.439  34.701  29.597  1.00  0.00     0.060 A 
BRANCH  87  88
ATOM     88  S   UNL A   1      33.025  35.592  28.909  1.00  0.00     0.124 S 
ATOM     89  O   UNL A   1      33.686  36.634  28.132  1.00  0.00    -0.237 OA
ATOM     90  O   UNL A   1      32.351  34.552  28.139  1.00  0.00    -0.237 OA
ATOM     91  O   UNL A   1      32.307  36.047  30.096  1.00  0.00    -0.744 OA
ENDBRANCH  87  88
ENDBRANCH  55  80
BRANCH  67  92
ATOM     92  C   UNL A   1      40.080  34.085  36.757  1.00  0.00     0.058 A 
ATOM     93  C   UNL A   1      39.280  33.793  37.872  1.00  0.00     0.135 A 
ATOM     94  C   UNL A   1      40.818  35.279  36.763  1.00  0.00     0.135 A 
ATOM     95  F   UNL A   1      38.550  32.668  37.905  1.00  0.00    -0.206 F 
ATOM     96  C   UNL A   1      39.212  34.659  38.956  1.00  0.00     0.059 A 
ATOM     97  C   UNL A   1      40.783  36.147  37.847  1.00  0.00     0.059 A 
ATOM     98  F   UNL A   1      41.604  35.593  35.722  1.00  0.00    -0.206 F 
ATOM     99  C   UNL A   1      39.973  35.831  38.937  1.00  0.00     0.060 A 
BRANCH  99 100
ATOM    100  S   UNL A   1      39.924  36.915  40.379  1.00  0.00     0.124 S 
ATOM    101  O   UNL A   1      40.899  36.278  41.257  1.00  0.00    -0.237 OA
ATOM    102  O   UNL A   1      40.322  38.202  39.816  1.00  0.00    -0.237 OA
ATOM    103  O   UNL A   1      38.535  36.832  40.818  1.00  0.00    -0.744 OA
ENDBRANCH  99 100
ENDBRANCH  67  92
ENDBRANCH  41  42
ENDBRANCH  34  36
ENDBRANCH  33  34
ENDBRANCH  32  33
ENDBRANCH  31  32
ENDBRANCH  30  31
ENDBRANCH   1  30
TORSDOF 23
ENDMDL
