MODEL 1
REMARK VINA RESULT:     -12.1      0.000      0.000
REMARK SMILES CN1C(=O)/C(=C\c2ccc(C(=O)Nc3ccc(O)cc3C(=O)OCCOC(=O)c3ccc(-c4c5nc(c(-c6c(F)cc(S(=O)(=O)[O-])cc6F)c6ccc([nH]6)c(-c6c(F)cc(S(=O)(=O)[O-])cc6F)c6nc(c(-c7c(F)cc(S(=O)(=O)[O-])cc7F)c7ccc4[nH]7)C=C6)C=C5)cc3)cc2)SC1=S
REMARK SMILES IDX 24 1 23 2 21 3 22 4 20 5 14 6 15 7 16 8 19 9 17 10 13 11
REMARK SMILES IDX 11 12 12 13 10 15 7 16 8 17 96 18 9 19 95 20 6 21 1 22 2 23
REMARK SMILES IDX 3 24 98 25 4 26 5 27 97 28 99 29 18 30 25 32 26 33 27 34
REMARK SMILES IDX 28 35 29 36 30 37 94 38 31 39 93 40 32 41 33 42 34 43 87 44
REMARK SMILES IDX 35 45 92 46 86 47 88 48 36 49 91 50 85 51 84 52 37 54 71 55
REMARK SMILES IDX 50 56 70 57 51 58 54 59 69 60 89 61 52 62 53 63 68 65 90 66
REMARK SMILES IDX 55 67 38 68 39 69 48 70 40 71 41 72 47 73 49 74 42 75 43 76
REMARK SMILES IDX 44 77 45 78 46 79 72 80 73 81 82 82 74 83 75 84 81 85 83 86
REMARK SMILES IDX 76 87 77 88 78 89 79 90 80 91 56 92 57 93 66 94 58 95 59 96
REMARK SMILES IDX 65 97 67 98 60 99 61 100 62 101 63 102 64 103
REMARK H PARENT 13 14 18 31 88 53 54 64
REMARK Flexibility Score: inf
ROOT
ATOM      1  C   UNL A   1      37.807  22.523  25.335  1.00  0.00     0.275 C 
ENDROOT
BRANCH   1   2
ATOM      2  O   UNL A   1      36.531  23.197  25.272  1.00  0.00    -0.458 OA
BRANCH   2   3
ATOM      3  C   UNL A   1      35.831  22.942  24.142  1.00  0.00     0.340 C 
ATOM      4  O   UNL A   1      36.171  23.267  23.015  1.00  0.00    -0.246 OA
BRANCH   3   5
ATOM      5  C   UNL A   1      34.560  22.224  24.383  1.00  0.00     0.087 A 
ATOM      6  C   UNL A   1      33.513  22.146  23.448  1.00  0.00     0.056 A 
ATOM      7  C   UNL A   1      32.348  21.441  23.799  1.00  0.00     0.031 A 
ATOM      8  C   UNL A   1      32.286  20.700  24.981  1.00  0.00     0.048 A 
ATOM      9  C   UNL A   1      34.476  21.486  25.578  1.00  0.00     0.064 A 
ATOM     10  C   UNL A   1      33.364  20.703  25.849  1.00  0.00     0.116 A 
BRANCH   6  11
ATOM     11  N   UNL A   1      33.544  22.618  22.118  1.00  0.00    -0.321 N 
ATOM     12  C   UNL A   1      33.138  23.821  21.571  1.00  0.00     0.255 C 
ATOM     13  O   UNL A   1      33.062  23.930  20.347  1.00  0.00    -0.269 OA
ATOM     14  H   UNL A   1      33.920  21.981  21.468  1.00  0.00     0.170 HD
BRANCH  12  15
ATOM     15  C   UNL A   1      32.873  25.017  22.417  1.00  0.00     0.040 A 
ATOM     16  C   UNL A   1      32.201  27.376  23.788  1.00  0.00    -0.024 A 
ATOM     17  C   UNL A   1      33.172  27.399  22.780  1.00  0.00     0.009 A 
ATOM     18  C   UNL A   1      31.592  26.161  24.115  1.00  0.00     0.009 A 
ATOM     19  C   UNL A   1      33.506  26.225  22.095  1.00  0.00     0.014 A 
ATOM     20  C   UNL A   1      31.985  24.978  23.494  1.00  0.00     0.014 A 
BRANCH  16  21
ATOM     21  C   UNL A   1      31.828  28.610  24.483  1.00  0.00     0.029 C 
ATOM     22  C   UNL A   1      35.441  29.238  27.785  1.00  0.00     0.155 C 
ATOM     23  N   UNL A   1      34.193  29.543  27.108  1.00  0.00    -0.296 N 
ATOM     24  C   UNL A   1      33.727  28.627  26.182  1.00  0.00     0.265 C 
ATOM     25  C   UNL A   1      33.483  30.714  27.241  1.00  0.00     0.148 C 
ATOM     26  O   UNL A   1      34.288  27.581  25.923  1.00  0.00    -0.268 OA
ATOM     27  C   UNL A   1      32.486  29.143  25.524  1.00  0.00     0.081 C 
ATOM     28  S   UNL A   1      32.036  30.647  26.243  1.00  0.00    -0.054 SA
ATOM     29  S   UNL A   1      33.903  32.058  28.132  1.00  0.00    -0.052 S 
ENDBRANCH  16  21
ENDBRANCH  12  15
ENDBRANCH   6  11
BRANCH  10  30
ATOM     30  O   UNL A   1      33.301  19.903  26.949  1.00  0.00    -0.508 OA
ATOM     31  H   UNL A   1      33.192  20.283  27.799  1.00  0.00     0.293 HD
ENDBRANCH  10  30
ENDBRANCH   3   5
ENDBRANCH   2   3
ENDBRANCH   1   2
BRANCH   1  32
ATOM     32  C   UNL A   1      38.700  23.000  26.483  1.00  0.00     0.275 C 
BRANCH  32  33
ATOM     33  O   UNL A   1      38.605  24.422  26.691  1.00  0.00    -0.458 OA
BRANCH  33  34
ATOM     34  C   UNL A   1      39.761  25.097  26.502  1.00  0.00     0.338 C 
ATOM     35  O   UNL A   1      40.441  25.120  25.489  1.00  0.00    -0.246 OA
BRANCH  34  36
ATOM     36  C   UNL A   1      40.110  25.899  27.683  1.00  0.00     0.060 A 
ATOM     37  C   UNL A   1      39.269  25.853  28.789  1.00  0.00     0.016 A 
ATOM     38  C   UNL A   1      41.106  26.869  27.611  1.00  0.00     0.016 A 
ATOM     39  C   UNL A   1      39.306  26.850  29.748  1.00  0.00     0.010 A 
ATOM     40  C   UNL A   1      41.233  27.797  28.651  1.00  0.00     0.010 A 
ATOM     41  C   UNL A   1      40.301  27.827  29.707  1.00  0.00    -0.014 A 
BRANCH  41  42
ATOM     42  C   UNL A   1      40.323  28.896  30.737  1.00  0.00     0.031 A 
ATOM     43  C   UNL A   1      41.318  28.824  31.862  1.00  0.00     0.074 A 
ATOM     44  C   UNL A   1      39.474  29.942  30.647  1.00  0.00     0.049 A 
ATOM     45  N   UNL A   1      41.357  29.506  32.976  1.00  0.00    -0.248 NA
ATOM     46  C   UNL A   1      42.406  27.840  31.724  1.00  0.00     0.031 C 
ATOM     47  C   UNL A   1      38.513  30.168  29.563  1.00  0.00     0.029 A 
ATOM     48  N   UNL A   1      39.282  31.014  31.481  1.00  0.00    -0.354 N 
ATOM     49  C   UNL A   1      42.418  28.984  33.704  1.00  0.00     0.074 A 
ATOM     50  C   UNL A   1      43.011  27.936  32.901  1.00  0.00     0.031 C 
ATOM     51  C   UNL A   1      37.857  31.315  29.783  1.00  0.00     0.029 A 
ATOM     52  C   UNL A   1      38.262  31.845  31.077  1.00  0.00     0.049 A 
ATOM     53  H   UNL A   1      39.821  31.174  32.290  1.00  0.00     0.167 HD
ATOM     54  C   UNL A   1      42.844  29.342  34.938  1.00  0.00     0.037 A 
ATOM     55  C   UNL A   1      37.665  32.872  31.709  1.00  0.00     0.037 A 
ATOM     56  C   UNL A   1      42.275  30.431  35.690  1.00  0.00     0.049 A 
ATOM     57  C   UNL A   1      38.133  33.234  33.088  1.00  0.00     0.074 A 
ATOM     58  C   UNL A   1      42.636  30.898  36.941  1.00  0.00     0.029 A 
ATOM     59  N   UNL A   1      41.231  31.234  35.251  1.00  0.00    -0.354 N 
ATOM     60  N   UNL A   1      39.091  32.688  33.800  1.00  0.00    -0.248 NA
ATOM     61  C   UNL A   1      37.428  34.330  33.762  1.00  0.00     0.031 C 
ATOM     62  C   UNL A   1      41.785  31.956  37.275  1.00  0.00     0.029 A 
ATOM     63  C   UNL A   1      40.925  32.182  36.211  1.00  0.00     0.049 A 
ATOM     64  H   UNL A   1      40.775  31.141  34.383  1.00  0.00     0.167 HD
ATOM     65  C   UNL A   1      39.109  33.380  35.004  1.00  0.00     0.074 A 
ATOM     66  C   UNL A   1      38.082  34.399  34.914  1.00  0.00     0.031 C 
ATOM     67  C   UNL A   1      39.898  33.188  36.089  1.00  0.00     0.037 A 
BRANCH  54  68
ATOM     68  C   UNL A   1      43.936  28.525  35.574  1.00  0.00     0.058 A 
ATOM     69  C   UNL A   1      43.669  27.414  36.388  1.00  0.00     0.135 A 
ATOM     70  C   UNL A   1      45.283  28.848  35.332  1.00  0.00     0.135 A 
ATOM     71  F   UNL A   1      42.402  27.072  36.671  1.00  0.00    -0.206 F 
ATOM     72  C   UNL A   1      44.696  26.665  36.957  1.00  0.00     0.059 A 
ATOM     73  C   UNL A   1      46.325  28.098  35.868  1.00  0.00     0.059 A 
ATOM     74  F   UNL A   1      45.596  29.904  34.564  1.00  0.00    -0.206 F 
ATOM     75  C   UNL A   1      46.022  27.016  36.691  1.00  0.00     0.060 A 
BRANCH  75  76
ATOM     76  S   UNL A   1      47.344  26.030  37.427  1.00  0.00     0.124 S 
ATOM     77  O   UNL A   1      48.410  27.020  37.554  1.00  0.00    -0.237 OA
ATOM     78  O   UNL A   1      46.742  25.584  38.679  1.00  0.00    -0.237 OA
ATOM     79  O   UNL A   1      47.577  24.982  36.439  1.00  0.00    -0.744 OA
ENDBRANCH  75  76
ENDBRANCH  54  68
BRANCH  55  80
ATOM     80  C   UNL A   1      36.517  33.571  31.070  1.00  0.00     0.058 A 
ATOM     81  C   UNL A   1      35.226  33.487  31.607  1.00  0.00     0.135 A 
ATOM     82  C   UNL A   1      36.696  34.361  29.922  1.00  0.00     0.135 A 
ATOM     83  F   UNL A   1      35.001  32.740  32.699  1.00  0.00    -0.206 F 
ATOM     84  C   UNL A   1      34.150  34.153  31.026  1.00  0.00     0.059 A 
ATOM     85  C   UNL A   1      35.645  35.062  29.341  1.00  0.00     0.059 A 
ATOM     86  F   UNL A   1      37.917  34.489  29.376  1.00  0.00    -0.206 F 
ATOM     87  C   UNL A   1      34.372  34.941  29.895  1.00  0.00     0.060 A 
BRANCH  87  88
ATOM     88  S   UNL A   1      32.982  35.844  29.179  1.00  0.00     0.124 S 
ATOM     89  O   UNL A   1      32.395  34.833  28.307  1.00  0.00    -0.237 OA
ATOM     90  O   UNL A   1      32.204  36.196  30.363  1.00  0.00    -0.237 OA
ATOM     91  O   UNL A   1      33.625  36.967  28.504  1.00  0.00    -0.744 OA
ENDBRANCH  87  88
ENDBRANCH  55  80
BRANCH  67  92
ATOM     92  C   UNL A   1      39.701  34.123  37.247  1.00  0.00     0.058 A 
ATOM     93  C   UNL A   1      38.963  33.745  38.380  1.00  0.00     0.135 A 
ATOM     94  C   UNL A   1      40.293  35.395  37.239  1.00  0.00     0.135 A 
ATOM     95  F   UNL A   1      38.369  32.542  38.429  1.00  0.00    -0.206 F 
ATOM     96  C   UNL A   1      38.801  34.607  39.457  1.00  0.00     0.059 A 
ATOM     97  C   UNL A   1      40.166  36.263  38.317  1.00  0.00     0.059 A 
ATOM     98  F   UNL A   1      41.016  35.798  36.181  1.00  0.00    -0.206 F 
ATOM     99  C   UNL A   1      39.408  35.865  39.416  1.00  0.00     0.060 A 
BRANCH  99 100
ATOM    100  S   UNL A   1      39.216  36.964  40.835  1.00  0.00     0.124 S 
ATOM    101  O   UNL A   1      40.605  37.257  41.169  1.00  0.00    -0.237 OA
ATOM    102  O   UNL A   1      38.452  38.073  40.271  1.00  0.00    -0.237 OA
ATOM    103  O   UNL A   1      38.495  36.144  41.804  1.00  0.00    -0.744 OA
ENDBRANCH  99 100
ENDBRANCH  67  92
ENDBRANCH  41  42
ENDBRANCH  34  36
ENDBRANCH  33  34
ENDBRANCH  32  33
ENDBRANCH   1  32
TORSDOF 18
ENDMDL
MODEL 2
REMARK VINA RESULT:     -11.5      5.746      9.462
REMARK SMILES CN1C(=O)/C(=C\c2ccc(C(=O)Nc3ccc(O)cc3C(=O)OCCOC(=O)c3ccc(-c4c5nc(c(-c6c(F)cc(S(=O)(=O)[O-])cc6F)c6ccc([nH]6)c(-c6c(F)cc(S(=O)(=O)[O-])cc6F)c6nc(c(-c7c(F)cc(S(=O)(=O)[O-])cc7F)c7ccc4[nH]7)C=C6)C=C5)cc3)cc2)SC1=S
REMARK SMILES IDX 24 1 23 2 21 3 22 4 20 5 14 6 15 7 16 8 19 9 17 10 13 11
REMARK SMILES IDX 11 12 12 13 10 15 7 16 8 17 96 18 9 19 95 20 6 21 1 22 2 23
REMARK SMILES IDX 3 24 98 25 4 26 5 27 97 28 99 29 18 30 25 32 26 33 27 34
REMARK SMILES IDX 28 35 29 36 30 37 94 38 31 39 93 40 32 41 33 42 34 43 87 44
REMARK SMILES IDX 35 45 92 46 86 47 88 48 36 49 91 50 85 51 84 52 37 54 71 55
REMARK SMILES IDX 50 56 70 57 51 58 54 59 69 60 89 61 52 62 53 63 68 65 90 66
REMARK SMILES IDX 55 67 38 68 39 69 48 70 40 71 41 72 47 73 49 74 42 75 43 76
REMARK SMILES IDX 44 77 45 78 46 79 72 80 73 81 82 82 74 83 75 84 81 85 83 86
REMARK SMILES IDX 76 87 77 88 78 89 79 90 80 91 56 92 57 93 66 94 58 95 59 96
REMARK SMILES IDX 65 97 67 98 60 99 61 100 62 101 63 102 64 103
REMARK H PARENT 13 14 18 31 88 53 54 64
REMARK Flexibility Score: inf
ROOT
ATOM      1  C   UNL A   1      37.287  21.845  24.072  1.00  0.00     0.275 C 
ENDROOT
BRANCH   1   2
ATOM      2  O   UNL A   1      35.853  21.772  24.224  1.00  0.00    -0.458 OA
BRANCH   2   3
ATOM      3  C   UNL A   1      35.176  22.689  23.494  1.00  0.00     0.340 C 
ATOM      4  O   UNL A   1      35.686  23.513  22.751  1.00  0.00    -0.246 OA
BRANCH   3   5
ATOM      5  C   UNL A   1      33.710  22.631  23.684  1.00  0.00     0.087 A 
ATOM      6  C   UNL A   1      32.783  23.262  22.836  1.00  0.00     0.056 A 
ATOM      7  C   UNL A   1      31.413  23.141  23.126  1.00  0.00     0.031 A 
ATOM      8  C   UNL A   1      30.966  22.286  24.137  1.00  0.00     0.048 A 
ATOM      9  C   UNL A   1      33.245  21.786  24.708  1.00  0.00     0.064 A 
ATOM     10  C   UNL A   1      31.886  21.590  24.902  1.00  0.00     0.116 A 
BRANCH   6  11
ATOM     11  N   UNL A   1      33.077  23.934  21.630  1.00  0.00    -0.321 N 
ATOM     12  C   UNL A   1      32.903  25.255  21.259  1.00  0.00     0.255 C 
ATOM     13  O   UNL A   1      33.035  25.570  20.076  1.00  0.00    -0.269 OA
ATOM     14  H   UNL A   1      33.474  23.365  20.932  1.00  0.00     0.170 HD
BRANCH  12  15
ATOM     15  C   UNL A   1      32.648  26.324  22.264  1.00  0.00     0.040 A 
ATOM     16  C   UNL A   1      32.049  28.502  23.934  1.00  0.00    -0.024 A 
ATOM     17  C   UNL A   1      33.170  28.544  23.097  1.00  0.00     0.009 A 
ATOM     18  C   UNL A   1      31.250  27.354  23.942  1.00  0.00     0.009 A 
ATOM     19  C   UNL A   1      33.468  27.460  22.264  1.00  0.00     0.014 A 
ATOM     20  C   UNL A   1      31.594  26.243  23.177  1.00  0.00     0.014 A 
BRANCH  16  21
ATOM     21  C   UNL A   1      31.717  29.648  24.784  1.00  0.00     0.029 C 
ATOM     22  C   UNL A   1      35.558  29.978  27.864  1.00  0.00     0.155 C 
ATOM     23  N   UNL A   1      34.261  30.334  27.316  1.00  0.00    -0.296 N 
ATOM     24  C   UNL A   1      33.736  29.514  26.333  1.00  0.00     0.265 C 
ATOM     25  C   UNL A   1      33.553  31.472  27.626  1.00  0.00     0.148 C 
ATOM     26  O   UNL A   1      34.285  28.511  25.922  1.00  0.00    -0.268 OA
ATOM     27  C   UNL A   1      32.445  30.077  25.826  1.00  0.00     0.081 C 
ATOM     28  S   UNL A   1      32.037  31.488  26.733  1.00  0.00    -0.054 SA
ATOM     29  S   UNL A   1      34.026  32.719  28.624  1.00  0.00    -0.052 S 
ENDBRANCH  16  21
ENDBRANCH  12  15
ENDBRANCH   6  11
BRANCH  10  30
ATOM     30  O   UNL A   1      31.413  20.703  25.820  1.00  0.00    -0.508 OA
ATOM     31  H   UNL A   1      30.642  20.905  26.312  1.00  0.00     0.293 HD
ENDBRANCH  10  30
ENDBRANCH   3   5
ENDBRANCH   2   3
ENDBRANCH   1   2
BRANCH   1  32
ATOM     32  C   UNL A   1      38.062  21.361  25.300  1.00  0.00     0.275 C 
BRANCH  32  33
ATOM     33  O   UNL A   1      38.482  22.451  26.144  1.00  0.00    -0.458 OA
BRANCH  33  34
ATOM     34  C   UNL A   1      39.589  22.201  26.876  1.00  0.00     0.338 C 
ATOM     35  O   UNL A   1      40.166  21.132  26.997  1.00  0.00    -0.246 OA
BRANCH  34  36
ATOM     36  C   UNL A   1      40.102  23.427  27.504  1.00  0.00     0.060 A 
ATOM     37  C   UNL A   1      39.526  24.643  27.154  1.00  0.00     0.016 A 
ATOM     38  C   UNL A   1      41.290  23.408  28.229  1.00  0.00     0.016 A 
ATOM     39  C   UNL A   1      40.193  25.835  27.381  1.00  0.00     0.010 A 
ATOM     40  C   UNL A   1      41.897  24.620  28.579  1.00  0.00     0.010 A 
ATOM     41  C   UNL A   1      41.379  25.845  28.115  1.00  0.00    -0.014 A 
BRANCH  41  42
ATOM     42  C   UNL A   1      42.089  27.130  28.344  1.00  0.00     0.031 A 
ATOM     43  C   UNL A   1      41.397  28.239  29.085  1.00  0.00     0.074 A 
ATOM     44  C   UNL A   1      43.358  27.288  27.914  1.00  0.00     0.049 A 
ATOM     45  N   UNL A   1      41.732  29.498  29.190  1.00  0.00    -0.248 NA
ATOM     46  C   UNL A   1      40.152  27.891  29.792  1.00  0.00     0.031 C 
ATOM     47  C   UNL A   1      44.167  26.261  27.249  1.00  0.00     0.029 A 
ATOM     48  N   UNL A   1      44.195  28.373  27.972  1.00  0.00    -0.354 N 
ATOM     49  C   UNL A   1      40.705  30.107  29.900  1.00  0.00     0.074 A 
ATOM     50  C   UNL A   1      39.740  29.077  30.219  1.00  0.00     0.031 C 
ATOM     51  C   UNL A   1      45.385  26.755  26.988  1.00  0.00     0.029 A 
ATOM     52  C   UNL A   1      45.407  28.163  27.356  1.00  0.00     0.049 A 
ATOM     53  H   UNL A   1      43.952  29.220  28.412  1.00  0.00     0.167 HD
ATOM     54  C   UNL A   1      40.580  31.411  30.239  1.00  0.00     0.037 A 
ATOM     55  C   UNL A   1      46.397  29.022  27.051  1.00  0.00     0.037 A 
ATOM     56  C   UNL A   1      41.587  32.404  29.964  1.00  0.00     0.049 A 
ATOM     57  C   UNL A   1      46.226  30.469  27.410  1.00  0.00     0.074 A 
ATOM     58  C   UNL A   1      41.579  33.751  30.277  1.00  0.00     0.029 A 
ATOM     59  N   UNL A   1      42.791  32.151  29.321  1.00  0.00    -0.354 N 
ATOM     60  N   UNL A   1      45.218  31.050  28.018  1.00  0.00    -0.248 NA
ATOM     61  C   UNL A   1      47.306  31.382  27.021  1.00  0.00     0.031 C 
ATOM     62  C   UNL A   1      42.760  34.320  29.788  1.00  0.00     0.029 A 
ATOM     63  C   UNL A   1      43.527  33.318  29.214  1.00  0.00     0.049 A 
ATOM     64  H   UNL A   1      43.079  31.269  28.990  1.00  0.00     0.167 HD
ATOM     65  C   UNL A   1      45.548  32.397  28.094  1.00  0.00     0.074 A 
ATOM     66  C   UNL A   1      46.858  32.539  27.488  1.00  0.00     0.031 C 
ATOM     67  C   UNL A   1      44.832  33.426  28.610  1.00  0.00     0.037 A 
BRANCH  54  68
ATOM     68  C   UNL A   1      39.299  31.852  30.894  1.00  0.00     0.058 A 
ATOM     69  C   UNL A   1      39.177  32.013  32.281  1.00  0.00     0.135 A 
ATOM     70  C   UNL A   1      38.176  32.151  30.101  1.00  0.00     0.135 A 
ATOM     71  F   UNL A   1      40.209  31.721  33.089  1.00  0.00    -0.206 F 
ATOM     72  C   UNL A   1      37.984  32.432  32.864  1.00  0.00     0.059 A 
ATOM     73  C   UNL A   1      36.982  32.598  30.660  1.00  0.00     0.059 A 
ATOM     74  F   UNL A   1      38.234  32.011  28.768  1.00  0.00    -0.206 F 
ATOM     75  C   UNL A   1      36.891  32.722  32.043  1.00  0.00     0.060 A 
BRANCH  75  76
ATOM     76  S   UNL A   1      35.354  33.276  32.812  1.00  0.00     0.124 S 
ATOM     77  O   UNL A   1      35.357  34.698  32.478  1.00  0.00    -0.237 OA
ATOM     78  O   UNL A   1      34.352  32.467  32.126  1.00  0.00    -0.237 OA
ATOM     79  O   UNL A   1      35.547  32.964  34.224  1.00  0.00    -0.744 OA
ENDBRANCH  75  76
ENDBRANCH  54  68
BRANCH  55  80
ATOM     80  C   UNL A   1      47.593  28.543  26.305  1.00  0.00     0.058 A 
ATOM     81  C   UNL A   1      47.523  28.241  24.939  1.00  0.00     0.135 A 
ATOM     82  C   UNL A   1      48.838  28.405  26.942  1.00  0.00     0.135 A 
ATOM     83  F   UNL A   1      46.356  28.351  24.286  1.00  0.00    -0.206 F 
ATOM     84  C   UNL A   1      48.641  27.811  24.230  1.00  0.00     0.059 A 
ATOM     85  C   UNL A   1      49.976  28.008  26.249  1.00  0.00     0.059 A 
ATOM     86  F   UNL A   1      48.963  28.697  28.247  1.00  0.00    -0.206 F 
ATOM     87  C   UNL A   1      49.864  27.702  24.895  1.00  0.00     0.060 A 
BRANCH  87  88
ATOM     88  S   UNL A   1      51.321  27.194  23.956  1.00  0.00     0.124 S 
ATOM     89  O   UNL A   1      51.685  25.953  24.631  1.00  0.00    -0.237 OA
ATOM     90  O   UNL A   1      50.781  27.053  22.607  1.00  0.00    -0.237 OA
ATOM     91  O   UNL A   1      52.243  28.311  24.142  1.00  0.00    -0.744 OA
ENDBRANCH  87  88
ENDBRANCH  55  80
BRANCH  67  92
ATOM     92  C   UNL A   1      45.469  34.785  28.571  1.00  0.00     0.058 A 
ATOM     93  C   UNL A   1      45.260  35.664  27.497  1.00  0.00     0.135 A 
ATOM     94  C   UNL A   1      46.262  35.225  29.641  1.00  0.00     0.135 A 
ATOM     95  F   UNL A   1      44.517  35.284  26.446  1.00  0.00    -0.206 F 
ATOM     96  C   UNL A   1      45.836  36.929  27.476  1.00  0.00     0.059 A 
ATOM     97  C   UNL A   1      46.826  36.496  29.653  1.00  0.00     0.059 A 
ATOM     98  F   UNL A   1      46.484  34.422  30.694  1.00  0.00    -0.206 F 
ATOM     99  C   UNL A   1      46.618  37.336  28.561  1.00  0.00     0.060 A 
BRANCH  99 100
ATOM    100  S   UNL A   1      47.335  38.991  28.537  1.00  0.00     0.124 S 
ATOM    101  O   UNL A   1      48.762  38.694  28.589  1.00  0.00    -0.237 OA
ATOM    102  O   UNL A   1      46.844  39.527  27.271  1.00  0.00    -0.237 OA
ATOM    103  O   UNL A   1      46.780  39.619  29.732  1.00  0.00    -0.744 OA
ENDBRANCH  99 100
ENDBRANCH  67  92
ENDBRANCH  41  42
ENDBRANCH  34  36
ENDBRANCH  33  34
ENDBRANCH  32  33
ENDBRANCH   1  32
TORSDOF 18
ENDMDL
MODEL 3
REMARK VINA RESULT:     -11.5      6.488     13.654
REMARK SMILES CN1C(=O)/C(=C\c2ccc(C(=O)Nc3ccc(O)cc3C(=O)OCCOC(=O)c3ccc(-c4c5nc(c(-c6c(F)cc(S(=O)(=O)[O-])cc6F)c6ccc([nH]6)c(-c6c(F)cc(S(=O)(=O)[O-])cc6F)c6nc(c(-c7c(F)cc(S(=O)(=O)[O-])cc7F)c7ccc4[nH]7)C=C6)C=C5)cc3)cc2)SC1=S
REMARK SMILES IDX 24 1 23 2 21 3 22 4 20 5 14 6 15 7 16 8 19 9 17 10 13 11
REMARK SMILES IDX 11 12 12 13 10 15 7 16 8 17 96 18 9 19 95 20 6 21 1 22 2 23
REMARK SMILES IDX 3 24 98 25 4 26 5 27 97 28 99 29 18 30 25 32 26 33 27 34
REMARK SMILES IDX 28 35 29 36 30 37 94 38 31 39 93 40 32 41 33 42 34 43 87 44
REMARK SMILES IDX 35 45 92 46 86 47 88 48 36 49 91 50 85 51 84 52 37 54 71 55
REMARK SMILES IDX 50 56 70 57 51 58 54 59 69 60 89 61 52 62 53 63 68 65 90 66
REMARK SMILES IDX 55 67 38 68 39 69 48 70 40 71 41 72 47 73 49 74 42 75 43 76
REMARK SMILES IDX 44 77 45 78 46 79 72 80 73 81 82 82 74 83 75 84 81 85 83 86
REMARK SMILES IDX 76 87 77 88 78 89 79 90 80 91 56 92 57 93 66 94 58 95 59 96
REMARK SMILES IDX 65 97 67 98 60 99 61 100 62 101 63 102 64 103
REMARK H PARENT 13 14 18 31 88 53 54 64
REMARK Flexibility Score: inf
ROOT
ATOM      1  C   UNL A   1      36.192  32.879  31.556  1.00  0.00     0.275 C 
ENDROOT
BRANCH   1   2
ATOM      2  O   UNL A   1      37.621  32.853  31.348  1.00  0.00    -0.458 OA
BRANCH   2   3
ATOM      3  C   UNL A   1      38.097  33.925  30.673  1.00  0.00     0.340 C 
ATOM      4  O   UNL A   1      37.467  34.579  29.856  1.00  0.00    -0.246 OA
BRANCH   3   5
ATOM      5  C   UNL A   1      39.502  34.253  30.998  1.00  0.00     0.087 A 
ATOM      6  C   UNL A   1      40.042  34.194  32.295  1.00  0.00     0.056 A 
ATOM      7  C   UNL A   1      41.393  34.539  32.479  1.00  0.00     0.031 A 
ATOM      8  C   UNL A   1      42.227  34.782  31.384  1.00  0.00     0.048 A 
ATOM      9  C   UNL A   1      40.351  34.515  29.908  1.00  0.00     0.064 A 
ATOM     10  C   UNL A   1      41.706  34.738  30.103  1.00  0.00     0.116 A 
BRANCH   6  11
ATOM     11  N   UNL A   1      39.391  33.710  33.450  1.00  0.00    -0.321 N 
ATOM     12  C   UNL A   1      39.397  32.459  34.040  1.00  0.00     0.255 C 
ATOM     13  O   UNL A   1      38.580  32.209  34.926  1.00  0.00    -0.269 OA
ATOM     14  H   UNL A   1      38.838  34.377  33.916  1.00  0.00     0.170 HD
BRANCH  12  15
ATOM     15  C   UNL A   1      40.421  31.434  33.695  1.00  0.00     0.040 A 
ATOM     16  C   UNL A   1      42.262  29.352  33.291  1.00  0.00    -0.024 A 
ATOM     17  C   UNL A   1      42.519  30.344  34.245  1.00  0.00     0.009 A 
ATOM     18  C   UNL A   1      41.092  29.428  32.531  1.00  0.00     0.009 A 
ATOM     19  C   UNL A   1      41.602  31.380  34.448  1.00  0.00     0.014 A 
ATOM     20  C   UNL A   1      40.221  30.505  32.673  1.00  0.00     0.014 A 
BRANCH  16  21
ATOM     21  C   UNL A   1      43.207  28.248  33.100  1.00  0.00     0.029 C 
ATOM     22  C   UNL A   1      41.509  24.715  36.098  1.00  0.00     0.155 C 
ATOM     23  N   UNL A   1      42.423  25.325  35.148  1.00  0.00    -0.296 N 
ATOM     24  C   UNL A   1      42.213  26.652  34.820  1.00  0.00     0.265 C 
ATOM     25  C   UNL A   1      43.425  24.665  34.474  1.00  0.00     0.148 C 
ATOM     26  O   UNL A   1      41.328  27.336  35.295  1.00  0.00    -0.268 OA
ATOM     27  C   UNL A   1      43.187  27.086  33.770  1.00  0.00     0.081 C 
ATOM     28  S   UNL A   1      44.283  25.795  33.433  1.00  0.00    -0.054 SA
ATOM     29  S   UNL A   1      43.781  23.038  34.527  1.00  0.00    -0.052 S 
ENDBRANCH  16  21
ENDBRANCH  12  15
ENDBRANCH   6  11
BRANCH  10  30
ATOM     30  O   UNL A   1      42.564  34.896  29.058  1.00  0.00    -0.508 OA
ATOM     31  H   UNL A   1      42.876  34.146  28.591  1.00  0.00     0.293 HD
ENDBRANCH  10  30
ENDBRANCH   3   5
ENDBRANCH   2   3
ENDBRANCH   1   2
BRANCH   1  32
ATOM     32  C   UNL A   1      35.419  31.921  30.645  1.00  0.00     0.275 C 
BRANCH  32  33
ATOM     33  O   UNL A   1      36.053  31.759  29.362  1.00  0.00    -0.458 OA
BRANCH  33  34
ATOM     34  C   UNL A   1      35.819  30.570  28.765  1.00  0.00     0.338 C 
ATOM     35  O   UNL A   1      34.748  30.150  28.356  1.00  0.00    -0.246 OA
BRANCH  34  36
ATOM     36  C   UNL A   1      37.063  29.807  28.588  1.00  0.00     0.060 A 
ATOM     37  C   UNL A   1      37.671  29.257  29.711  1.00  0.00     0.016 A 
ATOM     38  C   UNL A   1      37.752  29.848  27.379  1.00  0.00     0.016 A 
ATOM     39  C   UNL A   1      39.004  28.888  29.686  1.00  0.00     0.010 A 
ATOM     40  C   UNL A   1      39.058  29.346  27.319  1.00  0.00     0.010 A 
ATOM     41  C   UNL A   1      39.715  28.907  28.485  1.00  0.00    -0.014 A 
BRANCH  41  42
ATOM     42  C   UNL A   1      41.147  28.516  28.474  1.00  0.00     0.031 A 
ATOM     43  C   UNL A   1      42.203  29.553  28.740  1.00  0.00     0.074 A 
ATOM     44  C   UNL A   1      41.497  27.231  28.255  1.00  0.00     0.049 A 
ATOM     45  N   UNL A   1      43.494  29.485  28.549  1.00  0.00    -0.248 NA
ATOM     46  C   UNL A   1      41.744  30.846  29.277  1.00  0.00     0.031 C 
ATOM     47  C   UNL A   1      40.565  26.116  28.060  1.00  0.00     0.029 A 
ATOM     48  N   UNL A   1      42.732  26.642  28.161  1.00  0.00    -0.354 N 
ATOM     49  C   UNL A   1      43.991  30.744  28.864  1.00  0.00     0.074 A 
ATOM     50  C   UNL A   1      42.865  31.555  29.275  1.00  0.00     0.031 C 
ATOM     51  C   UNL A   1      41.258  24.981  27.898  1.00  0.00     0.029 A 
ATOM     52  C   UNL A   1      42.677  25.301  27.859  1.00  0.00     0.049 A 
ATOM     53  H   UNL A   1      43.576  27.131  28.297  1.00  0.00     0.167 HD
ATOM     54  C   UNL A   1      45.271  31.179  28.799  1.00  0.00     0.037 A 
ATOM     55  C   UNL A   1      43.651  24.439  27.513  1.00  0.00     0.037 A 
ATOM     56  C   UNL A   1      46.382  30.332  28.447  1.00  0.00     0.049 A 
ATOM     57  C   UNL A   1      45.059  24.949  27.418  1.00  0.00     0.074 A 
ATOM     58  C   UNL A   1      47.723  30.657  28.367  1.00  0.00     0.029 A 
ATOM     59  N   UNL A   1      46.278  28.984  28.130  1.00  0.00    -0.354 N 
ATOM     60  N   UNL A   1      45.511  26.160  27.648  1.00  0.00    -0.248 NA
ATOM     61  C   UNL A   1      46.086  23.990  26.995  1.00  0.00     0.031 C 
ATOM     62  C   UNL A   1      48.426  29.517  27.963  1.00  0.00     0.029 A 
ATOM     63  C   UNL A   1      47.528  28.468  27.839  1.00  0.00     0.049 A 
ATOM     64  H   UNL A   1      45.437  28.471  28.114  1.00  0.00     0.167 HD
ATOM     65  C   UNL A   1      46.877  26.106  27.405  1.00  0.00     0.074 A 
ATOM     66  C   UNL A   1      47.180  24.738  27.033  1.00  0.00     0.031 C 
ATOM     67  C   UNL A   1      47.798  27.098  27.476  1.00  0.00     0.037 A 
BRANCH  54  68
ATOM     68  C   UNL A   1      45.536  32.637  29.061  1.00  0.00     0.058 A 
ATOM     69  C   UNL A   1      45.639  33.581  28.030  1.00  0.00     0.135 A 
ATOM     70  C   UNL A   1      45.655  33.100  30.384  1.00  0.00     0.135 A 
ATOM     71  F   UNL A   1      45.555  33.194  26.747  1.00  0.00    -0.206 F 
ATOM     72  C   UNL A   1      45.874  34.928  28.296  1.00  0.00     0.059 A 
ATOM     73  C   UNL A   1      45.863  34.445  30.674  1.00  0.00     0.059 A 
ATOM     74  F   UNL A   1      45.569  32.239  31.410  1.00  0.00    -0.206 F 
ATOM     75  C   UNL A   1      45.984  35.350  29.623  1.00  0.00     0.060 A 
BRANCH  75  76
ATOM     76  S   UNL A   1      46.277  37.101  29.954  1.00  0.00     0.124 S 
ATOM     77  O   UNL A   1      46.927  37.526  28.718  1.00  0.00    -0.237 OA
ATOM     78  O   UNL A   1      44.926  37.609  30.167  1.00  0.00    -0.237 OA
ATOM     79  O   UNL A   1      47.131  37.085  31.137  1.00  0.00    -0.744 OA
ENDBRANCH  75  76
ENDBRANCH  54  68
BRANCH  55  80
ATOM     80  C   UNL A   1      43.309  23.034  27.160  1.00  0.00     0.058 A 
ATOM     81  C   UNL A   1      43.322  22.597  25.829  1.00  0.00     0.135 A 
ATOM     82  C   UNL A   1      42.988  22.094  28.154  1.00  0.00     0.135 A 
ATOM     83  F   UNL A   1      43.616  23.457  24.842  1.00  0.00    -0.206 F 
ATOM     84  C   UNL A   1      43.021  21.279  25.492  1.00  0.00     0.059 A 
ATOM     85  C   UNL A   1      42.715  20.765  27.846  1.00  0.00     0.059 A 
ATOM     86  F   UNL A   1      42.977  22.457  29.446  1.00  0.00    -0.206 F 
ATOM     87  C   UNL A   1      42.723  20.371  26.510  1.00  0.00     0.060 A 
BRANCH  87  88
ATOM     88  S   UNL A   1      42.387  18.653  26.070  1.00  0.00     0.124 S 
ATOM     89  O   UNL A   1      43.327  18.443  24.975  1.00  0.00    -0.237 OA
ATOM     90  O   UNL A   1      42.690  17.953  27.314  1.00  0.00    -0.237 OA
ATOM     91  O   UNL A   1      40.975  18.673  25.698  1.00  0.00    -0.744 OA
ENDBRANCH  87  88
ENDBRANCH  55  80
BRANCH  67  92
ATOM     92  C   UNL A   1      49.222  26.726  27.179  1.00  0.00     0.058 A 
ATOM     93  C   UNL A   1      50.058  26.173  28.161  1.00  0.00     0.135 A 
ATOM     94  C   UNL A   1      49.739  26.887  25.884  1.00  0.00     0.135 A 
ATOM     95  F   UNL A   1      49.611  26.010  29.415  1.00  0.00    -0.206 F 
ATOM     96  C   UNL A   1      51.369  25.812  27.874  1.00  0.00     0.059 A 
ATOM     97  C   UNL A   1      51.039  26.507  25.568  1.00  0.00     0.059 A 
ATOM     98  F   UNL A   1      48.975  27.404  24.909  1.00  0.00    -0.206 F 
ATOM     99  C   UNL A   1      51.850  25.983  26.573  1.00  0.00     0.060 A 
BRANCH  99 100
ATOM    100  S   UNL A   1      53.544  25.481  26.205  1.00  0.00     0.124 S 
ATOM    101  O   UNL A   1      53.353  24.102  25.768  1.00  0.00    -0.237 OA
ATOM    102  O   UNL A   1      53.932  26.428  25.164  1.00  0.00    -0.237 OA
ATOM    103  O   UNL A   1      54.232  25.646  27.482  1.00  0.00    -0.744 OA
ENDBRANCH  99 100
ENDBRANCH  67  92
ENDBRANCH  41  42
ENDBRANCH  34  36
ENDBRANCH  33  34
ENDBRANCH  32  33
ENDBRANCH   1  32
TORSDOF 18
ENDMDL
