MODEL 1
REMARK VINA RESULT:     -14.8      0.000      0.000
REMARK SMILES Cc1ccc(-c2nc(NC(=O)[C@H]3[C@@H](C(=O)OCCOC(=O)c4ccc(-c5c6nc(c(-c7c(F)cc(S(=O)(=O)[O-])cc7F)c7ccc([nH]7)c(-c7c(F)cc(S(=O)(=O)[O-])cc7F)c7nc(c(-c8c(F)cc(S(=O)(=O)[O-])cc8F)c8ccc5[nH]8)C=C7)C=C6)cc4)[C@@H]4CC[C@H]3O4)sc2C)cc1
REMARK SMILES IDX 17 1 16 2 14 3 15 4 13 5 12 6 91 7 88 8 90 9 92 10 89 11
REMARK SMILES IDX 10 12 9 13 11 15 8 16 6 17 7 18 94 19 93 20 95 21 5 22 1 23
REMARK SMILES IDX 2 24 3 25 97 26 4 27 96 28 18 29 19 30 20 31 21 32 22 33
REMARK SMILES IDX 23 34 87 35 24 36 86 37 25 38 26 39 27 40 80 41 28 42 85 43
REMARK SMILES IDX 79 44 81 45 29 46 84 47 78 48 77 49 30 51 64 52 43 53 63 54
REMARK SMILES IDX 44 55 47 56 62 57 82 58 45 59 46 60 61 62 83 63 48 64 31 65
REMARK SMILES IDX 32 66 41 67 33 68 34 69 40 70 42 71 35 72 36 73 37 74 38 75
REMARK SMILES IDX 39 76 65 77 66 78 75 79 67 80 68 81 74 82 76 83 69 84 70 85
REMARK SMILES IDX 71 86 72 87 73 88 49 89 50 90 59 91 51 92 52 93 58 94 60 95
REMARK SMILES IDX 53 96 54 97 55 98 56 99 57 100
REMARK H PARENT 9 14 81 50 47 61
REMARK Flexibility Score: inf
ROOT
ATOM      1  C   UNL A   1      31.302  28.033  27.602  1.00  0.00     0.274 C 
ENDROOT
BRANCH   1   2
ATOM      2  O   UNL A   1      31.749  26.432  26.998  1.00  0.00    -0.462 OA
BRANCH   2   3
ATOM      3  C   UNL A   1      32.503  25.808  25.889  1.00  0.00     0.312 C 
ATOM      4  O   UNL A   1      33.156  24.774  26.053  1.00  0.00    -0.252 OA
BRANCH   3   5
ATOM      5  C   UNL A   1      32.652  26.625  24.450  1.00  0.00     0.143 C 
ATOM      6  C   UNL A   1      31.405  26.358  23.699  1.00  0.00     0.124 C 
ATOM      7  C   UNL A   1      31.713  26.334  22.223  1.00  0.00     0.132 C 
ATOM      8  C   UNL A   1      33.654  26.415  23.213  1.00  0.00     0.133 C 
ATOM      9  C   UNL A   1      32.263  27.660  21.728  1.00  0.00     0.035 C 
ATOM     10  O   UNL A   1      32.906  25.535  22.292  1.00  0.00    -0.373 OA
ATOM     11  C   UNL A   1      33.722  27.537  22.162  1.00  0.00     0.036 C 
BRANCH   6  12
ATOM     12  C   UNL A   1      30.989  24.964  24.007  1.00  0.00     0.232 C 
ATOM     13  N   UNL A   1      31.776  23.842  23.320  1.00  0.00    -0.302 N 
ATOM     14  H   UNL A   1      31.930  24.136  22.393  1.00  0.00     0.172 HD
ATOM     15  O   UNL A   1      30.031  24.972  24.786  1.00  0.00    -0.274 OA
BRANCH  13  16
ATOM     16  C   UNL A   1      32.449  22.415  23.456  1.00  0.00     0.190 A 
ATOM     17  C   UNL A   1      33.010  20.431  24.430  1.00  0.00     0.086 A 
ATOM     18  N   UNL A   1      31.991  21.166  23.691  1.00  0.00    -0.220 NA
ATOM     19  C   UNL A   1      33.895  21.328  25.002  1.00  0.00     0.031 A 
ATOM     20  S   UNL A   1      34.183  22.339  23.716  1.00  0.00    -0.101 S 
ATOM     21  C   UNL A   1      34.836  21.435  26.115  1.00  0.00     0.059 C 
BRANCH  17  22
ATOM     22  C   UNL A   1      33.296  18.991  24.645  1.00  0.00     0.001 A 
ATOM     23  C   UNL A   1      32.530  14.760  25.291  1.00  0.00     0.044 C 
ATOM     24  C   UNL A   1      32.971  16.187  25.112  1.00  0.00    -0.051 A 
ATOM     25  C   UNL A   1      32.702  17.094  26.126  1.00  0.00     0.004 A 
ATOM     26  C   UNL A   1      33.546  16.677  23.925  1.00  0.00     0.004 A 
ATOM     27  C   UNL A   1      32.905  18.457  25.904  1.00  0.00     0.010 A 
ATOM     28  C   UNL A   1      33.697  18.072  23.682  1.00  0.00     0.010 A 
ENDBRANCH  17  22
ENDBRANCH  13  16
ENDBRANCH   6  12
ENDBRANCH   3   5
ENDBRANCH   2   3
ENDBRANCH   1   2
BRANCH   1  29
ATOM     29  C   UNL A   1      31.782  29.779  26.990  1.00  0.00     0.275 C 
BRANCH  29  30
ATOM     30  O   UNL A   1      33.311  30.730  27.273  1.00  0.00    -0.458 OA
BRANCH  30  31
ATOM     31  C   UNL A   1      34.666  31.165  27.803  1.00  0.00     0.338 C 
ATOM     32  O   UNL A   1      34.967  32.344  27.607  1.00  0.00    -0.246 OA
BRANCH  31  33
ATOM     33  C   UNL A   1      35.748  30.318  28.730  1.00  0.00     0.060 A 
ATOM     34  C   UNL A   1      35.868  30.128  30.117  1.00  0.00     0.016 A 
ATOM     35  C   UNL A   1      36.689  29.522  28.146  1.00  0.00     0.016 A 
ATOM     36  C   UNL A   1      37.019  29.403  30.719  1.00  0.00     0.010 A 
ATOM     37  C   UNL A   1      37.889  29.068  28.619  1.00  0.00     0.010 A 
ATOM     38  C   UNL A   1      38.093  28.936  29.937  1.00  0.00    -0.014 A 
BRANCH  38  39
ATOM     39  C   UNL A   1      39.510  28.567  30.150  1.00  0.00     0.031 A 
ATOM     40  C   UNL A   1      40.178  27.370  29.512  1.00  0.00     0.074 A 
ATOM     41  C   UNL A   1      40.290  29.646  30.403  1.00  0.00     0.049 A 
ATOM     42  N   UNL A   1      41.182  26.738  30.027  1.00  0.00    -0.248 NA
ATOM     43  C   UNL A   1      39.845  26.823  28.184  1.00  0.00     0.031 C 
ATOM     44  C   UNL A   1      41.725  29.869  30.399  1.00  0.00     0.029 A 
ATOM     45  N   UNL A   1      39.806  30.904  30.766  1.00  0.00    -0.354 N 
ATOM     46  C   UNL A   1      41.814  26.049  28.996  1.00  0.00     0.074 A 
ATOM     47  C   UNL A   1      40.852  25.984  27.934  1.00  0.00     0.031 C 
ATOM     48  C   UNL A   1      41.977  30.981  31.136  1.00  0.00     0.029 A 
ATOM     49  C   UNL A   1      40.706  31.520  31.635  1.00  0.00     0.049 A 
ATOM     50  H   UNL A   1      38.958  31.297  30.457  1.00  0.00     0.167 HD
ATOM     51  C   UNL A   1      43.173  25.854  28.984  1.00  0.00     0.037 A 
ATOM     52  C   UNL A   1      40.279  31.617  32.929  1.00  0.00     0.037 A 
ATOM     53  C   UNL A   1      43.802  26.679  30.046  1.00  0.00     0.049 A 
ATOM     54  C   UNL A   1      40.848  30.420  33.685  1.00  0.00     0.074 A 
ATOM     55  C   UNL A   1      44.701  27.733  30.084  1.00  0.00     0.029 A 
ATOM     56  N   UNL A   1      43.236  26.673  31.318  1.00  0.00    -0.354 N 
ATOM     57  N   UNL A   1      41.543  29.496  33.067  1.00  0.00    -0.248 NA
ATOM     58  C   UNL A   1      40.823  30.157  35.118  1.00  0.00     0.031 C 
ATOM     59  C   UNL A   1      44.606  28.371  31.374  1.00  0.00     0.029 A 
ATOM     60  C   UNL A   1      43.637  27.721  32.123  1.00  0.00     0.049 A 
ATOM     61  H   UNL A   1      42.604  25.981  31.618  1.00  0.00     0.167 HD
ATOM     62  C   UNL A   1      42.172  28.663  33.918  1.00  0.00     0.074 A 
ATOM     63  C   UNL A   1      41.608  29.057  35.205  1.00  0.00     0.031 C 
ATOM     64  C   UNL A   1      43.127  27.772  33.504  1.00  0.00     0.037 A 
BRANCH  51  65
ATOM     65  C   UNL A   1      43.917  25.145  27.829  1.00  0.00     0.058 A 
ATOM     66  C   UNL A   1      44.267  25.809  26.633  1.00  0.00     0.135 A 
ATOM     67  C   UNL A   1      44.378  23.801  27.873  1.00  0.00     0.135 A 
ATOM     68  F   UNL A   1      44.030  27.118  26.472  1.00  0.00    -0.206 F 
ATOM     69  C   UNL A   1      44.921  25.184  25.554  1.00  0.00     0.059 A 
ATOM     70  C   UNL A   1      44.973  23.134  26.786  1.00  0.00     0.059 A 
ATOM     71  F   UNL A   1      44.344  23.091  29.010  1.00  0.00    -0.206 F 
ATOM     72  C   UNL A   1      45.253  23.837  25.626  1.00  0.00     0.060 A 
BRANCH  72  73
ATOM     73  S   UNL A   1      46.126  23.055  24.247  1.00  0.00     0.124 S 
ATOM     74  O   UNL A   1      45.054  22.830  23.283  1.00  0.00    -0.237 OA
ATOM     75  O   UNL A   1      47.100  24.080  23.884  1.00  0.00    -0.237 OA
ATOM     76  O   UNL A   1      46.690  21.844  24.838  1.00  0.00    -0.744 OA
ENDBRANCH  72  73
ENDBRANCH  51  65
BRANCH  52  77
ATOM     77  C   UNL A   1      39.017  32.469  33.030  1.00  0.00     0.058 A 
ATOM     78  C   UNL A   1      38.963  33.612  32.182  1.00  0.00     0.135 A 
ATOM     79  C   UNL A   1      37.766  32.063  33.531  1.00  0.00     0.135 A 
ATOM     80  F   UNL A   1      40.097  34.072  31.627  1.00  0.00    -0.206 F 
ATOM     81  C   UNL A   1      37.767  34.215  31.747  1.00  0.00     0.059 A 
ATOM     82  C   UNL A   1      36.542  32.647  33.095  1.00  0.00     0.059 A 
ATOM     83  F   UNL A   1      37.688  31.024  34.376  1.00  0.00    -0.206 F 
ATOM     84  C   UNL A   1      36.549  33.690  32.161  1.00  0.00     0.060 A 
BRANCH  84  85
ATOM     85  S   UNL A   1      35.041  34.110  31.185  1.00  0.00     0.124 S 
ATOM     86  O   UNL A   1      35.573  34.302  29.844  1.00  0.00    -0.237 OA
ATOM     87  O   UNL A   1      34.203  32.923  31.359  1.00  0.00    -0.237 OA
ATOM     88  O   UNL A   1      34.553  35.306  31.864  1.00  0.00    -0.744 OA
ENDBRANCH  84  85
ENDBRANCH  52  77
BRANCH  64  89
ATOM     89  C   UNL A   1      43.708  26.786  34.449  1.00  0.00     0.058 A 
ATOM     90  C   UNL A   1      42.959  25.745  34.997  1.00  0.00     0.135 A 
ATOM     91  C   UNL A   1      45.041  26.938  34.891  1.00  0.00     0.135 A 
ATOM     92  F   UNL A   1      41.665  25.585  34.677  1.00  0.00    -0.206 F 
ATOM     93  C   UNL A   1      43.536  24.834  35.871  1.00  0.00     0.059 A 
ATOM     94  C   UNL A   1      45.603  26.102  35.831  1.00  0.00     0.059 A 
ATOM     95  F   UNL A   1      45.861  27.867  34.381  1.00  0.00    -0.206 F 
ATOM     96  C   UNL A   1      44.861  25.018  36.268  1.00  0.00     0.060 A 
BRANCH  96  97
ATOM     97  S   UNL A   1      45.666  23.802  37.310  1.00  0.00     0.124 S 
ATOM     98  O   UNL A   1      45.054  24.040  38.614  1.00  0.00    -0.237 OA
ATOM     99  O   UNL A   1      45.277  22.564  36.644  1.00  0.00    -0.237 OA
ATOM    100  O   UNL A   1      47.077  24.160  37.210  1.00  0.00    -0.744 OA
ENDBRANCH  96  97
ENDBRANCH  64  89
ENDBRANCH  38  39
ENDBRANCH  31  33
ENDBRANCH  30  31
ENDBRANCH  29  30
ENDBRANCH   1  29
TORSDOF 17
ENDMDL
MODEL 2
REMARK VINA RESULT:     -14.7      1.704      2.263
REMARK SMILES Cc1ccc(-c2nc(NC(=O)[C@H]3[C@@H](C(=O)OCCOC(=O)c4ccc(-c5c6nc(c(-c7c(F)cc(S(=O)(=O)[O-])cc7F)c7ccc([nH]7)c(-c7c(F)cc(S(=O)(=O)[O-])cc7F)c7nc(c(-c8c(F)cc(S(=O)(=O)[O-])cc8F)c8ccc5[nH]8)C=C7)C=C6)cc4)[C@@H]4CC[C@H]3O4)sc2C)cc1
REMARK SMILES IDX 17 1 16 2 14 3 15 4 13 5 12 6 91 7 88 8 90 9 92 10 89 11
REMARK SMILES IDX 10 12 9 13 11 15 8 16 6 17 7 18 94 19 93 20 95 21 5 22 1 23
REMARK SMILES IDX 2 24 3 25 97 26 4 27 96 28 18 29 19 30 20 31 21 32 22 33
REMARK SMILES IDX 23 34 87 35 24 36 86 37 25 38 26 39 27 40 80 41 28 42 85 43
REMARK SMILES IDX 79 44 81 45 29 46 84 47 78 48 77 49 30 51 64 52 43 53 63 54
REMARK SMILES IDX 44 55 47 56 62 57 82 58 45 59 46 60 61 62 83 63 48 64 31 65
REMARK SMILES IDX 32 66 41 67 33 68 34 69 40 70 42 71 35 72 36 73 37 74 38 75
REMARK SMILES IDX 39 76 65 77 66 78 75 79 67 80 68 81 74 82 76 83 69 84 70 85
REMARK SMILES IDX 71 86 72 87 73 88 49 89 50 90 59 91 51 92 52 93 58 94 60 95
REMARK SMILES IDX 53 96 54 97 55 98 56 99 57 100
REMARK H PARENT 9 14 81 50 47 61
REMARK Flexibility Score: inf
ROOT
ATOM      1  C   UNL A   1      31.361  28.185  27.739  1.00  0.00     0.274 C 
ENDROOT
BRANCH   1   2
ATOM      2  O   UNL A   1      31.859  26.662  26.988  1.00  0.00    -0.462 OA
BRANCH   2   3
ATOM      3  C   UNL A   1      32.555  26.168  25.780  1.00  0.00     0.312 C 
ATOM      4  O   UNL A   1      33.042  25.036  25.733  1.00  0.00    -0.252 OA
BRANCH   3   5
ATOM      5  C   UNL A   1      32.876  27.227  24.540  1.00  0.00     0.143 C 
ATOM      6  C   UNL A   1      31.585  27.451  23.852  1.00  0.00     0.124 C 
ATOM      7  C   UNL A   1      31.844  27.686  22.384  1.00  0.00     0.132 C 
ATOM      8  C   UNL A   1      33.762  27.063  23.211  1.00  0.00     0.133 C 
ATOM      9  C   UNL A   1      32.704  28.912  22.140  1.00  0.00     0.035 C 
ATOM     10  O   UNL A   1      32.793  26.624  22.187  1.00  0.00    -0.373 OA
ATOM     11  C   UNL A   1      34.092  28.341  22.422  1.00  0.00     0.036 C 
BRANCH   6  12
ATOM     12  C   UNL A   1      30.832  26.169  23.888  1.00  0.00     0.232 C 
ATOM     13  N   UNL A   1      31.449  24.986  23.134  1.00  0.00    -0.302 N 
ATOM     14  H   UNL A   1      31.802  25.346  22.289  1.00  0.00     0.172 HD
ATOM     15  O   UNL A   1      29.793  26.309  24.539  1.00  0.00    -0.274 OA
BRANCH  13  16
ATOM     16  C   UNL A   1      31.764  23.433  23.127  1.00  0.00     0.190 A 
ATOM     17  C   UNL A   1      32.339  21.393  23.965  1.00  0.00     0.086 A 
ATOM     18  N   UNL A   1      31.264  22.358  23.772  1.00  0.00    -0.220 NA
ATOM     19  C   UNL A   1      33.558  22.032  23.820  1.00  0.00     0.031 A 
ATOM     20  S   UNL A   1      33.285  22.902  22.431  1.00  0.00    -0.101 S 
ATOM     21  C   UNL A   1      34.956  21.907  24.225  1.00  0.00     0.059 C 
BRANCH  17  22
ATOM     22  C   UNL A   1      32.385  19.934  24.231  1.00  0.00     0.001 A 
ATOM     23  C   UNL A   1      33.959  15.882  24.345  1.00  0.00     0.044 C 
ATOM     24  C   UNL A   1      33.250  17.209  24.347  1.00  0.00    -0.051 A 
ATOM     25  C   UNL A   1      32.903  17.775  23.129  1.00  0.00     0.004 A 
ATOM     26  C   UNL A   1      33.016  17.961  25.513  1.00  0.00     0.004 A 
ATOM     27  C   UNL A   1      32.440  19.091  23.087  1.00  0.00     0.010 A 
ATOM     28  C   UNL A   1      32.599  19.321  25.461  1.00  0.00     0.010 A 
ENDBRANCH  17  22
ENDBRANCH  13  16
ENDBRANCH   6  12
ENDBRANCH   3   5
ENDBRANCH   2   3
ENDBRANCH   1   2
BRANCH   1  29
ATOM     29  C   UNL A   1      31.886  29.987  27.380  1.00  0.00     0.275 C 
BRANCH  29  30
ATOM     30  O   UNL A   1      33.555  30.717  27.302  1.00  0.00    -0.458 OA
BRANCH  30  31
ATOM     31  C   UNL A   1      34.950  31.180  27.683  1.00  0.00     0.338 C 
ATOM     32  O   UNL A   1      35.167  32.387  27.566  1.00  0.00    -0.246 OA
BRANCH  31  33
ATOM     33  C   UNL A   1      36.189  30.316  28.367  1.00  0.00     0.060 A 
ATOM     34  C   UNL A   1      36.308  29.627  29.586  1.00  0.00     0.016 A 
ATOM     35  C   UNL A   1      37.329  30.062  27.663  1.00  0.00     0.016 A 
ATOM     36  C   UNL A   1      37.592  29.016  30.026  1.00  0.00     0.010 A 
ATOM     37  C   UNL A   1      38.590  29.754  28.092  1.00  0.00     0.010 A 
ATOM     38  C   UNL A   1      38.778  29.165  29.281  1.00  0.00    -0.014 A 
BRANCH  38  39
ATOM     39  C   UNL A   1      40.233  29.086  29.533  1.00  0.00     0.031 A 
ATOM     40  C   UNL A   1      41.206  28.334  28.653  1.00  0.00     0.074 A 
ATOM     41  C   UNL A   1      40.704  30.184  30.173  1.00  0.00     0.049 A 
ATOM     42  N   UNL A   1      42.319  27.824  29.070  1.00  0.00    -0.248 NA
ATOM     43  C   UNL A   1      41.069  28.161  27.195  1.00  0.00     0.031 C 
ATOM     44  C   UNL A   1      42.035  30.723  30.393  1.00  0.00     0.029 A 
ATOM     45  N   UNL A   1      39.904  31.121  30.830  1.00  0.00    -0.354 N 
ATOM     46  C   UNL A   1      43.141  27.652  27.960  1.00  0.00     0.074 A 
ATOM     47  C   UNL A   1      42.265  27.698  26.825  1.00  0.00     0.031 C 
ATOM     48  C   UNL A   1      41.970  31.580  31.444  1.00  0.00     0.029 A 
ATOM     49  C   UNL A   1      40.587  31.629  31.935  1.00  0.00     0.049 A 
ATOM     50  H   UNL A   1      38.996  31.382  30.556  1.00  0.00     0.167 HD
ATOM     51  C   UNL A   1      44.504  27.791  28.042  1.00  0.00     0.037 A 
ATOM     52  C   UNL A   1      40.105  31.220  33.145  1.00  0.00     0.037 A 
ATOM     53  C   UNL A   1      44.865  28.370  29.361  1.00  0.00     0.049 A 
ATOM     54  C   UNL A   1      40.933  30.014  33.580  1.00  0.00     0.074 A 
ATOM     55  C   UNL A   1      45.465  29.539  29.802  1.00  0.00     0.029 A 
ATOM     56  N   UNL A   1      44.275  27.841  30.506  1.00  0.00    -0.354 N 
ATOM     57  N   UNL A   1      41.861  29.513  32.801  1.00  0.00    -0.248 NA
ATOM     58  C   UNL A   1      40.925  29.323  34.862  1.00  0.00     0.031 C 
ATOM     59  C   UNL A   1      45.166  29.707  31.203  1.00  0.00     0.029 A 
ATOM     60  C   UNL A   1      44.369  28.652  31.619  1.00  0.00     0.049 A 
ATOM     61  H   UNL A   1      43.830  26.964  30.519  1.00  0.00     0.167 HD
ATOM     62  C   UNL A   1      42.650  28.628  33.437  1.00  0.00     0.074 A 
ATOM     63  C   UNL A   1      41.961  28.463  34.713  1.00  0.00     0.031 C 
ATOM     64  C   UNL A   1      43.815  28.155  32.891  1.00  0.00     0.037 A 
BRANCH  51  65
ATOM     65  C   UNL A   1      45.443  27.666  26.820  1.00  0.00     0.058 A 
ATOM     66  C   UNL A   1      45.933  28.792  26.123  1.00  0.00     0.135 A 
ATOM     67  C   UNL A   1      45.958  26.438  26.322  1.00  0.00     0.135 A 
ATOM     68  F   UNL A   1      45.659  30.036  26.536  1.00  0.00    -0.206 F 
ATOM     69  C   UNL A   1      46.768  28.709  24.993  1.00  0.00     0.059 A 
ATOM     70  C   UNL A   1      46.738  26.322  25.157  1.00  0.00     0.059 A 
ATOM     71  F   UNL A   1      45.791  25.290  26.996  1.00  0.00    -0.206 F 
ATOM     72  C   UNL A   1      47.151  27.468  24.498  1.00  0.00     0.060 A 
BRANCH  72  73
ATOM     73  S   UNL A   1      48.254  27.377  23.067  1.00  0.00     0.124 S 
ATOM     74  O   UNL A   1      49.483  27.975  23.577  1.00  0.00    -0.237 OA
ATOM     75  O   UNL A   1      48.306  25.941  22.814  1.00  0.00    -0.237 OA
ATOM     76  O   UNL A   1      47.561  28.162  22.047  1.00  0.00    -0.744 OA
ENDBRANCH  72  73
ENDBRANCH  51  65
BRANCH  52  77
ATOM     77  C   UNL A   1      38.665  31.682  33.349  1.00  0.00     0.058 A 
ATOM     78  C   UNL A   1      38.440  33.086  33.265  1.00  0.00     0.135 A 
ATOM     79  C   UNL A   1      37.502  30.902  33.205  1.00  0.00     0.135 A 
ATOM     80  F   UNL A   1      39.485  33.926  33.364  1.00  0.00    -0.206 F 
ATOM     81  C   UNL A   1      37.204  33.668  32.922  1.00  0.00     0.059 A 
ATOM     82  C   UNL A   1      36.244  31.465  32.845  1.00  0.00     0.059 A 
ATOM     83  F   UNL A   1      37.574  29.567  33.307  1.00  0.00    -0.206 F 
ATOM     84  C   UNL A   1      36.115  32.846  32.653  1.00  0.00     0.060 A 
BRANCH  84  85
ATOM     85  S   UNL A   1      34.705  33.552  31.697  1.00  0.00     0.124 S 
ATOM     86  O   UNL A   1      34.378  32.476  30.772  1.00  0.00    -0.237 OA
ATOM     87  O   UNL A   1      33.705  33.805  32.735  1.00  0.00    -0.237 OA
ATOM     88  O   UNL A   1      35.294  34.751  31.111  1.00  0.00    -0.744 OA
ENDBRANCH  84  85
ENDBRANCH  52  77
BRANCH  64  89
ATOM     89  C   UNL A   1      44.595  27.088  33.567  1.00  0.00     0.058 A 
ATOM     90  C   UNL A   1      45.496  27.360  34.596  1.00  0.00     0.135 A 
ATOM     91  C   UNL A   1      44.503  25.755  33.112  1.00  0.00     0.135 A 
ATOM     92  F   UNL A   1      45.688  28.616  35.030  1.00  0.00    -0.206 F 
ATOM     93  C   UNL A   1      46.203  26.338  35.214  1.00  0.00     0.059 A 
ATOM     94  C   UNL A   1      45.267  24.741  33.647  1.00  0.00     0.059 A 
ATOM     95  F   UNL A   1      43.624  25.380  32.172  1.00  0.00    -0.206 F 
ATOM     96  C   UNL A   1      46.069  25.033  34.736  1.00  0.00     0.060 A 
BRANCH  96  97
ATOM     97  S   UNL A   1      46.884  23.678  35.579  1.00  0.00     0.124 S 
ATOM     98  O   UNL A   1      47.651  23.049  34.508  1.00  0.00    -0.237 OA
ATOM     99  O   UNL A   1      47.665  24.400  36.577  1.00  0.00    -0.237 OA
ATOM    100  O   UNL A   1      45.771  22.888  36.094  1.00  0.00    -0.744 OA
ENDBRANCH  96  97
ENDBRANCH  64  89
ENDBRANCH  38  39
ENDBRANCH  31  33
ENDBRANCH  30  31
ENDBRANCH  29  30
ENDBRANCH   1  29
TORSDOF 17
ENDMDL
MODEL 3
REMARK VINA RESULT:     -14.5      5.539      9.650
REMARK SMILES Cc1ccc(-c2nc(NC(=O)[C@H]3[C@@H](C(=O)OCCOC(=O)c4ccc(-c5c6nc(c(-c7c(F)cc(S(=O)(=O)[O-])cc7F)c7ccc([nH]7)c(-c7c(F)cc(S(=O)(=O)[O-])cc7F)c7nc(c(-c8c(F)cc(S(=O)(=O)[O-])cc8F)c8ccc5[nH]8)C=C7)C=C6)cc4)[C@@H]4CC[C@H]3O4)sc2C)cc1
REMARK SMILES IDX 17 1 16 2 14 3 15 4 13 5 12 6 91 7 88 8 90 9 92 10 89 11
REMARK SMILES IDX 10 12 9 13 11 15 8 16 6 17 7 18 94 19 93 20 95 21 5 22 1 23
REMARK SMILES IDX 2 24 3 25 97 26 4 27 96 28 18 29 19 30 20 31 21 32 22 33
REMARK SMILES IDX 23 34 87 35 24 36 86 37 25 38 26 39 27 40 80 41 28 42 85 43
REMARK SMILES IDX 79 44 81 45 29 46 84 47 78 48 77 49 30 51 64 52 43 53 63 54
REMARK SMILES IDX 44 55 47 56 62 57 82 58 45 59 46 60 61 62 83 63 48 64 31 65
REMARK SMILES IDX 32 66 41 67 33 68 34 69 40 70 42 71 35 72 36 73 37 74 38 75
REMARK SMILES IDX 39 76 65 77 66 78 75 79 67 80 68 81 74 82 76 83 69 84 70 85
REMARK SMILES IDX 71 86 72 87 73 88 49 89 50 90 59 91 51 92 52 93 58 94 60 95
REMARK SMILES IDX 53 96 54 97 55 98 56 99 57 100
REMARK H PARENT 9 14 81 50 47 61
REMARK Flexibility Score: inf
ROOT
ATOM      1  C   UNL A   1      34.398  29.097  27.246  1.00  0.00     0.274 C 
ENDROOT
BRANCH   1   2
ATOM      2  O   UNL A   1      33.892  27.571  26.506  1.00  0.00    -0.462 OA
BRANCH   2   3
ATOM      3  C   UNL A   1      33.418  27.043  25.208  1.00  0.00     0.312 C 
ATOM      4  O   UNL A   1      33.909  26.029  24.706  1.00  0.00    -0.252 OA
BRANCH   3   5
ATOM      5  C   UNL A   1      32.354  27.945  24.306  1.00  0.00     0.143 C 
ATOM      6  C   UNL A   1      31.052  27.859  25.006  1.00  0.00     0.124 C 
ATOM      7  C   UNL A   1      29.941  27.914  23.987  1.00  0.00     0.132 C 
ATOM      8  C   UNL A   1      31.776  27.729  22.824  1.00  0.00     0.133 C 
ATOM      9  C   UNL A   1      29.946  29.212  23.199  1.00  0.00     0.035 C 
ATOM     10  O   UNL A   1      30.511  26.998  23.037  1.00  0.00    -0.373 OA
ATOM     11  C   UNL A   1      31.039  28.914  22.175  1.00  0.00     0.036 C 
BRANCH   6  12
ATOM     12  C   UNL A   1      30.947  26.494  25.586  1.00  0.00     0.232 C 
ATOM     13  N   UNL A   1      30.771  25.336  24.597  1.00  0.00    -0.302 N 
ATOM     14  H   UNL A   1      30.138  25.649  23.911  1.00  0.00     0.172 HD
ATOM     15  O   UNL A   1      31.011  26.554  26.817  1.00  0.00    -0.274 OA
BRANCH  13  16
ATOM     16  C   UNL A   1      31.165  23.854  24.202  1.00  0.00     0.190 A 
ATOM     17  C   UNL A   1      32.175  21.819  24.388  1.00  0.00     0.086 A 
ATOM     18  N   UNL A   1      31.048  22.648  24.796  1.00  0.00    -0.220 NA
ATOM     19  C   UNL A   1      33.181  22.628  23.892  1.00  0.00     0.031 A 
ATOM     20  S   UNL A   1      32.308  23.625  22.890  1.00  0.00    -0.101 S 
ATOM     21  C   UNL A   1      34.629  22.641  23.694  1.00  0.00     0.059 C 
BRANCH  17  22
ATOM     22  C   UNL A   1      32.428  20.357  24.361  1.00  0.00     0.001 A 
ATOM     23  C   UNL A   1      34.213  16.574  23.173  1.00  0.00     0.044 C 
ATOM     24  C   UNL A   1      33.466  17.782  23.671  1.00  0.00    -0.051 A 
ATOM     25  C   UNL A   1      32.628  18.450  22.790  1.00  0.00     0.004 A 
ATOM     26  C   UNL A   1      33.656  18.336  24.950  1.00  0.00     0.004 A 
ATOM     27  C   UNL A   1      32.090  19.686  23.153  1.00  0.00     0.010 A 
ATOM     28  C   UNL A   1      33.153  19.623  25.294  1.00  0.00     0.010 A 
ENDBRANCH  17  22
ENDBRANCH  13  16
ENDBRANCH   6  12
ENDBRANCH   3   5
ENDBRANCH   2   3
ENDBRANCH   1   2
BRANCH   1  29
ATOM     29  C   UNL A   1      36.132  29.736  27.731  1.00  0.00     0.275 C 
BRANCH  29  30
ATOM     30  O   UNL A   1      37.536  28.840  28.472  1.00  0.00    -0.458 OA
BRANCH  30  31
ATOM     31  C   UNL A   1      38.901  28.207  28.678  1.00  0.00     0.338 C 
ATOM     32  O   UNL A   1      38.952  27.297  29.507  1.00  0.00    -0.246 OA
BRANCH  31  33
ATOM     33  C   UNL A   1      40.312  28.470  27.848  1.00  0.00     0.060 A 
ATOM     34  C   UNL A   1      40.773  28.036  26.594  1.00  0.00     0.016 A 
ATOM     35  C   UNL A   1      41.243  29.347  28.322  1.00  0.00     0.016 A 
ATOM     36  C   UNL A   1      42.153  28.322  26.117  1.00  0.00     0.010 A 
ATOM     37  C   UNL A   1      42.584  29.441  28.077  1.00  0.00     0.010 A 
ATOM     38  C   UNL A   1      43.099  28.975  26.930  1.00  0.00    -0.014 A 
BRANCH  38  39
ATOM     39  C   UNL A   1      44.572  29.084  27.008  1.00  0.00     0.031 A 
ATOM     40  C   UNL A   1      45.340  30.367  26.790  1.00  0.00     0.074 A 
ATOM     41  C   UNL A   1      45.108  28.183  27.867  1.00  0.00     0.049 A 
ATOM     42  N   UNL A   1      46.557  30.422  26.355  1.00  0.00    -0.248 NA
ATOM     43  C   UNL A   1      44.848  31.716  27.129  1.00  0.00     0.031 C 
ATOM     44  C   UNL A   1      46.408  28.055  28.504  1.00  0.00     0.029 A 
ATOM     45  N   UNL A   1      44.437  27.064  28.363  1.00  0.00    -0.354 N 
ATOM     46  C   UNL A   1      47.078  31.657  26.729  1.00  0.00     0.074 A 
ATOM     47  C   UNL A   1      45.940  32.477  27.031  1.00  0.00     0.031 C 
ATOM     48  C   UNL A   1      46.551  26.767  28.906  1.00  0.00     0.029 A 
ATOM     49  C   UNL A   1      45.340  26.018  28.549  1.00  0.00     0.049 A 
ATOM     50  H   UNL A   1      43.472  27.019  28.551  1.00  0.00     0.167 HD
ATOM     51  C   UNL A   1      48.403  31.814  27.051  1.00  0.00     0.037 A 
ATOM     52  C   UNL A   1      45.214  24.987  27.661  1.00  0.00     0.037 A 
ATOM     53  C   UNL A   1      49.046  30.482  27.173  1.00  0.00     0.049 A 
ATOM     54  C   UNL A   1      46.213  25.235  26.534  1.00  0.00     0.074 A 
ATOM     55  C   UNL A   1      49.651  29.759  28.190  1.00  0.00     0.029 A 
ATOM     56  N   UNL A   1      48.809  29.534  26.182  1.00  0.00    -0.354 N 
ATOM     57  N   UNL A   1      46.945  26.322  26.504  1.00  0.00    -0.248 NA
ATOM     58  C   UNL A   1      46.584  24.347  25.441  1.00  0.00     0.031 C 
ATOM     59  C   UNL A   1      49.708  28.373  27.797  1.00  0.00     0.029 A 
ATOM     60  C   UNL A   1      49.124  28.239  26.546  1.00  0.00     0.049 A 
ATOM     61  H   UNL A   1      48.447  29.767  25.297  1.00  0.00     0.167 HD
ATOM     62  C   UNL A   1      47.934  26.257  25.593  1.00  0.00     0.074 A 
ATOM     63  C   UNL A   1      47.607  25.030  24.873  1.00  0.00     0.031 C 
ATOM     64  C   UNL A   1      48.951  27.173  25.545  1.00  0.00     0.037 A 
BRANCH  51  65
ATOM     65  C   UNL A   1      49.005  33.157  27.527  1.00  0.00     0.058 A 
ATOM     66  C   UNL A   1      49.212  34.247  26.654  1.00  0.00     0.135 A 
ATOM     67  C   UNL A   1      49.344  33.454  28.876  1.00  0.00     0.135 A 
ATOM     68  F   UNL A   1      48.826  34.191  25.373  1.00  0.00    -0.206 F 
ATOM     69  C   UNL A   1      49.782  35.470  27.053  1.00  0.00     0.059 A 
ATOM     70  C   UNL A   1      49.975  34.642  29.289  1.00  0.00     0.059 A 
ATOM     71  F   UNL A   1      49.000  32.630  29.877  1.00  0.00    -0.206 F 
ATOM     72  C   UNL A   1      50.184  35.656  28.370  1.00  0.00     0.060 A 
BRANCH  72  73
ATOM     73  S   UNL A   1      50.882  37.247  28.876  1.00  0.00     0.124 S 
ATOM     74  O   UNL A   1      49.782  37.851  29.622  1.00  0.00    -0.237 OA
ATOM     75  O   UNL A   1      52.035  36.835  29.671  1.00  0.00    -0.237 OA
ATOM     76  O   UNL A   1      51.203  37.902  27.610  1.00  0.00    -0.744 OA
ENDBRANCH  72  73
ENDBRANCH  51  65
BRANCH  52  77
ATOM     77  C   UNL A   1      43.845  24.325  27.777  1.00  0.00     0.058 A 
ATOM     78  C   UNL A   1      43.032  24.358  26.608  1.00  0.00     0.135 A 
ATOM     79  C   UNL A   1      43.455  23.357  28.722  1.00  0.00     0.135 A 
ATOM     80  F   UNL A   1      43.328  25.227  25.626  1.00  0.00    -0.206 F 
ATOM     81  C   UNL A   1      42.015  23.425  26.327  1.00  0.00     0.059 A 
ATOM     82  C   UNL A   1      42.441  22.394  28.457  1.00  0.00     0.059 A 
ATOM     83  F   UNL A   1      44.115  23.254  29.885  1.00  0.00    -0.206 F 
ATOM     84  C   UNL A   1      41.760  22.402  27.233  1.00  0.00     0.060 A 
BRANCH  84  85
ATOM     85  S   UNL A   1      40.852  20.912  26.634  1.00  0.00     0.124 S 
ATOM     86  O   UNL A   1      40.699  20.123  27.847  1.00  0.00    -0.237 OA
ATOM     87  O   UNL A   1      39.612  21.481  26.102  1.00  0.00    -0.237 OA
ATOM     88  O   UNL A   1      41.760  20.378  25.625  1.00  0.00    -0.744 OA
ENDBRANCH  84  85
ENDBRANCH  52  77
BRANCH  64  89
ATOM     89  C   UNL A   1      49.954  27.140  24.451  1.00  0.00     0.058 A 
ATOM     90  C   UNL A   1      49.631  27.454  23.131  1.00  0.00     0.135 A 
ATOM     91  C   UNL A   1      51.267  26.694  24.715  1.00  0.00     0.135 A 
ATOM     92  F   UNL A   1      48.382  27.816  22.795  1.00  0.00    -0.206 F 
ATOM     93  C   UNL A   1      50.595  27.423  22.133  1.00  0.00     0.059 A 
ATOM     94  C   UNL A   1      52.213  26.562  23.722  1.00  0.00     0.059 A 
ATOM     95  F   UNL A   1      51.694  26.426  25.957  1.00  0.00    -0.206 F 
ATOM     96  C   UNL A   1      51.883  26.987  22.446  1.00  0.00     0.060 A 
BRANCH  96  97
ATOM     97  S   UNL A   1      53.176  27.035  21.206  1.00  0.00     0.124 S 
ATOM     98  O   UNL A   1      52.690  26.098  20.198  1.00  0.00    -0.237 OA
ATOM     99  O   UNL A   1      53.147  28.444  20.829  1.00  0.00    -0.237 OA
ATOM    100  O   UNL A   1      54.359  26.600  21.942  1.00  0.00    -0.744 OA
ENDBRANCH  96  97
ENDBRANCH  64  89
ENDBRANCH  38  39
ENDBRANCH  31  33
ENDBRANCH  30  31
ENDBRANCH  29  30
ENDBRANCH   1  29
TORSDOF 17
ENDMDL
