MODEL 1
REMARK VINA RESULT:     -11.8      0.000      0.000
REMARK SMILES Cc1[nH]c2c(C(=O)N3CC[C@H](O)C[C@@H]3C(=O)OCCOC(=O)c3ccc(-c4c5nc(c(-c6c(F)cc(S(=O)(=O)[O-])cc6F)c6ccc([nH]6)c(-c6c(F)cc(S(=O)(=O)[O-])cc6F)c6nc(c(-c7c(F)cc(S(=O)(=O)[O-])cc7F)c7ccc4[nH]7)C=C6)C=C5)cc3)cccc2c1C
REMARK SMILES IDX 19 1 18 2 17 3 15 4 16 5 14 6 8 7 9 8 10 9 13 10 11 11 6 12
REMARK SMILES IDX 7 13 5 14 1 15 2 16 3 17 93 18 4 19 92 21 94 22 91 23 89 24
REMARK SMILES IDX 90 25 12 26 20 28 21 29 22 30 23 31 24 32 88 33 25 34 87 35
REMARK SMILES IDX 26 36 27 37 28 38 81 39 29 40 86 41 80 42 82 43 30 44 85 45
REMARK SMILES IDX 79 46 78 47 31 49 65 50 44 51 64 52 45 53 48 54 63 55 83 56
REMARK SMILES IDX 46 57 47 58 62 60 84 61 49 62 32 63 33 64 42 65 34 66 35 67
REMARK SMILES IDX 41 68 43 69 36 70 37 71 38 72 39 73 40 74 66 75 67 76 76 77
REMARK SMILES IDX 68 78 69 79 75 80 77 81 70 82 71 83 72 84 73 85 74 86 50 87
REMARK SMILES IDX 51 88 60 89 52 90 53 91 59 92 61 93 54 94 55 95 56 96 57 97
REMARK SMILES IDX 58 98
REMARK H PARENT 3 20 12 27 82 48 48 59
REMARK Flexibility Score: inf
ROOT
ATOM      1  C   UNL A   1      33.655  28.944  26.085  1.00  0.00     0.275 C 
ENDROOT
BRANCH   1   2
ATOM      2  C   UNL A   1      32.164  29.260  25.928  1.00  0.00     0.274 C 
BRANCH   2   3
ATOM      3  O   UNL A   1      31.422  28.144  25.393  1.00  0.00    -0.461 OA
BRANCH   3   4
ATOM      4  C   UNL A   1      31.026  27.197  26.284  1.00  0.00     0.329 C 
ATOM      5  O   UNL A   1      31.078  27.348  27.500  1.00  0.00    -0.250 OA
BRANCH   4   6
ATOM      6  C   UNL A   1      30.604  25.873  25.623  1.00  0.00     0.198 C 
ATOM      7  N   UNL A   1      31.777  25.036  25.375  1.00  0.00    -0.325 N 
ATOM      8  C   UNL A   1      32.457  25.167  24.085  1.00  0.00     0.123 C 
ATOM      9  C   UNL A   1      31.471  25.114  22.920  1.00  0.00     0.053 C 
ATOM     10  C   UNL A   1      29.650  25.941  24.432  1.00  0.00     0.069 C 
ATOM     11  C   UNL A   1      30.342  26.129  23.090  1.00  0.00     0.118 C 
BRANCH   7  12
ATOM     12  C   UNL A   1      31.945  23.931  26.197  1.00  0.00     0.256 C 
ATOM     13  O   UNL A   1      31.630  23.966  27.385  1.00  0.00    -0.269 OA
BRANCH  12  14
ATOM     14  C   UNL A   1      32.651  22.737  25.661  1.00  0.00     0.064 A 
ATOM     15  C   UNL A   1      37.532  23.701  25.971  1.00  0.00     0.064 C 
ATOM     16  C   UNL A   1      36.294  22.915  25.740  1.00  0.00     0.016 A 
ATOM     17  N   UNL A   1      35.061  23.444  26.012  1.00  0.00    -0.358 N 
ATOM     18  C   UNL A   1      36.097  21.620  25.297  1.00  0.00    -0.023 A 
ATOM     19  C   UNL A   1      34.053  22.594  25.630  1.00  0.00     0.059 A 
ATOM     20  H   UNL A   1      34.916  24.323  26.432  1.00  0.00     0.166 HD
ATOM     21  C   UNL A   1      34.678  21.414  25.222  1.00  0.00     0.003 A 
ATOM     22  C   UNL A   1      37.142  20.617  24.963  1.00  0.00     0.047 C 
ATOM     23  C   UNL A   1      33.876  20.312  24.855  1.00  0.00     0.010 A 
ATOM     24  C   UNL A   1      31.884  21.616  25.295  1.00  0.00     0.016 A 
ATOM     25  C   UNL A   1      32.484  20.422  24.901  1.00  0.00     0.002 A 
ENDBRANCH  12  14
ENDBRANCH   7  12
BRANCH  11  26
ATOM     26  O   UNL A   1      30.853  27.449  22.951  1.00  0.00    -0.393 OA
ATOM     27  H   UNL A   1      31.779  27.470  23.238  1.00  0.00     0.210 HD
ENDBRANCH  11  26
ENDBRANCH   4   6
ENDBRANCH   3   4
ENDBRANCH   2   3
ENDBRANCH   1   2
BRANCH   1  28
ATOM     28  O   UNL A   1      34.049  28.896  27.466  1.00  0.00    -0.458 OA
BRANCH  28  29
ATOM     29  C   UNL A   1      34.564  30.048  27.955  1.00  0.00     0.338 C 
ATOM     30  O   UNL A   1      33.947  31.064  28.234  1.00  0.00    -0.246 OA
BRANCH  29  31
ATOM     31  C   UNL A   1      35.990  29.847  28.263  1.00  0.00     0.060 A 
ATOM     32  C   UNL A   1      36.929  30.052  27.248  1.00  0.00     0.016 A 
ATOM     33  C   UNL A   1      36.397  29.408  29.522  1.00  0.00     0.016 A 
ATOM     34  C   UNL A   1      38.277  29.803  27.473  1.00  0.00     0.010 A 
ATOM     35  C   UNL A   1      37.756  29.165  29.753  1.00  0.00     0.010 A 
ATOM     36  C   UNL A   1      38.698  29.349  28.725  1.00  0.00    -0.014 A 
BRANCH  36  37
ATOM     37  C   UNL A   1      40.124  29.018  28.935  1.00  0.00     0.031 A 
ATOM     38  C   UNL A   1      41.051  30.066  29.477  1.00  0.00     0.074 A 
ATOM     39  C   UNL A   1      40.569  27.778  28.662  1.00  0.00     0.049 A 
ATOM     40  N   UNL A   1      42.346  30.020  29.639  1.00  0.00    -0.248 NA
ATOM     41  C   UNL A   1      40.435  31.338  29.889  1.00  0.00     0.031 C 
ATOM     42  C   UNL A   1      39.740  26.667  28.191  1.00  0.00     0.029 A 
ATOM     43  N   UNL A   1      41.831  27.246  28.737  1.00  0.00    -0.354 N 
ATOM     44  C   UNL A   1      42.707  31.261  30.145  1.00  0.00     0.074 A 
ATOM     45  C   UNL A   1      41.495  32.045  30.256  1.00  0.00     0.031 C 
ATOM     46  C   UNL A   1      40.517  25.586  28.011  1.00  0.00     0.029 A 
ATOM     47  C   UNL A   1      41.902  25.942  28.310  1.00  0.00     0.049 A 
ATOM     48  H   UNL A   1      42.610  27.750  29.066  1.00  0.00     0.167 HD
ATOM     49  C   UNL A   1      43.942  31.703  30.483  1.00  0.00     0.037 A 
ATOM     50  C   UNL A   1      42.971  25.139  28.146  1.00  0.00     0.037 A 
ATOM     51  C   UNL A   1      45.135  30.905  30.383  1.00  0.00     0.049 A 
ATOM     52  C   UNL A   1      44.337  25.672  28.477  1.00  0.00     0.074 A 
ATOM     53  C   UNL A   1      46.434  31.250  30.709  1.00  0.00     0.029 A 
ATOM     54  N   UNL A   1      45.173  29.596  29.922  1.00  0.00    -0.354 N 
ATOM     55  N   UNL A   1      44.671  26.854  28.939  1.00  0.00    -0.248 NA
ATOM     56  C   UNL A   1      45.474  24.768  28.258  1.00  0.00     0.031 C 
ATOM     57  C   UNL A   1      47.263  30.164  30.410  1.00  0.00     0.029 A 
ATOM     58  C   UNL A   1      46.475  29.126  29.936  1.00  0.00     0.049 A 
ATOM     59  H   UNL A   1      44.389  29.078  29.627  1.00  0.00     0.167 HD
ATOM     60  C   UNL A   1      46.053  26.829  29.086  1.00  0.00     0.074 A 
ATOM     61  C   UNL A   1      46.492  25.511  28.672  1.00  0.00     0.031 C 
ATOM     62  C   UNL A   1      46.885  27.807  29.523  1.00  0.00     0.037 A 
BRANCH  49  63
ATOM     63  C   UNL A   1      44.065  33.124  30.954  1.00  0.00     0.058 A 
ATOM     64  C   UNL A   1      44.268  34.188  30.061  1.00  0.00     0.135 A 
ATOM     65  C   UNL A   1      43.957  33.429  32.321  1.00  0.00     0.135 A 
ATOM     66  F   UNL A   1      44.399  33.951  28.746  1.00  0.00    -0.206 F 
ATOM     67  C   UNL A   1      44.382  35.501  30.509  1.00  0.00     0.059 A 
ATOM     68  C   UNL A   1      44.045  34.735  32.789  1.00  0.00     0.059 A 
ATOM     69  F   UNL A   1      43.769  32.448  33.218  1.00  0.00    -0.206 F 
ATOM     70  C   UNL A   1      44.272  35.764  31.876  1.00  0.00     0.060 A 
BRANCH  70  71
ATOM     71  S   UNL A   1      44.424  37.472  32.444  1.00  0.00     0.124 S 
ATOM     72  O   UNL A   1      45.798  37.492  32.937  1.00  0.00    -0.237 OA
ATOM     73  O   UNL A   1      44.178  38.232  31.223  1.00  0.00    -0.237 OA
ATOM     74  O   UNL A   1      43.389  37.582  33.467  1.00  0.00    -0.744 OA
ENDBRANCH  70  71
ENDBRANCH  49  63
BRANCH  50  75
ATOM     75  C   UNL A   1      42.790  23.760  27.622  1.00  0.00     0.058 A 
ATOM     76  C   UNL A   1      42.557  22.682  28.486  1.00  0.00     0.135 A 
ATOM     77  C   UNL A   1      42.839  23.495  26.244  1.00  0.00     0.135 A 
ATOM     78  F   UNL A   1      42.511  22.884  29.813  1.00  0.00    -0.206 F 
ATOM     79  C   UNL A   1      42.389  21.386  28.008  1.00  0.00     0.059 A 
ATOM     80  C   UNL A   1      42.651  22.212  25.739  1.00  0.00     0.059 A 
ATOM     81  F   UNL A   1      43.050  24.494  25.373  1.00  0.00    -0.206 F 
ATOM     82  C   UNL A   1      42.437  21.162  26.630  1.00  0.00     0.060 A 
BRANCH  82  83
ATOM     83  S   UNL A   1      42.175  19.485  26.012  1.00  0.00     0.124 S 
ATOM     84  O   UNL A   1      43.003  19.483  24.812  1.00  0.00    -0.237 OA
ATOM     85  O   UNL A   1      42.657  18.668  27.121  1.00  0.00    -0.237 OA
ATOM     86  O   UNL A   1      40.734  19.433  25.787  1.00  0.00    -0.744 OA
ENDBRANCH  82  83
ENDBRANCH  50  75
BRANCH  62  87
ATOM     87  C   UNL A   1      48.347  27.475  29.607  1.00  0.00     0.058 A 
ATOM     88  C   UNL A   1      49.241  27.827  28.584  1.00  0.00     0.135 A 
ATOM     89  C   UNL A   1      48.866  26.839  30.746  1.00  0.00     0.135 A 
ATOM     90  F   UNL A   1      48.791  28.429  27.473  1.00  0.00    -0.206 F 
ATOM     91  C   UNL A   1      50.598  27.540  28.679  1.00  0.00     0.059 A 
ATOM     92  C   UNL A   1      50.224  26.564  30.872  1.00  0.00     0.059 A 
ATOM     93  F   UNL A   1      48.054  26.491  31.756  1.00  0.00    -0.206 F 
ATOM     94  C   UNL A   1      51.081  26.908  29.827  1.00  0.00     0.060 A 
BRANCH  94  95
ATOM     95  S   UNL A   1      52.850  26.571  29.955  1.00  0.00     0.124 S 
ATOM     96  O   UNL A   1      52.893  25.651  31.086  1.00  0.00    -0.237 OA
ATOM     97  O   UNL A   1      53.154  25.989  28.651  1.00  0.00    -0.237 OA
ATOM     98  O   UNL A   1      53.428  27.890  30.195  1.00  0.00    -0.744 OA
ENDBRANCH  94  95
ENDBRANCH  62  87
ENDBRANCH  36  37
ENDBRANCH  29  31
ENDBRANCH  28  29
ENDBRANCH   1  28
TORSDOF 17
ENDMDL
MODEL 2
REMARK VINA RESULT:     -11.7      3.663      6.525
REMARK SMILES Cc1[nH]c2c(C(=O)N3CC[C@H](O)C[C@@H]3C(=O)OCCOC(=O)c3ccc(-c4c5nc(c(-c6c(F)cc(S(=O)(=O)[O-])cc6F)c6ccc([nH]6)c(-c6c(F)cc(S(=O)(=O)[O-])cc6F)c6nc(c(-c7c(F)cc(S(=O)(=O)[O-])cc7F)c7ccc4[nH]7)C=C6)C=C5)cc3)cccc2c1C
REMARK SMILES IDX 19 1 18 2 17 3 15 4 16 5 14 6 8 7 9 8 10 9 13 10 11 11 6 12
REMARK SMILES IDX 7 13 5 14 1 15 2 16 3 17 93 18 4 19 92 21 94 22 91 23 89 24
REMARK SMILES IDX 90 25 12 26 20 28 21 29 22 30 23 31 24 32 88 33 25 34 87 35
REMARK SMILES IDX 26 36 27 37 28 38 81 39 29 40 86 41 80 42 82 43 30 44 85 45
REMARK SMILES IDX 79 46 78 47 31 49 65 50 44 51 64 52 45 53 48 54 63 55 83 56
REMARK SMILES IDX 46 57 47 58 62 60 84 61 49 62 32 63 33 64 42 65 34 66 35 67
REMARK SMILES IDX 41 68 43 69 36 70 37 71 38 72 39 73 40 74 66 75 67 76 76 77
REMARK SMILES IDX 68 78 69 79 75 80 77 81 70 82 71 83 72 84 73 85 74 86 50 87
REMARK SMILES IDX 51 88 60 89 52 90 53 91 59 92 61 93 54 94 55 95 56 96 57 97
REMARK SMILES IDX 58 98
REMARK H PARENT 3 20 12 27 82 48 48 59
REMARK Flexibility Score: inf
ROOT
ATOM      1  C   UNL A   1      34.180  32.711  27.978  1.00  0.00     0.275 C 
ENDROOT
BRANCH   1   2
ATOM      2  C   UNL A   1      33.698  33.811  28.929  1.00  0.00     0.274 C 
BRANCH   2   3
ATOM      3  O   UNL A   1      34.734  34.241  29.837  1.00  0.00    -0.461 OA
BRANCH   3   4
ATOM      4  C   UNL A   1      34.726  33.680  31.075  1.00  0.00     0.329 C 
ATOM      5  O   UNL A   1      33.778  33.761  31.848  1.00  0.00    -0.250 OA
BRANCH   4   6
ATOM      6  C   UNL A   1      36.063  33.020  31.457  1.00  0.00     0.198 C 
ATOM      7  N   UNL A   1      36.683  33.743  32.567  1.00  0.00    -0.325 N 
ATOM      8  C   UNL A   1      37.605  34.834  32.250  1.00  0.00     0.123 C 
ATOM      9  C   UNL A   1      38.637  34.415  31.205  1.00  0.00     0.053 C 
ATOM     10  C   UNL A   1      37.043  32.687  30.333  1.00  0.00     0.069 C 
ATOM     11  C   UNL A   1      37.972  33.832  29.959  1.00  0.00     0.118 C 
BRANCH   7  12
ATOM     12  C   UNL A   1      36.659  33.125  33.809  1.00  0.00     0.256 C 
ATOM     13  O   UNL A   1      35.618  33.037  34.458  1.00  0.00    -0.269 OA
BRANCH  12  14
ATOM     14  C   UNL A   1      37.943  32.694  34.423  1.00  0.00     0.064 A 
ATOM     15  C   UNL A   1      38.990  28.200  32.538  1.00  0.00     0.064 C 
ATOM     16  C   UNL A   1      39.196  29.457  33.299  1.00  0.00     0.016 A 
ATOM     17  N   UNL A   1      38.278  30.471  33.249  1.00  0.00    -0.358 N 
ATOM     18  C   UNL A   1      40.237  29.886  34.102  1.00  0.00    -0.023 A 
ATOM     19  C   UNL A   1      38.609  31.494  34.103  1.00  0.00     0.059 A 
ATOM     20  H   UNL A   1      37.481  30.468  32.671  1.00  0.00     0.166 HD
ATOM     21  C   UNL A   1      39.868  31.173  34.617  1.00  0.00     0.003 A 
ATOM     22  C   UNL A   1      41.507  29.166  34.385  1.00  0.00     0.047 C 
ATOM     23  C   UNL A   1      40.510  32.100  35.465  1.00  0.00     0.010 A 
ATOM     24  C   UNL A   1      38.616  33.595  35.267  1.00  0.00     0.016 A 
ATOM     25  C   UNL A   1      39.880  33.307  35.777  1.00  0.00     0.002 A 
ENDBRANCH  12  14
ENDBRANCH   7  12
BRANCH  11  26
ATOM     26  O   UNL A   1      37.278  34.856  29.256  1.00  0.00    -0.393 OA
ATOM     27  H   UNL A   1      36.377  34.933  29.606  1.00  0.00     0.210 HD
ENDBRANCH  11  26
ENDBRANCH   4   6
ENDBRANCH   3   4
ENDBRANCH   2   3
ENDBRANCH   1   2
BRANCH   1  28
ATOM     28  O   UNL A   1      34.348  31.455  28.655  1.00  0.00    -0.458 OA
BRANCH  28  29
ATOM     29  C   UNL A   1      34.617  30.402  27.848  1.00  0.00     0.338 C 
ATOM     30  O   UNL A   1      33.909  29.967  26.954  1.00  0.00    -0.246 OA
BRANCH  29  31
ATOM     31  C   UNL A   1      35.992  29.938  28.102  1.00  0.00     0.060 A 
ATOM     32  C   UNL A   1      36.284  29.354  29.338  1.00  0.00     0.016 A 
ATOM     33  C   UNL A   1      36.998  30.127  27.155  1.00  0.00     0.016 A 
ATOM     34  C   UNL A   1      37.583  28.971  29.648  1.00  0.00     0.010 A 
ATOM     35  C   UNL A   1      38.305  29.733  27.463  1.00  0.00     0.010 A 
ATOM     36  C   UNL A   1      38.604  29.167  28.715  1.00  0.00    -0.014 A 
BRANCH  36  37
ATOM     37  C   UNL A   1      39.995  28.822  29.079  1.00  0.00     0.031 A 
ATOM     38  C   UNL A   1      40.838  29.832  29.802  1.00  0.00     0.074 A 
ATOM     39  C   UNL A   1      40.481  27.604  28.781  1.00  0.00     0.049 A 
ATOM     40  N   UNL A   1      42.103  29.775  30.121  1.00  0.00    -0.248 NA
ATOM     41  C   UNL A   1      40.165  31.073  30.219  1.00  0.00     0.031 C 
ATOM     42  C   UNL A   1      39.727  26.528  28.136  1.00  0.00     0.029 A 
ATOM     43  N   UNL A   1      41.728  27.069  28.977  1.00  0.00    -0.354 N 
ATOM     44  C   UNL A   1      42.388  30.979  30.751  1.00  0.00     0.074 A 
ATOM     45  C   UNL A   1      41.165  31.753  30.762  1.00  0.00     0.031 C 
ATOM     46  C   UNL A   1      40.530  25.462  27.982  1.00  0.00     0.029 A 
ATOM     47  C   UNL A   1      41.863  25.797  28.475  1.00  0.00     0.049 A 
ATOM     48  H   UNL A   1      42.456  27.549  29.434  1.00  0.00     0.167 HD
ATOM     49  C   UNL A   1      43.567  31.397  31.270  1.00  0.00     0.037 A 
ATOM     50  C   UNL A   1      42.951  25.007  28.392  1.00  0.00     0.037 A 
ATOM     51  C   UNL A   1      44.770  30.607  31.265  1.00  0.00     0.049 A 
ATOM     52  C   UNL A   1      44.261  25.516  28.926  1.00  0.00     0.074 A 
ATOM     53  C   UNL A   1      46.015  30.929  31.774  1.00  0.00     0.029 A 
ATOM     54  N   UNL A   1      44.876  29.333  30.725  1.00  0.00    -0.354 N 
ATOM     55  N   UNL A   1      44.524  26.664  29.505  1.00  0.00    -0.248 NA
ATOM     56  C   UNL A   1      45.424  24.629  28.790  1.00  0.00     0.031 C 
ATOM     57  C   UNL A   1      46.885  29.866  31.508  1.00  0.00     0.029 A 
ATOM     58  C   UNL A   1      46.171  28.863  30.870  1.00  0.00     0.049 A 
ATOM     59  H   UNL A   1      44.140  28.836  30.300  1.00  0.00     0.167 HD
ATOM     60  C   UNL A   1      45.878  26.630  29.821  1.00  0.00     0.074 A 
ATOM     61  C   UNL A   1      46.376  25.342  29.378  1.00  0.00     0.031 C 
ATOM     62  C   UNL A   1      46.640  27.575  30.424  1.00  0.00     0.037 A 
BRANCH  49  63
ATOM     63  C   UNL A   1      43.619  32.782  31.847  1.00  0.00     0.058 A 
ATOM     64  C   UNL A   1      43.820  33.916  31.043  1.00  0.00     0.135 A 
ATOM     65  C   UNL A   1      43.442  32.982  33.226  1.00  0.00     0.135 A 
ATOM     66  F   UNL A   1      44.015  33.780  29.722  1.00  0.00    -0.206 F 
ATOM     67  C   UNL A   1      43.867  35.195  31.589  1.00  0.00     0.059 A 
ATOM     68  C   UNL A   1      43.462  34.252  33.791  1.00  0.00     0.059 A 
ATOM     69  F   UNL A   1      43.251  31.931  34.041  1.00  0.00    -0.206 F 
ATOM     70  C   UNL A   1      43.690  35.353  32.965  1.00  0.00     0.060 A 
BRANCH  70  71
ATOM     71  S   UNL A   1      43.755  37.018  33.662  1.00  0.00     0.124 S 
ATOM     72  O   UNL A   1      42.754  36.929  34.720  1.00  0.00    -0.237 OA
ATOM     73  O   UNL A   1      45.141  37.118  34.107  1.00  0.00    -0.237 OA
ATOM     74  O   UNL A   1      43.400  37.872  32.532  1.00  0.00    -0.744 OA
ENDBRANCH  70  71
ENDBRANCH  49  63
BRANCH  50  75
ATOM     75  C   UNL A   1      42.849  23.667  27.758  1.00  0.00     0.058 A 
ATOM     76  C   UNL A   1      42.593  22.521  28.523  1.00  0.00     0.135 A 
ATOM     77  C   UNL A   1      42.998  23.507  26.371  1.00  0.00     0.135 A 
ATOM     78  F   UNL A   1      42.453  22.622  29.854  1.00  0.00    -0.206 F 
ATOM     79  C   UNL A   1      42.498  21.261  27.941  1.00  0.00     0.059 A 
ATOM     80  C   UNL A   1      42.883  22.261  25.762  1.00  0.00     0.059 A 
ATOM     81  F   UNL A   1      43.234  24.574  25.591  1.00  0.00    -0.206 F 
ATOM     82  C   UNL A   1      42.644  21.141  26.557  1.00  0.00     0.060 A 
BRANCH  82  83
ATOM     83  S   UNL A   1      42.477  19.510  25.802  1.00  0.00     0.124 S 
ATOM     84  O   UNL A   1      41.070  19.507  25.418  1.00  0.00    -0.237 OA
ATOM     85  O   UNL A   1      43.438  19.574  24.706  1.00  0.00    -0.237 OA
ATOM     86  O   UNL A   1      42.837  18.601  26.887  1.00  0.00    -0.744 OA
ENDBRANCH  82  83
ENDBRANCH  50  75
BRANCH  62  87
ATOM     87  C   UNL A   1      48.084  27.238  30.667  1.00  0.00     0.058 A 
ATOM     88  C   UNL A   1      48.486  26.494  31.786  1.00  0.00     0.135 A 
ATOM     89  C   UNL A   1      49.067  27.626  29.743  1.00  0.00     0.135 A 
ATOM     90  F   UNL A   1      47.583  26.108  32.700  1.00  0.00    -0.206 F 
ATOM     91  C   UNL A   1      49.821  26.162  31.992  1.00  0.00     0.059 A 
ATOM     92  C   UNL A   1      50.405  27.285  29.917  1.00  0.00     0.059 A 
ATOM     93  F   UNL A   1      48.731  28.330  28.652  1.00  0.00    -0.206 F 
ATOM     94  C   UNL A   1      50.773  26.562  31.052  1.00  0.00     0.060 A 
BRANCH  94  95
ATOM     95  S   UNL A   1      52.498  26.096  31.312  1.00  0.00     0.124 S 
ATOM     96  O   UNL A   1      52.357  24.811  31.988  1.00  0.00    -0.237 OA
ATOM     97  O   UNL A   1      53.019  26.041  29.949  1.00  0.00    -0.237 OA
ATOM     98  O   UNL A   1      53.021  27.184  32.132  1.00  0.00    -0.744 OA
ENDBRANCH  94  95
ENDBRANCH  62  87
ENDBRANCH  36  37
ENDBRANCH  29  31
ENDBRANCH  28  29
ENDBRANCH   1  28
TORSDOF 17
ENDMDL
MODEL 3
REMARK VINA RESULT:     -11.7      1.190      3.375
REMARK SMILES Cc1[nH]c2c(C(=O)N3CC[C@H](O)C[C@@H]3C(=O)OCCOC(=O)c3ccc(-c4c5nc(c(-c6c(F)cc(S(=O)(=O)[O-])cc6F)c6ccc([nH]6)c(-c6c(F)cc(S(=O)(=O)[O-])cc6F)c6nc(c(-c7c(F)cc(S(=O)(=O)[O-])cc7F)c7ccc4[nH]7)C=C6)C=C5)cc3)cccc2c1C
REMARK SMILES IDX 19 1 18 2 17 3 15 4 16 5 14 6 8 7 9 8 10 9 13 10 11 11 6 12
REMARK SMILES IDX 7 13 5 14 1 15 2 16 3 17 93 18 4 19 92 21 94 22 91 23 89 24
REMARK SMILES IDX 90 25 12 26 20 28 21 29 22 30 23 31 24 32 88 33 25 34 87 35
REMARK SMILES IDX 26 36 27 37 28 38 81 39 29 40 86 41 80 42 82 43 30 44 85 45
REMARK SMILES IDX 79 46 78 47 31 49 65 50 44 51 64 52 45 53 48 54 63 55 83 56
REMARK SMILES IDX 46 57 47 58 62 60 84 61 49 62 32 63 33 64 42 65 34 66 35 67
REMARK SMILES IDX 41 68 43 69 36 70 37 71 38 72 39 73 40 74 66 75 67 76 76 77
REMARK SMILES IDX 68 78 69 79 75 80 77 81 70 82 71 83 72 84 73 85 74 86 50 87
REMARK SMILES IDX 51 88 60 89 52 90 53 91 59 92 61 93 54 94 55 95 56 96 57 97
REMARK SMILES IDX 58 98
REMARK H PARENT 3 20 12 27 82 48 48 59
REMARK Flexibility Score: inf
ROOT
ATOM      1  C   UNL A   1      32.477  28.937  26.910  1.00  0.00     0.275 C 
ENDROOT
BRANCH   1   2
ATOM      2  C   UNL A   1      31.863  27.546  26.725  1.00  0.00     0.274 C 
BRANCH   2   3
ATOM      3  O   UNL A   1      32.859  26.543  26.438  1.00  0.00    -0.461 OA
BRANCH   3   4
ATOM      4  C   UNL A   1      32.415  25.264  26.317  1.00  0.00     0.329 C 
ATOM      5  O   UNL A   1      31.419  24.837  26.891  1.00  0.00    -0.250 OA
BRANCH   4   6
ATOM      6  C   UNL A   1      33.340  24.371  25.472  1.00  0.00     0.198 C 
ATOM      7  N   UNL A   1      32.672  23.986  24.228  1.00  0.00    -0.325 N 
ATOM      8  C   UNL A   1      31.893  22.748  24.219  1.00  0.00     0.123 C 
ATOM      9  C   UNL A   1      32.677  21.584  24.821  1.00  0.00     0.053 C 
ATOM     10  C   UNL A   1      34.038  23.204  26.166  1.00  0.00     0.069 C 
ATOM     11  C   UNL A   1      33.215  21.924  26.209  1.00  0.00     0.118 C 
BRANCH   7  12
ATOM     12  C   UNL A   1      33.115  24.597  23.064  1.00  0.00     0.256 C 
ATOM     13  O   UNL A   1      33.791  23.985  22.239  1.00  0.00    -0.269 OA
BRANCH  12  14
ATOM     14  C   UNL A   1      32.886  26.056  22.885  1.00  0.00     0.064 A 
ATOM     15  C   UNL A   1      28.051  26.865  23.788  1.00  0.00     0.064 C 
ATOM     16  C   UNL A   1      29.473  27.184  23.515  1.00  0.00     0.016 A 
ATOM     17  N   UNL A   1      30.424  26.200  23.479  1.00  0.00    -0.358 N 
ATOM     18  C   UNL A   1      30.121  28.388  23.300  1.00  0.00    -0.023 A 
ATOM     19  C   UNL A   1      31.650  26.696  23.108  1.00  0.00     0.059 A 
ATOM     20  H   UNL A   1      30.251  25.255  23.695  1.00  0.00     0.166 HD
ATOM     21  C   UNL A   1      31.498  28.082  23.038  1.00  0.00     0.003 A 
ATOM     22  C   UNL A   1      29.521  29.747  23.336  1.00  0.00     0.047 C 
ATOM     23  C   UNL A   1      32.633  28.875  22.764  1.00  0.00     0.010 A 
ATOM     24  C   UNL A   1      33.995  26.879  22.620  1.00  0.00     0.016 A 
ATOM     25  C   UNL A   1      33.874  28.265  22.563  1.00  0.00     0.002 A 
ENDBRANCH  12  14
ENDBRANCH   7  12
BRANCH  11  26
ATOM     26  O   UNL A   1      32.139  22.030  27.133  1.00  0.00    -0.393 OA
ATOM     27  H   UNL A   1      31.658  21.188  27.168  1.00  0.00     0.210 HD
ENDBRANCH  11  26
ENDBRANCH   4   6
ENDBRANCH   3   4
ENDBRANCH   2   3
ENDBRANCH   1   2
BRANCH   1  28
ATOM     28  O   UNL A   1      33.825  28.866  27.403  1.00  0.00    -0.458 OA
BRANCH  28  29
ATOM     29  C   UNL A   1      34.350  30.046  27.806  1.00  0.00     0.338 C 
ATOM     30  O   UNL A   1      33.746  31.092  27.983  1.00  0.00    -0.246 OA
BRANCH  29  31
ATOM     31  C   UNL A   1      35.764  29.848  28.166  1.00  0.00     0.060 A 
ATOM     32  C   UNL A   1      36.733  29.974  27.166  1.00  0.00     0.016 A 
ATOM     33  C   UNL A   1      36.131  29.485  29.461  1.00  0.00     0.016 A 
ATOM     34  C   UNL A   1      38.070  29.723  27.444  1.00  0.00     0.010 A 
ATOM     35  C   UNL A   1      37.479  29.241  29.744  1.00  0.00     0.010 A 
ATOM     36  C   UNL A   1      38.451  29.345  28.733  1.00  0.00    -0.014 A 
BRANCH  36  37
ATOM     37  C   UNL A   1      39.866  29.010  29.004  1.00  0.00     0.031 A 
ATOM     38  C   UNL A   1      40.767  30.050  29.605  1.00  0.00     0.074 A 
ATOM     39  C   UNL A   1      40.323  27.775  28.732  1.00  0.00     0.049 A 
ATOM     40  N   UNL A   1      42.053  30.000  29.826  1.00  0.00    -0.248 NA
ATOM     41  C   UNL A   1      40.132  31.316  30.008  1.00  0.00     0.031 C 
ATOM     42  C   UNL A   1      39.518  26.672  28.205  1.00  0.00     0.029 A 
ATOM     43  N   UNL A   1      41.581  27.242  28.856  1.00  0.00    -0.354 N 
ATOM     44  C   UNL A   1      42.390  31.233  30.368  1.00  0.00     0.074 A 
ATOM     45  C   UNL A   1      41.174  32.016  30.435  1.00  0.00     0.031 C 
ATOM     46  C   UNL A   1      40.303  25.594  28.044  1.00  0.00     0.029 A 
ATOM     47  C   UNL A   1      41.672  25.945  28.411  1.00  0.00     0.049 A 
ATOM     48  H   UNL A   1      42.343  27.740  29.229  1.00  0.00     0.167 HD
ATOM     49  C   UNL A   1      43.607  31.670  30.769  1.00  0.00     0.037 A 
ATOM     50  C   UNL A   1      42.747  25.144  28.285  1.00  0.00     0.037 A 
ATOM     51  C   UNL A   1      44.804  30.872  30.711  1.00  0.00     0.049 A 
ATOM     52  C   UNL A   1      44.097  25.671  28.687  1.00  0.00     0.074 A 
ATOM     53  C   UNL A   1      46.086  31.212  31.103  1.00  0.00     0.029 A 
ATOM     54  N   UNL A   1      44.864  29.571  30.231  1.00  0.00    -0.354 N 
ATOM     55  N   UNL A   1      44.409  26.846  29.182  1.00  0.00    -0.248 NA
ATOM     56  C   UNL A   1      45.243  24.771  28.505  1.00  0.00     0.031 C 
ATOM     57  C   UNL A   1      46.929  30.130  30.824  1.00  0.00     0.029 A 
ATOM     58  C   UNL A   1      46.164  29.101  30.298  1.00  0.00     0.049 A 
ATOM     59  H   UNL A   1      44.095  29.058  29.892  1.00  0.00     0.167 HD
ATOM     60  C   UNL A   1      45.783  26.818  29.393  1.00  0.00     0.074 A 
ATOM     61  C   UNL A   1      46.240  25.506  28.979  1.00  0.00     0.031 C 
ATOM     62  C   UNL A   1      46.593  27.788  29.884  1.00  0.00     0.037 A 
BRANCH  49  63
ATOM     63  C   UNL A   1      43.708  33.083  31.268  1.00  0.00     0.058 A 
ATOM     64  C   UNL A   1      43.916  34.165  30.398  1.00  0.00     0.135 A 
ATOM     65  C   UNL A   1      43.573  33.361  32.638  1.00  0.00     0.135 A 
ATOM     66  F   UNL A   1      44.073  33.953  29.082  1.00  0.00    -0.206 F 
ATOM     67  C   UNL A   1      44.009  35.470  30.872  1.00  0.00     0.059 A 
ATOM     68  C   UNL A   1      43.640  34.659  33.132  1.00  0.00     0.059 A 
ATOM     69  F   UNL A   1      43.378  32.362  33.514  1.00  0.00    -0.206 F 
ATOM     70  C   UNL A   1      43.873  35.707  32.241  1.00  0.00     0.060 A 
BRANCH  70  71
ATOM     71  S   UNL A   1      43.998  37.405  32.843  1.00  0.00     0.124 S 
ATOM     72  O   UNL A   1      43.793  38.164  31.613  1.00  0.00    -0.237 OA
ATOM     73  O   UNL A   1      42.914  37.474  33.817  1.00  0.00    -0.237 OA
ATOM     74  O   UNL A   1      45.344  37.469  33.403  1.00  0.00    -0.744 OA
ENDBRANCH  70  71
ENDBRANCH  49  63
BRANCH  50  75
ATOM     75  C   UNL A   1      42.592  23.774  27.731  1.00  0.00     0.058 A 
ATOM     76  C   UNL A   1      42.574  23.550  26.347  1.00  0.00     0.135 A 
ATOM     77  C   UNL A   1      42.468  22.659  28.575  1.00  0.00     0.135 A 
ATOM     78  F   UNL A   1      42.679  24.586  25.499  1.00  0.00    -0.206 F 
ATOM     79  C   UNL A   1      42.426  22.273  25.816  1.00  0.00     0.059 A 
ATOM     80  C   UNL A   1      42.343  21.369  28.069  1.00  0.00     0.059 A 
ATOM     81  F   UNL A   1      42.490  22.817  29.907  1.00  0.00    -0.206 F 
ATOM     82  C   UNL A   1      42.312  21.186  26.687  1.00  0.00     0.060 A 
BRANCH  82  83
ATOM     83  S   UNL A   1      42.165  19.527  25.992  1.00  0.00     0.124 S 
ATOM     84  O   UNL A   1      43.025  19.623  24.818  1.00  0.00    -0.237 OA
ATOM     85  O   UNL A   1      42.661  18.689  27.080  1.00  0.00    -0.237 OA
ATOM     86  O   UNL A   1      40.736  19.404  25.720  1.00  0.00    -0.744 OA
ENDBRANCH  82  83
ENDBRANCH  50  75
BRANCH  62  87
ATOM     87  C   UNL A   1      48.050  27.454  30.029  1.00  0.00     0.058 A 
ATOM     88  C   UNL A   1      48.956  27.641  28.975  1.00  0.00     0.135 A 
ATOM     89  C   UNL A   1      48.551  26.986  31.255  1.00  0.00     0.135 A 
ATOM     90  F   UNL A   1      48.523  28.079  27.783  1.00  0.00    -0.206 F 
ATOM     91  C   UNL A   1      50.309  27.355  29.124  1.00  0.00     0.059 A 
ATOM     92  C   UNL A   1      49.904  26.716  31.433  1.00  0.00     0.059 A 
ATOM     93  F   UNL A   1      47.727  26.801  32.297  1.00  0.00    -0.206 F 
ATOM     94  C   UNL A   1      50.774  26.893  30.357  1.00  0.00     0.060 A 
BRANCH  94  95
ATOM     95  S   UNL A   1      52.537  26.557  30.549  1.00  0.00     0.124 S 
ATOM     96  O   UNL A   1      52.938  26.293  29.171  1.00  0.00    -0.237 OA
ATOM     97  O   UNL A   1      53.034  27.802  31.127  1.00  0.00    -0.237 OA
ATOM     98  O   UNL A   1      52.566  25.404  31.444  1.00  0.00    -0.744 OA
ENDBRANCH  94  95
ENDBRANCH  62  87
ENDBRANCH  36  37
ENDBRANCH  29  31
ENDBRANCH  28  29
ENDBRANCH   1  28
TORSDOF 17
ENDMDL
