MODEL 1
REMARK VINA RESULT:     -12.8      0.000      0.000
REMARK SMILES COc1c[nH]c(C[N@H+]2CCC[C@@H](c3ccc(C(=O)OCCOC(=O)c4ccc(-c5c6nc(c(-c7c(F)cc(S(=O)(=O)[O-])cc7F)c7ccc([nH]7)c(-c7c(F)cc(S(=O)(=O)[O-])cc7F)c7nc(c(-c8c(F)cc(S(=O)(=O)[O-])cc8F)c8ccc5[nH]8)C=C7)C=C6)cc4)cc3)C2)cc1=O
REMARK SMILES IDX 20 1 19 2 17 3 18 4 16 5 13 6 14 7 92 8 15 9 91 10 12 11
REMARK SMILES IDX 8 12 9 13 93 14 10 16 11 17 7 18 6 19 3 20 4 21 95 22 5 23
REMARK SMILES IDX 94 24 96 25 2 27 1 28 21 29 22 30 23 31 24 32 25 33 26 34
REMARK SMILES IDX 90 35 27 36 89 37 28 38 29 39 30 40 83 41 31 42 88 43 82 44
REMARK SMILES IDX 84 45 32 46 87 47 81 48 80 49 33 51 67 52 46 53 66 54 47 55
REMARK SMILES IDX 50 56 65 57 85 58 48 59 49 60 64 62 86 63 51 64 34 65 35 66
REMARK SMILES IDX 44 67 36 68 37 69 43 70 45 71 38 72 39 73 40 74 41 75 42 76
REMARK SMILES IDX 68 77 69 78 78 79 70 80 71 81 77 82 79 83 72 84 73 85 74 86
REMARK SMILES IDX 75 87 76 88 52 89 53 90 62 91 54 92 55 93 61 94 63 95 56 96
REMARK SMILES IDX 57 97 58 98 59 99 60 100
REMARK H PARENT 8 15 5 26 84 50 50 61
REMARK Flexibility Score: inf
ROOT
ATOM      1  C   UNL A   1      33.860  30.457  27.157  1.00  0.00     0.275 C 
ENDROOT
BRANCH   1   2
ATOM      2  O   UNL A   1      32.429  30.275  27.168  1.00  0.00    -0.458 OA
BRANCH   2   3
ATOM      3  C   UNL A   1      31.922  29.699  26.049  1.00  0.00     0.338 C 
ATOM      4  O   UNL A   1      31.251  30.247  25.194  1.00  0.00    -0.246 OA
BRANCH   3   5
ATOM      5  C   UNL A   1      32.366  28.293  25.915  1.00  0.00     0.060 A 
ATOM      6  C   UNL A   1      33.209  25.609  25.994  1.00  0.00    -0.039 A 
ATOM      7  C   UNL A   1      32.000  25.996  26.580  1.00  0.00     0.005 A 
ATOM      8  C   UNL A   1      33.964  26.578  25.312  1.00  0.00     0.005 A 
ATOM      9  C   UNL A   1      31.616  27.326  26.582  1.00  0.00     0.016 A 
ATOM     10  C   UNL A   1      33.536  27.916  25.254  1.00  0.00     0.016 A 
BRANCH   6  11
ATOM     11  C   UNL A   1      33.727  24.198  26.239  1.00  0.00     0.074 C 
ATOM     12  N   UNL A   1      33.195  21.799  25.597  1.00  0.00    -0.329 N 
ATOM     13  C   UNL A   1      34.545  21.644  25.037  1.00  0.00     0.262 C 
ATOM     14  C   UNL A   1      32.759  23.198  25.554  1.00  0.00     0.270 C 
ATOM     15  H   UNL A   1      33.240  21.530  26.580  1.00  0.00     0.348 HD
ATOM     16  C   UNL A   1      35.557  22.529  25.771  1.00  0.00     0.062 C 
ATOM     17  C   UNL A   1      35.159  24.001  25.714  1.00  0.00     0.020 C 
BRANCH  12  18
ATOM     18  C   UNL A   1      32.219  20.885  24.962  1.00  0.00     0.317 C 
BRANCH  18  19
ATOM     19  C   UNL A   1      32.609  19.415  24.815  1.00  0.00     0.074 A 
ATOM     20  C   UNL A   1      33.149  16.603  24.736  1.00  0.00     0.182 A 
ATOM     21  C   UNL A   1      32.907  17.269  25.874  1.00  0.00     0.133 A 
ATOM     22  C   UNL A   1      33.205  17.436  23.484  1.00  0.00     0.223 A 
ATOM     23  N   UNL A   1      32.710  18.623  25.945  1.00  0.00    -0.357 N 
ATOM     24  C   UNL A   1      32.869  18.885  23.605  1.00  0.00     0.083 A 
ATOM     25  O   UNL A   1      33.504  16.986  22.381  1.00  0.00    -0.286 OA
ATOM     26  H   UNL A   1      32.637  19.047  26.830  1.00  0.00     0.166 HD
BRANCH  20  27
ATOM     27  O   UNL A   1      33.244  15.227  24.738  1.00  0.00    -0.491 OA
ATOM     28  C   UNL A   1      32.525  14.605  25.796  1.00  0.00     0.278 C 
ENDBRANCH  20  27
ENDBRANCH  18  19
ENDBRANCH  12  18
ENDBRANCH   6  11
ENDBRANCH   3   5
ENDBRANCH   2   3
ENDBRANCH   1   2
BRANCH   1  29
ATOM     29  C   UNL A   1      34.286  31.650  28.016  1.00  0.00     0.275 C 
BRANCH  29  30
ATOM     30  O   UNL A   1      35.717  31.690  28.177  1.00  0.00    -0.458 OA
BRANCH  30  31
ATOM     31  C   UNL A   1      36.177  31.183  29.343  1.00  0.00     0.338 C 
ATOM     32  O   UNL A   1      35.671  31.299  30.449  1.00  0.00    -0.246 OA
BRANCH  31  33
ATOM     33  C   UNL A   1      37.394  30.386  29.124  1.00  0.00     0.060 A 
ATOM     34  C   UNL A   1      38.238  30.163  30.202  1.00  0.00     0.016 A 
ATOM     35  C   UNL A   1      37.812  30.055  27.838  1.00  0.00     0.016 A 
ATOM     36  C   UNL A   1      39.564  29.793  29.986  1.00  0.00     0.010 A 
ATOM     37  C   UNL A   1      39.092  29.517  27.644  1.00  0.00     0.010 A 
ATOM     38  C   UNL A   1      40.013  29.434  28.706  1.00  0.00    -0.014 A 
BRANCH  38  39
ATOM     39  C   UNL A   1      41.427  28.992  28.483  1.00  0.00     0.031 A 
ATOM     40  C   UNL A   1      42.571  29.979  28.574  1.00  0.00     0.074 A 
ATOM     41  C   UNL A   1      41.705  27.699  28.200  1.00  0.00     0.049 A 
ATOM     42  N   UNL A   1      43.824  29.834  28.220  1.00  0.00    -0.248 NA
ATOM     43  C   UNL A   1      42.262  31.313  29.116  1.00  0.00     0.031 C 
ATOM     44  C   UNL A   1      40.720  26.617  28.110  1.00  0.00     0.029 A 
ATOM     45  N   UNL A   1      42.900  27.068  27.939  1.00  0.00    -0.354 N 
ATOM     46  C   UNL A   1      44.433  31.068  28.432  1.00  0.00     0.074 A 
ATOM     47  C   UNL A   1      43.410  31.955  28.940  1.00  0.00     0.031 C 
ATOM     48  C   UNL A   1      41.350  25.459  27.873  1.00  0.00     0.029 A 
ATOM     49  C   UNL A   1      42.768  25.724  27.674  1.00  0.00     0.049 A 
ATOM     50  H   UNL A   1      43.766  27.536  27.942  1.00  0.00     0.167 HD
ATOM     51  C   UNL A   1      45.724  31.428  28.223  1.00  0.00     0.037 A 
ATOM     52  C   UNL A   1      43.664  24.808  27.258  1.00  0.00     0.037 A 
ATOM     53  C   UNL A   1      46.755  30.522  27.777  1.00  0.00     0.049 A 
ATOM     54  C   UNL A   1      45.081  25.235  27.005  1.00  0.00     0.074 A 
ATOM     55  C   UNL A   1      48.097  30.785  27.557  1.00  0.00     0.029 A 
ATOM     56  N   UNL A   1      46.565  29.176  27.500  1.00  0.00    -0.354 N 
ATOM     57  N   UNL A   1      45.623  26.420  27.152  1.00  0.00    -0.248 NA
ATOM     58  C   UNL A   1      46.004  24.206  26.507  1.00  0.00     0.031 C 
ATOM     59  C   UNL A   1      48.708  29.610  27.107  1.00  0.00     0.029 A 
ATOM     60  C   UNL A   1      47.760  28.600  27.095  1.00  0.00     0.049 A 
ATOM     61  H   UNL A   1      45.707  28.699  27.579  1.00  0.00     0.167 HD
ATOM     62  C   UNL A   1      46.954  26.277  26.781  1.00  0.00     0.074 A 
ATOM     63  C   UNL A   1      47.140  24.886  26.418  1.00  0.00     0.031 C 
ATOM     64  C   UNL A   1      47.933  27.213  26.740  1.00  0.00     0.037 A 
BRANCH  51  65
ATOM     65  C   UNL A   1      46.100  32.873  28.439  1.00  0.00     0.058 A 
ATOM     66  C   UNL A   1      46.018  33.830  27.418  1.00  0.00     0.135 A 
ATOM     67  C   UNL A   1      46.508  33.312  29.711  1.00  0.00     0.135 A 
ATOM     68  F   UNL A   1      45.646  33.469  26.180  1.00  0.00    -0.206 F 
ATOM     69  C   UNL A   1      46.357  35.164  27.638  1.00  0.00     0.059 A 
ATOM     70  C   UNL A   1      46.823  34.645  29.963  1.00  0.00     0.059 A 
ATOM     71  F   UNL A   1      46.601  32.442  30.730  1.00  0.00    -0.206 F 
ATOM     72  C   UNL A   1      46.760  35.562  28.915  1.00  0.00     0.060 A 
BRANCH  72  73
ATOM     73  S   UNL A   1      47.197  37.293  29.186  1.00  0.00     0.124 S 
ATOM     74  O   UNL A   1      45.902  37.869  29.536  1.00  0.00    -0.237 OA
ATOM     75  O   UNL A   1      48.166  37.205  30.273  1.00  0.00    -0.237 OA
ATOM     76  O   UNL A   1      47.741  37.713  27.898  1.00  0.00    -0.744 OA
ENDBRANCH  72  73
ENDBRANCH  51  65
BRANCH  52  77
ATOM     77  C   UNL A   1      43.228  23.408  27.004  1.00  0.00     0.058 A 
ATOM     78  C   UNL A   1      43.030  22.936  25.698  1.00  0.00     0.135 A 
ATOM     79  C   UNL A   1      43.027  22.505  28.062  1.00  0.00     0.135 A 
ATOM     80  F   UNL A   1      43.195  23.761  24.654  1.00  0.00    -0.206 F 
ATOM     81  C   UNL A   1      42.644  21.622  25.450  1.00  0.00     0.059 A 
ATOM     82  C   UNL A   1      42.675  21.179  27.837  1.00  0.00     0.059 A 
ATOM     83  F   UNL A   1      43.215  22.902  29.331  1.00  0.00    -0.206 F 
ATOM     84  C   UNL A   1      42.476  20.749  26.527  1.00  0.00     0.060 A 
BRANCH  84  85
ATOM     85  S   UNL A   1      42.040  19.029  26.190  1.00  0.00     0.124 S 
ATOM     86  O   UNL A   1      40.631  19.148  25.834  1.00  0.00    -0.237 OA
ATOM     87  O   UNL A   1      42.949  18.690  25.100  1.00  0.00    -0.237 OA
ATOM     88  O   UNL A   1      42.318  18.359  27.458  1.00  0.00    -0.744 OA
ENDBRANCH  84  85
ENDBRANCH  52  77
BRANCH  64  89
ATOM     89  C   UNL A   1      49.304  26.757  26.327  1.00  0.00     0.058 A 
ATOM     90  C   UNL A   1      49.796  26.979  25.032  1.00  0.00     0.135 A 
ATOM     91  C   UNL A   1      50.148  26.119  27.249  1.00  0.00     0.135 A 
ATOM     92  F   UNL A   1      49.026  27.576  24.109  1.00  0.00    -0.206 F 
ATOM     93  C   UNL A   1      51.069  26.559  24.658  1.00  0.00     0.059 A 
ATOM     94  C   UNL A   1      51.434  25.716  26.906  1.00  0.00     0.059 A 
ATOM     95  F   UNL A   1      49.728  25.890  28.504  1.00  0.00    -0.206 F 
ATOM     96  C   UNL A   1      51.881  25.928  25.602  1.00  0.00     0.060 A 
BRANCH  96  97
ATOM     97  S   UNL A   1      53.540  25.413  25.112  1.00  0.00     0.124 S 
ATOM     98  O   UNL A   1      54.369  26.394  25.805  1.00  0.00    -0.237 OA
ATOM     99  O   UNL A   1      53.608  24.049  25.628  1.00  0.00    -0.237 OA
ATOM    100  O   UNL A   1      53.516  25.526  23.658  1.00  0.00    -0.744 OA
ENDBRANCH  96  97
ENDBRANCH  64  89
ENDBRANCH  38  39
ENDBRANCH  31  33
ENDBRANCH  30  31
ENDBRANCH  29  30
ENDBRANCH   1  29
TORSDOF 18
ENDMDL
MODEL 2
REMARK VINA RESULT:     -12.4      0.776      8.145
REMARK SMILES COc1c[nH]c(C[N@H+]2CCC[C@@H](c3ccc(C(=O)OCCOC(=O)c4ccc(-c5c6nc(c(-c7c(F)cc(S(=O)(=O)[O-])cc7F)c7ccc([nH]7)c(-c7c(F)cc(S(=O)(=O)[O-])cc7F)c7nc(c(-c8c(F)cc(S(=O)(=O)[O-])cc8F)c8ccc5[nH]8)C=C7)C=C6)cc4)cc3)C2)cc1=O
REMARK SMILES IDX 20 1 19 2 17 3 18 4 16 5 13 6 14 7 92 8 15 9 91 10 12 11
REMARK SMILES IDX 8 12 9 13 93 14 10 16 11 17 7 18 6 19 3 20 4 21 95 22 5 23
REMARK SMILES IDX 94 24 96 25 2 27 1 28 21 29 22 30 23 31 24 32 25 33 26 34
REMARK SMILES IDX 90 35 27 36 89 37 28 38 29 39 30 40 83 41 31 42 88 43 82 44
REMARK SMILES IDX 84 45 32 46 87 47 81 48 80 49 33 51 67 52 46 53 66 54 47 55
REMARK SMILES IDX 50 56 65 57 85 58 48 59 49 60 64 62 86 63 51 64 34 65 35 66
REMARK SMILES IDX 44 67 36 68 37 69 43 70 45 71 38 72 39 73 40 74 41 75 42 76
REMARK SMILES IDX 68 77 69 78 78 79 70 80 71 81 77 82 79 83 72 84 73 85 74 86
REMARK SMILES IDX 75 87 76 88 52 89 53 90 62 91 54 92 55 93 61 94 63 95 56 96
REMARK SMILES IDX 57 97 58 98 59 99 60 100
REMARK H PARENT 8 15 5 26 84 50 50 61
REMARK Flexibility Score: inf
ROOT
ATOM      1  C   UNL A   1      34.012  30.956  27.230  1.00  0.00     0.275 C 
ENDROOT
BRANCH   1   2
ATOM      2  O   UNL A   1      32.658  30.490  27.410  1.00  0.00    -0.458 OA
BRANCH   2   3
ATOM      3  C   UNL A   1      32.069  30.011  26.286  1.00  0.00     0.338 C 
ATOM      4  O   UNL A   1      31.373  30.638  25.510  1.00  0.00    -0.246 OA
BRANCH   3   5
ATOM      5  C   UNL A   1      32.451  28.603  26.033  1.00  0.00     0.060 A 
ATOM      6  C   UNL A   1      33.298  25.924  25.863  1.00  0.00    -0.039 A 
ATOM      7  C   UNL A   1      32.380  26.323  26.839  1.00  0.00     0.005 A 
ATOM      8  C   UNL A   1      33.743  26.877  24.931  1.00  0.00     0.005 A 
ATOM      9  C   UNL A   1      32.006  27.651  26.949  1.00  0.00     0.016 A 
ATOM     10  C   UNL A   1      33.306  28.212  25.001  1.00  0.00     0.016 A 
BRANCH   6  11
ATOM     11  C   UNL A   1      33.888  24.521  25.936  1.00  0.00     0.074 C 
ATOM     12  N   UNL A   1      33.246  22.120  25.414  1.00  0.00    -0.329 N 
ATOM     13  C   UNL A   1      34.401  22.003  24.513  1.00  0.00     0.262 C 
ATOM     14  C   UNL A   1      32.790  23.509  25.514  1.00  0.00     0.270 C 
ATOM     15  H   UNL A   1      33.555  21.839  26.345  1.00  0.00     0.348 HD
ATOM     16  C   UNL A   1      35.557  22.899  24.970  1.00  0.00     0.062 C 
ATOM     17  C   UNL A   1      35.132  24.363  25.047  1.00  0.00     0.020 C 
BRANCH  12  18
ATOM     18  C   UNL A   1      32.153  21.194  25.044  1.00  0.00     0.317 C 
BRANCH  18  19
ATOM     19  C   UNL A   1      32.510  19.727  24.806  1.00  0.00     0.074 A 
ATOM     20  C   UNL A   1      33.022  16.918  24.583  1.00  0.00     0.182 A 
ATOM     21  C   UNL A   1      32.965  17.559  25.759  1.00  0.00     0.133 A 
ATOM     22  C   UNL A   1      32.883  17.777  23.355  1.00  0.00     0.223 A 
ATOM     23  N   UNL A   1      32.785  18.911  25.888  1.00  0.00    -0.357 N 
ATOM     24  C   UNL A   1      32.574  19.224  23.559  1.00  0.00     0.083 A 
ATOM     25  O   UNL A   1      33.002  17.351  22.210  1.00  0.00    -0.286 OA
ATOM     26  H   UNL A   1      32.855  19.316  26.783  1.00  0.00     0.166 HD
BRANCH  20  27
ATOM     27  O   UNL A   1      33.111  15.542  24.541  1.00  0.00    -0.491 OA
ATOM     28  C   UNL A   1      32.471  14.893  25.633  1.00  0.00     0.278 C 
ENDBRANCH  20  27
ENDBRANCH  18  19
ENDBRANCH  12  18
ENDBRANCH   6  11
ENDBRANCH   3   5
ENDBRANCH   2   3
ENDBRANCH   1   2
BRANCH   1  29
ATOM     29  C   UNL A   1      34.807  30.903  28.536  1.00  0.00     0.275 C 
BRANCH  29  30
ATOM     30  O   UNL A   1      35.682  29.758  28.565  1.00  0.00    -0.458 OA
BRANCH  30  31
ATOM     31  C   UNL A   1      36.459  29.659  29.666  1.00  0.00     0.338 C 
ATOM     32  O   UNL A   1      36.091  29.481  30.817  1.00  0.00    -0.246 OA
BRANCH  31  33
ATOM     33  C   UNL A   1      37.885  29.738  29.310  1.00  0.00     0.060 A 
ATOM     34  C   UNL A   1      38.230  29.726  27.966  1.00  0.00     0.016 A 
ATOM     35  C   UNL A   1      38.874  29.599  30.279  1.00  0.00     0.016 A 
ATOM     36  C   UNL A   1      39.525  29.385  27.579  1.00  0.00     0.010 A 
ATOM     37  C   UNL A   1      40.209  29.429  29.885  1.00  0.00     0.010 A 
ATOM     38  C   UNL A   1      40.550  29.257  28.529  1.00  0.00    -0.014 A 
BRANCH  38  39
ATOM     39  C   UNL A   1      41.951  28.937  28.108  1.00  0.00     0.031 A 
ATOM     40  C   UNL A   1      42.327  27.537  27.669  1.00  0.00     0.074 A 
ATOM     41  C   UNL A   1      42.905  29.896  28.111  1.00  0.00     0.049 A 
ATOM     42  N   UNL A   1      43.514  27.021  27.466  1.00  0.00    -0.248 NA
ATOM     43  C   UNL A   1      41.224  26.586  27.449  1.00  0.00     0.031 C 
ATOM     44  C   UNL A   1      42.698  31.300  28.475  1.00  0.00     0.029 A 
ATOM     45  N   UNL A   1      44.242  29.840  27.793  1.00  0.00    -0.354 N 
ATOM     46  C   UNL A   1      43.307  25.678  27.161  1.00  0.00     0.074 A 
ATOM     47  C   UNL A   1      41.878  25.456  27.212  1.00  0.00     0.031 C 
ATOM     48  C   UNL A   1      43.841  31.978  28.307  1.00  0.00     0.029 A 
ATOM     49  C   UNL A   1      44.895  31.043  27.941  1.00  0.00     0.049 A 
ATOM     50  H   UNL A   1      44.689  29.017  27.490  1.00  0.00     0.167 HD
ATOM     51  C   UNL A   1      44.220  24.721  26.865  1.00  0.00     0.037 A 
ATOM     52  C   UNL A   1      46.201  31.361  27.853  1.00  0.00     0.037 A 
ATOM     53  C   UNL A   1      45.638  24.963  26.752  1.00  0.00     0.049 A 
ATOM     54  C   UNL A   1      47.199  30.279  27.554  1.00  0.00     0.074 A 
ATOM     55  C   UNL A   1      46.643  24.064  26.435  1.00  0.00     0.029 A 
ATOM     56  N   UNL A   1      46.252  26.194  26.933  1.00  0.00    -0.354 N 
ATOM     57  N   UNL A   1      46.989  29.005  27.331  1.00  0.00    -0.248 NA
ATOM     58  C   UNL A   1      48.614  30.675  27.518  1.00  0.00     0.031 C 
ATOM     59  C   UNL A   1      47.867  24.741  26.467  1.00  0.00     0.029 A 
ATOM     60  C   UNL A   1      47.621  26.075  26.752  1.00  0.00     0.049 A 
ATOM     61  H   UNL A   1      45.783  27.030  27.158  1.00  0.00     0.167 HD
ATOM     62  C   UNL A   1      48.243  28.448  27.110  1.00  0.00     0.074 A 
ATOM     63  C   UNL A   1      49.204  29.527  27.212  1.00  0.00     0.031 C 
ATOM     64  C   UNL A   1      48.568  27.158  26.852  1.00  0.00     0.037 A 
BRANCH  51  65
ATOM     65  C   UNL A   1      43.729  23.308  26.674  1.00  0.00     0.058 A 
ATOM     66  C   UNL A   1      43.722  22.679  25.420  1.00  0.00     0.135 A 
ATOM     67  C   UNL A   1      43.300  22.555  27.781  1.00  0.00     0.135 A 
ATOM     68  F   UNL A   1      44.110  23.351  24.324  1.00  0.00    -0.206 F 
ATOM     69  C   UNL A   1      43.277  21.367  25.263  1.00  0.00     0.059 A 
ATOM     70  C   UNL A   1      42.879  21.233  27.653  1.00  0.00     0.059 A 
ATOM     71  F   UNL A   1      43.289  23.101  29.007  1.00  0.00    -0.206 F 
ATOM     72  C   UNL A   1      42.856  20.653  26.386  1.00  0.00     0.060 A 
BRANCH  72  73
ATOM     73  S   UNL A   1      42.281  18.955  26.168  1.00  0.00     0.124 S 
ATOM     74  O   UNL A   1      43.208  18.462  25.153  1.00  0.00    -0.237 OA
ATOM     75  O   UNL A   1      42.448  18.393  27.504  1.00  0.00    -0.237 OA
ATOM     76  O   UNL A   1      40.899  19.117  25.727  1.00  0.00    -0.744 OA
ENDBRANCH  72  73
ENDBRANCH  51  65
BRANCH  52  77
ATOM     77  C   UNL A   1      46.640  32.761  28.108  1.00  0.00     0.058 A 
ATOM     78  C   UNL A   1      47.055  33.169  29.384  1.00  0.00     0.135 A 
ATOM     79  C   UNL A   1      46.680  33.711  27.073  1.00  0.00     0.135 A 
ATOM     80  F   UNL A   1      47.024  32.305  30.409  1.00  0.00    -0.206 F 
ATOM     81  C   UNL A   1      47.489  34.470  29.626  1.00  0.00     0.059 A 
ATOM     82  C   UNL A   1      47.141  35.005  27.283  1.00  0.00     0.059 A 
ATOM     83  F   UNL A   1      46.305  33.368  25.830  1.00  0.00    -0.206 F 
ATOM     84  C   UNL A   1      47.535  35.378  28.567  1.00  0.00     0.060 A 
BRANCH  84  85
ATOM     85  S   UNL A   1      48.162  37.043  28.878  1.00  0.00     0.124 S 
ATOM     86  O   UNL A   1      49.508  36.959  28.323  1.00  0.00    -0.237 OA
ATOM     87  O   UNL A   1      47.215  37.871  28.137  1.00  0.00    -0.237 OA
ATOM     88  O   UNL A   1      48.083  37.163  30.331  1.00  0.00    -0.744 OA
ENDBRANCH  84  85
ENDBRANCH  52  77
BRANCH  64  89
ATOM     89  C   UNL A   1      50.020  26.849  26.620  1.00  0.00     0.058 A 
ATOM     90  C   UNL A   1      50.892  26.562  27.681  1.00  0.00     0.135 A 
ATOM     91  C   UNL A   1      50.538  26.807  25.316  1.00  0.00     0.135 A 
ATOM     92  F   UNL A   1      50.451  26.599  28.948  1.00  0.00    -0.206 F 
ATOM     93  C   UNL A   1      52.234  26.271  27.459  1.00  0.00     0.059 A 
ATOM     94  C   UNL A   1      51.870  26.490  25.068  1.00  0.00     0.059 A 
ATOM     95  F   UNL A   1      49.744  27.064  24.265  1.00  0.00    -0.206 F 
ATOM     96  C   UNL A   1      52.714  26.237  26.148  1.00  0.00     0.060 A 
BRANCH  96  97
ATOM     97  S   UNL A   1      54.451  25.831  25.871  1.00  0.00     0.124 S 
ATOM     98  O   UNL A   1      54.498  25.718  24.417  1.00  0.00    -0.237 OA
ATOM     99  O   UNL A   1      55.137  26.987  26.440  1.00  0.00    -0.237 OA
ATOM    100  O   UNL A   1      54.629  24.581  26.603  1.00  0.00    -0.744 OA
ENDBRANCH  96  97
ENDBRANCH  64  89
ENDBRANCH  38  39
ENDBRANCH  31  33
ENDBRANCH  30  31
ENDBRANCH  29  30
ENDBRANCH   1  29
TORSDOF 18
ENDMDL
MODEL 3
REMARK VINA RESULT:     -12.3      6.539     11.401
REMARK SMILES COc1c[nH]c(C[N@H+]2CCC[C@@H](c3ccc(C(=O)OCCOC(=O)c4ccc(-c5c6nc(c(-c7c(F)cc(S(=O)(=O)[O-])cc7F)c7ccc([nH]7)c(-c7c(F)cc(S(=O)(=O)[O-])cc7F)c7nc(c(-c8c(F)cc(S(=O)(=O)[O-])cc8F)c8ccc5[nH]8)C=C7)C=C6)cc4)cc3)C2)cc1=O
REMARK SMILES IDX 20 1 19 2 17 3 18 4 16 5 13 6 14 7 92 8 15 9 91 10 12 11
REMARK SMILES IDX 8 12 9 13 93 14 10 16 11 17 7 18 6 19 3 20 4 21 95 22 5 23
REMARK SMILES IDX 94 24 96 25 2 27 1 28 21 29 22 30 23 31 24 32 25 33 26 34
REMARK SMILES IDX 90 35 27 36 89 37 28 38 29 39 30 40 83 41 31 42 88 43 82 44
REMARK SMILES IDX 84 45 32 46 87 47 81 48 80 49 33 51 67 52 46 53 66 54 47 55
REMARK SMILES IDX 50 56 65 57 85 58 48 59 49 60 64 62 86 63 51 64 34 65 35 66
REMARK SMILES IDX 44 67 36 68 37 69 43 70 45 71 38 72 39 73 40 74 41 75 42 76
REMARK SMILES IDX 68 77 69 78 78 79 70 80 71 81 77 82 79 83 72 84 73 85 74 86
REMARK SMILES IDX 75 87 76 88 52 89 53 90 62 91 54 92 55 93 61 94 63 95 56 96
REMARK SMILES IDX 57 97 58 98 59 99 60 100
REMARK H PARENT 8 15 5 26 84 50 50 61
REMARK Flexibility Score: inf
ROOT
ATOM      1  C   UNL A   1      42.285  22.374  27.112  1.00  0.00     0.275 C 
ENDROOT
BRANCH   1   2
ATOM      2  O   UNL A   1      40.869  22.249  27.363  1.00  0.00    -0.458 OA
BRANCH   2   3
ATOM      3  C   UNL A   1      40.261  21.238  26.694  1.00  0.00     0.338 C 
ATOM      4  O   UNL A   1      40.590  20.066  26.700  1.00  0.00    -0.246 OA
BRANCH   3   5
ATOM      5  C   UNL A   1      39.042  21.706  25.997  1.00  0.00     0.060 A 
ATOM      6  C   UNL A   1      36.598  22.660  24.976  1.00  0.00    -0.039 A 
ATOM      7  C   UNL A   1      37.410  23.477  25.768  1.00  0.00     0.005 A 
ATOM      8  C   UNL A   1      37.057  21.372  24.651  1.00  0.00     0.005 A 
ATOM      9  C   UNL A   1      38.586  22.985  26.309  1.00  0.00     0.016 A 
ATOM     10  C   UNL A   1      38.287  20.899  25.143  1.00  0.00     0.016 A 
BRANCH   6  11
ATOM     11  C   UNL A   1      35.196  23.137  24.620  1.00  0.00     0.074 C 
ATOM     12  N   UNL A   1      32.784  22.362  24.792  1.00  0.00    -0.329 N 
ATOM     13  C   UNL A   1      32.445  23.570  25.557  1.00  0.00     0.262 C 
ATOM     14  C   UNL A   1      34.195  22.003  24.964  1.00  0.00     0.270 C 
ATOM     15  H   UNL A   1      32.648  22.578  23.804  1.00  0.00     0.348 HD
ATOM     16  C   UNL A   1      33.336  24.751  25.156  1.00  0.00     0.062 C 
ATOM     17  C   UNL A   1      34.814  24.430  25.360  1.00  0.00     0.020 C 
BRANCH  12  18
ATOM     18  C   UNL A   1      31.875  21.234  25.098  1.00  0.00     0.317 C 
BRANCH  18  19
ATOM     19  C   UNL A   1      32.391  19.816  24.856  1.00  0.00     0.074 A 
ATOM     20  C   UNL A   1      33.227  17.085  24.641  1.00  0.00     0.182 A 
ATOM     21  C   UNL A   1      33.186  17.747  25.806  1.00  0.00     0.133 A 
ATOM     22  C   UNL A   1      32.885  17.887  23.414  1.00  0.00     0.223 A 
ATOM     23  N   UNL A   1      32.851  19.070  25.926  1.00  0.00    -0.357 N 
ATOM     24  C   UNL A   1      32.417  19.290  23.617  1.00  0.00     0.083 A 
ATOM     25  O   UNL A   1      32.963  17.447  22.271  1.00  0.00    -0.286 OA
ATOM     26  H   UNL A   1      32.942  19.504  26.805  1.00  0.00     0.166 HD
BRANCH  20  27
ATOM     27  O   UNL A   1      33.483  15.730  24.615  1.00  0.00    -0.491 OA
ATOM     28  C   UNL A   1      32.506  14.950  25.295  1.00  0.00     0.278 C 
ENDBRANCH  20  27
ENDBRANCH  18  19
ENDBRANCH  12  18
ENDBRANCH   6  11
ENDBRANCH   3   5
ENDBRANCH   2   3
ENDBRANCH   1   2
BRANCH   1  29
ATOM     29  C   UNL A   1      42.588  23.516  26.140  1.00  0.00     0.275 C 
BRANCH  29  30
ATOM     30  O   UNL A   1      41.485  24.442  26.066  1.00  0.00    -0.458 OA
BRANCH  30  31
ATOM     31  C   UNL A   1      41.835  25.745  25.989  1.00  0.00     0.338 C 
ATOM     32  O   UNL A   1      42.046  26.394  24.976  1.00  0.00    -0.246 OA
BRANCH  31  33
ATOM     33  C   UNL A   1      41.889  26.353  27.328  1.00  0.00     0.060 A 
ATOM     34  C   UNL A   1      41.010  25.892  28.297  1.00  0.00     0.016 A 
ATOM     35  C   UNL A   1      42.632  27.507  27.561  1.00  0.00     0.016 A 
ATOM     36  C   UNL A   1      40.726  26.675  29.413  1.00  0.00     0.010 A 
ATOM     37  C   UNL A   1      42.469  28.202  28.768  1.00  0.00     0.010 A 
ATOM     38  C   UNL A   1      41.469  27.833  29.688  1.00  0.00    -0.014 A 
BRANCH  38  39
ATOM     39  C   UNL A   1      41.193  28.650  30.914  1.00  0.00     0.031 A 
ATOM     40  C   UNL A   1      40.043  29.634  30.946  1.00  0.00     0.074 A 
ATOM     41  C   UNL A   1      41.968  28.520  32.014  1.00  0.00     0.049 A 
ATOM     42  N   UNL A   1      39.770  30.565  31.827  1.00  0.00    -0.248 NA
ATOM     43  C   UNL A   1      39.083  29.578  29.831  1.00  0.00     0.031 C 
ATOM     44  C   UNL A   1      43.094  27.593  32.156  1.00  0.00     0.029 A 
ATOM     45  N   UNL A   1      41.926  29.163  33.230  1.00  0.00    -0.354 N 
ATOM     46  C   UNL A   1      38.654  31.243  31.343  1.00  0.00     0.074 A 
ATOM     47  C   UNL A   1      38.304  30.621  30.085  1.00  0.00     0.031 C 
ATOM     48  C   UNL A   1      43.596  27.686  33.395  1.00  0.00     0.029 A 
ATOM     49  C   UNL A   1      42.912  28.759  34.102  1.00  0.00     0.049 A 
ATOM     50  H   UNL A   1      41.255  29.847  33.453  1.00  0.00     0.167 HD
ATOM     51  C   UNL A   1      37.986  32.286  31.895  1.00  0.00     0.037 A 
ATOM     52  C   UNL A   1      43.275  29.230  35.311  1.00  0.00     0.037 A 
ATOM     53  C   UNL A   1      38.300  32.860  33.181  1.00  0.00     0.049 A 
ATOM     54  C   UNL A   1      42.540  30.404  35.890  1.00  0.00     0.074 A 
ATOM     55  C   UNL A   1      37.669  33.904  33.836  1.00  0.00     0.029 A 
ATOM     56  N   UNL A   1      39.323  32.431  34.014  1.00  0.00    -0.354 N 
ATOM     57  N   UNL A   1      41.529  31.070  35.388  1.00  0.00    -0.248 NA
ATOM     58  C   UNL A   1      43.010  30.905  37.189  1.00  0.00     0.031 C 
ATOM     59  C   UNL A   1      38.334  34.132  35.045  1.00  0.00     0.029 A 
ATOM     60  C   UNL A   1      39.350  33.198  35.169  1.00  0.00     0.049 A 
ATOM     61  H   UNL A   1      39.939  31.689  33.815  1.00  0.00     0.167 HD
ATOM     62  C   UNL A   1      41.229  32.059  36.317  1.00  0.00     0.074 A 
ATOM     63  C   UNL A   1      42.156  31.893  37.418  1.00  0.00     0.031 C 
ATOM     64  C   UNL A   1      40.275  33.020  36.260  1.00  0.00     0.037 A 
BRANCH  51  65
ATOM     65  C   UNL A   1      36.862  32.906  31.102  1.00  0.00     0.058 A 
ATOM     66  C   UNL A   1      35.513  32.716  31.438  1.00  0.00     0.135 A 
ATOM     67  C   UNL A   1      37.148  33.745  30.011  1.00  0.00     0.135 A 
ATOM     68  F   UNL A   1      35.177  31.917  32.463  1.00  0.00    -0.206 F 
ATOM     69  C   UNL A   1      34.487  33.308  30.703  1.00  0.00     0.059 A 
ATOM     70  C   UNL A   1      36.141  34.370  29.280  1.00  0.00     0.059 A 
ATOM     71  F   UNL A   1      38.420  33.968  29.645  1.00  0.00    -0.206 F 
ATOM     72  C   UNL A   1      34.812  34.132  29.624  1.00  0.00     0.060 A 
BRANCH  72  73
ATOM     73  S   UNL A   1      33.472  34.891  28.680  1.00  0.00     0.124 S 
ATOM     74  O   UNL A   1      34.100  36.129  28.227  1.00  0.00    -0.237 OA
ATOM     75  O   UNL A   1      33.216  33.897  27.644  1.00  0.00    -0.237 OA
ATOM     76  O   UNL A   1      32.409  35.053  29.666  1.00  0.00    -0.744 OA
ENDBRANCH  72  73
ENDBRANCH  51  65
BRANCH  52  77
ATOM     77  C   UNL A   1      44.430  28.619  36.026  1.00  0.00     0.058 A 
ATOM     78  C   UNL A   1      44.251  27.537  36.900  1.00  0.00     0.135 A 
ATOM     79  C   UNL A   1      45.739  29.087  35.827  1.00  0.00     0.135 A 
ATOM     80  F   UNL A   1      43.020  27.060  37.135  1.00  0.00    -0.206 F 
ATOM     81  C   UNL A   1      45.327  26.945  37.555  1.00  0.00     0.059 A 
ATOM     82  C   UNL A   1      46.833  28.491  36.444  1.00  0.00     0.059 A 
ATOM     83  F   UNL A   1      45.967  30.113  34.990  1.00  0.00    -0.206 F 
ATOM     84  C   UNL A   1      46.615  27.425  37.314  1.00  0.00     0.060 A 
BRANCH  84  85
ATOM     85  S   UNL A   1      48.011  26.608  38.118  1.00  0.00     0.124 S 
ATOM     86  O   UNL A   1      47.512  26.447  39.479  1.00  0.00    -0.237 OA
ATOM     87  O   UNL A   1      48.141  25.382  37.336  1.00  0.00    -0.237 OA
ATOM     88  O   UNL A   1      49.100  27.566  37.952  1.00  0.00    -0.744 OA
ENDBRANCH  84  85
ENDBRANCH  52  77
BRANCH  64  89
ATOM     89  C   UNL A   1      40.158  33.943  37.441  1.00  0.00     0.058 A 
ATOM     90  C   UNL A   1      39.290  33.669  38.508  1.00  0.00     0.135 A 
ATOM     91  C   UNL A   1      40.951  35.099  37.519  1.00  0.00     0.135 A 
ATOM     92  F   UNL A   1      38.503  32.583  38.479  1.00  0.00    -0.206 F 
ATOM     93  C   UNL A   1      39.192  34.524  39.601  1.00  0.00     0.059 A 
ATOM     94  C   UNL A   1      40.890  35.954  38.615  1.00  0.00     0.059 A 
ATOM     95  F   UNL A   1      41.804  35.402  36.528  1.00  0.00    -0.206 F 
ATOM     96  C   UNL A   1      39.996  35.665  39.646  1.00  0.00     0.060 A 
BRANCH  96  97
ATOM     97  S   UNL A   1      39.880  36.753  41.082  1.00  0.00     0.124 S 
ATOM     98  O   UNL A   1      39.622  35.797  42.154  1.00  0.00    -0.237 OA
ATOM     99  O   UNL A   1      41.194  37.387  41.101  1.00  0.00    -0.237 OA
ATOM    100  O   UNL A   1      38.769  37.638  40.749  1.00  0.00    -0.744 OA
ENDBRANCH  96  97
ENDBRANCH  64  89
ENDBRANCH  38  39
ENDBRANCH  31  33
ENDBRANCH  30  31
ENDBRANCH  29  30
ENDBRANCH   1  29
TORSDOF 18
ENDMDL
