MODEL 1
REMARK VINA RESULT:     -12.6      0.000      0.000
REMARK SMILES C[N@@H+]1CC2(CC[NH+](C(=O)c3cc(-c4ccncc4)n[nH]3)CC2)C[C@H]1C(=O)OCCOC(=O)c1ccc(-c2c3nc(c(-c4c(F)cc(S(=O)(=O)[O-])cc4F)c4ccc([nH]4)c(-c4c(F)cc(S(=O)(=O)[O-])cc4F)c4nc(c(-c5c(F)cc(S(=O)(=O)[O-])cc5F)c5ccc2[nH]5)C=C4)C=C3)cc1
REMARK SMILES IDX 28 1 27 2 25 3 26 4 24 5 1 6 2 7 3 8 4 10 23 11 5 12 22 13
REMARK SMILES IDX 6 14 21 15 7 16 8 18 9 19 10 20 11 21 20 22 12 23 19 24
REMARK SMILES IDX 13 26 14 27 18 28 15 29 17 30 16 31 29 32 30 33 31 34 32 35
REMARK SMILES IDX 33 36 34 37 98 38 35 39 97 40 36 41 37 42 38 43 91 44 39 45
REMARK SMILES IDX 96 46 90 47 92 48 40 49 95 50 89 51 88 52 41 54 75 55 54 56
REMARK SMILES IDX 74 57 55 58 58 59 73 60 93 61 56 62 57 63 72 65 94 66 59 67
REMARK SMILES IDX 42 68 43 69 52 70 44 71 45 72 51 73 53 74 46 75 47 76 48 77
REMARK SMILES IDX 49 78 50 79 76 80 77 81 86 82 78 83 79 84 85 85 87 86 80 87
REMARK SMILES IDX 81 88 82 89 83 90 84 91 60 92 61 93 70 94 62 95 63 96 69 97
REMARK SMILES IDX 71 98 64 99 65 100 66 101 67 102 68 103
REMARK H PARENT 2 9 7 17 20 25 92 53 58 64
REMARK Flexibility Score: inf
ROOT
ATOM      1  C   UNL A   1      33.274  30.156  27.191  1.00  0.00     0.274 C 
ENDROOT
BRANCH   1   2
ATOM      2  O   UNL A   1      33.301  30.192  25.753  1.00  0.00    -0.458 OA
BRANCH   2   3
ATOM      3  C   UNL A   1      32.120  29.958  25.120  1.00  0.00     0.365 C 
ATOM      4  O   UNL A   1      31.032  30.364  25.520  1.00  0.00    -0.245 OA
BRANCH   3   5
ATOM      5  C   UNL A   1      32.243  29.096  23.851  1.00  0.00     0.295 C 
ATOM      6  C   UNL A   1      33.910  28.381  22.227  1.00  0.00     0.333 C 
ATOM      7  N   UNL A   1      33.586  28.510  23.647  1.00  0.00    -0.325 N 
ATOM      8  C   UNL A   1      33.569  27.219  24.334  1.00  0.00     0.270 C 
ATOM      9  H   UNL A   1      34.316  29.111  24.029  1.00  0.00     0.348 HD
ATOM     10  C   UNL A   1      32.104  26.732  24.371  1.00  0.00     0.036 C 
ATOM     11  C   UNL A   1      31.274  27.931  23.891  1.00  0.00     0.091 C 
ATOM     12  C   UNL A   1      31.700  26.353  25.812  1.00  0.00     0.075 C 
ATOM     13  C   UNL A   1      31.873  25.526  23.428  1.00  0.00     0.075 C 
ATOM     14  C   UNL A   1      32.417  25.087  26.255  1.00  0.00     0.271 C 
ATOM     15  C   UNL A   1      32.506  24.234  23.947  1.00  0.00     0.271 C 
ATOM     16  N   UNL A   1      32.106  23.999  25.328  1.00  0.00    -0.266 N 
ATOM     17  H   UNL A   1      31.470  24.634  24.926  1.00  0.00     0.357 HD
BRANCH  16  18
ATOM     18  C   UNL A   1      31.539  22.780  25.686  1.00  0.00     0.362 C 
ATOM     19  O   UNL A   1      30.394  22.687  26.120  1.00  0.00    -0.224 OA
BRANCH  18  20
ATOM     20  C   UNL A   1      32.348  21.612  25.484  1.00  0.00     0.163 A 
ATOM     21  C   UNL A   1      32.042  20.350  25.019  1.00  0.00     0.068 A 
ATOM     22  N   UNL A   1      33.688  21.583  25.735  1.00  0.00    -0.269 N 
ATOM     23  C   UNL A   1      33.224  19.591  25.189  1.00  0.00     0.093 A 
ATOM     24  N   UNL A   1      34.225  20.352  25.658  1.00  0.00    -0.175 NA
ATOM     25  H   UNL A   1      34.213  22.387  25.955  1.00  0.00     0.190 HD
BRANCH  23  26
ATOM     26  C   UNL A   1      33.383  18.164  24.969  1.00  0.00     0.005 A 
ATOM     27  C   UNL A   1      34.233  17.691  23.970  1.00  0.00     0.030 A 
ATOM     28  C   UNL A   1      32.652  17.256  25.735  1.00  0.00     0.030 A 
ATOM     29  C   UNL A   1      34.320  16.323  23.787  1.00  0.00     0.111 A 
ATOM     30  C   UNL A   1      32.800  15.908  25.464  1.00  0.00     0.111 A 
ATOM     31  N   UNL A   1      33.619  15.420  24.508  1.00  0.00    -0.265 NA
ENDBRANCH  23  26
ENDBRANCH  18  20
ENDBRANCH  16  18
ENDBRANCH   3   5
ENDBRANCH   2   3
ENDBRANCH   1   2
BRANCH   1  32
ATOM     32  C   UNL A   1      34.478  30.894  27.775  1.00  0.00     0.275 C 
BRANCH  32  33
ATOM     33  O   UNL A   1      35.305  29.997  28.538  1.00  0.00    -0.458 OA
BRANCH  33  34
ATOM     34  C   UNL A   1      36.250  30.597  29.300  1.00  0.00     0.338 C 
ATOM     35  O   UNL A   1      36.091  31.476  30.127  1.00  0.00    -0.246 OA
BRANCH  34  36
ATOM     36  C   UNL A   1      37.553  29.972  29.041  1.00  0.00     0.060 A 
ATOM     37  C   UNL A   1      38.355  29.638  30.130  1.00  0.00     0.016 A 
ATOM     38  C   UNL A   1      38.037  29.835  27.744  1.00  0.00     0.016 A 
ATOM     39  C   UNL A   1      39.660  29.204  29.945  1.00  0.00     0.010 A 
ATOM     40  C   UNL A   1      39.338  29.354  27.551  1.00  0.00     0.010 A 
ATOM     41  C   UNL A   1      40.166  29.058  28.650  1.00  0.00    -0.014 A 
BRANCH  41  42
ATOM     42  C   UNL A   1      41.577  28.642  28.456  1.00  0.00     0.031 A 
ATOM     43  C   UNL A   1      42.673  29.668  28.545  1.00  0.00     0.074 A 
ATOM     44  C   UNL A   1      41.871  27.350  28.216  1.00  0.00     0.049 A 
ATOM     45  N   UNL A   1      43.943  29.545  28.266  1.00  0.00    -0.248 NA
ATOM     46  C   UNL A   1      42.284  31.013  29.002  1.00  0.00     0.031 C 
ATOM     47  C   UNL A   1      40.896  26.257  28.160  1.00  0.00     0.029 A 
ATOM     48  N   UNL A   1      43.072  26.735  27.964  1.00  0.00    -0.354 N 
ATOM     49  C   UNL A   1      44.499  30.804  28.467  1.00  0.00     0.074 A 
ATOM     50  C   UNL A   1      43.425  31.678  28.889  1.00  0.00     0.031 C 
ATOM     51  C   UNL A   1      41.538  25.109  27.891  1.00  0.00     0.029 A 
ATOM     52  C   UNL A   1      42.954  25.394  27.688  1.00  0.00     0.049 A 
ATOM     53  H   UNL A   1      43.935  27.211  27.980  1.00  0.00     0.167 HD
ATOM     54  C   UNL A   1      45.787  31.189  28.311  1.00  0.00     0.037 A 
ATOM     55  C   UNL A   1      43.875  24.503  27.271  1.00  0.00     0.037 A 
ATOM     56  C   UNL A   1      46.850  30.296  27.925  1.00  0.00     0.049 A 
ATOM     57  C   UNL A   1      45.292  24.964  27.067  1.00  0.00     0.074 A 
ATOM     58  C   UNL A   1      48.195  30.579  27.763  1.00  0.00     0.029 A 
ATOM     59  N   UNL A   1      46.689  28.946  27.644  1.00  0.00    -0.354 N 
ATOM     60  N   UNL A   1      45.802  26.160  27.245  1.00  0.00    -0.248 NA
ATOM     61  C   UNL A   1      46.257  23.961  26.600  1.00  0.00     0.031 C 
ATOM     62  C   UNL A   1      48.839  29.411  27.340  1.00  0.00     0.029 A 
ATOM     63  C   UNL A   1      47.906  28.388  27.289  1.00  0.00     0.049 A 
ATOM     64  H   UNL A   1      45.836  28.458  27.690  1.00  0.00     0.167 HD
ATOM     65  C   UNL A   1      47.151  26.049  26.930  1.00  0.00     0.074 A 
ATOM     66  C   UNL A   1      47.380  24.665  26.566  1.00  0.00     0.031 C 
ATOM     67  C   UNL A   1      48.113  27.005  26.938  1.00  0.00     0.037 A 
BRANCH  54  68
ATOM     68  C   UNL A   1      46.117  32.641  28.517  1.00  0.00     0.058 A 
ATOM     69  C   UNL A   1      46.063  33.575  27.471  1.00  0.00     0.135 A 
ATOM     70  C   UNL A   1      46.452  33.113  29.796  1.00  0.00     0.135 A 
ATOM     71  F   UNL A   1      45.766  33.177  26.223  1.00  0.00    -0.206 F 
ATOM     72  C   UNL A   1      46.349  34.921  27.681  1.00  0.00     0.059 A 
ATOM     73  C   UNL A   1      46.717  34.459  30.036  1.00  0.00     0.059 A 
ATOM     74  F   UNL A   1      46.523  32.263  30.833  1.00  0.00    -0.206 F 
ATOM     75  C   UNL A   1      46.673  35.354  28.969  1.00  0.00     0.060 A 
BRANCH  75  76
ATOM     76  S   UNL A   1      47.026  37.105  29.229  1.00  0.00     0.124 S 
ATOM     77  O   UNL A   1      45.753  37.582  29.762  1.00  0.00    -0.237 OA
ATOM     78  O   UNL A   1      48.134  37.063  30.177  1.00  0.00    -0.237 OA
ATOM     79  O   UNL A   1      47.366  37.587  27.894  1.00  0.00    -0.744 OA
ENDBRANCH  75  76
ENDBRANCH  54  68
BRANCH  55  80
ATOM     80  C   UNL A   1      43.473  23.101  26.979  1.00  0.00     0.058 A 
ATOM     81  C   UNL A   1      43.422  22.618  25.664  1.00  0.00     0.135 A 
ATOM     82  C   UNL A   1      43.143  22.211  28.015  1.00  0.00     0.135 A 
ATOM     83  F   UNL A   1      43.720  23.431  24.639  1.00  0.00    -0.206 F 
ATOM     84  C   UNL A   1      43.046  21.308  25.383  1.00  0.00     0.059 A 
ATOM     85  C   UNL A   1      42.792  20.889  27.761  1.00  0.00     0.059 A 
ATOM     86  F   UNL A   1      43.188  22.619  29.293  1.00  0.00    -0.206 F 
ATOM     87  C   UNL A   1      42.735  20.450  26.440  1.00  0.00     0.060 A 
BRANCH  87  88
ATOM     88  S   UNL A   1      42.293  18.739  26.068  1.00  0.00     0.124 S 
ATOM     89  O   UNL A   1      43.212  18.430  24.979  1.00  0.00    -0.237 OA
ATOM     90  O   UNL A   1      42.559  18.070  27.338  1.00  0.00    -0.237 OA
ATOM     91  O   UNL A   1      40.883  18.830  25.700  1.00  0.00    -0.744 OA
ENDBRANCH  87  88
ENDBRANCH  55  80
BRANCH  67  92
ATOM     92  C   UNL A   1      49.510  26.578  26.582  1.00  0.00     0.058 A 
ATOM     93  C   UNL A   1      50.415  26.130  27.555  1.00  0.00     0.135 A 
ATOM     94  C   UNL A   1      49.928  26.571  25.241  1.00  0.00     0.135 A 
ATOM     95  F   UNL A   1      50.067  26.125  28.852  1.00  0.00    -0.206 F 
ATOM     96  C   UNL A   1      51.697  25.712  27.215  1.00  0.00     0.059 A 
ATOM     97  C   UNL A   1      51.194  26.131  24.875  1.00  0.00     0.059 A 
ATOM     98  F   UNL A   1      49.095  26.981  24.271  1.00  0.00    -0.206 F 
ATOM     99  C   UNL A   1      52.077  25.714  25.871  1.00  0.00     0.060 A 
BRANCH  99 100
ATOM    100  S   UNL A   1      53.731  25.135  25.438  1.00  0.00     0.124 S 
ATOM    101  O   UNL A   1      54.513  25.606  26.576  1.00  0.00    -0.237 OA
ATOM    102  O   UNL A   1      53.545  23.690  25.350  1.00  0.00    -0.237 OA
ATOM    103  O   UNL A   1      54.003  25.804  24.169  1.00  0.00    -0.744 OA
ENDBRANCH  99 100
ENDBRANCH  67  92
ENDBRANCH  41  42
ENDBRANCH  34  36
ENDBRANCH  33  34
ENDBRANCH  32  33
ENDBRANCH   1  32
TORSDOF 17
ENDMDL
MODEL 2
REMARK VINA RESULT:     -11.8      6.784     12.063
REMARK SMILES C[N@@H+]1CC2(CC[NH+](C(=O)c3cc(-c4ccncc4)n[nH]3)CC2)C[C@H]1C(=O)OCCOC(=O)c1ccc(-c2c3nc(c(-c4c(F)cc(S(=O)(=O)[O-])cc4F)c4ccc([nH]4)c(-c4c(F)cc(S(=O)(=O)[O-])cc4F)c4nc(c(-c5c(F)cc(S(=O)(=O)[O-])cc5F)c5ccc2[nH]5)C=C4)C=C3)cc1
REMARK SMILES IDX 28 1 27 2 25 3 26 4 24 5 1 6 2 7 3 8 4 10 23 11 5 12 22 13
REMARK SMILES IDX 6 14 21 15 7 16 8 18 9 19 10 20 11 21 20 22 12 23 19 24
REMARK SMILES IDX 13 26 14 27 18 28 15 29 17 30 16 31 29 32 30 33 31 34 32 35
REMARK SMILES IDX 33 36 34 37 98 38 35 39 97 40 36 41 37 42 38 43 91 44 39 45
REMARK SMILES IDX 96 46 90 47 92 48 40 49 95 50 89 51 88 52 41 54 75 55 54 56
REMARK SMILES IDX 74 57 55 58 58 59 73 60 93 61 56 62 57 63 72 65 94 66 59 67
REMARK SMILES IDX 42 68 43 69 52 70 44 71 45 72 51 73 53 74 46 75 47 76 48 77
REMARK SMILES IDX 49 78 50 79 76 80 77 81 86 82 78 83 79 84 85 85 87 86 80 87
REMARK SMILES IDX 81 88 82 89 83 90 84 91 60 92 61 93 70 94 62 95 63 96 69 97
REMARK SMILES IDX 71 98 64 99 65 100 66 101 67 102 68 103
REMARK H PARENT 2 9 7 17 20 25 92 53 58 64
REMARK Flexibility Score: inf
ROOT
ATOM      1  C   UNL A   1      38.636  23.259  26.115  1.00  0.00     0.274 C 
ENDROOT
BRANCH   1   2
ATOM      2  O   UNL A   1      37.911  22.044  26.374  1.00  0.00    -0.458 OA
BRANCH   2   3
ATOM      3  C   UNL A   1      37.130  21.579  25.360  1.00  0.00     0.365 C 
ATOM      4  O   UNL A   1      37.538  21.354  24.224  1.00  0.00    -0.245 OA
BRANCH   3   5
ATOM      5  C   UNL A   1      35.652  21.380  25.742  1.00  0.00     0.295 C 
ATOM      6  C   UNL A   1      34.141  21.716  27.620  1.00  0.00     0.333 C 
ATOM      7  N   UNL A   1      35.161  22.325  26.767  1.00  0.00    -0.325 N 
ATOM      8  C   UNL A   1      34.655  23.486  26.036  1.00  0.00     0.270 C 
ATOM      9  H   UNL A   1      35.906  22.600  27.407  1.00  0.00     0.348 HD
ATOM     10  C   UNL A   1      34.229  23.001  24.633  1.00  0.00     0.036 C 
ATOM     11  C   UNL A   1      34.752  21.561  24.535  1.00  0.00     0.091 C 
ATOM     12  C   UNL A   1      34.880  23.875  23.542  1.00  0.00     0.075 C 
ATOM     13  C   UNL A   1      32.690  23.008  24.463  1.00  0.00     0.075 C 
ATOM     14  C   UNL A   1      34.274  25.271  23.539  1.00  0.00     0.271 C 
ATOM     15  C   UNL A   1      32.111  24.419  24.350  1.00  0.00     0.271 C 
ATOM     16  N   UNL A   1      32.830  25.177  23.333  1.00  0.00    -0.266 N 
ATOM     17  H   UNL A   1      32.997  24.218  23.181  1.00  0.00     0.357 HD
BRANCH  16  18
ATOM     18  C   UNL A   1      32.125  25.798  22.308  1.00  0.00     0.362 C 
ATOM     19  O   UNL A   1      31.877  25.238  21.243  1.00  0.00    -0.224 OA
BRANCH  18  20
ATOM     20  C   UNL A   1      31.658  27.130  22.565  1.00  0.00     0.163 A 
ATOM     21  C   UNL A   1      30.406  27.702  22.464  1.00  0.00     0.068 A 
ATOM     22  N   UNL A   1      32.469  28.130  23.013  1.00  0.00    -0.269 N 
ATOM     23  C   UNL A   1      30.603  29.082  22.707  1.00  0.00     0.093 A 
ATOM     24  N   UNL A   1      31.882  29.341  23.016  1.00  0.00    -0.175 NA
ATOM     25  H   UNL A   1      33.398  27.981  23.304  1.00  0.00     0.190 HD
BRANCH  23  26
ATOM     26  C   UNL A   1      29.612  30.137  22.590  1.00  0.00     0.005 A 
ATOM     27  C   UNL A   1      29.179  30.831  23.719  1.00  0.00     0.030 A 
ATOM     28  C   UNL A   1      29.059  30.437  21.346  1.00  0.00     0.030 A 
ATOM     29  C   UNL A   1      28.211  31.805  23.550  1.00  0.00     0.111 A 
ATOM     30  C   UNL A   1      28.088  31.419  21.285  1.00  0.00     0.111 A 
ATOM     31  N   UNL A   1      27.652  32.113  22.359  1.00  0.00    -0.265 NA
ENDBRANCH  23  26
ENDBRANCH  18  20
ENDBRANCH  16  18
ENDBRANCH   3   5
ENDBRANCH   2   3
ENDBRANCH   1   2
BRANCH   1  32
ATOM     32  C   UNL A   1      39.628  23.548  27.240  1.00  0.00     0.275 C 
BRANCH  32  33
ATOM     33  O   UNL A   1      40.854  24.087  26.714  1.00  0.00    -0.458 OA
BRANCH  33  34
ATOM     34  C   UNL A   1      40.834  25.416  26.460  1.00  0.00     0.338 C 
ATOM     35  O   UNL A   1      40.764  25.966  25.376  1.00  0.00    -0.246 OA
BRANCH  34  36
ATOM     36  C   UNL A   1      40.837  26.155  27.729  1.00  0.00     0.060 A 
ATOM     37  C   UNL A   1      39.715  26.067  28.549  1.00  0.00     0.016 A 
ATOM     38  C   UNL A   1      41.874  27.025  28.049  1.00  0.00     0.016 A 
ATOM     39  C   UNL A   1      39.591  26.871  29.673  1.00  0.00     0.010 A 
ATOM     40  C   UNL A   1      41.774  27.807  29.206  1.00  0.00     0.010 A 
ATOM     41  C   UNL A   1      40.622  27.752  30.014  1.00  0.00    -0.014 A 
BRANCH  41  42
ATOM     42  C   UNL A   1      40.466  28.648  31.186  1.00  0.00     0.031 A 
ATOM     43  C   UNL A   1      39.417  29.725  31.164  1.00  0.00     0.074 A 
ATOM     44  C   UNL A   1      41.252  28.484  32.268  1.00  0.00     0.049 A 
ATOM     45  N   UNL A   1      39.214  30.697  32.013  1.00  0.00    -0.248 NA
ATOM     46  C   UNL A   1      38.477  29.710  30.029  1.00  0.00     0.031 C 
ATOM     47  C   UNL A   1      42.268  27.440  32.424  1.00  0.00     0.029 A 
ATOM     48  N   UNL A   1      41.327  29.198  33.437  1.00  0.00    -0.354 N 
ATOM     49  C   UNL A   1      38.155  31.437  31.496  1.00  0.00     0.074 A 
ATOM     50  C   UNL A   1      37.761  30.802  30.256  1.00  0.00     0.031 C 
ATOM     51  C   UNL A   1      42.863  27.582  33.619  1.00  0.00     0.029 A 
ATOM     52  C   UNL A   1      42.322  28.765  34.281  1.00  0.00     0.049 A 
ATOM     53  H   UNL A   1      40.726  29.949  33.650  1.00  0.00     0.167 HD
ATOM     54  C   UNL A   1      37.572  32.544  32.012  1.00  0.00     0.037 A 
ATOM     55  C   UNL A   1      42.779  29.287  35.435  1.00  0.00     0.037 A 
ATOM     56  C   UNL A   1      37.954  33.141  33.267  1.00  0.00     0.049 A 
ATOM     57  C   UNL A   1      42.141  30.540  35.968  1.00  0.00     0.074 A 
ATOM     58  C   UNL A   1      37.410  34.248  33.893  1.00  0.00     0.029 A 
ATOM     59  N   UNL A   1      38.973  32.678  34.088  1.00  0.00    -0.354 N 
ATOM     60  N   UNL A   1      41.152  31.239  35.462  1.00  0.00    -0.248 NA
ATOM     61  C   UNL A   1      42.681  31.080  37.222  1.00  0.00     0.031 C 
ATOM     62  C   UNL A   1      38.130  34.482  35.069  1.00  0.00     0.029 A 
ATOM     63  C   UNL A   1      39.088  33.490  35.203  1.00  0.00     0.049 A 
ATOM     64  H   UNL A   1      39.531  31.889  33.903  1.00  0.00     0.167 HD
ATOM     65  C   UNL A   1      40.939  32.290  36.346  1.00  0.00     0.074 A 
ATOM     66  C   UNL A   1      41.892  32.126  37.426  1.00  0.00     0.031 C 
ATOM     67  C   UNL A   1      40.039  33.302  36.271  1.00  0.00     0.037 A 
BRANCH  54  68
ATOM     68  C   UNL A   1      36.488  33.207  31.209  1.00  0.00     0.058 A 
ATOM     69  C   UNL A   1      35.139  33.164  31.595  1.00  0.00     0.135 A 
ATOM     70  C   UNL A   1      36.812  33.936  30.053  1.00  0.00     0.135 A 
ATOM     71  F   UNL A   1      34.768  32.466  32.681  1.00  0.00    -0.206 F 
ATOM     72  C   UNL A   1      34.149  33.802  30.854  1.00  0.00     0.059 A 
ATOM     73  C   UNL A   1      35.843  34.604  29.310  1.00  0.00     0.059 A 
ATOM     74  F   UNL A   1      38.087  34.008  29.636  1.00  0.00    -0.206 F 
ATOM     75  C   UNL A   1      34.512  34.522  29.714  1.00  0.00     0.060 A 
BRANCH  75  76
ATOM     76  S   UNL A   1      33.218  35.358  28.771  1.00  0.00     0.124 S 
ATOM     77  O   UNL A   1      32.618  34.241  28.047  1.00  0.00    -0.237 OA
ATOM     78  O   UNL A   1      32.396  35.946  29.822  1.00  0.00    -0.237 OA
ATOM     79  O   UNL A   1      33.957  36.312  27.950  1.00  0.00    -0.744 OA
ENDBRANCH  75  76
ENDBRANCH  54  68
BRANCH  55  80
ATOM     80  C   UNL A   1      43.926  28.651  36.135  1.00  0.00     0.058 A 
ATOM     81  C   UNL A   1      45.232  29.140  35.986  1.00  0.00     0.135 A 
ATOM     82  C   UNL A   1      43.736  27.545  36.982  1.00  0.00     0.135 A 
ATOM     83  F   UNL A   1      45.467  30.188  35.182  1.00  0.00    -0.206 F 
ATOM     84  C   UNL A   1      46.311  28.548  36.637  1.00  0.00     0.059 A 
ATOM     85  C   UNL A   1      44.794  26.955  37.666  1.00  0.00     0.059 A 
ATOM     86  F   UNL A   1      42.504  27.046  37.170  1.00  0.00    -0.206 F 
ATOM     87  C   UNL A   1      46.081  27.457  37.478  1.00  0.00     0.060 A 
BRANCH  87  88
ATOM     88  S   UNL A   1      47.479  26.726  38.354  1.00  0.00     0.124 S 
ATOM     89  O   UNL A   1      47.846  27.802  39.268  1.00  0.00    -0.237 OA
ATOM     90  O   UNL A   1      46.876  25.546  38.966  1.00  0.00    -0.237 OA
ATOM     91  O   UNL A   1      48.436  26.449  37.288  1.00  0.00    -0.744 OA
ENDBRANCH  87  88
ENDBRANCH  55  80
BRANCH  67  92
ATOM     92  C   UNL A   1      40.014  34.287  37.406  1.00  0.00     0.058 A 
ATOM     93  C   UNL A   1      40.755  35.478  37.366  1.00  0.00     0.135 A 
ATOM     94  C   UNL A   1      39.199  34.057  38.526  1.00  0.00     0.135 A 
ATOM     95  F   UNL A   1      41.556  35.742  36.321  1.00  0.00    -0.206 F 
ATOM     96  C   UNL A   1      40.706  36.398  38.408  1.00  0.00     0.059 A 
ATOM     97  C   UNL A   1      39.113  34.975  39.566  1.00  0.00     0.059 A 
ATOM     98  F   UNL A   1      38.464  32.937  38.609  1.00  0.00    -0.206 F 
ATOM     99  C   UNL A   1      39.880  36.138  39.504  1.00  0.00     0.060 A 
BRANCH  99 100
ATOM    100  S   UNL A   1      39.798  37.355  40.834  1.00  0.00     0.124 S 
ATOM    101  O   UNL A   1      39.082  36.614  41.867  1.00  0.00    -0.237 OA
ATOM    102  O   UNL A   1      41.208  37.620  41.105  1.00  0.00    -0.237 OA
ATOM    103  O   UNL A   1      39.064  38.465  40.234  1.00  0.00    -0.744 OA
ENDBRANCH  99 100
ENDBRANCH  67  92
ENDBRANCH  41  42
ENDBRANCH  34  36
ENDBRANCH  33  34
ENDBRANCH  32  33
ENDBRANCH   1  32
TORSDOF 17
ENDMDL
MODEL 3
REMARK VINA RESULT:     -11.6      4.958      9.057
REMARK SMILES C[N@@H+]1CC2(CC[NH+](C(=O)c3cc(-c4ccncc4)n[nH]3)CC2)C[C@H]1C(=O)OCCOC(=O)c1ccc(-c2c3nc(c(-c4c(F)cc(S(=O)(=O)[O-])cc4F)c4ccc([nH]4)c(-c4c(F)cc(S(=O)(=O)[O-])cc4F)c4nc(c(-c5c(F)cc(S(=O)(=O)[O-])cc5F)c5ccc2[nH]5)C=C4)C=C3)cc1
REMARK SMILES IDX 28 1 27 2 25 3 26 4 24 5 1 6 2 7 3 8 4 10 23 11 5 12 22 13
REMARK SMILES IDX 6 14 21 15 7 16 8 18 9 19 10 20 11 21 20 22 12 23 19 24
REMARK SMILES IDX 13 26 14 27 18 28 15 29 17 30 16 31 29 32 30 33 31 34 32 35
REMARK SMILES IDX 33 36 34 37 98 38 35 39 97 40 36 41 37 42 38 43 91 44 39 45
REMARK SMILES IDX 96 46 90 47 92 48 40 49 95 50 89 51 88 52 41 54 75 55 54 56
REMARK SMILES IDX 74 57 55 58 58 59 73 60 93 61 56 62 57 63 72 65 94 66 59 67
REMARK SMILES IDX 42 68 43 69 52 70 44 71 45 72 51 73 53 74 46 75 47 76 48 77
REMARK SMILES IDX 49 78 50 79 76 80 77 81 86 82 78 83 79 84 85 85 87 86 80 87
REMARK SMILES IDX 81 88 82 89 83 90 84 91 60 92 61 93 70 94 62 95 63 96 69 97
REMARK SMILES IDX 71 98 64 99 65 100 66 101 67 102 68 103
REMARK H PARENT 2 9 7 17 20 25 92 53 58 64
REMARK Flexibility Score: inf
ROOT
ATOM      1  C   UNL A   1      34.743  33.426  28.320  1.00  0.00     0.274 C 
ENDROOT
BRANCH   1   2
ATOM      2  O   UNL A   1      34.085  33.759  29.555  1.00  0.00    -0.458 OA
BRANCH   2   3
ATOM      3  C   UNL A   1      34.892  34.091  30.599  1.00  0.00     0.365 C 
ATOM      4  O   UNL A   1      34.522  34.733  31.579  1.00  0.00    -0.245 OA
BRANCH   3   5
ATOM      5  C   UNL A   1      36.349  33.620  30.446  1.00  0.00     0.295 C 
ATOM      6  C   UNL A   1      38.585  34.524  30.116  1.00  0.00     0.333 C 
ATOM      7  N   UNL A   1      37.353  34.606  30.900  1.00  0.00    -0.325 N 
ATOM      8  C   UNL A   1      37.576  34.330  32.318  1.00  0.00     0.270 C 
ATOM      9  H   UNL A   1      37.022  35.562  30.768  1.00  0.00     0.348 HD
ATOM     10  C   UNL A   1      37.251  32.839  32.557  1.00  0.00     0.036 C 
ATOM     11  C   UNL A   1      36.599  32.361  31.252  1.00  0.00     0.091 C 
ATOM     12  C   UNL A   1      36.260  32.687  33.730  1.00  0.00     0.075 C 
ATOM     13  C   UNL A   1      38.527  32.008  32.838  1.00  0.00     0.075 C 
ATOM     14  C   UNL A   1      36.933  33.030  35.050  1.00  0.00     0.271 C 
ATOM     15  C   UNL A   1      39.127  32.285  34.216  1.00  0.00     0.271 C 
ATOM     16  N   UNL A   1      38.099  32.169  35.243  1.00  0.00    -0.266 N 
ATOM     17  H   UNL A   1      37.784  31.702  34.436  1.00  0.00     0.357 HD
BRANCH  16  18
ATOM     18  C   UNL A   1      38.306  31.335  36.337  1.00  0.00     0.362 C 
ATOM     19  O   UNL A   1      38.646  30.161  36.217  1.00  0.00    -0.224 OA
BRANCH  18  20
ATOM     20  C   UNL A   1      38.142  31.926  37.635  1.00  0.00     0.163 A 
ATOM     21  C   UNL A   1      37.131  31.829  38.568  1.00  0.00     0.068 A 
ATOM     22  N   UNL A   1      39.073  32.744  38.202  1.00  0.00    -0.269 N 
ATOM     23  C   UNL A   1      37.468  32.757  39.583  1.00  0.00     0.093 A 
ATOM     24  N   UNL A   1      38.652  33.336  39.335  1.00  0.00    -0.175 NA
ATOM     25  H   UNL A   1      39.968  32.890  37.819  1.00  0.00     0.190 HD
BRANCH  23  26
ATOM     26  C   UNL A   1      36.656  33.127  40.729  1.00  0.00     0.005 A 
ATOM     27  C   UNL A   1      37.256  33.532  41.921  1.00  0.00     0.030 A 
ATOM     28  C   UNL A   1      35.266  33.042  40.654  1.00  0.00     0.030 A 
ATOM     29  C   UNL A   1      36.433  33.843  42.988  1.00  0.00     0.111 A 
ATOM     30  C   UNL A   1      34.533  33.364  41.782  1.00  0.00     0.111 A 
ATOM     31  N   UNL A   1      35.085  33.764  42.948  1.00  0.00    -0.265 NA
ENDBRANCH  23  26
ENDBRANCH  18  20
ENDBRANCH  16  18
ENDBRANCH   3   5
ENDBRANCH   2   3
ENDBRANCH   1   2
BRANCH   1  32
ATOM     32  C   UNL A   1      34.076  32.220  27.658  1.00  0.00     0.275 C 
BRANCH  32  33
ATOM     33  O   UNL A   1      34.035  31.101  28.560  1.00  0.00    -0.458 OA
BRANCH  33  34
ATOM     34  C   UNL A   1      34.509  29.938  28.054  1.00  0.00     0.338 C 
ATOM     35  O   UNL A   1      33.909  29.118  27.383  1.00  0.00    -0.246 OA
BRANCH  34  36
ATOM     36  C   UNL A   1      35.938  29.815  28.370  1.00  0.00     0.060 A 
ATOM     37  C   UNL A   1      36.864  30.058  27.358  1.00  0.00     0.016 A 
ATOM     38  C   UNL A   1      36.359  29.341  29.608  1.00  0.00     0.016 A 
ATOM     39  C   UNL A   1      38.213  29.794  27.551  1.00  0.00     0.010 A 
ATOM     40  C   UNL A   1      37.724  29.116  29.822  1.00  0.00     0.010 A 
ATOM     41  C   UNL A   1      38.658  29.318  28.787  1.00  0.00    -0.014 A 
BRANCH  41  42
ATOM     42  C   UNL A   1      40.092  28.988  28.975  1.00  0.00     0.031 A 
ATOM     43  C   UNL A   1      41.039  30.046  29.468  1.00  0.00     0.074 A 
ATOM     44  C   UNL A   1      40.535  27.742  28.718  1.00  0.00     0.049 A 
ATOM     45  N   UNL A   1      42.343  30.009  29.560  1.00  0.00    -0.248 NA
ATOM     46  C   UNL A   1      40.440  31.317  29.908  1.00  0.00     0.031 C 
ATOM     47  C   UNL A   1      39.698  26.620  28.286  1.00  0.00     0.029 A 
ATOM     48  N   UNL A   1      41.799  27.211  28.773  1.00  0.00    -0.354 N 
ATOM     49  C   UNL A   1      42.725  31.263  30.024  1.00  0.00     0.074 A 
ATOM     50  C   UNL A   1      41.516  32.040  30.190  1.00  0.00     0.031 C 
ATOM     51  C   UNL A   1      40.471  25.535  28.116  1.00  0.00     0.029 A 
ATOM     52  C   UNL A   1      41.862  25.902  28.358  1.00  0.00     0.049 A 
ATOM     53  H   UNL A   1      42.584  27.720  29.081  1.00  0.00     0.167 HD
ATOM     54  C   UNL A   1      43.973  31.719  30.282  1.00  0.00     0.037 A 
ATOM     55  C   UNL A   1      42.925  25.101  28.150  1.00  0.00     0.037 A 
ATOM     56  C   UNL A   1      45.164  30.918  30.145  1.00  0.00     0.049 A 
ATOM     57  C   UNL A   1      44.304  25.643  28.407  1.00  0.00     0.074 A 
ATOM     58  C   UNL A   1      46.475  31.276  30.406  1.00  0.00     0.029 A 
ATOM     59  N   UNL A   1      45.188  29.600  29.712  1.00  0.00    -0.354 N 
ATOM     60  N   UNL A   1      44.654  26.835  28.830  1.00  0.00    -0.248 NA
ATOM     61  C   UNL A   1      45.432  24.738  28.155  1.00  0.00     0.031 C 
ATOM     62  C   UNL A   1      47.295  30.189  30.088  1.00  0.00     0.029 A 
ATOM     63  C   UNL A   1      46.492  29.136  29.678  1.00  0.00     0.049 A 
ATOM     64  H   UNL A   1      44.394  29.073  29.466  1.00  0.00     0.167 HD
ATOM     65  C   UNL A   1      46.042  26.816  28.912  1.00  0.00     0.074 A 
ATOM     66  C   UNL A   1      46.465  25.490  28.510  1.00  0.00     0.031 C 
ATOM     67  C   UNL A   1      46.890  27.808  29.283  1.00  0.00     0.037 A 
BRANCH  54  68
ATOM     68  C   UNL A   1      44.125  33.154  30.702  1.00  0.00     0.058 A 
ATOM     69  C   UNL A   1      44.053  33.552  32.046  1.00  0.00     0.135 A 
ATOM     70  C   UNL A   1      44.391  34.145  29.742  1.00  0.00     0.135 A 
ATOM     71  F   UNL A   1      43.783  32.651  33.004  1.00  0.00    -0.206 F 
ATOM     72  C   UNL A   1      44.218  34.882  32.421  1.00  0.00     0.059 A 
ATOM     73  C   UNL A   1      44.585  35.477  30.096  1.00  0.00     0.059 A 
ATOM     74  F   UNL A   1      44.466  33.821  28.441  1.00  0.00    -0.206 F 
ATOM     75  C   UNL A   1      44.486  35.837  31.438  1.00  0.00     0.060 A 
BRANCH  75  76
ATOM     76  S   UNL A   1      44.714  37.556  31.943  1.00  0.00     0.124 S 
ATOM     77  O   UNL A   1      44.763  37.429  33.396  1.00  0.00    -0.237 OA
ATOM     78  O   UNL A   1      45.972  37.908  31.295  1.00  0.00    -0.237 OA
ATOM     79  O   UNL A   1      43.530  38.226  31.412  1.00  0.00    -0.744 OA
ENDBRANCH  75  76
ENDBRANCH  54  68
BRANCH  55  80
ATOM     80  C   UNL A   1      42.725  23.721  27.632  1.00  0.00     0.058 A 
ATOM     81  C   UNL A   1      42.659  23.464  26.255  1.00  0.00     0.135 A 
ATOM     82  C   UNL A   1      42.609  22.628  28.507  1.00  0.00     0.135 A 
ATOM     83  F   UNL A   1      42.756  24.475  25.379  1.00  0.00    -0.206 F 
ATOM     84  C   UNL A   1      42.471  22.175  25.763  1.00  0.00     0.059 A 
ATOM     85  C   UNL A   1      42.450  21.328  28.039  1.00  0.00     0.059 A 
ATOM     86  F   UNL A   1      42.679  22.818  29.834  1.00  0.00    -0.206 F 
ATOM     87  C   UNL A   1      42.370  21.113  26.664  1.00  0.00     0.060 A 
BRANCH  87  88
ATOM     88  S   UNL A   1      42.173  19.440  26.015  1.00  0.00     0.124 S 
ATOM     89  O   UNL A   1      42.617  18.634  27.145  1.00  0.00    -0.237 OA
ATOM     90  O   UNL A   1      40.744  19.392  25.718  1.00  0.00    -0.237 OA
ATOM     91  O   UNL A   1      43.048  19.428  24.847  1.00  0.00    -0.744 OA
ENDBRANCH  87  88
ENDBRANCH  55  80
BRANCH  67  92
ATOM     92  C   UNL A   1      48.357  27.483  29.311  1.00  0.00     0.058 A 
ATOM     93  C   UNL A   1      49.176  27.671  28.187  1.00  0.00     0.135 A 
ATOM     94  C   UNL A   1      48.959  27.026  30.494  1.00  0.00     0.135 A 
ATOM     95  F   UNL A   1      48.648  28.098  27.029  1.00  0.00    -0.206 F 
ATOM     96  C   UNL A   1      50.538  27.394  28.228  1.00  0.00     0.059 A 
ATOM     97  C   UNL A   1      50.323  26.770  30.566  1.00  0.00     0.059 A 
ATOM     98  F   UNL A   1      48.221  26.839  31.600  1.00  0.00    -0.206 F 
ATOM     99  C   UNL A   1      51.103  26.945  29.424  1.00  0.00     0.060 A 
BRANCH  99 100
ATOM    100  S   UNL A   1      52.878  26.623  29.475  1.00  0.00     0.124 S 
ATOM    101  O   UNL A   1      53.113  26.062  28.149  1.00  0.00    -0.237 OA
ATOM    102  O   UNL A   1      53.433  27.953  29.709  1.00  0.00    -0.237 OA
ATOM    103  O   UNL A   1      53.022  25.687  30.587  1.00  0.00    -0.744 OA
ENDBRANCH  99 100
ENDBRANCH  67  92
ENDBRANCH  41  42
ENDBRANCH  34  36
ENDBRANCH  33  34
ENDBRANCH  32  33
ENDBRANCH   1  32
TORSDOF 17
ENDMDL
