MODEL 1
REMARK VINA RESULT:     -11.2      0.000      0.000
REMARK SMILES O=C(OCCOC(=O)c1ccc(-c2c3nc(c(-c4c(F)cc(S(=O)(=O)[O-])cc4F)c4ccc([nH]4)c(-c4c(F)cc(S(=O)(=O)[O-])cc4F)c4nc(c(-c5c(F)cc(S(=O)(=O)[O-])cc5F)c5ccc2[nH]5)C=C4)C=C3)cc1)C1=Cc2cc(OC(F)(F)F)ccc2O[C@@H]1C(F)(F)F
REMARK SMILES IDX 5 1 4 2 3 3 2 4 1 5 75 6 76 7 89 8 77 9 88 10 78 11 87 12
REMARK SMILES IDX 79 13 86 14 85 15 90 16 91 17 92 18 93 19 80 20 81 21 82 22
REMARK SMILES IDX 83 23 84 24 6 25 7 26 8 27 9 28 10 29 74 30 11 31 73 32
REMARK SMILES IDX 12 33 13 34 14 35 67 36 15 37 72 38 66 39 68 40 16 41 71 42
REMARK SMILES IDX 65 43 64 44 17 46 51 47 30 48 50 49 31 50 34 51 49 52 69 53
REMARK SMILES IDX 32 54 33 55 48 57 70 58 35 59 18 60 19 61 28 62 20 63 21 64
REMARK SMILES IDX 27 65 29 66 22 67 23 68 24 69 25 70 26 71 52 72 53 73 62 74
REMARK SMILES IDX 54 75 55 76 61 77 63 78 56 79 57 80 58 81 59 82 60 83 36 84
REMARK SMILES IDX 37 85 46 86 38 87 39 88 45 89 47 90 40 91 41 92 42 93 43 94
REMARK SMILES IDX 44 95
REMARK H PARENT 68 45 34 56
REMARK Flexibility Score: inf
ROOT
ATOM      1  C   UNL A   1      32.450  29.646  27.240  1.00  0.00     0.275 C 
ENDROOT
BRANCH   1   2
ATOM      2  C   UNL A   1      31.728  28.493  26.511  1.00  0.00     0.275 C 
BRANCH   2   3
ATOM      3  O   UNL A   1      31.798  27.275  27.273  1.00  0.00    -0.459 OA
BRANCH   3   4
ATOM      4  C   UNL A   1      31.874  26.153  26.521  1.00  0.00     0.338 C 
ATOM      5  O   UNL A   1      31.265  25.124  26.775  1.00  0.00    -0.246 OA
BRANCH   4   6
ATOM      6  C   UNL A   1      32.739  26.350  25.313  1.00  0.00     0.087 C 
ATOM      7  C   UNL A   1      33.993  25.899  25.530  1.00  0.00     0.027 C 
ATOM      8  C   UNL A   1      32.101  25.969  23.991  1.00  0.00     0.316 C 
ATOM      9  C   UNL A   1      34.155  24.482  25.129  1.00  0.00     0.021 A 
ATOM     10  O   UNL A   1      32.137  24.531  23.770  1.00  0.00    -0.475 OA
ATOM     11  C   UNL A   1      35.236  23.733  25.598  1.00  0.00     0.058 A 
ATOM     12  C   UNL A   1      33.175  23.856  24.351  1.00  0.00     0.128 A 
ATOM     13  C   UNL A   1      35.286  22.347  25.393  1.00  0.00     0.130 A 
ATOM     14  C   UNL A   1      33.190  22.474  24.186  1.00  0.00     0.051 A 
ATOM     15  C   UNL A   1      34.229  21.715  24.734  1.00  0.00     0.050 A 
BRANCH   8  16
ATOM     16  C   UNL A   1      32.621  26.753  22.782  1.00  0.00     0.430 C 
ATOM     17  F   UNL A   1      32.593  28.083  23.036  1.00  0.00    -0.167 F 
ATOM     18  F   UNL A   1      33.890  26.430  22.451  1.00  0.00    -0.167 F 
ATOM     19  F   UNL A   1      31.850  26.541  21.688  1.00  0.00    -0.167 F 
ENDBRANCH   8  16
BRANCH  13  20
ATOM     20  O   UNL A   1      36.418  21.753  25.868  1.00  0.00    -0.406 OA
BRANCH  20  21
ATOM     21  C   UNL A   1      37.472  21.481  24.962  1.00  0.00     0.573 C 
ATOM     22  F   UNL A   1      38.633  21.996  25.416  1.00  0.00    -0.132 F 
ATOM     23  F   UNL A   1      37.622  20.159  24.735  1.00  0.00    -0.132 F 
ATOM     24  F   UNL A   1      37.184  22.069  23.778  1.00  0.00    -0.132 F 
ENDBRANCH  20  21
ENDBRANCH  13  20
ENDBRANCH   4   6
ENDBRANCH   3   4
ENDBRANCH   2   3
ENDBRANCH   1   2
BRANCH   1  25
ATOM     25  O   UNL A   1      33.835  29.357  27.496  1.00  0.00    -0.458 OA
BRANCH  25  26
ATOM     26  C   UNL A   1      34.542  30.419  27.960  1.00  0.00     0.338 C 
ATOM     27  O   UNL A   1      34.073  31.485  28.324  1.00  0.00    -0.246 OA
BRANCH  26  28
ATOM     28  C   UNL A   1      35.953  30.017  28.188  1.00  0.00     0.060 A 
ATOM     29  C   UNL A   1      36.289  29.589  29.477  1.00  0.00     0.016 A 
ATOM     30  C   UNL A   1      36.917  29.984  27.172  1.00  0.00     0.016 A 
ATOM     31  C   UNL A   1      37.589  29.176  29.765  1.00  0.00     0.010 A 
ATOM     32  C   UNL A   1      38.219  29.542  27.458  1.00  0.00     0.010 A 
ATOM     33  C   UNL A   1      38.576  29.173  28.767  1.00  0.00    -0.014 A 
BRANCH  33  34
ATOM     34  C   UNL A   1      39.989  28.935  29.174  1.00  0.00     0.031 A 
ATOM     35  C   UNL A   1      40.613  27.593  28.889  1.00  0.00     0.074 A 
ATOM     36  C   UNL A   1      40.752  29.928  29.675  1.00  0.00     0.049 A 
ATOM     37  N   UNL A   1      41.873  27.240  28.932  1.00  0.00    -0.248 NA
ATOM     38  C   UNL A   1      39.701  26.508  28.496  1.00  0.00     0.031 C 
ATOM     39  C   UNL A   1      40.281  31.267  30.025  1.00  0.00     0.029 A 
ATOM     40  N   UNL A   1      42.097  29.964  29.959  1.00  0.00    -0.354 N 
ATOM     41  C   UNL A   1      41.907  25.913  28.522  1.00  0.00     0.074 A 
ATOM     42  C   UNL A   1      40.537  25.496  28.323  1.00  0.00     0.031 C 
ATOM     43  C   UNL A   1      41.319  31.995  30.474  1.00  0.00     0.029 A 
ATOM     44  C   UNL A   1      42.533  31.182  30.427  1.00  0.00     0.049 A 
ATOM     45  H   UNL A   1      42.693  29.189  29.840  1.00  0.00     0.167 HD
ATOM     46  C   UNL A   1      42.979  25.121  28.286  1.00  0.00     0.037 A 
ATOM     47  C   UNL A   1      43.772  31.603  30.756  1.00  0.00     0.037 A 
ATOM     48  C   UNL A   1      44.344  25.514  28.511  1.00  0.00     0.049 A 
ATOM     49  C   UNL A   1      44.950  30.684  30.540  1.00  0.00     0.074 A 
ATOM     50  C   UNL A   1      45.498  24.779  28.305  1.00  0.00     0.029 A 
ATOM     51  N   UNL A   1      44.740  26.747  29.006  1.00  0.00    -0.354 N 
ATOM     52  N   UNL A   1      44.971  29.464  30.058  1.00  0.00    -0.248 NA
ATOM     53  C   UNL A   1      46.279  31.215  30.881  1.00  0.00     0.031 C 
ATOM     54  C   UNL A   1      46.589  25.554  28.714  1.00  0.00     0.029 A 
ATOM     55  C   UNL A   1      46.118  26.788  29.129  1.00  0.00     0.049 A 
ATOM     56  H   UNL A   1      44.129  27.485  29.236  1.00  0.00     0.167 HD
ATOM     57  C   UNL A   1      46.313  29.095  30.010  1.00  0.00     0.074 A 
ATOM     58  C   UNL A   1      47.075  30.229  30.492  1.00  0.00     0.031 C 
ATOM     59  C   UNL A   1      46.867  27.925  29.604  1.00  0.00     0.037 A 
BRANCH  46  60
ATOM     60  C   UNL A   1      42.705  23.751  27.733  1.00  0.00     0.058 A 
ATOM     61  C   UNL A   1      42.550  22.645  28.587  1.00  0.00     0.135 A 
ATOM     62  C   UNL A   1      42.593  23.534  26.352  1.00  0.00     0.135 A 
ATOM     63  F   UNL A   1      42.670  22.795  29.916  1.00  0.00    -0.206 F 
ATOM     64  C   UNL A   1      42.326  21.367  28.088  1.00  0.00     0.059 A 
ATOM     65  C   UNL A   1      42.343  22.268  25.832  1.00  0.00     0.059 A 
ATOM     66  F   UNL A   1      42.735  24.556  25.493  1.00  0.00    -0.206 F 
ATOM     67  C   UNL A   1      42.227  21.188  26.708  1.00  0.00     0.060 A 
BRANCH  67  68
ATOM     68  S   UNL A   1      41.949  19.520  26.077  1.00  0.00     0.124 S 
ATOM     69  O   UNL A   1      42.381  18.705  27.209  1.00  0.00    -0.237 OA
ATOM     70  O   UNL A   1      40.514  19.522  25.811  1.00  0.00    -0.237 OA
ATOM     71  O   UNL A   1      42.803  19.456  24.896  1.00  0.00    -0.744 OA
ENDBRANCH  67  68
ENDBRANCH  46  60
BRANCH  47  72
ATOM     72  C   UNL A   1      43.983  32.971  31.309  1.00  0.00     0.058 A 
ATOM     73  C   UNL A   1      43.856  33.235  32.682  1.00  0.00     0.135 A 
ATOM     74  C   UNL A   1      44.262  34.053  30.461  1.00  0.00     0.135 A 
ATOM     75  F   UNL A   1      43.579  32.236  33.535  1.00  0.00    -0.206 F 
ATOM     76  C   UNL A   1      43.957  34.528  33.189  1.00  0.00     0.059 A 
ATOM     77  C   UNL A   1      44.395  35.351  30.948  1.00  0.00     0.059 A 
ATOM     78  F   UNL A   1      44.406  33.854  29.142  1.00  0.00    -0.206 F 
ATOM     79  C   UNL A   1      44.221  35.581  32.312  1.00  0.00     0.060 A 
BRANCH  79  80
ATOM     80  S   UNL A   1      44.355  37.255  32.978  1.00  0.00     0.124 S 
ATOM     81  O   UNL A   1      43.593  37.139  34.216  1.00  0.00    -0.237 OA
ATOM     82  O   UNL A   1      45.797  37.413  33.127  1.00  0.00    -0.237 OA
ATOM     83  O   UNL A   1      43.745  38.078  31.938  1.00  0.00    -0.744 OA
ENDBRANCH  79  80
ENDBRANCH  47  72
BRANCH  59  84
ATOM     84  C   UNL A   1      48.368  27.817  29.635  1.00  0.00     0.058 A 
ATOM     85  C   UNL A   1      49.052  27.313  30.753  1.00  0.00     0.135 A 
ATOM     86  C   UNL A   1      49.134  28.194  28.518  1.00  0.00     0.135 A 
ATOM     87  F   UNL A   1      48.371  26.939  31.848  1.00  0.00    -0.206 F 
ATOM     88  C   UNL A   1      50.440  27.220  30.777  1.00  0.00     0.059 A 
ATOM     89  C   UNL A   1      50.520  28.082  28.510  1.00  0.00     0.059 A 
ATOM     90  F   UNL A   1      48.532  28.668  27.415  1.00  0.00    -0.206 F 
ATOM     91  C   UNL A   1      51.167  27.611  29.651  1.00  0.00     0.060 A 
BRANCH  91  92
ATOM     92  S   UNL A   1      52.967  27.475  29.689  1.00  0.00     0.124 S 
ATOM     93  O   UNL A   1      53.245  26.886  28.383  1.00  0.00    -0.237 OA
ATOM     94  O   UNL A   1      53.383  28.863  29.860  1.00  0.00    -0.237 OA
ATOM     95  O   UNL A   1      53.217  26.606  30.835  1.00  0.00    -0.744 OA
ENDBRANCH  91  92
ENDBRANCH  59  84
ENDBRANCH  33  34
ENDBRANCH  26  28
ENDBRANCH  25  26
ENDBRANCH   1  25
TORSDOF 17
ENDMDL
MODEL 2
REMARK VINA RESULT:     -11.1      3.232      8.527
REMARK SMILES O=C(OCCOC(=O)c1ccc(-c2c3nc(c(-c4c(F)cc(S(=O)(=O)[O-])cc4F)c4ccc([nH]4)c(-c4c(F)cc(S(=O)(=O)[O-])cc4F)c4nc(c(-c5c(F)cc(S(=O)(=O)[O-])cc5F)c5ccc2[nH]5)C=C4)C=C3)cc1)C1=Cc2cc(OC(F)(F)F)ccc2O[C@@H]1C(F)(F)F
REMARK SMILES IDX 5 1 4 2 3 3 2 4 1 5 75 6 76 7 89 8 77 9 88 10 78 11 87 12
REMARK SMILES IDX 79 13 86 14 85 15 90 16 91 17 92 18 93 19 80 20 81 21 82 22
REMARK SMILES IDX 83 23 84 24 6 25 7 26 8 27 9 28 10 29 74 30 11 31 73 32
REMARK SMILES IDX 12 33 13 34 14 35 67 36 15 37 72 38 66 39 68 40 16 41 71 42
REMARK SMILES IDX 65 43 64 44 17 46 51 47 30 48 50 49 31 50 34 51 49 52 69 53
REMARK SMILES IDX 32 54 33 55 48 57 70 58 35 59 18 60 19 61 28 62 20 63 21 64
REMARK SMILES IDX 27 65 29 66 22 67 23 68 24 69 25 70 26 71 52 72 53 73 62 74
REMARK SMILES IDX 54 75 55 76 61 77 63 78 56 79 57 80 58 81 59 82 60 83 36 84
REMARK SMILES IDX 37 85 46 86 38 87 39 88 45 89 47 90 40 91 41 92 42 93 43 94
REMARK SMILES IDX 44 95
REMARK H PARENT 68 45 34 56
REMARK Flexibility Score: inf
ROOT
ATOM      1  C   UNL A   1      32.272  29.590  27.214  1.00  0.00     0.275 C 
ENDROOT
BRANCH   1   2
ATOM      2  C   UNL A   1      31.599  28.387  26.519  1.00  0.00     0.275 C 
BRANCH   2   3
ATOM      3  O   UNL A   1      31.863  27.166  27.229  1.00  0.00    -0.459 OA
BRANCH   3   4
ATOM      4  C   UNL A   1      31.892  26.062  26.447  1.00  0.00     0.338 C 
ATOM      5  O   UNL A   1      31.238  25.055  26.671  1.00  0.00    -0.246 OA
BRANCH   4   6
ATOM      6  C   UNL A   1      32.768  26.255  25.246  1.00  0.00     0.087 C 
ATOM      7  C   UNL A   1      34.020  25.806  25.477  1.00  0.00     0.027 C 
ATOM      8  C   UNL A   1      32.143  25.868  23.920  1.00  0.00     0.316 C 
ATOM      9  C   UNL A   1      34.187  24.387  25.083  1.00  0.00     0.021 A 
ATOM     10  O   UNL A   1      32.182  24.430  23.705  1.00  0.00    -0.475 OA
ATOM     11  C   UNL A   1      35.263  23.641  25.566  1.00  0.00     0.058 A 
ATOM     12  C   UNL A   1      33.215  23.758  24.299  1.00  0.00     0.128 A 
ATOM     13  C   UNL A   1      35.316  22.254  25.368  1.00  0.00     0.130 A 
ATOM     14  C   UNL A   1      33.232  22.375  24.140  1.00  0.00     0.051 A 
ATOM     15  C   UNL A   1      34.266  21.619  24.701  1.00  0.00     0.050 A 
BRANCH   8  16
ATOM     16  C   UNL A   1      32.674  26.648  22.712  1.00  0.00     0.430 C 
ATOM     17  F   UNL A   1      33.774  26.041  22.206  1.00  0.00    -0.167 F 
ATOM     18  F   UNL A   1      31.771  26.749  21.713  1.00  0.00    -0.167 F 
ATOM     19  F   UNL A   1      33.038  27.906  23.060  1.00  0.00    -0.167 F 
ENDBRANCH   8  16
BRANCH  13  20
ATOM     20  O   UNL A   1      36.445  21.663  25.856  1.00  0.00    -0.406 OA
BRANCH  20  21
ATOM     21  C   UNL A   1      37.434  21.231  24.940  1.00  0.00     0.573 C 
ATOM     22  F   UNL A   1      37.312  19.909  24.699  1.00  0.00    -0.132 F 
ATOM     23  F   UNL A   1      37.382  21.909  23.774  1.00  0.00    -0.132 F 
ATOM     24  F   UNL A   1      38.652  21.450  25.486  1.00  0.00    -0.132 F 
ENDBRANCH  20  21
ENDBRANCH  13  20
ENDBRANCH   4   6
ENDBRANCH   3   4
ENDBRANCH   2   3
ENDBRANCH   1   2
BRANCH   1  25
ATOM     25  O   UNL A   1      33.689  29.645  26.974  1.00  0.00    -0.458 OA
BRANCH  25  26
ATOM     26  C   UNL A   1      34.318  30.658  27.622  1.00  0.00     0.338 C 
ATOM     27  O   UNL A   1      33.803  31.704  27.983  1.00  0.00    -0.246 OA
BRANCH  26  28
ATOM     28  C   UNL A   1      35.671  30.216  28.044  1.00  0.00     0.060 A 
ATOM     29  C   UNL A   1      35.794  29.706  29.340  1.00  0.00     0.016 A 
ATOM     30  C   UNL A   1      36.784  30.224  27.192  1.00  0.00     0.016 A 
ATOM     31  C   UNL A   1      37.029  29.251  29.803  1.00  0.00     0.010 A 
ATOM     32  C   UNL A   1      38.019  29.741  27.652  1.00  0.00     0.010 A 
ATOM     33  C   UNL A   1      38.161  29.288  28.976  1.00  0.00    -0.014 A 
BRANCH  33  34
ATOM     34  C   UNL A   1      39.490  28.999  29.584  1.00  0.00     0.031 A 
ATOM     35  C   UNL A   1      39.912  29.768  30.810  1.00  0.00     0.074 A 
ATOM     36  C   UNL A   1      40.261  27.988  29.138  1.00  0.00     0.049 A 
ATOM     37  N   UNL A   1      40.897  29.529  31.638  1.00  0.00    -0.248 NA
ATOM     38  C   UNL A   1      39.116  30.957  31.154  1.00  0.00     0.031 C 
ATOM     39  C   UNL A   1      39.994  27.176  27.952  1.00  0.00     0.029 A 
ATOM     40  N   UNL A   1      41.425  27.460  29.647  1.00  0.00    -0.354 N 
ATOM     41  C   UNL A   1      40.805  30.502  32.625  1.00  0.00     0.074 A 
ATOM     42  C   UNL A   1      39.729  31.390  32.245  1.00  0.00     0.031 C 
ATOM     43  C   UNL A   1      40.962  26.250  27.825  1.00  0.00     0.029 A 
ATOM     44  C   UNL A   1      41.910  26.391  28.930  1.00  0.00     0.049 A 
ATOM     45  H   UNL A   1      41.870  27.815  30.450  1.00  0.00     0.167 HD
ATOM     46  C   UNL A   1      41.519  30.627  33.769  1.00  0.00     0.037 A 
ATOM     47  C   UNL A   1      42.979  25.599  29.151  1.00  0.00     0.037 A 
ATOM     48  C   UNL A   1      42.612  29.771  34.141  1.00  0.00     0.049 A 
ATOM     49  C   UNL A   1      43.798  25.790  30.404  1.00  0.00     0.074 A 
ATOM     50  C   UNL A   1      43.399  29.822  35.278  1.00  0.00     0.029 A 
ATOM     51  N   UNL A   1      43.085  28.715  33.376  1.00  0.00    -0.354 N 
ATOM     52  N   UNL A   1      43.635  26.657  31.376  1.00  0.00    -0.248 NA
ATOM     53  C   UNL A   1      44.928  24.870  30.608  1.00  0.00     0.031 C 
ATOM     54  C   UNL A   1      44.372  28.821  35.182  1.00  0.00     0.029 A 
ATOM     55  C   UNL A   1      44.162  28.118  34.007  1.00  0.00     0.049 A 
ATOM     56  H   UNL A   1      42.708  28.433  32.511  1.00  0.00     0.167 HD
ATOM     57  C   UNL A   1      44.620  26.367  32.316  1.00  0.00     0.074 A 
ATOM     58  C   UNL A   1      45.361  25.231  31.808  1.00  0.00     0.031 C 
ATOM     59  C   UNL A   1      44.889  26.983  33.495  1.00  0.00     0.037 A 
BRANCH  46  60
ATOM     60  C   UNL A   1      41.112  31.727  34.708  1.00  0.00     0.058 A 
ATOM     61  C   UNL A   1      40.150  31.506  35.708  1.00  0.00     0.135 A 
ATOM     62  C   UNL A   1      41.680  33.006  34.616  1.00  0.00     0.135 A 
ATOM     63  F   UNL A   1      39.560  30.305  35.825  1.00  0.00    -0.206 F 
ATOM     64  C   UNL A   1      39.743  32.523  36.564  1.00  0.00     0.059 A 
ATOM     65  C   UNL A   1      41.306  34.032  35.479  1.00  0.00     0.059 A 
ATOM     66  F   UNL A   1      42.601  33.272  33.676  1.00  0.00    -0.206 F 
ATOM     67  C   UNL A   1      40.324  33.784  36.439  1.00  0.00     0.060 A 
BRANCH  67  68
ATOM     68  S   UNL A   1      39.775  35.097  37.550  1.00  0.00     0.124 S 
ATOM     69  O   UNL A   1      39.654  36.224  36.629  1.00  0.00    -0.237 OA
ATOM     70  O   UNL A   1      38.518  34.564  38.065  1.00  0.00    -0.237 OA
ATOM     71  O   UNL A   1      40.858  35.195  38.522  1.00  0.00    -0.744 OA
ENDBRANCH  67  68
ENDBRANCH  46  60
BRANCH  47  72
ATOM     72  C   UNL A   1      43.341  24.529  28.178  1.00  0.00     0.058 A 
ATOM     73  C   UNL A   1      44.208  24.776  27.103  1.00  0.00     0.135 A 
ATOM     74  C   UNL A   1      42.776  23.248  28.277  1.00  0.00     0.135 A 
ATOM     75  F   UNL A   1      44.767  25.988  26.957  1.00  0.00    -0.206 F 
ATOM     76  C   UNL A   1      44.473  23.807  26.139  1.00  0.00     0.059 A 
ATOM     77  C   UNL A   1      43.046  22.253  27.341  1.00  0.00     0.059 A 
ATOM     78  F   UNL A   1      41.950  22.954  29.293  1.00  0.00    -0.206 F 
ATOM     79  C   UNL A   1      43.880  22.549  26.264  1.00  0.00     0.060 A 
BRANCH  79  80
ATOM     80  S   UNL A   1      44.230  21.295  25.011  1.00  0.00     0.124 S 
ATOM     81  O   UNL A   1      44.115  22.069  23.781  1.00  0.00    -0.237 OA
ATOM     82  O   UNL A   1      45.577  20.866  25.373  1.00  0.00    -0.237 OA
ATOM     83  O   UNL A   1      43.183  20.301  25.231  1.00  0.00    -0.744 OA
ENDBRANCH  79  80
ENDBRANCH  47  72
BRANCH  59  84
ATOM     84  C   UNL A   1      46.011  26.427  34.331  1.00  0.00     0.058 A 
ATOM     85  C   UNL A   1      45.795  25.419  35.284  1.00  0.00     0.135 A 
ATOM     86  C   UNL A   1      47.327  26.887  34.155  1.00  0.00     0.135 A 
ATOM     87  F   UNL A   1      44.557  24.943  35.495  1.00  0.00    -0.206 F 
ATOM     88  C   UNL A   1      46.835  24.913  36.058  1.00  0.00     0.059 A 
ATOM     89  C   UNL A   1      48.386  26.374  34.897  1.00  0.00     0.059 A 
ATOM     90  F   UNL A   1      47.595  27.840  33.247  1.00  0.00    -0.206 F 
ATOM     91  C   UNL A   1      48.128  25.399  35.859  1.00  0.00     0.060 A 
BRANCH  91  92
ATOM     92  S   UNL A   1      49.471  24.727  36.860  1.00  0.00     0.124 S 
ATOM     93  O   UNL A   1      49.951  25.922  37.548  1.00  0.00    -0.237 OA
ATOM     94  O   UNL A   1      48.782  23.749  37.695  1.00  0.00    -0.237 OA
ATOM     95  O   UNL A   1      50.383  24.164  35.870  1.00  0.00    -0.744 OA
ENDBRANCH  91  92
ENDBRANCH  59  84
ENDBRANCH  33  34
ENDBRANCH  26  28
ENDBRANCH  25  26
ENDBRANCH   1  25
TORSDOF 17
ENDMDL
MODEL 3
REMARK VINA RESULT:     -11.1      2.416      3.075
REMARK SMILES O=C(OCCOC(=O)c1ccc(-c2c3nc(c(-c4c(F)cc(S(=O)(=O)[O-])cc4F)c4ccc([nH]4)c(-c4c(F)cc(S(=O)(=O)[O-])cc4F)c4nc(c(-c5c(F)cc(S(=O)(=O)[O-])cc5F)c5ccc2[nH]5)C=C4)C=C3)cc1)C1=Cc2cc(OC(F)(F)F)ccc2O[C@@H]1C(F)(F)F
REMARK SMILES IDX 5 1 4 2 3 3 2 4 1 5 75 6 76 7 89 8 77 9 88 10 78 11 87 12
REMARK SMILES IDX 79 13 86 14 85 15 90 16 91 17 92 18 93 19 80 20 81 21 82 22
REMARK SMILES IDX 83 23 84 24 6 25 7 26 8 27 9 28 10 29 74 30 11 31 73 32
REMARK SMILES IDX 12 33 13 34 14 35 67 36 15 37 72 38 66 39 68 40 16 41 71 42
REMARK SMILES IDX 65 43 64 44 17 46 51 47 30 48 50 49 31 50 34 51 49 52 69 53
REMARK SMILES IDX 32 54 33 55 48 57 70 58 35 59 18 60 19 61 28 62 20 63 21 64
REMARK SMILES IDX 27 65 29 66 22 67 23 68 24 69 25 70 26 71 52 72 53 73 62 74
REMARK SMILES IDX 54 75 55 76 61 77 63 78 56 79 57 80 58 81 59 82 60 83 36 84
REMARK SMILES IDX 37 85 46 86 38 87 39 88 45 89 47 90 40 91 41 92 42 93 43 94
REMARK SMILES IDX 44 95
REMARK H PARENT 68 45 34 56
REMARK Flexibility Score: inf
ROOT
ATOM      1  C   UNL A   1      34.450  30.814  27.702  1.00  0.00     0.275 C 
ENDROOT
BRANCH   1   2
ATOM      2  C   UNL A   1      33.167  30.106  27.219  1.00  0.00     0.275 C 
BRANCH   2   3
ATOM      3  O   UNL A   1      33.356  28.683  27.150  1.00  0.00    -0.459 OA
BRANCH   3   4
ATOM      4  C   UNL A   1      32.211  27.965  27.208  1.00  0.00     0.338 C 
ATOM      5  O   UNL A   1      31.501  27.899  28.200  1.00  0.00    -0.246 OA
BRANCH   4   6
ATOM      6  C   UNL A   1      31.891  27.321  25.892  1.00  0.00     0.087 C 
ATOM      7  C   UNL A   1      32.975  26.703  25.374  1.00  0.00     0.027 C 
ATOM      8  C   UNL A   1      30.586  26.550  25.848  1.00  0.00     0.316 C 
ATOM      9  C   UNL A   1      33.059  25.282  25.787  1.00  0.00     0.021 A 
ATOM     10  O   UNL A   1      30.718  25.232  26.450  1.00  0.00    -0.475 OA
ATOM     11  C   UNL A   1      34.261  24.582  25.671  1.00  0.00     0.058 A 
ATOM     12  C   UNL A   1      31.958  24.658  26.382  1.00  0.00     0.128 A 
ATOM     13  C   UNL A   1      34.404  23.311  26.244  1.00  0.00     0.130 A 
ATOM     14  C   UNL A   1      32.106  23.420  26.999  1.00  0.00     0.051 A 
ATOM     15  C   UNL A   1      33.337  22.759  26.957  1.00  0.00     0.050 A 
BRANCH   8  16
ATOM     16  C   UNL A   1      29.926  26.493  24.467  1.00  0.00     0.430 C 
ATOM     17  F   UNL A   1      29.939  27.716  23.887  1.00  0.00    -0.167 F 
ATOM     18  F   UNL A   1      30.544  25.637  23.623  1.00  0.00    -0.167 F 
ATOM     19  F   UNL A   1      28.630  26.109  24.556  1.00  0.00    -0.167 F 
ENDBRANCH   8  16
BRANCH  13  20
ATOM     20  O   UNL A   1      35.617  22.729  26.016  1.00  0.00    -0.406 OA
BRANCH  20  21
ATOM     21  C   UNL A   1      35.748  21.848  24.915  1.00  0.00     0.573 C 
ATOM     22  F   UNL A   1      34.560  21.678  24.299  1.00  0.00    -0.132 F 
ATOM     23  F   UNL A   1      36.663  22.280  24.021  1.00  0.00    -0.132 F 
ATOM     24  F   UNL A   1      36.161  20.644  25.374  1.00  0.00    -0.132 F 
ENDBRANCH  20  21
ENDBRANCH  13  20
ENDBRANCH   4   6
ENDBRANCH   3   4
ENDBRANCH   2   3
ENDBRANCH   1   2
BRANCH   1  25
ATOM     25  O   UNL A   1      35.331  29.933  28.419  1.00  0.00    -0.458 OA
BRANCH  25  26
ATOM     26  C   UNL A   1      36.193  30.572  29.251  1.00  0.00     0.338 C 
ATOM     27  O   UNL A   1      35.881  31.287  30.190  1.00  0.00    -0.246 OA
BRANCH  26  28
ATOM     28  C   UNL A   1      37.574  30.089  29.005  1.00  0.00     0.060 A 
ATOM     29  C   UNL A   1      38.377  29.869  30.129  1.00  0.00     0.016 A 
ATOM     30  C   UNL A   1      38.067  29.785  27.729  1.00  0.00     0.016 A 
ATOM     31  C   UNL A   1      39.681  29.395  29.981  1.00  0.00     0.010 A 
ATOM     32  C   UNL A   1      39.371  29.283  27.585  1.00  0.00     0.010 A 
ATOM     33  C   UNL A   1      40.202  29.123  28.708  1.00  0.00    -0.014 A 
BRANCH  33  34
ATOM     34  C   UNL A   1      41.659  28.832  28.589  1.00  0.00     0.031 A 
ATOM     35  C   UNL A   1      42.097  27.426  28.270  1.00  0.00     0.074 A 
ATOM     36  C   UNL A   1      42.578  29.817  28.640  1.00  0.00     0.049 A 
ATOM     37  N   UNL A   1      43.271  26.991  27.888  1.00  0.00    -0.248 NA
ATOM     38  C   UNL A   1      41.077  26.371  28.385  1.00  0.00     0.031 C 
ATOM     39  C   UNL A   1      42.306  31.216  28.963  1.00  0.00     0.029 A 
ATOM     40  N   UNL A   1      43.932  29.788  28.399  1.00  0.00    -0.354 N 
ATOM     41  C   UNL A   1      43.116  25.628  27.670  1.00  0.00     0.074 A 
ATOM     42  C   UNL A   1      41.762  25.290  28.048  1.00  0.00     0.031 C 
ATOM     43  C   UNL A   1      43.454  31.914  28.899  1.00  0.00     0.029 A 
ATOM     44  C   UNL A   1      44.541  31.017  28.511  1.00  0.00     0.049 A 
ATOM     45  H   UNL A   1      44.420  28.965  28.169  1.00  0.00     0.167 HD
ATOM     46  C   UNL A   1      44.001  24.740  27.157  1.00  0.00     0.037 A 
ATOM     47  C   UNL A   1      45.823  31.382  28.301  1.00  0.00     0.037 A 
ATOM     48  C   UNL A   1      45.360  25.057  26.809  1.00  0.00     0.049 A 
ATOM     49  C   UNL A   1      46.810  30.364  27.785  1.00  0.00     0.074 A 
ATOM     50  C   UNL A   1      46.334  24.224  26.287  1.00  0.00     0.029 A 
ATOM     51  N   UNL A   1      45.943  26.307  26.959  1.00  0.00    -0.354 N 
ATOM     52  N   UNL A   1      46.619  29.100  27.491  1.00  0.00    -0.248 NA
ATOM     53  C   UNL A   1      48.182  30.834  27.538  1.00  0.00     0.031 C 
ATOM     54  C   UNL A   1      47.517  24.960  26.160  1.00  0.00     0.029 A 
ATOM     55  C   UNL A   1      47.267  26.263  26.557  1.00  0.00     0.049 A 
ATOM     56  H   UNL A   1      45.481  27.107  27.301  1.00  0.00     0.167 HD
ATOM     57  C   UNL A   1      47.835  28.634  26.998  1.00  0.00     0.074 A 
ATOM     58  C   UNL A   1      48.749  29.757  27.013  1.00  0.00     0.031 C 
ATOM     59  C   UNL A   1      48.167  27.389  26.571  1.00  0.00     0.037 A 
BRANCH  46  60
ATOM     60  C   UNL A   1      43.506  23.341  26.928  1.00  0.00     0.058 A 
ATOM     61  C   UNL A   1      43.356  22.442  27.998  1.00  0.00     0.135 A 
ATOM     62  C   UNL A   1      43.177  22.889  25.641  1.00  0.00     0.135 A 
ATOM     63  F   UNL A   1      43.678  22.818  29.247  1.00  0.00    -0.206 F 
ATOM     64  C   UNL A   1      42.928  21.135  27.796  1.00  0.00     0.059 A 
ATOM     65  C   UNL A   1      42.722  21.593  25.419  1.00  0.00     0.059 A 
ATOM     66  F   UNL A   1      43.306  23.706  24.584  1.00  0.00    -0.206 F 
ATOM     67  C   UNL A   1      42.616  20.719  26.502  1.00  0.00     0.060 A 
BRANCH  67  68
ATOM     68  S   UNL A   1      42.074  19.015  26.255  1.00  0.00     0.124 S 
ATOM     69  O   UNL A   1      42.208  18.470  27.603  1.00  0.00    -0.237 OA
ATOM     70  O   UNL A   1      40.706  19.188  25.777  1.00  0.00    -0.237 OA
ATOM     71  O   UNL A   1      43.018  18.496  25.272  1.00  0.00    -0.744 OA
ENDBRANCH  67  68
ENDBRANCH  46  60
BRANCH  47  72
ATOM     72  C   UNL A   1      46.259  32.784  28.556  1.00  0.00     0.058 A 
ATOM     73  C   UNL A   1      46.683  33.202  29.827  1.00  0.00     0.135 A 
ATOM     74  C   UNL A   1      46.206  33.749  27.538  1.00  0.00     0.135 A 
ATOM     75  F   UNL A   1      46.743  32.321  30.838  1.00  0.00    -0.206 F 
ATOM     76  C   UNL A   1      47.000  34.532  30.091  1.00  0.00     0.059 A 
ATOM     77  C   UNL A   1      46.544  35.080  27.771  1.00  0.00     0.059 A 
ATOM     78  F   UNL A   1      45.820  33.401  26.301  1.00  0.00    -0.206 F 
ATOM     79  C   UNL A   1      46.921  35.465  29.056  1.00  0.00     0.060 A 
BRANCH  79  80
ATOM     80  S   UNL A   1      47.337  37.189  29.406  1.00  0.00     0.124 S 
ATOM     81  O   UNL A   1      47.904  37.617  28.133  1.00  0.00    -0.237 OA
ATOM     82  O   UNL A   1      46.037  37.755  29.750  1.00  0.00    -0.237 OA
ATOM     83  O   UNL A   1      48.281  37.086  30.515  1.00  0.00    -0.744 OA
ENDBRANCH  79  80
ENDBRANCH  47  72
BRANCH  59  84
ATOM     84  C   UNL A   1      49.566  27.180  26.057  1.00  0.00     0.058 A 
ATOM     85  C   UNL A   1      50.619  26.807  26.908  1.00  0.00     0.135 A 
ATOM     86  C   UNL A   1      49.853  27.322  24.689  1.00  0.00     0.135 A 
ATOM     87  F   UNL A   1      50.402  26.657  28.225  1.00  0.00    -0.206 F 
ATOM     88  C   UNL A   1      51.912  26.619  26.428  1.00  0.00     0.059 A 
ATOM     89  C   UNL A   1      51.132  27.110  24.183  1.00  0.00     0.059 A 
ATOM     90  F   UNL A   1      48.882  27.662  23.826  1.00  0.00    -0.206 F 
ATOM     91  C   UNL A   1      52.160  26.776  25.063  1.00  0.00     0.060 A 
BRANCH  91  92
ATOM     92  S   UNL A   1      53.838  26.518  24.450  1.00  0.00     0.124 S 
ATOM     93  O   UNL A   1      54.224  27.874  24.073  1.00  0.00    -0.237 OA
ATOM     94  O   UNL A   1      54.518  25.968  25.618  1.00  0.00    -0.237 OA
ATOM     95  O   UNL A   1      53.655  25.586  23.342  1.00  0.00    -0.744 OA
ENDBRANCH  91  92
ENDBRANCH  59  84
ENDBRANCH  33  34
ENDBRANCH  26  28
ENDBRANCH  25  26
ENDBRANCH   1  25
TORSDOF 17
ENDMDL
