MODEL 1
REMARK VINA RESULT:     -12.4      0.000      0.000
REMARK SMILES O=C(OCCOC(=O)c1ccc(-c2c3nc(c(-c4c(F)cc(S(=O)(=O)[O-])cc4F)c4ccc([nH]4)c(-c4c(F)cc(S(=O)(=O)[O-])cc4F)c4nc(c(-c5c(F)cc(S(=O)(=O)[O-])cc5F)c5ccc2[nH]5)C=C4)C=C3)cc1)C1=Cc2cc(S(F)(F)(F)(F)F)ccc2O[C@@H]1C(F)(F)F
REMARK SMILES IDX 5 1 4 2 3 3 2 4 1 5 75 6 76 7 90 8 77 9 89 10 78 11 88 12
REMARK SMILES IDX 79 13 87 14 86 15 91 16 92 17 93 18 94 19 80 20 81 21 82 22
REMARK SMILES IDX 83 23 84 24 85 25 6 26 7 27 8 28 9 29 10 30 74 31 11 32
REMARK SMILES IDX 73 33 12 34 13 35 14 36 67 37 15 38 72 39 66 40 68 41 16 42
REMARK SMILES IDX 71 43 65 44 64 45 17 47 51 48 30 49 50 50 31 51 34 52 49 53
REMARK SMILES IDX 69 54 32 55 33 56 48 58 70 59 35 60 18 61 19 62 28 63 20 64
REMARK SMILES IDX 21 65 27 66 29 67 22 68 23 69 24 70 25 71 26 72 52 73 53 74
REMARK SMILES IDX 62 75 54 76 55 77 61 78 63 79 56 80 57 81 58 82 59 83 60 84
REMARK SMILES IDX 36 85 37 86 46 87 38 88 39 89 45 90 47 91 40 92 41 93 42 94
REMARK SMILES IDX 43 95 44 96
REMARK H PARENT 68 46 34 57
REMARK Flexibility Score: inf
ROOT
ATOM      1  C   UNL A   1      38.144  23.246  26.102  1.00  0.00     0.275 C 
ENDROOT
BRANCH   1   2
ATOM      2  C   UNL A   1      36.678  23.644  26.030  1.00  0.00     0.275 C 
BRANCH   2   3
ATOM      3  O   UNL A   1      36.350  23.997  24.695  1.00  0.00    -0.459 OA
BRANCH   3   4
ATOM      4  C   UNL A   1      35.451  23.190  23.948  1.00  0.00     0.338 C 
ATOM      5  O   UNL A   1      35.691  22.937  22.726  1.00  0.00    -0.246 OA
BRANCH   4   6
ATOM      6  C   UNL A   1      34.204  22.628  24.610  1.00  0.00     0.087 C 
ATOM      7  C   UNL A   1      33.222  23.468  25.035  1.00  0.00     0.027 C 
ATOM      8  C   UNL A   1      34.053  21.127  24.796  1.00  0.00     0.316 C 
ATOM      9  C   UNL A   1      33.373  24.969  24.848  1.00  0.00     0.019 A 
ATOM     10  O   UNL A   1      34.139  24.400  22.671  1.00  0.00    -0.475 OA
ATOM     11  C   UNL A   1      33.189  25.871  25.884  1.00  0.00     0.036 A 
ATOM     12  C   UNL A   1      33.808  25.367  23.657  1.00  0.00     0.128 A 
ATOM     13  C   UNL A   1      33.215  27.225  25.476  1.00  0.00     0.107 A 
ATOM     14  C   UNL A   1      33.940  26.704  23.373  1.00  0.00     0.048 A 
ATOM     15  C   UNL A   1      33.717  27.653  24.331  1.00  0.00     0.028 A 
BRANCH   8  16
ATOM     16  C   UNL A   1      32.813  20.647  24.060  1.00  0.00     0.430 C 
ATOM     17  F   UNL A   1      32.980  19.379  23.691  1.00  0.00    -0.167 F 
ATOM     18  F   UNL A   1      31.756  20.739  24.861  1.00  0.00    -0.167 F 
ATOM     19  F   UNL A   1      32.619  21.399  22.981  1.00  0.00    -0.167 F 
ENDBRANCH   8  16
BRANCH  13  20
ATOM     20  S   UNL A   1      32.515  28.457  26.601  1.00  0.00     0.310 S 
ATOM     21  F   UNL A   1      31.879  27.349  27.541  1.00  0.00    -0.094 F 
ATOM     22  F   UNL A   1      31.175  28.426  25.773  1.00  0.00    -0.094 F 
ATOM     23  F   UNL A   1      31.926  29.526  27.566  1.00  0.00    -0.094 F 
ATOM     24  F   UNL A   1      33.811  28.372  27.500  1.00  0.00    -0.094 F 
ATOM     25  F   UNL A   1      33.082  27.291  25.698  1.00  0.00    -0.094 F 
ENDBRANCH  13  20
ENDBRANCH   4   6
ENDBRANCH   3   4
ENDBRANCH   2   3
ENDBRANCH   1   2
BRANCH   1  26
ATOM     26  O   UNL A   1      38.957  24.392  25.904  1.00  0.00    -0.458 OA
BRANCH  26  27
ATOM     27  C   UNL A   1      40.080  24.620  26.742  1.00  0.00     0.338 C 
ATOM     28  O   UNL A   1      41.070  23.823  26.708  1.00  0.00    -0.246 OA
BRANCH  27  29
ATOM     29  C   UNL A   1      40.099  25.816  27.679  1.00  0.00     0.060 A 
ATOM     30  C   UNL A   1      41.087  26.780  27.574  1.00  0.00     0.016 A 
ATOM     31  C   UNL A   1      39.245  25.814  28.696  1.00  0.00     0.016 A 
ATOM     32  C   UNL A   1      41.277  27.539  28.752  1.00  0.00     0.010 A 
ATOM     33  C   UNL A   1      39.413  26.676  29.752  1.00  0.00     0.010 A 
ATOM     34  C   UNL A   1      40.406  27.617  29.742  1.00  0.00    -0.014 A 
BRANCH  34  35
ATOM     35  C   UNL A   1      40.500  28.693  30.810  1.00  0.00     0.031 A 
ATOM     36  C   UNL A   1      39.557  29.720  30.719  1.00  0.00     0.074 A 
ATOM     37  C   UNL A   1      41.384  28.546  31.866  1.00  0.00     0.049 A 
ATOM     38  N   UNL A   1      39.318  30.685  31.607  1.00  0.00    -0.248 NA
ATOM     39  C   UNL A   1      38.642  29.898  29.582  1.00  0.00     0.031 C 
ATOM     40  C   UNL A   1      42.331  27.509  31.968  1.00  0.00     0.029 A 
ATOM     41  N   UNL A   1      41.511  29.346  32.979  1.00  0.00    -0.354 N 
ATOM     42  C   UNL A   1      38.327  31.471  31.178  1.00  0.00     0.074 A 
ATOM     43  C   UNL A   1      37.882  30.980  29.867  1.00  0.00     0.031 C 
ATOM     44  C   UNL A   1      43.028  27.688  33.121  1.00  0.00     0.029 A 
ATOM     45  C   UNL A   1      42.527  28.839  33.759  1.00  0.00     0.049 A 
ATOM     46  H   UNL A   1      40.969  30.142  33.183  1.00  0.00     0.167 HD
ATOM     47  C   UNL A   1      37.777  32.575  31.830  1.00  0.00     0.037 A 
ATOM     48  C   UNL A   1      43.005  29.339  34.960  1.00  0.00     0.037 A 
ATOM     49  C   UNL A   1      38.227  33.049  33.052  1.00  0.00     0.049 A 
ATOM     50  C   UNL A   1      42.494  30.479  35.584  1.00  0.00     0.074 A 
ATOM     51  C   UNL A   1      37.678  34.157  33.726  1.00  0.00     0.029 A 
ATOM     52  N   UNL A   1      39.259  32.557  33.819  1.00  0.00    -0.354 N 
ATOM     53  N   UNL A   1      41.477  31.240  35.174  1.00  0.00    -0.248 NA
ATOM     54  C   UNL A   1      43.014  31.037  36.839  1.00  0.00     0.031 C 
ATOM     55  C   UNL A   1      38.375  34.336  34.880  1.00  0.00     0.029 A 
ATOM     56  C   UNL A   1      39.371  33.344  34.945  1.00  0.00     0.049 A 
ATOM     57  H   UNL A   1      39.819  31.778  33.602  1.00  0.00     0.167 HD
ATOM     58  C   UNL A   1      41.266  32.231  36.042  1.00  0.00     0.074 A 
ATOM     59  C   UNL A   1      42.255  32.118  37.123  1.00  0.00     0.031 C 
ATOM     60  C   UNL A   1      40.285  33.222  35.981  1.00  0.00     0.037 A 
BRANCH  47  61
ATOM     61  C   UNL A   1      36.620  33.299  31.162  1.00  0.00     0.058 A 
ATOM     62  C   UNL A   1      35.315  33.107  31.587  1.00  0.00     0.135 A 
ATOM     63  C   UNL A   1      36.900  34.102  30.142  1.00  0.00     0.135 A 
ATOM     64  F   UNL A   1      35.007  32.525  32.743  1.00  0.00    -0.206 F 
ATOM     65  C   UNL A   1      34.340  33.588  30.682  1.00  0.00     0.059 A 
ATOM     66  C   UNL A   1      35.893  34.647  29.382  1.00  0.00     0.059 A 
ATOM     67  F   UNL A   1      38.168  34.381  29.854  1.00  0.00    -0.206 F 
ATOM     68  C   UNL A   1      34.580  34.450  29.710  1.00  0.00     0.060 A 
BRANCH  68  69
ATOM     69  S   UNL A   1      33.243  35.324  28.859  1.00  0.00     0.124 S 
ATOM     70  O   UNL A   1      33.836  36.409  27.956  1.00  0.00    -0.237 OA
ATOM     71  O   UNL A   1      32.445  34.332  28.010  1.00  0.00    -0.237 OA
ATOM     72  O   UNL A   1      32.209  36.048  30.014  1.00  0.00    -0.744 OA
ENDBRANCH  68  69
ENDBRANCH  47  61
BRANCH  48  73
ATOM     73  C   UNL A   1      44.152  28.605  35.636  1.00  0.00     0.058 A 
ATOM     74  C   UNL A   1      43.836  27.629  36.566  1.00  0.00     0.135 A 
ATOM     75  C   UNL A   1      45.415  28.887  35.335  1.00  0.00     0.135 A 
ATOM     76  F   UNL A   1      42.608  27.139  36.715  1.00  0.00    -0.206 F 
ATOM     77  C   UNL A   1      44.937  27.200  37.345  1.00  0.00     0.059 A 
ATOM     78  C   UNL A   1      46.445  28.326  36.049  1.00  0.00     0.059 A 
ATOM     79  F   UNL A   1      45.684  29.719  34.333  1.00  0.00    -0.206 F 
ATOM     80  C   UNL A   1      46.203  27.398  37.024  1.00  0.00     0.060 A 
BRANCH  80  81
ATOM     81  S   UNL A   1      47.544  26.489  37.830  1.00  0.00     0.124 S 
ATOM     82  O   UNL A   1      48.662  26.226  36.819  1.00  0.00    -0.237 OA
ATOM     83  O   UNL A   1      48.094  27.318  38.994  1.00  0.00    -0.237 OA
ATOM     84  O   UNL A   1      46.949  25.000  38.423  1.00  0.00    -0.744 OA
ENDBRANCH  80  81
ENDBRANCH  48  73
BRANCH  60  85
ATOM     85  C   UNL A   1      40.213  34.228  37.117  1.00  0.00     0.058 A 
ATOM     86  C   UNL A   1      39.468  33.963  38.255  1.00  0.00     0.135 A 
ATOM     87  C   UNL A   1      40.797  35.407  36.936  1.00  0.00     0.135 A 
ATOM     88  F   UNL A   1      39.081  32.738  38.599  1.00  0.00    -0.206 F 
ATOM     89  C   UNL A   1      39.155  35.113  39.016  1.00  0.00     0.059 A 
ATOM     90  C   UNL A   1      40.552  36.448  37.798  1.00  0.00     0.059 A 
ATOM     91  F   UNL A   1      41.626  35.580  35.911  1.00  0.00    -0.206 F 
ATOM     92  C   UNL A   1      39.777  36.273  38.910  1.00  0.00     0.060 A 
BRANCH  92  93
ATOM     93  S   UNL A   1      39.612  37.562  40.170  1.00  0.00     0.124 S 
ATOM     94  O   UNL A   1      40.989  38.152  40.481  1.00  0.00    -0.237 OA
ATOM     95  O   UNL A   1      38.690  38.668  39.651  1.00  0.00    -0.237 OA
ATOM     96  O   UNL A   1      38.947  36.887  41.593  1.00  0.00    -0.744 OA
ENDBRANCH  92  93
ENDBRANCH  60  85
ENDBRANCH  34  35
ENDBRANCH  27  29
ENDBRANCH  26  27
ENDBRANCH   1  26
TORSDOF 16
ENDMDL
MODEL 2
REMARK VINA RESULT:     -12.2      6.995     12.054
REMARK SMILES O=C(OCCOC(=O)c1ccc(-c2c3nc(c(-c4c(F)cc(S(=O)(=O)[O-])cc4F)c4ccc([nH]4)c(-c4c(F)cc(S(=O)(=O)[O-])cc4F)c4nc(c(-c5c(F)cc(S(=O)(=O)[O-])cc5F)c5ccc2[nH]5)C=C4)C=C3)cc1)C1=Cc2cc(S(F)(F)(F)(F)F)ccc2O[C@@H]1C(F)(F)F
REMARK SMILES IDX 5 1 4 2 3 3 2 4 1 5 75 6 76 7 90 8 77 9 89 10 78 11 88 12
REMARK SMILES IDX 79 13 87 14 86 15 91 16 92 17 93 18 94 19 80 20 81 21 82 22
REMARK SMILES IDX 83 23 84 24 85 25 6 26 7 27 8 28 9 29 10 30 74 31 11 32
REMARK SMILES IDX 73 33 12 34 13 35 14 36 67 37 15 38 72 39 66 40 68 41 16 42
REMARK SMILES IDX 71 43 65 44 64 45 17 47 51 48 30 49 50 50 31 51 34 52 49 53
REMARK SMILES IDX 69 54 32 55 33 56 48 58 70 59 35 60 18 61 19 62 28 63 20 64
REMARK SMILES IDX 21 65 27 66 29 67 22 68 23 69 24 70 25 71 26 72 52 73 53 74
REMARK SMILES IDX 62 75 54 76 55 77 61 78 63 79 56 80 57 81 58 82 59 83 60 84
REMARK SMILES IDX 36 85 37 86 46 87 38 88 39 89 45 90 47 91 40 92 41 93 42 94
REMARK SMILES IDX 43 95 44 96
REMARK H PARENT 68 46 34 57
REMARK Flexibility Score: inf
ROOT
ATOM      1  C   UNL A   1      34.260  30.023  27.674  1.00  0.00     0.275 C 
ENDROOT
BRANCH   1   2
ATOM      2  C   UNL A   1      34.243  28.900  26.650  1.00  0.00     0.275 C 
BRANCH   2   3
ATOM      3  O   UNL A   1      33.395  27.856  27.107  1.00  0.00    -0.459 OA
BRANCH   3   4
ATOM      4  C   UNL A   1      32.107  27.684  26.533  1.00  0.00     0.338 C 
ATOM      5  O   UNL A   1      31.090  27.553  27.283  1.00  0.00    -0.246 OA
BRANCH   4   6
ATOM      6  C   UNL A   1      31.946  27.659  25.022  1.00  0.00     0.087 C 
ATOM      7  C   UNL A   1      32.466  26.630  24.300  1.00  0.00     0.027 C 
ATOM      8  C   UNL A   1      31.202  28.781  24.318  1.00  0.00     0.316 C 
ATOM      9  C   UNL A   1      33.209  25.507  25.004  1.00  0.00     0.019 A 
ATOM     10  O   UNL A   1      31.422  25.599  26.568  1.00  0.00    -0.475 OA
ATOM     11  C   UNL A   1      34.467  25.082  24.606  1.00  0.00     0.036 A 
ATOM     12  C   UNL A   1      32.636  25.028  26.102  1.00  0.00     0.128 A 
ATOM     13  C   UNL A   1      34.921  23.925  25.281  1.00  0.00     0.107 A 
ATOM     14  C   UNL A   1      33.207  23.984  26.790  1.00  0.00     0.048 A 
ATOM     15  C   UNL A   1      34.419  23.475  26.417  1.00  0.00     0.028 A 
BRANCH   8  16
ATOM     16  C   UNL A   1      30.004  28.210  23.577  1.00  0.00     0.430 C 
ATOM     17  F   UNL A   1      29.511  27.179  24.258  1.00  0.00    -0.167 F 
ATOM     18  F   UNL A   1      29.069  29.148  23.455  1.00  0.00    -0.167 F 
ATOM     19  F   UNL A   1      30.383  27.802  22.370  1.00  0.00    -0.167 F 
ENDBRANCH   8  16
BRANCH  13  20
ATOM     20  S   UNL A   1      36.285  22.998  24.538  1.00  0.00     0.310 S 
ATOM     21  F   UNL A   1      36.416  22.035  25.791  1.00  0.00    -0.094 F 
ATOM     22  F   UNL A   1      37.307  23.959  25.255  1.00  0.00    -0.094 F 
ATOM     23  F   UNL A   1      37.451  22.203  23.883  1.00  0.00    -0.094 F 
ATOM     24  F   UNL A   1      35.254  21.960  23.941  1.00  0.00    -0.094 F 
ATOM     25  F   UNL A   1      35.098  23.725  25.285  1.00  0.00    -0.094 F 
ENDBRANCH  13  20
ENDBRANCH   4   6
ENDBRANCH   3   4
ENDBRANCH   2   3
ENDBRANCH   1   2
BRANCH   1  26
ATOM     26  O   UNL A   1      35.554  30.603  27.720  1.00  0.00    -0.458 OA
BRANCH  26  27
ATOM     27  C   UNL A   1      36.360  30.452  28.879  1.00  0.00     0.338 C 
ATOM     28  O   UNL A   1      35.914  30.813  30.014  1.00  0.00    -0.246 OA
BRANCH  27  29
ATOM     29  C   UNL A   1      37.755  29.860  28.765  1.00  0.00     0.060 A 
ATOM     30  C   UNL A   1      38.574  29.761  29.877  1.00  0.00     0.016 A 
ATOM     31  C   UNL A   1      38.214  29.600  27.546  1.00  0.00     0.016 A 
ATOM     32  C   UNL A   1      39.951  29.659  29.569  1.00  0.00     0.010 A 
ATOM     33  C   UNL A   1      39.553  29.376  27.337  1.00  0.00     0.010 A 
ATOM     34  C   UNL A   1      40.430  29.324  28.384  1.00  0.00    -0.014 A 
BRANCH  34  35
ATOM     35  C   UNL A   1      41.878  28.902  28.197  1.00  0.00     0.031 A 
ATOM     36  C   UNL A   1      42.083  27.545  27.937  1.00  0.00     0.074 A 
ATOM     37  C   UNL A   1      42.878  29.858  28.151  1.00  0.00     0.049 A 
ATOM     38  N   UNL A   1      43.220  26.949  27.577  1.00  0.00    -0.248 NA
ATOM     39  C   UNL A   1      41.030  26.522  28.019  1.00  0.00     0.031 C 
ATOM     40  C   UNL A   1      42.677  31.229  28.404  1.00  0.00     0.029 A 
ATOM     41  N   UNL A   1      44.211  29.673  27.862  1.00  0.00    -0.354 N 
ATOM     42  C   UNL A   1      43.019  25.641  27.398  1.00  0.00     0.074 A 
ATOM     43  C   UNL A   1      41.609  25.347  27.686  1.00  0.00     0.031 C 
ATOM     44  C   UNL A   1      43.874  31.860  28.281  1.00  0.00     0.029 A 
ATOM     45  C   UNL A   1      44.843  30.894  27.948  1.00  0.00     0.049 A 
ATOM     46  H   UNL A   1      44.639  28.816  27.633  1.00  0.00     0.167 HD
ATOM     47  C   UNL A   1      43.955  24.684  27.005  1.00  0.00     0.037 A 
ATOM     48  C   UNL A   1      46.187  31.170  27.754  1.00  0.00     0.037 A 
ATOM     49  C   UNL A   1      45.291  24.968  26.768  1.00  0.00     0.049 A 
ATOM     50  C   UNL A   1      47.136  30.202  27.417  1.00  0.00     0.074 A 
ATOM     51  C   UNL A   1      46.246  24.015  26.363  1.00  0.00     0.029 A 
ATOM     52  N   UNL A   1      45.928  26.183  26.878  1.00  0.00    -0.354 N 
ATOM     53  N   UNL A   1      46.927  28.902  27.200  1.00  0.00    -0.248 NA
ATOM     54  C   UNL A   1      48.569  30.476  27.240  1.00  0.00     0.031 C 
ATOM     55  C   UNL A   1      47.445  24.646  26.240  1.00  0.00     0.029 A 
ATOM     56  C   UNL A   1      47.257  26.003  26.567  1.00  0.00     0.049 A 
ATOM     57  H   UNL A   1      45.506  27.035  27.134  1.00  0.00     0.167 HD
ATOM     58  C   UNL A   1      48.073  28.298  26.881  1.00  0.00     0.074 A 
ATOM     59  C   UNL A   1      49.147  29.300  26.908  1.00  0.00     0.031 C 
ATOM     60  C   UNL A   1      48.267  26.953  26.563  1.00  0.00     0.037 A 
BRANCH  47  61
ATOM     61  C   UNL A   1      43.484  23.250  26.827  1.00  0.00     0.058 A 
ATOM     62  C   UNL A   1      43.242  22.435  27.921  1.00  0.00     0.135 A 
ATOM     63  C   UNL A   1      43.337  22.798  25.587  1.00  0.00     0.135 A 
ATOM     64  F   UNL A   1      43.129  22.903  29.161  1.00  0.00    -0.206 F 
ATOM     65  C   UNL A   1      43.125  21.063  27.600  1.00  0.00     0.059 A 
ATOM     66  C   UNL A   1      43.088  21.467  25.352  1.00  0.00     0.059 A 
ATOM     67  F   UNL A   1      43.431  23.642  24.564  1.00  0.00    -0.206 F 
ATOM     68  C   UNL A   1      42.896  20.595  26.386  1.00  0.00     0.060 A 
BRANCH  68  69
ATOM     69  S   UNL A   1      42.359  18.889  26.108  1.00  0.00     0.124 S 
ATOM     70  O   UNL A   1      40.886  18.878  25.692  1.00  0.00    -0.237 OA
ATOM     71  O   UNL A   1      43.208  18.262  24.999  1.00  0.00    -0.237 OA
ATOM     72  O   UNL A   1      42.550  17.988  27.550  1.00  0.00    -0.744 OA
ENDBRANCH  68  69
ENDBRANCH  47  61
BRANCH  48  73
ATOM     73  C   UNL A   1      46.656  32.606  27.915  1.00  0.00     0.058 A 
ATOM     74  C   UNL A   1      46.526  33.455  26.829  1.00  0.00     0.135 A 
ATOM     75  C   UNL A   1      47.163  33.034  29.066  1.00  0.00     0.135 A 
ATOM     76  F   UNL A   1      45.802  33.152  25.754  1.00  0.00    -0.206 F 
ATOM     77  C   UNL A   1      47.233  34.673  26.964  1.00  0.00     0.059 A 
ATOM     78  C   UNL A   1      47.715  34.287  29.164  1.00  0.00     0.059 A 
ATOM     79  F   UNL A   1      47.135  32.241  30.133  1.00  0.00    -0.206 F 
ATOM     80  C   UNL A   1      47.676  35.158  28.110  1.00  0.00     0.060 A 
BRANCH  80  81
ATOM     81  S   UNL A   1      48.203  36.882  28.276  1.00  0.00     0.124 S 
ATOM     82  O   UNL A   1      48.054  37.593  26.930  1.00  0.00    -0.237 OA
ATOM     83  O   UNL A   1      47.332  37.583  29.322  1.00  0.00    -0.237 OA
ATOM     84  O   UNL A   1      49.838  36.933  28.771  1.00  0.00    -0.744 OA
ENDBRANCH  80  81
ENDBRANCH  48  73
BRANCH  60  85
ATOM     85  C   UNL A   1      49.669  26.502  26.190  1.00  0.00     0.058 A 
ATOM     86  C   UNL A   1      50.539  26.015  27.153  1.00  0.00     0.135 A 
ATOM     87  C   UNL A   1      50.066  26.691  24.937  1.00  0.00     0.135 A 
ATOM     88  F   UNL A   1      50.132  25.574  28.340  1.00  0.00    -0.206 F 
ATOM     89  C   UNL A   1      51.897  26.029  26.758  1.00  0.00     0.059 A 
ATOM     90  C   UNL A   1      51.389  26.555  24.594  1.00  0.00     0.059 A 
ATOM     91  F   UNL A   1      49.174  27.015  24.006  1.00  0.00    -0.206 F 
ATOM     92  C   UNL A   1      52.313  26.135  25.510  1.00  0.00     0.060 A 
BRANCH  92  93
ATOM     93  S   UNL A   1      54.016  25.744  25.036  1.00  0.00     0.124 S 
ATOM     94  O   UNL A   1      54.243  24.235  25.145  1.00  0.00    -0.237 OA
ATOM     95  O   UNL A   1      54.260  26.193  23.594  1.00  0.00    -0.237 OA
ATOM     96  O   UNL A   1      55.099  26.560  26.077  1.00  0.00    -0.744 OA
ENDBRANCH  92  93
ENDBRANCH  60  85
ENDBRANCH  34  35
ENDBRANCH  27  29
ENDBRANCH  26  27
ENDBRANCH   1  26
TORSDOF 16
ENDMDL
MODEL 3
REMARK VINA RESULT:     -12.1      6.845     11.887
REMARK SMILES O=C(OCCOC(=O)c1ccc(-c2c3nc(c(-c4c(F)cc(S(=O)(=O)[O-])cc4F)c4ccc([nH]4)c(-c4c(F)cc(S(=O)(=O)[O-])cc4F)c4nc(c(-c5c(F)cc(S(=O)(=O)[O-])cc5F)c5ccc2[nH]5)C=C4)C=C3)cc1)C1=Cc2cc(S(F)(F)(F)(F)F)ccc2O[C@@H]1C(F)(F)F
REMARK SMILES IDX 5 1 4 2 3 3 2 4 1 5 75 6 76 7 90 8 77 9 89 10 78 11 88 12
REMARK SMILES IDX 79 13 87 14 86 15 91 16 92 17 93 18 94 19 80 20 81 21 82 22
REMARK SMILES IDX 83 23 84 24 85 25 6 26 7 27 8 28 9 29 10 30 74 31 11 32
REMARK SMILES IDX 73 33 12 34 13 35 14 36 67 37 15 38 72 39 66 40 68 41 16 42
REMARK SMILES IDX 71 43 65 44 64 45 17 47 51 48 30 49 50 50 31 51 34 52 49 53
REMARK SMILES IDX 69 54 32 55 33 56 48 58 70 59 35 60 18 61 19 62 28 63 20 64
REMARK SMILES IDX 21 65 27 66 29 67 22 68 23 69 24 70 25 71 26 72 52 73 53 74
REMARK SMILES IDX 62 75 54 76 55 77 61 78 63 79 56 80 57 81 58 82 59 83 60 84
REMARK SMILES IDX 36 85 37 86 46 87 38 88 39 89 45 90 47 91 40 92 41 93 42 94
REMARK SMILES IDX 43 95 44 96
REMARK H PARENT 68 46 34 57
REMARK Flexibility Score: inf
ROOT
ATOM      1  C   UNL A   1      34.843  29.051  27.414  1.00  0.00     0.275 C 
ENDROOT
BRANCH   1   2
ATOM      2  C   UNL A   1      33.328  29.055  27.284  1.00  0.00     0.275 C 
BRANCH   2   3
ATOM      3  O   UNL A   1      32.850  27.718  27.280  1.00  0.00    -0.459 OA
BRANCH   3   4
ATOM      4  C   UNL A   1      31.663  27.391  26.573  1.00  0.00     0.338 C 
ATOM      5  O   UNL A   1      30.607  27.087  27.212  1.00  0.00    -0.246 OA
BRANCH   4   6
ATOM      6  C   UNL A   1      31.654  27.404  25.053  1.00  0.00     0.087 C 
ATOM      7  C   UNL A   1      32.322  26.444  24.361  1.00  0.00     0.027 C 
ATOM      8  C   UNL A   1      30.897  28.491  24.308  1.00  0.00     0.316 C 
ATOM      9  C   UNL A   1      33.078  25.356  25.107  1.00  0.00     0.019 A 
ATOM     10  O   UNL A   1      31.143  25.260  26.484  1.00  0.00    -0.475 OA
ATOM     11  C   UNL A   1      34.398  25.041  24.827  1.00  0.00     0.036 A 
ATOM     12  C   UNL A   1      32.438  24.798  26.128  1.00  0.00     0.128 A 
ATOM     13  C   UNL A   1      34.873  23.899  25.514  1.00  0.00     0.107 A 
ATOM     14  C   UNL A   1      33.018  23.778  26.843  1.00  0.00     0.048 A 
ATOM     15  C   UNL A   1      34.298  23.375  26.581  1.00  0.00     0.028 A 
BRANCH   8  16
ATOM     16  C   UNL A   1      29.827  27.857  23.434  1.00  0.00     0.430 C 
ATOM     17  F   UNL A   1      28.859  28.741  23.206  1.00  0.00    -0.167 F 
ATOM     18  F   UNL A   1      30.364  27.479  22.278  1.00  0.00    -0.167 F 
ATOM     19  F   UNL A   1      29.319  26.796  24.055  1.00  0.00    -0.167 F 
ENDBRANCH   8  16
BRANCH  13  20
ATOM     20  S   UNL A   1      36.372  23.104  24.888  1.00  0.00     0.310 S 
ATOM     21  F   UNL A   1      36.222  21.870  25.873  1.00  0.00    -0.094 F 
ATOM     22  F   UNL A   1      37.203  23.819  26.019  1.00  0.00    -0.094 F 
ATOM     23  F   UNL A   1      37.658  22.426  24.334  1.00  0.00    -0.094 F 
ATOM     24  F   UNL A   1      35.505  22.286  23.850  1.00  0.00    -0.094 F 
ATOM     25  F   UNL A   1      35.045  23.695  25.509  1.00  0.00    -0.094 F 
ENDBRANCH  13  20
ENDBRANCH   4   6
ENDBRANCH   3   4
ENDBRANCH   2   3
ENDBRANCH   1   2
BRANCH   1  26
ATOM     26  O   UNL A   1      35.280  30.313  27.895  1.00  0.00    -0.458 OA
BRANCH  26  27
ATOM     27  C   UNL A   1      36.169  30.382  29.000  1.00  0.00     0.338 C 
ATOM     28  O   UNL A   1      35.792  30.925  30.085  1.00  0.00    -0.246 OA
BRANCH  27  29
ATOM     29  C   UNL A   1      37.572  29.807  28.886  1.00  0.00     0.060 A 
ATOM     30  C   UNL A   1      38.328  29.560  30.019  1.00  0.00     0.016 A 
ATOM     31  C   UNL A   1      38.100  29.711  27.671  1.00  0.00     0.016 A 
ATOM     32  C   UNL A   1      39.721  29.497  29.777  1.00  0.00     0.010 A 
ATOM     33  C   UNL A   1      39.449  29.514  27.509  1.00  0.00     0.010 A 
ATOM     34  C   UNL A   1      40.267  29.321  28.587  1.00  0.00    -0.014 A 
BRANCH  34  35
ATOM     35  C   UNL A   1      41.725  28.925  28.426  1.00  0.00     0.031 A 
ATOM     36  C   UNL A   1      41.957  27.579  28.132  1.00  0.00     0.074 A 
ATOM     37  C   UNL A   1      42.712  29.896  28.434  1.00  0.00     0.049 A 
ATOM     38  N   UNL A   1      43.112  27.009  27.786  1.00  0.00    -0.248 NA
ATOM     39  C   UNL A   1      40.917  26.540  28.157  1.00  0.00     0.031 C 
ATOM     40  C   UNL A   1      42.484  31.255  28.722  1.00  0.00     0.029 A 
ATOM     41  N   UNL A   1      44.055  29.738  28.176  1.00  0.00    -0.354 N 
ATOM     42  C   UNL A   1      42.934  25.705  27.564  1.00  0.00     0.074 A 
ATOM     43  C   UNL A   1      41.521  25.383  27.805  1.00  0.00     0.031 C 
ATOM     44  C   UNL A   1      43.675  31.906  28.649  1.00  0.00     0.029 A 
ATOM     45  C   UNL A   1      44.667  30.965  28.314  1.00  0.00     0.049 A 
ATOM     46  H   UNL A   1      44.501  28.894  27.933  1.00  0.00     0.167 HD
ATOM     47  C   UNL A   1      43.894  24.773  27.168  1.00  0.00     0.037 A 
ATOM     48  C   UNL A   1      46.011  31.264  28.164  1.00  0.00     0.037 A 
ATOM     49  C   UNL A   1      45.231  25.082  26.975  1.00  0.00     0.049 A 
ATOM     50  C   UNL A   1      46.983  30.319  27.825  1.00  0.00     0.074 A 
ATOM     51  C   UNL A   1      46.211  24.154  26.569  1.00  0.00     0.029 A 
ATOM     52  N   UNL A   1      45.847  26.302  27.137  1.00  0.00    -0.354 N 
ATOM     53  N   UNL A   1      46.798  29.024  27.564  1.00  0.00    -0.248 NA
ATOM     54  C   UNL A   1      48.415  30.618  27.694  1.00  0.00     0.031 C 
ATOM     55  C   UNL A   1      47.403  24.806  26.496  1.00  0.00     0.029 A 
ATOM     56  C   UNL A   1      47.187  26.149  26.856  1.00  0.00     0.049 A 
ATOM     57  H   UNL A   1      45.406  27.140  27.407  1.00  0.00     0.167 HD
ATOM     58  C   UNL A   1      47.961  28.446  27.258  1.00  0.00     0.074 A 
ATOM     59  C   UNL A   1      49.019  29.461  27.344  1.00  0.00     0.031 C 
ATOM     60  C   UNL A   1      48.183  27.113  26.907  1.00  0.00     0.037 A 
BRANCH  47  61
ATOM     61  C   UNL A   1      43.449  23.338  26.936  1.00  0.00     0.058 A 
ATOM     62  C   UNL A   1      43.175  22.493  27.999  1.00  0.00     0.135 A 
ATOM     63  C   UNL A   1      43.356  22.917  25.680  1.00  0.00     0.135 A 
ATOM     64  F   UNL A   1      43.008  22.928  29.245  1.00  0.00    -0.206 F 
ATOM     65  C   UNL A   1      43.088  21.128  27.639  1.00  0.00     0.059 A 
ATOM     66  C   UNL A   1      43.133  21.589  25.402  1.00  0.00     0.059 A 
ATOM     67  F   UNL A   1      43.478  23.787  24.683  1.00  0.00    -0.206 F 
ATOM     68  C   UNL A   1      42.913  20.688  26.407  1.00  0.00     0.060 A 
BRANCH  68  69
ATOM     69  S   UNL A   1      42.409  18.984  26.065  1.00  0.00     0.124 S 
ATOM     70  O   UNL A   1      43.223  18.436  24.890  1.00  0.00    -0.237 OA
ATOM     71  O   UNL A   1      42.656  18.121  27.305  1.00  0.00    -0.237 OA
ATOM     72  O   UNL A   1      40.745  18.949  25.669  1.00  0.00    -0.744 OA
ENDBRANCH  68  69
ENDBRANCH  47  61
BRANCH  48  73
ATOM     73  C   UNL A   1      46.454  32.701  28.379  1.00  0.00     0.058 A 
ATOM     74  C   UNL A   1      46.818  33.082  29.660  1.00  0.00     0.135 A 
ATOM     75  C   UNL A   1      46.500  33.561  27.367  1.00  0.00     0.135 A 
ATOM     76  F   UNL A   1      47.031  32.209  30.642  1.00  0.00    -0.206 F 
ATOM     77  C   UNL A   1      46.942  34.481  29.831  1.00  0.00     0.059 A 
ATOM     78  C   UNL A   1      46.762  34.890  27.590  1.00  0.00     0.059 A 
ATOM     79  F   UNL A   1      46.292  33.129  26.126  1.00  0.00    -0.206 F 
ATOM     80  C   UNL A   1      47.070  35.347  28.842  1.00  0.00     0.060 A 
BRANCH  80  81
ATOM     81  S   UNL A   1      47.625  37.045  29.128  1.00  0.00     0.124 S 
ATOM     82  O   UNL A   1      46.409  37.970  29.220  1.00  0.00    -0.237 OA
ATOM     83  O   UNL A   1      48.415  37.111  30.437  1.00  0.00    -0.237 OA
ATOM     84  O   UNL A   1      48.625  37.545  27.834  1.00  0.00    -0.744 OA
ENDBRANCH  80  81
ENDBRANCH  48  73
BRANCH  60  85
ATOM     85  C   UNL A   1      49.601  26.692  26.559  1.00  0.00     0.058 A 
ATOM     86  C   UNL A   1      50.080  26.813  25.264  1.00  0.00     0.135 A 
ATOM     87  C   UNL A   1      50.323  26.109  27.508  1.00  0.00     0.135 A 
ATOM     88  F   UNL A   1      49.516  27.601  24.353  1.00  0.00    -0.206 F 
ATOM     89  C   UNL A   1      51.223  26.023  25.000  1.00  0.00     0.059 A 
ATOM     90  C   UNL A   1      51.499  25.472  27.199  1.00  0.00     0.059 A 
ATOM     91  F   UNL A   1      49.902  26.142  28.769  1.00  0.00    -0.206 F 
ATOM     92  C   UNL A   1      52.002  25.500  25.929  1.00  0.00     0.060 A 
BRANCH  92  93
ATOM     93  S   UNL A   1      53.648  24.855  25.539  1.00  0.00     0.124 S 
ATOM     94  O   UNL A   1      53.538  23.380  25.144  1.00  0.00    -0.237 OA
ATOM     95  O   UNL A   1      54.247  25.650  24.377  1.00  0.00    -0.237 OA
ATOM     96  O   UNL A   1      54.658  25.003  26.911  1.00  0.00    -0.744 OA
ENDBRANCH  92  93
ENDBRANCH  60  85
ENDBRANCH  34  35
ENDBRANCH  27  29
ENDBRANCH  26  27
ENDBRANCH   1  26
TORSDOF 16
ENDMDL
