MODEL 1
REMARK VINA RESULT:     -10.0      0.000      0.000
REMARK SMILES CC(=O)[C@@H]1CCCC[N@H+]1CC(C)(C)C(=O)OCCOC(=O)c1ccc(-c2c3nc(c(-c4c(F)cc(S(=O)(=O)[O-])cc4F)c4ccc([nH]4)c(-c4c(F)cc(S(=O)(=O)[O-])cc4F)c4nc(c(-c5c(F)cc(S(=O)(=O)[O-])cc5F)c5ccc2[nH]5)C=C4)C=C3)cc1
REMARK SMILES IDX 17 1 16 2 14 3 15 4 11 5 12 6 13 7 10 8 9 9 4 10 5 11 6 12
REMARK SMILES IDX 8 13 7 15 2 16 1 17 3 18 18 19 19 20 20 21 21 22 22 23 23 24
REMARK SMILES IDX 87 25 24 26 86 27 25 28 26 29 27 30 80 31 28 32 85 33 79 34
REMARK SMILES IDX 81 35 29 36 84 37 78 38 77 39 30 41 64 42 43 43 63 44 44 45
REMARK SMILES IDX 47 46 62 47 82 48 45 49 46 50 61 52 83 53 48 54 31 55 32 56
REMARK SMILES IDX 41 57 33 58 34 59 40 60 42 61 35 62 36 63 37 64 38 65 39 66
REMARK SMILES IDX 65 67 66 68 75 69 67 70 68 71 74 72 76 73 69 74 70 75 71 76
REMARK SMILES IDX 72 77 73 78 49 79 50 80 59 81 51 82 52 83 58 84 60 85 53 86
REMARK SMILES IDX 54 87 55 88 56 89 57 90
REMARK H PARENT 9 14 81 40 47 51
REMARK Flexibility Score: inf
ROOT
ATOM      1  C   UNL A   1      31.903  28.154  25.852  1.00  0.00     0.274 C 
ENDROOT
BRANCH   1   2
ATOM      2  O   UNL A   1      32.880  27.425  25.072  1.00  0.00    -0.461 OA
BRANCH   2   3
ATOM      3  C   UNL A   1      32.491  26.152  24.794  1.00  0.00     0.317 C 
ATOM      4  O   UNL A   1      31.961  25.469  25.657  1.00  0.00    -0.251 OA
BRANCH   3   5
ATOM      5  C   UNL A   1      32.787  25.683  23.366  1.00  0.00     0.111 C 
ATOM      6  C   UNL A   1      33.247  26.858  22.497  1.00  0.00     0.029 C 
ATOM      7  C   UNL A   1      31.452  25.136  22.797  1.00  0.00     0.029 C 
BRANCH   5   8
ATOM      8  C   UNL A   1      33.842  24.511  23.265  1.00  0.00     0.281 C 
BRANCH   8   9
ATOM      9  N   UNL A   1      34.367  23.654  24.359  1.00  0.00    -0.325 N 
ATOM     10  C   UNL A   1      34.239  22.201  24.168  1.00  0.00     0.251 C 
ATOM     11  C   UNL A   1      34.792  21.371  25.346  1.00  0.00     0.074 C 
ATOM     12  C   UNL A   1      36.194  21.796  25.755  1.00  0.00     0.012 C 
ATOM     13  C   UNL A   1      35.660  24.059  24.908  1.00  0.00     0.262 C 
ATOM     14  H   UNL A   1      33.697  23.858  25.102  1.00  0.00     0.348 HD
ATOM     15  C   UNL A   1      36.162  23.267  26.106  1.00  0.00     0.062 C 
BRANCH  10  16
ATOM     16  C   UNL A   1      32.760  21.807  24.006  1.00  0.00     0.186 C 
ATOM     17  C   UNL A   1      31.837  21.944  25.199  1.00  0.00     0.094 C 
ATOM     18  O   UNL A   1      32.335  21.394  22.923  1.00  0.00    -0.293 OA
ENDBRANCH  10  16
ENDBRANCH   8   9
ENDBRANCH   5   8
ENDBRANCH   3   5
ENDBRANCH   2   3
ENDBRANCH   1   2
BRANCH   1  19
ATOM     19  C   UNL A   1      32.421  28.729  27.192  1.00  0.00     0.275 C 
BRANCH  19  20
ATOM     20  O   UNL A   1      33.864  28.736  27.343  1.00  0.00    -0.458 OA
BRANCH  20  21
ATOM     21  C   UNL A   1      34.403  29.898  27.798  1.00  0.00     0.338 C 
ATOM     22  O   UNL A   1      33.784  30.927  28.027  1.00  0.00    -0.246 OA
BRANCH  21  23
ATOM     23  C   UNL A   1      35.825  29.742  28.205  1.00  0.00     0.060 A 
ATOM     24  C   UNL A   1      36.771  29.885  27.189  1.00  0.00     0.016 A 
ATOM     25  C   UNL A   1      36.257  29.359  29.472  1.00  0.00     0.016 A 
ATOM     26  C   UNL A   1      38.139  29.729  27.417  1.00  0.00     0.010 A 
ATOM     27  C   UNL A   1      37.636  29.140  29.698  1.00  0.00     0.010 A 
ATOM     28  C   UNL A   1      38.590  29.328  28.675  1.00  0.00    -0.014 A 
BRANCH  28  29
ATOM     29  C   UNL A   1      40.027  28.968  28.854  1.00  0.00     0.031 A 
ATOM     30  C   UNL A   1      40.975  29.998  29.411  1.00  0.00     0.074 A 
ATOM     31  C   UNL A   1      40.487  27.726  28.607  1.00  0.00     0.049 A 
ATOM     32  N   UNL A   1      42.274  29.944  29.560  1.00  0.00    -0.248 NA
ATOM     33  C   UNL A   1      40.367  31.254  29.875  1.00  0.00     0.031 C 
ATOM     34  C   UNL A   1      39.665  26.590  28.194  1.00  0.00     0.029 A 
ATOM     35  N   UNL A   1      41.760  27.209  28.670  1.00  0.00    -0.354 N 
ATOM     36  C   UNL A   1      42.646  31.166  30.109  1.00  0.00     0.074 A 
ATOM     37  C   UNL A   1      41.432  31.942  30.263  1.00  0.00     0.031 C 
ATOM     38  C   UNL A   1      40.456  25.514  28.030  1.00  0.00     0.029 A 
ATOM     39  C   UNL A   1      41.848  25.894  28.269  1.00  0.00     0.049 A 
ATOM     40  H   UNL A   1      42.538  27.731  28.975  1.00  0.00     0.167 HD
ATOM     41  C   UNL A   1      43.883  31.606  30.446  1.00  0.00     0.037 A 
ATOM     42  C   UNL A   1      42.926  25.104  28.077  1.00  0.00     0.037 A 
ATOM     43  C   UNL A   1      45.090  30.834  30.289  1.00  0.00     0.049 A 
ATOM     44  C   UNL A   1      44.308  25.660  28.329  1.00  0.00     0.074 A 
ATOM     45  C   UNL A   1      46.393  31.205  30.576  1.00  0.00     0.029 A 
ATOM     46  N   UNL A   1      45.146  29.538  29.798  1.00  0.00    -0.354 N 
ATOM     47  N   UNL A   1      44.654  26.835  28.799  1.00  0.00    -0.248 NA
ATOM     48  C   UNL A   1      45.448  24.786  28.010  1.00  0.00     0.031 C 
ATOM     49  C   UNL A   1      47.240  30.157  30.199  1.00  0.00     0.029 A 
ATOM     50  C   UNL A   1      46.462  29.106  29.743  1.00  0.00     0.049 A 
ATOM     51  H   UNL A   1      44.365  29.003  29.527  1.00  0.00     0.167 HD
ATOM     52  C   UNL A   1      46.046  26.826  28.866  1.00  0.00     0.074 A 
ATOM     53  C   UNL A   1      46.478  25.527  28.394  1.00  0.00     0.031 C 
ATOM     54  C   UNL A   1      46.887  27.805  29.284  1.00  0.00     0.037 A 
BRANCH  41  55
ATOM     55  C   UNL A   1      43.996  33.020  30.952  1.00  0.00     0.058 A 
ATOM     56  C   UNL A   1      43.867  33.342  32.313  1.00  0.00     0.135 A 
ATOM     57  C   UNL A   1      44.234  34.073  30.052  1.00  0.00     0.135 A 
ATOM     58  F   UNL A   1      43.623  32.380  33.216  1.00  0.00    -0.206 F 
ATOM     59  C   UNL A   1      43.921  34.662  32.755  1.00  0.00     0.059 A 
ATOM     60  C   UNL A   1      44.324  35.395  30.476  1.00  0.00     0.059 A 
ATOM     61  F   UNL A   1      44.370  33.822  28.740  1.00  0.00    -0.206 F 
ATOM     62  C   UNL A   1      44.144  35.681  31.828  1.00  0.00     0.060 A 
BRANCH  62  63
ATOM     63  S   UNL A   1      44.173  37.389  32.410  1.00  0.00     0.124 S 
ATOM     64  O   UNL A   1      45.563  37.528  32.835  1.00  0.00    -0.237 OA
ATOM     65  O   UNL A   1      43.799  38.134  31.211  1.00  0.00    -0.237 OA
ATOM     66  O   UNL A   1      43.186  37.401  33.485  1.00  0.00    -0.744 OA
ENDBRANCH  62  63
ENDBRANCH  41  55
BRANCH  42  67
ATOM     67  C   UNL A   1      42.761  23.707  27.578  1.00  0.00     0.058 A 
ATOM     68  C   UNL A   1      42.810  23.413  26.207  1.00  0.00     0.135 A 
ATOM     69  C   UNL A   1      42.515  22.642  28.459  1.00  0.00     0.135 A 
ATOM     70  F   UNL A   1      43.017  24.397  25.317  1.00  0.00    -0.206 F 
ATOM     71  C   UNL A   1      42.614  22.121  25.726  1.00  0.00     0.059 A 
ATOM     72  C   UNL A   1      42.346  21.336  28.006  1.00  0.00     0.059 A 
ATOM     73  F   UNL A   1      42.450  22.863  29.781  1.00  0.00    -0.206 F 
ATOM     74  C   UNL A   1      42.388  21.087  26.636  1.00  0.00     0.060 A 
BRANCH  74  75
ATOM     75  S   UNL A   1      42.186  19.406  26.006  1.00  0.00     0.124 S 
ATOM     76  O   UNL A   1      42.700  18.610  27.115  1.00  0.00    -0.237 OA
ATOM     77  O   UNL A   1      40.746  19.335  25.783  1.00  0.00    -0.237 OA
ATOM     78  O   UNL A   1      43.002  19.401  24.796  1.00  0.00    -0.744 OA
ENDBRANCH  74  75
ENDBRANCH  42  67
BRANCH  54  79
ATOM     79  C   UNL A   1      48.365  27.503  29.306  1.00  0.00     0.058 A 
ATOM     80  C   UNL A   1      49.212  27.844  28.240  1.00  0.00     0.135 A 
ATOM     81  C   UNL A   1      48.951  26.916  30.440  1.00  0.00     0.135 A 
ATOM     82  F   UNL A   1      48.707  28.402  27.127  1.00  0.00    -0.206 F 
ATOM     83  C   UNL A   1      50.581  27.595  28.289  1.00  0.00     0.059 A 
ATOM     84  C   UNL A   1      50.321  26.687  30.523  1.00  0.00     0.059 A 
ATOM     85  F   UNL A   1      48.192  26.577  31.495  1.00  0.00    -0.206 F 
ATOM     86  C   UNL A   1      51.128  27.021  29.437  1.00  0.00     0.060 A 
BRANCH  86  87
ATOM     87  S   UNL A   1      52.911  26.742  29.503  1.00  0.00     0.124 S 
ATOM     88  O   UNL A   1      53.422  28.108  29.562  1.00  0.00    -0.237 OA
ATOM     89  O   UNL A   1      53.059  25.957  30.725  1.00  0.00    -0.237 OA
ATOM     90  O   UNL A   1      53.191  26.022  28.265  1.00  0.00    -0.744 OA
ENDBRANCH  86  87
ENDBRANCH  54  79
ENDBRANCH  28  29
ENDBRANCH  21  23
ENDBRANCH  20  21
ENDBRANCH  19  20
ENDBRANCH   1  19
TORSDOF 17
ENDMDL
MODEL 2
REMARK VINA RESULT:      -9.7      2.760      9.066
REMARK SMILES CC(=O)[C@@H]1CCCC[N@H+]1CC(C)(C)C(=O)OCCOC(=O)c1ccc(-c2c3nc(c(-c4c(F)cc(S(=O)(=O)[O-])cc4F)c4ccc([nH]4)c(-c4c(F)cc(S(=O)(=O)[O-])cc4F)c4nc(c(-c5c(F)cc(S(=O)(=O)[O-])cc5F)c5ccc2[nH]5)C=C4)C=C3)cc1
REMARK SMILES IDX 17 1 16 2 14 3 15 4 11 5 12 6 13 7 10 8 9 9 4 10 5 11 6 12
REMARK SMILES IDX 8 13 7 15 2 16 1 17 3 18 18 19 19 20 20 21 21 22 22 23 23 24
REMARK SMILES IDX 87 25 24 26 86 27 25 28 26 29 27 30 80 31 28 32 85 33 79 34
REMARK SMILES IDX 81 35 29 36 84 37 78 38 77 39 30 41 64 42 43 43 63 44 44 45
REMARK SMILES IDX 47 46 62 47 82 48 45 49 46 50 61 52 83 53 48 54 31 55 32 56
REMARK SMILES IDX 41 57 33 58 34 59 40 60 42 61 35 62 36 63 37 64 38 65 39 66
REMARK SMILES IDX 65 67 66 68 75 69 67 70 68 71 74 72 76 73 69 74 70 75 71 76
REMARK SMILES IDX 72 77 73 78 49 79 50 80 59 81 51 82 52 83 58 84 60 85 53 86
REMARK SMILES IDX 54 87 55 88 56 89 57 90
REMARK H PARENT 9 14 81 40 47 51
REMARK Flexibility Score: inf
ROOT
ATOM      1  C   UNL A   1      35.989  20.833  25.137  1.00  0.00     0.274 C 
ENDROOT
BRANCH   1   2
ATOM      2  O   UNL A   1      35.296  21.961  25.724  1.00  0.00    -0.461 OA
BRANCH   2   3
ATOM      3  C   UNL A   1      34.101  22.217  25.125  1.00  0.00     0.317 C 
ATOM      4  O   UNL A   1      33.189  21.409  25.203  1.00  0.00    -0.251 OA
BRANCH   3   5
ATOM      5  C   UNL A   1      34.031  23.548  24.369  1.00  0.00     0.111 C 
ATOM      6  C   UNL A   1      35.116  23.614  23.290  1.00  0.00     0.029 C 
ATOM      7  C   UNL A   1      34.300  24.662  25.414  1.00  0.00     0.029 C 
BRANCH   5   8
ATOM      8  C   UNL A   1      32.625  23.860  23.719  1.00  0.00     0.281 C 
BRANCH   8   9
ATOM      9  N   UNL A   1      31.804  25.091  23.857  1.00  0.00    -0.325 N 
ATOM     10  C   UNL A   1      31.517  25.824  22.614  1.00  0.00     0.251 C 
ATOM     11  C   UNL A   1      30.672  27.098  22.829  1.00  0.00     0.074 C 
ATOM     12  C   UNL A   1      29.431  26.843  23.671  1.00  0.00     0.012 C 
ATOM     13  C   UNL A   1      30.653  24.981  24.750  1.00  0.00     0.262 C 
ATOM     14  H   UNL A   1      32.456  25.702  24.350  1.00  0.00     0.348 HD
ATOM     15  C   UNL A   1      29.866  26.260  24.996  1.00  0.00     0.062 C 
BRANCH  10  16
ATOM     16  C   UNL A   1      32.824  26.270  21.936  1.00  0.00     0.186 C 
ATOM     17  C   UNL A   1      33.610  27.408  22.552  1.00  0.00     0.094 C 
ATOM     18  O   UNL A   1      33.227  25.706  20.914  1.00  0.00    -0.293 OA
ENDBRANCH  10  16
ENDBRANCH   8   9
ENDBRANCH   5   8
ENDBRANCH   3   5
ENDBRANCH   2   3
ENDBRANCH   1   2
BRANCH   1  19
ATOM     19  C   UNL A   1      37.521  20.996  25.001  1.00  0.00     0.275 C 
BRANCH  19  20
ATOM     20  O   UNL A   1      38.076  22.173  25.643  1.00  0.00    -0.458 OA
BRANCH  20  21
ATOM     21  C   UNL A   1      39.239  21.983  26.319  1.00  0.00     0.338 C 
ATOM     22  O   UNL A   1      39.923  20.970  26.287  1.00  0.00    -0.246 OA
BRANCH  21  23
ATOM     23  C   UNL A   1      39.735  23.231  26.958  1.00  0.00     0.060 A 
ATOM     24  C   UNL A   1      39.270  24.426  26.405  1.00  0.00     0.016 A 
ATOM     25  C   UNL A   1      40.694  23.289  27.966  1.00  0.00     0.016 A 
ATOM     26  C   UNL A   1      39.678  25.674  26.878  1.00  0.00     0.010 A 
ATOM     27  C   UNL A   1      41.159  24.549  28.410  1.00  0.00     0.010 A 
ATOM     28  C   UNL A   1      40.651  25.752  27.875  1.00  0.00    -0.014 A 
BRANCH  28  29
ATOM     29  C   UNL A   1      41.227  27.083  28.230  1.00  0.00     0.031 A 
ATOM     30  C   UNL A   1      42.703  27.314  28.041  1.00  0.00     0.074 A 
ATOM     31  C   UNL A   1      40.454  28.107  28.640  1.00  0.00     0.049 A 
ATOM     32  N   UNL A   1      43.436  28.348  28.372  1.00  0.00    -0.248 NA
ATOM     33  C   UNL A   1      43.448  26.236  27.375  1.00  0.00     0.031 C 
ATOM     34  C   UNL A   1      38.997  28.075  28.742  1.00  0.00     0.029 A 
ATOM     35  N   UNL A   1      40.787  29.379  29.047  1.00  0.00    -0.354 N 
ATOM     36  C   UNL A   1      44.733  28.036  27.979  1.00  0.00     0.074 A 
ATOM     37  C   UNL A   1      44.685  26.713  27.389  1.00  0.00     0.031 C 
ATOM     38  C   UNL A   1      38.562  29.266  29.193  1.00  0.00     0.029 A 
ATOM     39  C   UNL A   1      39.711  30.128  29.468  1.00  0.00     0.049 A 
ATOM     40  H   UNL A   1      41.710  29.722  29.038  1.00  0.00     0.167 HD
ATOM     41  C   UNL A   1      45.861  28.776  28.106  1.00  0.00     0.037 A 
ATOM     42  C   UNL A   1      39.662  31.349  30.046  1.00  0.00     0.037 A 
ATOM     43  C   UNL A   1      45.908  30.090  28.697  1.00  0.00     0.049 A 
ATOM     44  C   UNL A   1      40.947  32.101  30.302  1.00  0.00     0.074 A 
ATOM     45  C   UNL A   1      47.009  30.907  28.896  1.00  0.00     0.029 A 
ATOM     46  N   UNL A   1      44.809  30.779  29.190  1.00  0.00    -0.354 N 
ATOM     47  N   UNL A   1      42.175  31.776  29.975  1.00  0.00    -0.248 NA
ATOM     48  C   UNL A   1      40.840  33.380  31.021  1.00  0.00     0.031 C 
ATOM     49  C   UNL A   1      46.584  32.061  29.564  1.00  0.00     0.029 A 
ATOM     50  C   UNL A   1      45.209  31.995  29.722  1.00  0.00     0.049 A 
ATOM     51  H   UNL A   1      43.881  30.451  29.167  1.00  0.00     0.167 HD
ATOM     52  C   UNL A   1      42.979  32.825  30.416  1.00  0.00     0.074 A 
ATOM     53  C   UNL A   1      42.098  33.798  31.026  1.00  0.00     0.031 C 
ATOM     54  C   UNL A   1      44.325  32.969  30.317  1.00  0.00     0.037 A 
BRANCH  41  55
ATOM     55  C   UNL A   1      47.153  28.145  27.659  1.00  0.00     0.058 A 
ATOM     56  C   UNL A   1      47.645  28.288  26.352  1.00  0.00     0.135 A 
ATOM     57  C   UNL A   1      47.909  27.376  28.561  1.00  0.00     0.135 A 
ATOM     58  F   UNL A   1      46.956  28.998  25.444  1.00  0.00    -0.206 F 
ATOM     59  C   UNL A   1      48.814  27.652  25.941  1.00  0.00     0.059 A 
ATOM     60  C   UNL A   1      49.097  26.758  28.181  1.00  0.00     0.059 A 
ATOM     61  F   UNL A   1      47.489  27.208  29.824  1.00  0.00    -0.206 F 
ATOM     62  C   UNL A   1      49.529  26.884  26.862  1.00  0.00     0.060 A 
BRANCH  62  63
ATOM     63  S   UNL A   1      51.021  26.034  26.306  1.00  0.00     0.124 S 
ATOM     64  O   UNL A   1      50.915  24.764  27.018  1.00  0.00    -0.237 OA
ATOM     65  O   UNL A   1      50.823  25.969  24.861  1.00  0.00    -0.237 OA
ATOM     66  O   UNL A   1      52.099  26.912  26.749  1.00  0.00    -0.744 OA
ENDBRANCH  62  63
ENDBRANCH  41  55
BRANCH  42  67
ATOM     67  C   UNL A   1      38.355  31.934  30.467  1.00  0.00     0.058 A 
ATOM     68  C   UNL A   1      37.679  32.862  29.660  1.00  0.00     0.135 A 
ATOM     69  C   UNL A   1      37.772  31.604  31.701  1.00  0.00     0.135 A 
ATOM     70  F   UNL A   1      38.203  33.233  28.482  1.00  0.00    -0.206 F 
ATOM     71  C   UNL A   1      36.481  33.447  30.062  1.00  0.00     0.059 A 
ATOM     72  C   UNL A   1      36.560  32.153  32.112  1.00  0.00     0.059 A 
ATOM     73  F   UNL A   1      38.376  30.727  32.518  1.00  0.00    -0.206 F 
ATOM     74  C   UNL A   1      35.926  33.081  31.289  1.00  0.00     0.060 A 
BRANCH  74  75
ATOM     75  S   UNL A   1      34.346  33.807  31.778  1.00  0.00     0.124 S 
ATOM     76  O   UNL A   1      34.779  34.949  32.575  1.00  0.00    -0.237 OA
ATOM     77  O   UNL A   1      33.743  34.121  30.486  1.00  0.00    -0.237 OA
ATOM     78  O   UNL A   1      33.696  32.731  32.519  1.00  0.00    -0.744 OA
ENDBRANCH  74  75
ENDBRANCH  42  67
BRANCH  54  79
ATOM     79  C   UNL A   1      44.937  34.247  30.834  1.00  0.00     0.058 A 
ATOM     80  C   UNL A   1      45.054  35.395  30.035  1.00  0.00     0.135 A 
ATOM     81  C   UNL A   1      45.358  34.340  32.171  1.00  0.00     0.135 A 
ATOM     82  F   UNL A   1      44.674  35.364  28.747  1.00  0.00    -0.206 F 
ATOM     83  C   UNL A   1      45.586  36.580  30.536  1.00  0.00     0.059 A 
ATOM     84  C   UNL A   1      45.863  35.523  32.702  1.00  0.00     0.059 A 
ATOM     85  F   UNL A   1      45.261  33.276  32.987  1.00  0.00    -0.206 F 
ATOM     86  C   UNL A   1      45.983  36.636  31.873  1.00  0.00     0.060 A 
BRANCH  86  87
ATOM     87  S   UNL A   1      46.632  38.193  32.521  1.00  0.00     0.124 S 
ATOM     88  O   UNL A   1      48.060  38.052  32.253  1.00  0.00    -0.237 OA
ATOM     89  O   UNL A   1      45.930  39.184  31.712  1.00  0.00    -0.237 OA
ATOM     90  O   UNL A   1      46.253  38.161  33.930  1.00  0.00    -0.744 OA
ENDBRANCH  86  87
ENDBRANCH  54  79
ENDBRANCH  28  29
ENDBRANCH  21  23
ENDBRANCH  20  21
ENDBRANCH  19  20
ENDBRANCH   1  19
TORSDOF 17
ENDMDL
MODEL 3
REMARK VINA RESULT:      -9.7      1.005      2.118
REMARK SMILES CC(=O)[C@@H]1CCCC[N@H+]1CC(C)(C)C(=O)OCCOC(=O)c1ccc(-c2c3nc(c(-c4c(F)cc(S(=O)(=O)[O-])cc4F)c4ccc([nH]4)c(-c4c(F)cc(S(=O)(=O)[O-])cc4F)c4nc(c(-c5c(F)cc(S(=O)(=O)[O-])cc5F)c5ccc2[nH]5)C=C4)C=C3)cc1
REMARK SMILES IDX 17 1 16 2 14 3 15 4 11 5 12 6 13 7 10 8 9 9 4 10 5 11 6 12
REMARK SMILES IDX 8 13 7 15 2 16 1 17 3 18 18 19 19 20 20 21 21 22 22 23 23 24
REMARK SMILES IDX 87 25 24 26 86 27 25 28 26 29 27 30 80 31 28 32 85 33 79 34
REMARK SMILES IDX 81 35 29 36 84 37 78 38 77 39 30 41 64 42 43 43 63 44 44 45
REMARK SMILES IDX 47 46 62 47 82 48 45 49 46 50 61 52 83 53 48 54 31 55 32 56
REMARK SMILES IDX 41 57 33 58 34 59 40 60 42 61 35 62 36 63 37 64 38 65 39 66
REMARK SMILES IDX 65 67 66 68 75 69 67 70 68 71 74 72 76 73 69 74 70 75 71 76
REMARK SMILES IDX 72 77 73 78 49 79 50 80 59 81 51 82 52 83 58 84 60 85 53 86
REMARK SMILES IDX 54 87 55 88 56 89 57 90
REMARK H PARENT 9 14 81 40 47 51
REMARK Flexibility Score: inf
ROOT
ATOM      1  C   UNL A   1      32.180  30.035  25.161  1.00  0.00     0.274 C 
ENDROOT
BRANCH   1   2
ATOM      2  O   UNL A   1      31.628  28.705  25.316  1.00  0.00    -0.461 OA
BRANCH   2   3
ATOM      3  C   UNL A   1      32.410  27.741  24.759  1.00  0.00     0.317 C 
ATOM      4  O   UNL A   1      33.608  27.708  24.995  1.00  0.00    -0.251 OA
BRANCH   3   5
ATOM      5  C   UNL A   1      31.672  26.762  23.840  1.00  0.00     0.111 C 
ATOM      6  C   UNL A   1      31.838  27.170  22.373  1.00  0.00     0.029 C 
ATOM      7  C   UNL A   1      30.170  26.855  24.215  1.00  0.00     0.029 C 
BRANCH   5   8
ATOM      8  C   UNL A   1      32.095  25.250  24.016  1.00  0.00     0.281 C 
BRANCH   8   9
ATOM      9  N   UNL A   1      33.059  24.676  24.991  1.00  0.00    -0.325 N 
ATOM     10  C   UNL A   1      32.571  23.549  25.801  1.00  0.00     0.251 C 
ATOM     11  C   UNL A   1      33.617  23.009  26.800  1.00  0.00     0.074 C 
ATOM     12  C   UNL A   1      34.964  22.735  26.149  1.00  0.00     0.012 C 
ATOM     13  C   UNL A   1      34.420  24.492  24.493  1.00  0.00     0.262 C 
ATOM     14  H   UNL A   1      33.131  25.441  25.663  1.00  0.00     0.348 HD
ATOM     15  C   UNL A   1      35.450  24.015  25.506  1.00  0.00     0.062 C 
BRANCH  10  16
ATOM     16  C   UNL A   1      31.345  23.971  26.630  1.00  0.00     0.186 C 
ATOM     17  C   UNL A   1      30.229  22.968  26.839  1.00  0.00     0.094 C 
ATOM     18  O   UNL A   1      31.276  25.103  27.119  1.00  0.00    -0.293 OA
ENDBRANCH  10  16
ENDBRANCH   8   9
ENDBRANCH   5   8
ENDBRANCH   3   5
ENDBRANCH   2   3
ENDBRANCH   1   2
BRANCH   1  19
ATOM     19  C   UNL A   1      32.378  30.826  26.476  1.00  0.00     0.275 C 
BRANCH  19  20
ATOM     20  O   UNL A   1      33.718  30.774  27.032  1.00  0.00    -0.458 OA
BRANCH  20  21
ATOM     21  C   UNL A   1      33.977  29.718  27.847  1.00  0.00     0.338 C 
ATOM     22  O   UNL A   1      33.191  28.822  28.121  1.00  0.00    -0.246 OA
BRANCH  21  23
ATOM     23  C   UNL A   1      35.413  29.630  28.222  1.00  0.00     0.060 A 
ATOM     24  C   UNL A   1      36.322  29.620  27.162  1.00  0.00     0.016 A 
ATOM     25  C   UNL A   1      35.893  29.445  29.516  1.00  0.00     0.016 A 
ATOM     26  C   UNL A   1      37.698  29.506  27.362  1.00  0.00     0.010 A 
ATOM     27  C   UNL A   1      37.281  29.267  29.723  1.00  0.00     0.010 A 
ATOM     28  C   UNL A   1      38.196  29.302  28.648  1.00  0.00    -0.014 A 
BRANCH  28  29
ATOM     29  C   UNL A   1      39.642  28.978  28.828  1.00  0.00     0.031 A 
ATOM     30  C   UNL A   1      40.563  30.030  29.388  1.00  0.00     0.074 A 
ATOM     31  C   UNL A   1      40.134  27.748  28.579  1.00  0.00     0.049 A 
ATOM     32  N   UNL A   1      41.863  30.009  29.538  1.00  0.00    -0.248 NA
ATOM     33  C   UNL A   1      39.923  31.270  29.855  1.00  0.00     0.031 C 
ATOM     34  C   UNL A   1      39.342  26.593  28.162  1.00  0.00     0.029 A 
ATOM     35  N   UNL A   1      41.420  27.264  28.641  1.00  0.00    -0.354 N 
ATOM     36  C   UNL A   1      42.203  31.239  30.090  1.00  0.00     0.074 A 
ATOM     37  C   UNL A   1      40.969  31.983  30.245  1.00  0.00     0.031 C 
ATOM     38  C   UNL A   1      40.160  25.538  27.996  1.00  0.00     0.029 A 
ATOM     39  C   UNL A   1      41.541  25.953  28.236  1.00  0.00     0.049 A 
ATOM     40  H   UNL A   1      42.184  27.805  28.948  1.00  0.00     0.167 HD
ATOM     41  C   UNL A   1      43.428  31.710  30.430  1.00  0.00     0.037 A 
ATOM     42  C   UNL A   1      42.640  25.191  28.043  1.00  0.00     0.037 A 
ATOM     43  C   UNL A   1      44.655  30.969  30.271  1.00  0.00     0.049 A 
ATOM     44  C   UNL A   1      44.007  25.781  28.298  1.00  0.00     0.074 A 
ATOM     45  C   UNL A   1      45.948  31.373  30.560  1.00  0.00     0.029 A 
ATOM     46  N   UNL A   1      44.744  29.676  29.777  1.00  0.00    -0.354 N 
ATOM     47  N   UNL A   1      44.323  26.963  28.771  1.00  0.00    -0.248 NA
ATOM     48  C   UNL A   1      45.169  24.937  27.978  1.00  0.00     0.031 C 
ATOM     49  C   UNL A   1      46.822  30.347  30.182  1.00  0.00     0.029 A 
ATOM     50  C   UNL A   1      46.071  29.278  29.722  1.00  0.00     0.049 A 
ATOM     51  H   UNL A   1      43.977  29.122  29.504  1.00  0.00     0.167 HD
ATOM     52  C   UNL A   1      45.714  26.990  28.839  1.00  0.00     0.074 A 
ATOM     53  C   UNL A   1      46.179  25.704  28.365  1.00  0.00     0.031 C 
ATOM     54  C   UNL A   1      46.530  27.989  29.261  1.00  0.00     0.037 A 
BRANCH  41  55
ATOM     55  C   UNL A   1      43.505  33.125  30.939  1.00  0.00     0.058 A 
ATOM     56  C   UNL A   1      43.673  34.223  30.081  1.00  0.00     0.135 A 
ATOM     57  C   UNL A   1      43.415  33.382  32.318  1.00  0.00     0.135 A 
ATOM     58  F   UNL A   1      43.781  34.036  28.755  1.00  0.00    -0.206 F 
ATOM     59  C   UNL A   1      43.796  35.519  30.574  1.00  0.00     0.059 A 
ATOM     60  C   UNL A   1      43.503  34.672  32.831  1.00  0.00     0.059 A 
ATOM     61  F   UNL A   1      43.251  32.370  33.185  1.00  0.00    -0.206 F 
ATOM     62  C   UNL A   1      43.716  35.732  31.952  1.00  0.00     0.060 A 
BRANCH  62  63
ATOM     63  S   UNL A   1      43.916  37.412  32.580  1.00  0.00     0.124 S 
ATOM     64  O   UNL A   1      43.683  38.203  31.376  1.00  0.00    -0.237 OA
ATOM     65  O   UNL A   1      42.874  37.490  33.600  1.00  0.00    -0.237 OA
ATOM     66  O   UNL A   1      45.285  37.428  33.085  1.00  0.00    -0.744 OA
ENDBRANCH  62  63
ENDBRANCH  41  55
BRANCH  42  67
ATOM     67  C   UNL A   1      42.510  23.791  27.541  1.00  0.00     0.058 A 
ATOM     68  C   UNL A   1      42.470  22.702  28.424  1.00  0.00     0.135 A 
ATOM     69  C   UNL A   1      42.459  23.512  26.166  1.00  0.00     0.135 A 
ATOM     70  F   UNL A   1      42.542  22.909  29.748  1.00  0.00    -0.206 F 
ATOM     71  C   UNL A   1      42.393  21.389  27.966  1.00  0.00     0.059 A 
ATOM     72  C   UNL A   1      42.351  22.209  25.683  1.00  0.00     0.059 A 
ATOM     73  F   UNL A   1      42.500  24.513  25.273  1.00  0.00    -0.206 F 
ATOM     74  C   UNL A   1      42.328  21.153  26.592  1.00  0.00     0.060 A 
BRANCH  74  75
ATOM     75  S   UNL A   1      42.177  19.450  26.010  1.00  0.00     0.124 S 
ATOM     76  O   UNL A   1      43.068  19.452  24.854  1.00  0.00    -0.237 OA
ATOM     77  O   UNL A   1      42.635  18.691  27.169  1.00  0.00    -0.237 OA
ATOM     78  O   UNL A   1      40.755  19.323  25.709  1.00  0.00    -0.744 OA
ENDBRANCH  74  75
ENDBRANCH  42  67
BRANCH  54  79
ATOM     79  C   UNL A   1      48.014  27.725  29.282  1.00  0.00     0.058 A 
ATOM     80  C   UNL A   1      48.691  27.364  30.457  1.00  0.00     0.135 A 
ATOM     81  C   UNL A   1      48.760  27.778  28.092  1.00  0.00     0.135 A 
ATOM     82  F   UNL A   1      48.033  27.303  31.626  1.00  0.00    -0.206 F 
ATOM     83  C   UNL A   1      50.056  27.086  30.456  1.00  0.00     0.059 A 
ATOM     84  C   UNL A   1      50.117  27.473  28.062  1.00  0.00     0.059 A 
ATOM     85  F   UNL A   1      48.164  28.109  26.935  1.00  0.00    -0.206 F 
ATOM     86  C   UNL A   1      50.760  27.138  29.252  1.00  0.00     0.060 A 
BRANCH  86  87
ATOM     87  S   UNL A   1      52.521  26.734  29.258  1.00  0.00     0.124 S 
ATOM     88  O   UNL A   1      52.638  25.943  30.478  1.00  0.00    -0.237 OA
ATOM     89  O   UNL A   1      52.675  25.997  28.007  1.00  0.00    -0.237 OA
ATOM     90  O   UNL A   1      53.171  28.040  29.293  1.00  0.00    -0.744 OA
ENDBRANCH  86  87
ENDBRANCH  54  79
ENDBRANCH  28  29
ENDBRANCH  21  23
ENDBRANCH  20  21
ENDBRANCH  19  20
ENDBRANCH   1  19
TORSDOF 17
ENDMDL
