MODEL 1
REMARK VINA RESULT:     -11.8      0.000      0.000
REMARK SMILES O=C(COc1nc(-c2cccnc2)nc2c1CCCC2)OCCOC(=O)c1ccc(-c2c3nc(c(-c4c(F)cc(S(=O)(=O)[O-])cc4F)c4ccc([nH]4)c(-c4c(F)cc(S(=O)(=O)[O-])cc4F)c4nc(c(-c5c(F)cc(S(=O)(=O)[O-])cc5F)c5ccc2[nH]5)C=C4)C=C3)cc1
REMARK SMILES IDX 22 1 21 2 2 3 1 4 3 5 4 6 5 7 6 8 16 9 7 10 15 11 17 12
REMARK SMILES IDX 14 13 20 14 18 15 19 16 8 17 9 18 13 19 10 20 12 21 11 22
REMARK SMILES IDX 23 23 24 24 25 25 26 26 27 27 28 28 92 29 29 30 91 31 30 32
REMARK SMILES IDX 31 33 32 34 85 35 33 36 90 37 84 38 86 39 34 40 89 41 83 42
REMARK SMILES IDX 82 43 35 45 69 46 48 47 68 48 49 49 52 50 67 51 87 52 50 53
REMARK SMILES IDX 51 54 66 56 88 57 53 58 36 59 37 60 46 61 38 62 39 63 45 64
REMARK SMILES IDX 47 65 40 66 41 67 42 68 43 69 44 70 70 71 71 72 80 73 72 74
REMARK SMILES IDX 73 75 79 76 81 77 74 78 75 79 76 80 77 81 78 82 54 83 55 84
REMARK SMILES IDX 64 85 56 86 57 87 63 88 65 89 58 90 59 91 60 92 61 93 62 94
REMARK H PARENT 86 44 52 55
REMARK Flexibility Score: inf
ROOT
ATOM      1  C   UNL A   1      40.031  21.502  26.659  1.00  0.00     0.274 C 
ENDROOT
BRANCH   1   2
ATOM      2  O   UNL A   1      38.994  21.549  25.658  1.00  0.00    -0.460 OA
BRANCH   2   3
ATOM      3  C   UNL A   1      37.952  22.417  25.689  1.00  0.00     0.344 C 
ATOM      4  O   UNL A   1      38.083  23.522  26.211  1.00  0.00    -0.248 OA
BRANCH   3   5
ATOM      5  C   UNL A   1      36.621  21.967  25.095  1.00  0.00     0.353 C 
BRANCH   5   6
ATOM      6  O   UNL A   1      36.243  20.622  25.363  1.00  0.00    -0.465 OA
BRANCH   6   7
ATOM      7  C   UNL A   1      34.919  20.500  25.025  1.00  0.00     0.221 A 
ATOM      8  N   UNL A   1      34.189  21.606  25.184  1.00  0.00    -0.193 NA
ATOM      9  C   UNL A   1      34.434  19.269  24.642  1.00  0.00     0.036 A 
ATOM     10  C   UNL A   1      32.867  21.455  25.023  1.00  0.00     0.164 A 
ATOM     11  C   UNL A   1      33.071  19.240  24.410  1.00  0.00     0.051 A 
ATOM     12  C   UNL A   1      35.326  18.073  24.488  1.00  0.00     0.043 C 
ATOM     13  N   UNL A   1      32.272  20.312  24.632  1.00  0.00    -0.232 NA
ATOM     14  C   UNL A   1      32.393  17.968  23.967  1.00  0.00     0.057 C 
ATOM     15  C   UNL A   1      34.559  16.763  24.320  1.00  0.00     0.005 C 
ATOM     16  C   UNL A   1      33.375  16.953  23.378  1.00  0.00     0.007 C 
BRANCH  10  17
ATOM     17  C   UNL A   1      32.039  22.604  25.382  1.00  0.00     0.038 A 
ATOM     18  C   UNL A   1      31.460  23.434  24.411  1.00  0.00     0.015 A 
ATOM     19  C   UNL A   1      31.842  22.982  26.708  1.00  0.00     0.123 A 
ATOM     20  C   UNL A   1      30.744  24.570  24.782  1.00  0.00     0.021 A 
ATOM     21  N   UNL A   1      31.148  24.081  27.106  1.00  0.00    -0.264 NA
ATOM     22  C   UNL A   1      30.625  24.852  26.131  1.00  0.00     0.111 A 
ENDBRANCH  10  17
ENDBRANCH   6   7
ENDBRANCH   5   6
ENDBRANCH   3   5
ENDBRANCH   2   3
ENDBRANCH   1   2
BRANCH   1  23
ATOM     23  C   UNL A   1      41.347  22.077  26.126  1.00  0.00     0.275 C 
BRANCH  23  24
ATOM     24  O   UNL A   1      41.886  23.044  27.048  1.00  0.00    -0.458 OA
BRANCH  24  25
ATOM     25  C   UNL A   1      42.247  24.239  26.511  1.00  0.00     0.338 C 
ATOM     26  O   UNL A   1      42.734  24.420  25.410  1.00  0.00    -0.246 OA
BRANCH  25  27
ATOM     27  C   UNL A   1      41.767  25.333  27.392  1.00  0.00     0.060 A 
ATOM     28  C   UNL A   1      42.507  26.522  27.430  1.00  0.00     0.016 A 
ATOM     29  C   UNL A   1      40.608  25.205  28.163  1.00  0.00     0.016 A 
ATOM     30  C   UNL A   1      42.118  27.564  28.275  1.00  0.00     0.010 A 
ATOM     31  C   UNL A   1      40.226  26.246  29.019  1.00  0.00     0.010 A 
ATOM     32  C   UNL A   1      40.999  27.415  29.108  1.00  0.00    -0.014 A 
BRANCH  32  33
ATOM     33  C   UNL A   1      40.772  28.374  30.218  1.00  0.00     0.031 A 
ATOM     34  C   UNL A   1      41.645  28.262  31.442  1.00  0.00     0.074 A 
ATOM     35  C   UNL A   1      39.841  29.344  30.145  1.00  0.00     0.049 A 
ATOM     36  N   UNL A   1      41.619  28.958  32.548  1.00  0.00    -0.248 NA
ATOM     37  C   UNL A   1      42.691  27.225  31.409  1.00  0.00     0.031 C 
ATOM     38  C   UNL A   1      38.965  29.599  29.003  1.00  0.00     0.029 A 
ATOM     39  N   UNL A   1      39.482  30.302  31.063  1.00  0.00    -0.354 N 
ATOM     40  C   UNL A   1      42.653  28.461  33.331  1.00  0.00     0.074 A 
ATOM     41  C   UNL A   1      43.262  27.374  32.594  1.00  0.00     0.031 C 
ATOM     42  C   UNL A   1      38.167  30.643  29.291  1.00  0.00     0.029 A 
ATOM     43  C   UNL A   1      38.458  31.118  30.643  1.00  0.00     0.049 A 
ATOM     44  H   UNL A   1      39.918  30.394  31.941  1.00  0.00     0.167 HD
ATOM     45  C   UNL A   1      43.074  28.878  34.548  1.00  0.00     0.037 A 
ATOM     46  C   UNL A   1      37.825  32.121  31.285  1.00  0.00     0.037 A 
ATOM     47  C   UNL A   1      42.469  29.946  35.295  1.00  0.00     0.049 A 
ATOM     48  C   UNL A   1      38.240  32.492  32.688  1.00  0.00     0.074 A 
ATOM     49  C   UNL A   1      42.817  30.425  36.546  1.00  0.00     0.029 A 
ATOM     50  N   UNL A   1      41.391  30.701  34.864  1.00  0.00    -0.354 N 
ATOM     51  N   UNL A   1      39.216  32.006  33.419  1.00  0.00    -0.248 NA
ATOM     52  C   UNL A   1      37.460  33.546  33.357  1.00  0.00     0.031 C 
ATOM     53  C   UNL A   1      41.926  31.446  36.887  1.00  0.00     0.029 A 
ATOM     54  C   UNL A   1      41.048  31.629  35.833  1.00  0.00     0.049 A 
ATOM     55  H   UNL A   1      40.937  30.595  33.996  1.00  0.00     0.167 HD
ATOM     56  C   UNL A   1      39.177  32.708  34.621  1.00  0.00     0.074 A 
ATOM     57  C   UNL A   1      38.095  33.663  34.515  1.00  0.00     0.031 C 
ATOM     58  C   UNL A   1      39.967  32.574  35.715  1.00  0.00     0.037 A 
BRANCH  45  59
ATOM     59  C   UNL A   1      44.252  28.172  35.152  1.00  0.00     0.058 A 
ATOM     60  C   UNL A   1      45.559  28.647  34.961  1.00  0.00     0.135 A 
ATOM     61  C   UNL A   1      44.072  27.047  35.971  1.00  0.00     0.135 A 
ATOM     62  F   UNL A   1      45.785  29.705  34.166  1.00  0.00    -0.206 F 
ATOM     63  C   UNL A   1      46.650  28.027  35.560  1.00  0.00     0.059 A 
ATOM     64  C   UNL A   1      45.146  26.423  36.596  1.00  0.00     0.059 A 
ATOM     65  F   UNL A   1      42.841  26.550  36.175  1.00  0.00    -0.206 F 
ATOM     66  C   UNL A   1      46.432  26.917  36.380  1.00  0.00     0.060 A 
BRANCH  66  67
ATOM     67  S   UNL A   1      47.857  26.145  37.174  1.00  0.00     0.124 S 
ATOM     68  O   UNL A   1      47.380  25.996  38.546  1.00  0.00    -0.237 OA
ATOM     69  O   UNL A   1      48.003  24.908  36.415  1.00  0.00    -0.237 OA
ATOM     70  O   UNL A   1      48.924  27.123  36.986  1.00  0.00    -0.744 OA
ENDBRANCH  66  67
ENDBRANCH  45  59
BRANCH  46  71
ATOM     71  C   UNL A   1      36.706  32.851  30.630  1.00  0.00     0.058 A 
ATOM     72  C   UNL A   1      36.955  33.849  29.674  1.00  0.00     0.135 A 
ATOM     73  C   UNL A   1      35.371  32.609  30.989  1.00  0.00     0.135 A 
ATOM     74  F   UNL A   1      38.216  34.129  29.312  1.00  0.00    -0.206 F 
ATOM     75  C   UNL A   1      35.924  34.598  29.116  1.00  0.00     0.059 A 
ATOM     76  C   UNL A   1      34.322  33.330  30.428  1.00  0.00     0.059 A 
ATOM     77  F   UNL A   1      35.079  31.663  31.894  1.00  0.00    -0.206 F 
ATOM     78  C   UNL A   1      34.610  34.333  29.503  1.00  0.00     0.060 A 
BRANCH  78  79
ATOM     79  S   UNL A   1      33.274  35.299  28.764  1.00  0.00     0.124 S 
ATOM     80  O   UNL A   1      32.600  35.820  29.946  1.00  0.00    -0.237 OA
ATOM     81  O   UNL A   1      34.008  36.273  27.963  1.00  0.00    -0.237 OA
ATOM     82  O   UNL A   1      32.529  34.305  27.998  1.00  0.00    -0.744 OA
ENDBRANCH  78  79
ENDBRANCH  46  71
BRANCH  58  83
ATOM     83  C   UNL A   1      39.702  33.483  36.883  1.00  0.00     0.058 A 
ATOM     84  C   UNL A   1      38.824  33.112  37.914  1.00  0.00     0.135 A 
ATOM     85  C   UNL A   1      40.374  34.710  37.004  1.00  0.00     0.135 A 
ATOM     86  F   UNL A   1      38.154  31.950  37.846  1.00  0.00    -0.206 F 
ATOM     87  C   UNL A   1      38.606  33.935  39.014  1.00  0.00     0.059 A 
ATOM     88  C   UNL A   1      40.189  35.539  38.107  1.00  0.00     0.059 A 
ATOM     89  F   UNL A   1      41.235  35.105  36.053  1.00  0.00    -0.206 F 
ATOM     90  C   UNL A   1      39.294  35.147  39.101  1.00  0.00     0.060 A 
BRANCH  90  91
ATOM     91  S   UNL A   1      39.024  36.192  40.550  1.00  0.00     0.124 S 
ATOM     92  O   UNL A   1      38.530  37.421  39.937  1.00  0.00    -0.237 OA
ATOM     93  O   UNL A   1      38.044  35.425  41.311  1.00  0.00    -0.237 OA
ATOM     94  O   UNL A   1      40.349  36.282  41.156  1.00  0.00    -0.744 OA
ENDBRANCH  90  91
ENDBRANCH  58  83
ENDBRANCH  32  33
ENDBRANCH  25  27
ENDBRANCH  24  25
ENDBRANCH  23  24
ENDBRANCH   1  23
TORSDOF 17
ENDMDL
MODEL 2
REMARK VINA RESULT:     -11.7      6.253     12.167
REMARK SMILES O=C(COc1nc(-c2cccnc2)nc2c1CCCC2)OCCOC(=O)c1ccc(-c2c3nc(c(-c4c(F)cc(S(=O)(=O)[O-])cc4F)c4ccc([nH]4)c(-c4c(F)cc(S(=O)(=O)[O-])cc4F)c4nc(c(-c5c(F)cc(S(=O)(=O)[O-])cc5F)c5ccc2[nH]5)C=C4)C=C3)cc1
REMARK SMILES IDX 22 1 21 2 2 3 1 4 3 5 4 6 5 7 6 8 16 9 7 10 15 11 17 12
REMARK SMILES IDX 14 13 20 14 18 15 19 16 8 17 9 18 13 19 10 20 12 21 11 22
REMARK SMILES IDX 23 23 24 24 25 25 26 26 27 27 28 28 92 29 29 30 91 31 30 32
REMARK SMILES IDX 31 33 32 34 85 35 33 36 90 37 84 38 86 39 34 40 89 41 83 42
REMARK SMILES IDX 82 43 35 45 69 46 48 47 68 48 49 49 52 50 67 51 87 52 50 53
REMARK SMILES IDX 51 54 66 56 88 57 53 58 36 59 37 60 46 61 38 62 39 63 45 64
REMARK SMILES IDX 47 65 40 66 41 67 42 68 43 69 44 70 70 71 71 72 80 73 72 74
REMARK SMILES IDX 73 75 79 76 81 77 74 78 75 79 76 80 77 81 78 82 54 83 55 84
REMARK SMILES IDX 64 85 56 86 57 87 63 88 65 89 58 90 59 91 60 92 61 93 62 94
REMARK H PARENT 86 44 52 55
REMARK Flexibility Score: inf
ROOT
ATOM      1  C   UNL A   1      34.497  32.135  27.705  1.00  0.00     0.274 C 
ENDROOT
BRANCH   1   2
ATOM      2  O   UNL A   1      33.468  31.135  27.560  1.00  0.00    -0.460 OA
BRANCH   2   3
ATOM      3  C   UNL A   1      33.661  29.932  26.964  1.00  0.00     0.344 C 
ATOM      4  O   UNL A   1      34.437  29.115  27.457  1.00  0.00    -0.248 OA
BRANCH   3   5
ATOM      5  C   UNL A   1      32.922  29.645  25.662  1.00  0.00     0.353 C 
BRANCH   5   6
ATOM      6  O   UNL A   1      31.577  30.104  25.595  1.00  0.00    -0.465 OA
BRANCH   6   7
ATOM      7  C   UNL A   1      30.976  29.442  24.555  1.00  0.00     0.221 A 
ATOM      8  N   UNL A   1      31.476  28.234  24.286  1.00  0.00    -0.193 NA
ATOM      9  C   UNL A   1      29.992  30.080  23.832  1.00  0.00     0.036 A 
ATOM     10  C   UNL A   1      31.015  27.651  23.170  1.00  0.00     0.164 A 
ATOM     11  C   UNL A   1      29.517  29.356  22.752  1.00  0.00     0.051 A 
ATOM     12  C   UNL A   1      29.486  31.442  24.202  1.00  0.00     0.043 C 
ATOM     13  N   UNL A   1      30.044  28.161  22.390  1.00  0.00    -0.232 NA
ATOM     14  C   UNL A   1      28.425  29.913  21.873  1.00  0.00     0.057 C 
ATOM     15  C   UNL A   1      28.600  32.071  23.129  1.00  0.00     0.005 C 
ATOM     16  C   UNL A   1      27.641  31.037  22.552  1.00  0.00     0.007 C 
BRANCH  10  17
ATOM     17  C   UNL A   1      31.692  26.423  22.758  1.00  0.00     0.038 A 
ATOM     18  C   UNL A   1      31.455  25.197  23.397  1.00  0.00     0.015 A 
ATOM     19  C   UNL A   1      32.664  26.418  21.761  1.00  0.00     0.123 A 
ATOM     20  C   UNL A   1      32.174  24.059  23.038  1.00  0.00     0.021 A 
ATOM     21  N   UNL A   1      33.382  25.328  21.384  1.00  0.00    -0.264 NA
ATOM     22  C   UNL A   1      33.125  24.178  22.041  1.00  0.00     0.111 A 
ENDBRANCH  10  17
ENDBRANCH   6   7
ENDBRANCH   5   6
ENDBRANCH   3   5
ENDBRANCH   2   3
ENDBRANCH   1   2
BRANCH   1  23
ATOM     23  C   UNL A   1      34.655  32.563  29.168  1.00  0.00     0.275 C 
BRANCH  23  24
ATOM     24  O   UNL A   1      36.042  32.520  29.559  1.00  0.00    -0.458 OA
BRANCH  24  25
ATOM     25  C   UNL A   1      36.355  31.632  30.539  1.00  0.00     0.338 C 
ATOM     26  O   UNL A   1      35.690  31.380  31.527  1.00  0.00    -0.246 OA
BRANCH  25  27
ATOM     27  C   UNL A   1      37.546  30.850  30.123  1.00  0.00     0.060 A 
ATOM     28  C   UNL A   1      38.428  30.412  31.119  1.00  0.00     0.016 A 
ATOM     29  C   UNL A   1      37.795  30.540  28.781  1.00  0.00     0.016 A 
ATOM     30  C   UNL A   1      39.585  29.709  30.772  1.00  0.00     0.010 A 
ATOM     31  C   UNL A   1      38.960  29.845  28.435  1.00  0.00     0.010 A 
ATOM     32  C   UNL A   1      39.880  29.459  29.424  1.00  0.00    -0.014 A 
BRANCH  32  33
ATOM     33  C   UNL A   1      41.239  29.002  29.038  1.00  0.00     0.031 A 
ATOM     34  C   UNL A   1      42.368  29.997  29.108  1.00  0.00     0.074 A 
ATOM     35  C   UNL A   1      41.486  27.732  28.662  1.00  0.00     0.049 A 
ATOM     36  N   UNL A   1      43.629  29.848  28.795  1.00  0.00    -0.248 NA
ATOM     37  C   UNL A   1      42.028  31.342  29.604  1.00  0.00     0.031 C 
ATOM     38  C   UNL A   1      40.499  26.657  28.599  1.00  0.00     0.029 A 
ATOM     39  N   UNL A   1      42.658  27.137  28.263  1.00  0.00    -0.354 N 
ATOM     40  C   UNL A   1      44.234  31.067  29.074  1.00  0.00     0.074 A 
ATOM     41  C   UNL A   1      43.197  31.961  29.542  1.00  0.00     0.031 C 
ATOM     42  C   UNL A   1      41.107  25.531  28.182  1.00  0.00     0.029 A 
ATOM     43  C   UNL A   1      42.520  25.811  27.927  1.00  0.00     0.049 A 
ATOM     44  H   UNL A   1      43.516  27.616  28.221  1.00  0.00     0.167 HD
ATOM     45  C   UNL A   1      45.538  31.412  28.969  1.00  0.00     0.037 A 
ATOM     46  C   UNL A   1      43.430  24.932  27.457  1.00  0.00     0.037 A 
ATOM     47  C   UNL A   1      46.574  30.537  28.492  1.00  0.00     0.049 A 
ATOM     48  C   UNL A   1      44.856  25.376  27.241  1.00  0.00     0.074 A 
ATOM     49  C   UNL A   1      47.923  30.808  28.334  1.00  0.00     0.029 A 
ATOM     50  N   UNL A   1      46.381  29.224  28.097  1.00  0.00    -0.354 N 
ATOM     51  N   UNL A   1      45.412  26.536  27.502  1.00  0.00    -0.248 NA
ATOM     52  C   UNL A   1      45.779  24.389  26.656  1.00  0.00     0.031 C 
ATOM     53  C   UNL A   1      48.538  29.669  27.808  1.00  0.00     0.029 A 
ATOM     54  C   UNL A   1      47.581  28.677  27.676  1.00  0.00     0.049 A 
ATOM     55  H   UNL A   1      45.518  28.749  28.115  1.00  0.00     0.167 HD
ATOM     56  C   UNL A   1      46.749  26.409  27.134  1.00  0.00     0.074 A 
ATOM     57  C   UNL A   1      46.924  25.058  26.647  1.00  0.00     0.031 C 
ATOM     58  C   UNL A   1      47.743  27.330  27.192  1.00  0.00     0.037 A 
BRANCH  45  59
ATOM     59  C   UNL A   1      45.921  32.803  29.378  1.00  0.00     0.058 A 
ATOM     60  C   UNL A   1      45.875  33.868  28.465  1.00  0.00     0.135 A 
ATOM     61  C   UNL A   1      46.284  33.086  30.704  1.00  0.00     0.135 A 
ATOM     62  F   UNL A   1      45.558  33.643  27.179  1.00  0.00    -0.206 F 
ATOM     63  C   UNL A   1      46.180  35.168  28.851  1.00  0.00     0.059 A 
ATOM     64  C   UNL A   1      46.573  34.383  31.118  1.00  0.00     0.059 A 
ATOM     65  F   UNL A   1      46.352  32.099  31.611  1.00  0.00    -0.206 F 
ATOM     66  C   UNL A   1      46.524  35.416  30.182  1.00  0.00     0.060 A 
BRANCH  66  67
ATOM     67  S   UNL A   1      46.885  37.115  30.673  1.00  0.00     0.124 S 
ATOM     68  O   UNL A   1      46.266  37.870  29.588  1.00  0.00    -0.237 OA
ATOM     69  O   UNL A   1      46.224  37.210  31.970  1.00  0.00    -0.237 OA
ATOM     70  O   UNL A   1      48.344  37.155  30.711  1.00  0.00    -0.744 OA
ENDBRANCH  66  67
ENDBRANCH  45  59
BRANCH  46  71
ATOM     71  C   UNL A   1      43.034  23.536  27.128  1.00  0.00     0.058 A 
ATOM     72  C   UNL A   1      42.915  22.563  28.132  1.00  0.00     0.135 A 
ATOM     73  C   UNL A   1      42.825  23.133  25.800  1.00  0.00     0.135 A 
ATOM     74  F   UNL A   1      43.124  22.896  29.416  1.00  0.00    -0.206 F 
ATOM     75  C   UNL A   1      42.629  21.235  27.832  1.00  0.00     0.059 A 
ATOM     76  C   UNL A   1      42.516  21.815  25.477  1.00  0.00     0.059 A 
ATOM     77  F   UNL A   1      42.921  24.025  24.803  1.00  0.00    -0.206 F 
ATOM     78  C   UNL A   1      42.435  20.871  26.499  1.00  0.00     0.060 A 
BRANCH  78  79
ATOM     79  S   UNL A   1      42.049  19.148  26.116  1.00  0.00     0.124 S 
ATOM     80  O   UNL A   1      42.449  18.477  27.346  1.00  0.00    -0.237 OA
ATOM     81  O   UNL A   1      40.615  19.205  25.855  1.00  0.00    -0.237 OA
ATOM     82  O   UNL A   1      42.879  18.873  24.947  1.00  0.00    -0.744 OA
ENDBRANCH  78  79
ENDBRANCH  46  71
BRANCH  58  83
ATOM     83  C   UNL A   1      49.111  26.911  26.731  1.00  0.00     0.058 A 
ATOM     84  C   UNL A   1      50.019  26.290  27.603  1.00  0.00     0.135 A 
ATOM     85  C   UNL A   1      49.499  27.079  25.392  1.00  0.00     0.135 A 
ATOM     86  F   UNL A   1      49.699  26.108  28.894  1.00  0.00    -0.206 F 
ATOM     87  C   UNL A   1      51.272  25.869  27.168  1.00  0.00     0.059 A 
ATOM     88  C   UNL A   1      50.738  26.644  24.929  1.00  0.00     0.059 A 
ATOM     89  F   UNL A   1      48.662  27.655  24.514  1.00  0.00    -0.206 F 
ATOM     90  C   UNL A   1      51.621  26.050  25.829  1.00  0.00     0.060 A 
BRANCH  90  91
ATOM     91  S   UNL A   1      53.239  25.471  25.272  1.00  0.00     0.124 S 
ATOM     92  O   UNL A   1      53.131  24.034  25.500  1.00  0.00    -0.237 OA
ATOM     93  O   UNL A   1      53.258  25.891  23.875  1.00  0.00    -0.237 OA
ATOM     94  O   UNL A   1      54.172  26.177  26.145  1.00  0.00    -0.744 OA
ENDBRANCH  90  91
ENDBRANCH  58  83
ENDBRANCH  32  33
ENDBRANCH  25  27
ENDBRANCH  24  25
ENDBRANCH  23  24
ENDBRANCH   1  23
TORSDOF 17
ENDMDL
MODEL 3
REMARK VINA RESULT:     -11.7      4.574     10.306
REMARK SMILES O=C(COc1nc(-c2cccnc2)nc2c1CCCC2)OCCOC(=O)c1ccc(-c2c3nc(c(-c4c(F)cc(S(=O)(=O)[O-])cc4F)c4ccc([nH]4)c(-c4c(F)cc(S(=O)(=O)[O-])cc4F)c4nc(c(-c5c(F)cc(S(=O)(=O)[O-])cc5F)c5ccc2[nH]5)C=C4)C=C3)cc1
REMARK SMILES IDX 22 1 21 2 2 3 1 4 3 5 4 6 5 7 6 8 16 9 7 10 15 11 17 12
REMARK SMILES IDX 14 13 20 14 18 15 19 16 8 17 9 18 13 19 10 20 12 21 11 22
REMARK SMILES IDX 23 23 24 24 25 25 26 26 27 27 28 28 92 29 29 30 91 31 30 32
REMARK SMILES IDX 31 33 32 34 85 35 33 36 90 37 84 38 86 39 34 40 89 41 83 42
REMARK SMILES IDX 82 43 35 45 69 46 48 47 68 48 49 49 52 50 67 51 87 52 50 53
REMARK SMILES IDX 51 54 66 56 88 57 53 58 36 59 37 60 46 61 38 62 39 63 45 64
REMARK SMILES IDX 47 65 40 66 41 67 42 68 43 69 44 70 70 71 71 72 80 73 72 74
REMARK SMILES IDX 73 75 79 76 81 77 74 78 75 79 76 80 77 81 78 82 54 83 55 84
REMARK SMILES IDX 64 85 56 86 57 87 63 88 65 89 58 90 59 91 60 92 61 93 62 94
REMARK H PARENT 86 44 52 55
REMARK Flexibility Score: inf
ROOT
ATOM      1  C   UNL A   1      32.086  27.063  26.502  1.00  0.00     0.274 C 
ENDROOT
BRANCH   1   2
ATOM      2  O   UNL A   1      32.592  25.723  26.336  1.00  0.00    -0.460 OA
BRANCH   2   3
ATOM      3  C   UNL A   1      31.813  24.613  26.342  1.00  0.00     0.344 C 
ATOM      4  O   UNL A   1      30.612  24.702  26.592  1.00  0.00    -0.248 OA
BRANCH   3   5
ATOM      5  C   UNL A   1      32.473  23.266  26.069  1.00  0.00     0.353 C 
BRANCH   5   6
ATOM      6  O   UNL A   1      32.905  23.044  24.732  1.00  0.00    -0.465 OA
BRANCH   6   7
ATOM      7  C   UNL A   1      33.887  22.088  24.779  1.00  0.00     0.221 A 
ATOM      8  N   UNL A   1      33.473  20.837  24.559  1.00  0.00    -0.193 NA
ATOM      9  C   UNL A   1      35.170  22.457  25.121  1.00  0.00     0.036 A 
ATOM     10  C   UNL A   1      34.386  19.879  24.769  1.00  0.00     0.164 A 
ATOM     11  C   UNL A   1      36.059  21.402  25.223  1.00  0.00     0.051 A 
ATOM     12  C   UNL A   1      35.552  23.888  25.352  1.00  0.00     0.043 C 
ATOM     13  N   UNL A   1      35.674  20.110  25.087  1.00  0.00    -0.232 NA
ATOM     14  C   UNL A   1      37.506  21.647  25.573  1.00  0.00     0.057 C 
ATOM     15  C   UNL A   1      36.937  24.052  25.976  1.00  0.00     0.005 C 
ATOM     16  C   UNL A   1      37.932  23.096  25.328  1.00  0.00     0.007 C 
BRANCH  10  17
ATOM     17  C   UNL A   1      33.898  18.503  24.723  1.00  0.00     0.038 A 
ATOM     18  C   UNL A   1      32.771  18.091  25.450  1.00  0.00     0.015 A 
ATOM     19  C   UNL A   1      34.569  17.508  24.016  1.00  0.00     0.123 A 
ATOM     20  C   UNL A   1      32.377  16.755  25.452  1.00  0.00     0.021 A 
ATOM     21  N   UNL A   1      34.212  16.197  23.994  1.00  0.00    -0.264 NA
ATOM     22  C   UNL A   1      33.129  15.853  24.723  1.00  0.00     0.111 A 
ENDBRANCH  10  17
ENDBRANCH   6   7
ENDBRANCH   5   6
ENDBRANCH   3   5
ENDBRANCH   2   3
ENDBRANCH   1   2
BRANCH   1  23
ATOM     23  C   UNL A   1      33.204  28.101  26.369  1.00  0.00     0.275 C 
BRANCH  23  24
ATOM     24  O   UNL A   1      33.623  28.561  27.670  1.00  0.00    -0.458 OA
BRANCH  24  25
ATOM     25  C   UNL A   1      34.151  29.812  27.715  1.00  0.00     0.338 C 
ATOM     26  O   UNL A   1      33.540  30.860  27.617  1.00  0.00    -0.246 OA
BRANCH  25  27
ATOM     27  C   UNL A   1      35.579  29.722  28.109  1.00  0.00     0.060 A 
ATOM     28  C   UNL A   1      36.549  30.046  27.152  1.00  0.00     0.016 A 
ATOM     29  C   UNL A   1      35.967  29.338  29.397  1.00  0.00     0.016 A 
ATOM     30  C   UNL A   1      37.907  29.936  27.464  1.00  0.00     0.010 A 
ATOM     31  C   UNL A   1      37.328  29.217  29.704  1.00  0.00     0.010 A 
ATOM     32  C   UNL A   1      38.304  29.479  28.729  1.00  0.00    -0.014 A 
BRANCH  32  33
ATOM     33  C   UNL A   1      39.712  29.064  28.955  1.00  0.00     0.031 A 
ATOM     34  C   UNL A   1      40.654  30.062  29.579  1.00  0.00     0.074 A 
ATOM     35  C   UNL A   1      40.151  27.828  28.648  1.00  0.00     0.049 A 
ATOM     36  N   UNL A   1      41.928  29.947  29.846  1.00  0.00    -0.248 NA
ATOM     37  C   UNL A   1      40.075  31.363  29.957  1.00  0.00     0.031 C 
ATOM     38  C   UNL A   1      39.337  26.751  28.089  1.00  0.00     0.029 A 
ATOM     39  N   UNL A   1      41.402  27.275  28.771  1.00  0.00    -0.354 N 
ATOM     40  C   UNL A   1      42.298  31.148  30.440  1.00  0.00     0.074 A 
ATOM     41  C   UNL A   1      41.125  31.995  30.456  1.00  0.00     0.031 C 
ATOM     42  C   UNL A   1      40.113  25.665  27.914  1.00  0.00     0.029 A 
ATOM     43  C   UNL A   1      41.481  25.976  28.327  1.00  0.00     0.049 A 
ATOM     44  H   UNL A   1      42.171  27.763  29.143  1.00  0.00     0.167 HD
ATOM     45  C   UNL A   1      43.501  31.511  30.943  1.00  0.00     0.037 A 
ATOM     46  C   UNL A   1      42.540  25.143  28.253  1.00  0.00     0.037 A 
ATOM     47  C   UNL A   1      44.676  30.684  30.920  1.00  0.00     0.049 A 
ATOM     48  C   UNL A   1      43.896  25.615  28.718  1.00  0.00     0.074 A 
ATOM     49  C   UNL A   1      45.944  30.978  31.391  1.00  0.00     0.029 A 
ATOM     50  N   UNL A   1      44.730  29.402  30.399  1.00  0.00    -0.354 N 
ATOM     51  N   UNL A   1      44.232  26.757  29.269  1.00  0.00    -0.248 NA
ATOM     52  C   UNL A   1      45.022  24.682  28.541  1.00  0.00     0.031 C 
ATOM     53  C   UNL A   1      46.774  29.887  31.121  1.00  0.00     0.029 A 
ATOM     54  C   UNL A   1      46.014  28.899  30.518  1.00  0.00     0.049 A 
ATOM     55  H   UNL A   1      43.967  28.919  30.004  1.00  0.00     0.167 HD
ATOM     56  C   UNL A   1      45.599  26.670  29.523  1.00  0.00     0.074 A 
ATOM     57  C   UNL A   1      46.026  25.360  29.080  1.00  0.00     0.031 C 
ATOM     58  C   UNL A   1      46.427  27.592  30.072  1.00  0.00     0.037 A 
BRANCH  45  59
ATOM     59  C   UNL A   1      43.607  32.872  31.566  1.00  0.00     0.058 A 
ATOM     60  C   UNL A   1      43.858  34.011  30.785  1.00  0.00     0.135 A 
ATOM     61  C   UNL A   1      43.403  33.048  32.943  1.00  0.00     0.135 A 
ATOM     62  F   UNL A   1      44.085  33.890  29.467  1.00  0.00    -0.206 F 
ATOM     63  C   UNL A   1      43.907  35.280  31.350  1.00  0.00     0.059 A 
ATOM     64  C   UNL A   1      43.428  34.311  33.526  1.00  0.00     0.059 A 
ATOM     65  F   UNL A   1      43.170  31.988  33.733  1.00  0.00    -0.206 F 
ATOM     66  C   UNL A   1      43.687  35.420  32.722  1.00  0.00     0.060 A 
BRANCH  66  67
ATOM     67  S   UNL A   1      43.722  37.079  33.432  1.00  0.00     0.124 S 
ATOM     68  O   UNL A   1      44.952  37.034  34.217  1.00  0.00    -0.237 OA
ATOM     69  O   UNL A   1      43.758  37.925  32.244  1.00  0.00    -0.237 OA
ATOM     70  O   UNL A   1      42.487  37.144  34.207  1.00  0.00    -0.744 OA
ENDBRANCH  66  67
ENDBRANCH  45  59
BRANCH  46  71
ATOM     71  C   UNL A   1      42.386  23.772  27.697  1.00  0.00     0.058 A 
ATOM     72  C   UNL A   1      42.302  22.654  28.541  1.00  0.00     0.135 A 
ATOM     73  C   UNL A   1      42.380  23.545  26.312  1.00  0.00     0.135 A 
ATOM     74  F   UNL A   1      42.322  22.818  29.873  1.00  0.00    -0.206 F 
ATOM     75  C   UNL A   1      42.244  21.359  28.035  1.00  0.00     0.059 A 
ATOM     76  C   UNL A   1      42.301  22.261  25.782  1.00  0.00     0.059 A 
ATOM     77  F   UNL A   1      42.453  24.580  25.460  1.00  0.00    -0.206 F 
ATOM     78  C   UNL A   1      42.248  21.174  26.652  1.00  0.00     0.060 A 
BRANCH  78  79
ATOM     79  S   UNL A   1      42.157  19.491  26.000  1.00  0.00     0.124 S 
ATOM     80  O   UNL A   1      42.640  18.712  27.133  1.00  0.00    -0.237 OA
ATOM     81  O   UNL A   1      40.738  19.359  25.691  1.00  0.00    -0.237 OA
ATOM     82  O   UNL A   1      43.041  19.536  24.840  1.00  0.00    -0.744 OA
ENDBRANCH  78  79
ENDBRANCH  46  71
BRANCH  58  83
ATOM     83  C   UNL A   1      47.875  27.222  30.237  1.00  0.00     0.058 A 
ATOM     84  C   UNL A   1      48.829  27.549  29.261  1.00  0.00     0.135 A 
ATOM     85  C   UNL A   1      48.323  26.585  31.406  1.00  0.00     0.135 A 
ATOM     86  F   UNL A   1      48.453  28.156  28.124  1.00  0.00    -0.206 F 
ATOM     87  C   UNL A   1      50.175  27.240  29.429  1.00  0.00     0.059 A 
ATOM     88  C   UNL A   1      49.668  26.287  31.605  1.00  0.00     0.059 A 
ATOM     89  F   UNL A   1      47.453  26.263  32.376  1.00  0.00    -0.206 F 
ATOM     90  C   UNL A   1      50.585  26.609  30.605  1.00  0.00     0.060 A 
BRANCH  90  91
ATOM     91  S   UNL A   1      52.339  26.240  30.822  1.00  0.00     0.124 S 
ATOM     92  O   UNL A   1      52.791  27.399  31.585  1.00  0.00    -0.237 OA
ATOM     93  O   UNL A   1      52.306  24.975  31.549  1.00  0.00    -0.237 OA
ATOM     94  O   UNL A   1      52.841  26.156  29.454  1.00  0.00    -0.744 OA
ENDBRANCH  90  91
ENDBRANCH  58  83
ENDBRANCH  32  33
ENDBRANCH  25  27
ENDBRANCH  24  25
ENDBRANCH  23  24
ENDBRANCH   1  23
TORSDOF 17
ENDMDL
