MODEL 1
REMARK VINA RESULT:     -11.4      0.000      0.000
REMARK SMILES C[C@@H]1SCCC[C@@]1(CC(=O)OCCOC(=O)c1ccc(-c2c3nc(c(-c4c(F)cc(S(=O)(=O)[O-])cc4F)c4ccc([nH]4)c(-c4c(F)cc(S(=O)(=O)[O-])cc4F)c4nc(c(-c5c(F)cc(S(=O)(=O)[O-])cc5F)c5ccc2[nH]5)C=C4)C=C3)cc1)[NH+]1CCCC1
REMARK SMILES IDX 13 1 12 2 11 3 9 4 10 5 8 6 7 7 1 8 2 9 3 10 4 11 6 12 5 13
REMARK SMILES IDX 83 14 84 15 87 16 85 18 86 19 14 20 15 21 16 22 17 23 18 24
REMARK SMILES IDX 82 25 19 26 81 27 20 28 21 29 22 30 75 31 23 32 80 33 74 34
REMARK SMILES IDX 76 35 24 36 79 37 73 38 72 39 25 41 59 42 38 43 58 44 39 45
REMARK SMILES IDX 42 46 57 47 77 48 40 49 41 50 56 52 78 53 43 54 26 55 27 56
REMARK SMILES IDX 36 57 28 58 29 59 35 60 37 61 30 62 31 63 32 64 33 65 34 66
REMARK SMILES IDX 60 67 61 68 70 69 62 70 63 71 69 72 71 73 64 74 65 75 66 76
REMARK SMILES IDX 67 77 68 78 44 79 45 80 54 81 46 82 47 83 53 84 55 85 48 86
REMARK SMILES IDX 49 87 50 88 51 89 52 90
REMARK H PARENT 83 17 76 40 42 51
REMARK Flexibility Score: inf
ROOT
ATOM      1  C   UNL A   1      38.919  22.580  26.070  1.00  0.00     0.275 C 
ENDROOT
BRANCH   1   2
ATOM      2  C   UNL A   1      37.464  22.242  25.780  1.00  0.00     0.274 C 
BRANCH   2   3
ATOM      3  O   UNL A   1      37.268  21.968  24.376  1.00  0.00    -0.462 OA
BRANCH   3   4
ATOM      4  C   UNL A   1      36.476  22.837  23.709  1.00  0.00     0.312 C 
ATOM      5  O   UNL A   1      36.453  22.949  22.486  1.00  0.00    -0.252 OA
BRANCH   4   6
ATOM      6  C   UNL A   1      35.624  23.747  24.571  1.00  0.00     0.192 C 
BRANCH   6   7
ATOM      7  C   UNL A   1      34.064  23.574  24.686  1.00  0.00     0.120 C 
ATOM      8  C   UNL A   1      34.429  22.336  27.032  1.00  0.00     0.026 C 
ATOM      9  C   UNL A   1      33.642  23.390  26.214  1.00  0.00     0.105 C 
ATOM     10  S   UNL A   1      31.879  22.902  26.501  1.00  0.00    -0.152 SA
ATOM     11  C   UNL A   1      31.784  21.463  25.395  1.00  0.00     0.070 C 
ATOM     12  C   UNL A   1      33.738  22.240  23.933  1.00  0.00     0.071 C 
ATOM     13  C   UNL A   1      32.286  21.765  23.991  1.00  0.00     0.017 C 
BRANCH   7  14
ATOM     14  N   UNL A   1      33.410  24.664  23.928  1.00  0.00    -0.329 N 
ATOM     15  C   UNL A   1      33.419  24.865  22.498  1.00  0.00     0.262 C 
ATOM     16  C   UNL A   1      32.833  25.829  24.577  1.00  0.00     0.262 C 
ATOM     17  H   UNL A   1      33.172  23.685  24.082  1.00  0.00     0.348 HD
ATOM     18  C   UNL A   1      33.652  26.362  22.364  1.00  0.00     0.067 C 
ATOM     19  C   UNL A   1      33.029  26.978  23.601  1.00  0.00     0.067 C 
ENDBRANCH   7  14
ENDBRANCH   6   7
ENDBRANCH   4   6
ENDBRANCH   3   4
ENDBRANCH   2   3
ENDBRANCH   1   2
BRANCH   1  20
ATOM     20  O   UNL A   1      39.019  23.978  26.377  1.00  0.00    -0.458 OA
BRANCH  20  21
ATOM     21  C   UNL A   1      40.267  24.427  26.624  1.00  0.00     0.338 C 
ATOM     22  O   UNL A   1      41.319  24.004  26.167  1.00  0.00    -0.246 OA
BRANCH  21  23
ATOM     23  C   UNL A   1      40.192  25.562  27.550  1.00  0.00     0.060 A 
ATOM     24  C   UNL A   1      41.097  26.617  27.427  1.00  0.00     0.016 A 
ATOM     25  C   UNL A   1      39.288  25.521  28.610  1.00  0.00     0.016 A 
ATOM     26  C   UNL A   1      41.151  27.600  28.411  1.00  0.00     0.010 A 
ATOM     27  C   UNL A   1      39.283  26.557  29.545  1.00  0.00     0.010 A 
ATOM     28  C   UNL A   1      40.232  27.592  29.470  1.00  0.00    -0.014 A 
BRANCH  28  29
ATOM     29  C   UNL A   1      40.254  28.663  30.499  1.00  0.00     0.031 A 
ATOM     30  C   UNL A   1      41.221  28.595  31.649  1.00  0.00     0.074 A 
ATOM     31  C   UNL A   1      39.382  29.687  30.410  1.00  0.00     0.049 A 
ATOM     32  N   UNL A   1      41.271  29.330  32.730  1.00  0.00    -0.248 NA
ATOM     33  C   UNL A   1      42.258  27.553  31.583  1.00  0.00     0.031 C 
ATOM     34  C   UNL A   1      38.408  29.878  29.333  1.00  0.00     0.029 A 
ATOM     35  N   UNL A   1      39.168  30.754  31.245  1.00  0.00    -0.354 N 
ATOM     36  C   UNL A   1      42.313  28.815  33.493  1.00  0.00     0.074 A 
ATOM     37  C   UNL A   1      42.863  27.699  32.754  1.00  0.00     0.031 C 
ATOM     38  C   UNL A   1      37.713  31.001  29.563  1.00  0.00     0.029 A 
ATOM     39  C   UNL A   1      38.139  31.569  30.837  1.00  0.00     0.049 A 
ATOM     40  H   UNL A   1      39.699  30.921  32.055  1.00  0.00     0.167 HD
ATOM     41  C   UNL A   1      42.765  29.236  34.699  1.00  0.00     0.037 A 
ATOM     42  C   UNL A   1      37.567  32.628  31.439  1.00  0.00     0.037 A 
ATOM     43  C   UNL A   1      42.230  30.368  35.413  1.00  0.00     0.049 A 
ATOM     44  C   UNL A   1      38.075  33.069  32.779  1.00  0.00     0.074 A 
ATOM     45  C   UNL A   1      42.628  30.885  36.634  1.00  0.00     0.029 A 
ATOM     46  N   UNL A   1      41.186  31.165  34.964  1.00  0.00    -0.354 N 
ATOM     47  N   UNL A   1      39.035  32.550  33.506  1.00  0.00    -0.248 NA
ATOM     48  C   UNL A   1      37.416  34.232  33.388  1.00  0.00     0.031 C 
ATOM     49  C   UNL A   1      41.806  31.978  36.936  1.00  0.00     0.029 A 
ATOM     50  C   UNL A   1      40.919  32.164  35.888  1.00  0.00     0.049 A 
ATOM     51  H   UNL A   1      40.705  31.040  34.115  1.00  0.00     0.167 HD
ATOM     52  C   UNL A   1      39.095  33.319  34.660  1.00  0.00     0.074 A 
ATOM     53  C   UNL A   1      38.091  34.356  34.522  1.00  0.00     0.031 C 
ATOM     54  C   UNL A   1      39.904  33.176  35.739  1.00  0.00     0.037 A 
BRANCH  41  55
ATOM     55  C   UNL A   1      43.877  28.447  35.335  1.00  0.00     0.058 A 
ATOM     56  C   UNL A   1      45.227  28.723  35.072  1.00  0.00     0.135 A 
ATOM     57  C   UNL A   1      43.585  27.404  36.230  1.00  0.00     0.135 A 
ATOM     58  F   UNL A   1      45.562  29.699  34.212  1.00  0.00    -0.206 F 
ATOM     59  C   UNL A   1      46.249  27.974  35.648  1.00  0.00     0.059 A 
ATOM     60  C   UNL A   1      44.592  26.655  36.834  1.00  0.00     0.059 A 
ATOM     61  F   UNL A   1      42.310  27.097  36.518  1.00  0.00    -0.206 F 
ATOM     62  C   UNL A   1      45.921  26.936  36.522  1.00  0.00     0.060 A 
BRANCH  62  63
ATOM     63  S   UNL A   1      47.252  25.960  37.253  1.00  0.00     0.124 S 
ATOM     64  O   UNL A   1      47.655  26.810  38.369  1.00  0.00    -0.237 OA
ATOM     65  O   UNL A   1      46.573  24.720  37.616  1.00  0.00    -0.237 OA
ATOM     66  O   UNL A   1      48.222  25.844  36.169  1.00  0.00    -0.744 OA
ENDBRANCH  62  63
ENDBRANCH  41  55
BRANCH  42  67
ATOM     67  C   UNL A   1      36.429  33.313  30.776  1.00  0.00     0.058 A 
ATOM     68  C   UNL A   1      35.122  33.170  31.261  1.00  0.00     0.135 A 
ATOM     69  C   UNL A   1      36.637  34.177  29.689  1.00  0.00     0.135 A 
ATOM     70  F   UNL A   1      34.875  32.349  32.293  1.00  0.00    -0.206 F 
ATOM     71  C   UNL A   1      34.059  33.868  30.697  1.00  0.00     0.059 A 
ATOM     72  C   UNL A   1      35.594  34.902  29.124  1.00  0.00     0.059 A 
ATOM     73  F   UNL A   1      37.874  34.357  29.201  1.00  0.00    -0.206 F 
ATOM     74  C   UNL A   1      34.307  34.739  29.635  1.00  0.00     0.060 A 
BRANCH  74  75
ATOM     75  S   UNL A   1      32.940  35.715  28.970  1.00  0.00     0.124 S 
ATOM     76  O   UNL A   1      32.341  34.778  28.028  1.00  0.00    -0.237 OA
ATOM     77  O   UNL A   1      32.156  36.005  30.167  1.00  0.00    -0.237 OA
ATOM     78  O   UNL A   1      33.610  36.869  28.377  1.00  0.00    -0.744 OA
ENDBRANCH  74  75
ENDBRANCH  42  67
BRANCH  54  79
ATOM     79  C   UNL A   1      39.732  34.173  36.850  1.00  0.00     0.058 A 
ATOM     80  C   UNL A   1      40.256  35.471  36.753  1.00  0.00     0.135 A 
ATOM     81  C   UNL A   1      39.025  33.832  38.013  1.00  0.00     0.135 A 
ATOM     82  F   UNL A   1      40.947  35.841  35.663  1.00  0.00    -0.206 F 
ATOM     83  C   UNL A   1      40.109  36.391  37.786  1.00  0.00     0.059 A 
ATOM     84  C   UNL A   1      38.848  34.742  39.049  1.00  0.00     0.059 A 
ATOM     85  F   UNL A   1      38.499  32.605  38.148  1.00  0.00    -0.206 F 
ATOM     86  C   UNL A   1      39.407  36.015  38.933  1.00  0.00     0.060 A 
BRANCH  86  87
ATOM     87  S   UNL A   1      39.213  37.217  40.266  1.00  0.00     0.124 S 
ATOM     88  O   UNL A   1      38.433  36.455  41.235  1.00  0.00    -0.237 OA
ATOM     89  O   UNL A   1      40.594  37.497  40.644  1.00  0.00    -0.237 OA
ATOM     90  O   UNL A   1      38.509  38.323  39.623  1.00  0.00    -0.744 OA
ENDBRANCH  86  87
ENDBRANCH  54  79
ENDBRANCH  28  29
ENDBRANCH  21  23
ENDBRANCH  20  21
ENDBRANCH   1  20
TORSDOF 16
ENDMDL
MODEL 2
REMARK VINA RESULT:     -11.2      0.851      2.076
REMARK SMILES C[C@@H]1SCCC[C@@]1(CC(=O)OCCOC(=O)c1ccc(-c2c3nc(c(-c4c(F)cc(S(=O)(=O)[O-])cc4F)c4ccc([nH]4)c(-c4c(F)cc(S(=O)(=O)[O-])cc4F)c4nc(c(-c5c(F)cc(S(=O)(=O)[O-])cc5F)c5ccc2[nH]5)C=C4)C=C3)cc1)[NH+]1CCCC1
REMARK SMILES IDX 13 1 12 2 11 3 9 4 10 5 8 6 7 7 1 8 2 9 3 10 4 11 6 12 5 13
REMARK SMILES IDX 83 14 84 15 87 16 85 18 86 19 14 20 15 21 16 22 17 23 18 24
REMARK SMILES IDX 82 25 19 26 81 27 20 28 21 29 22 30 75 31 23 32 80 33 74 34
REMARK SMILES IDX 76 35 24 36 79 37 73 38 72 39 25 41 59 42 38 43 58 44 39 45
REMARK SMILES IDX 42 46 57 47 77 48 40 49 41 50 56 52 78 53 43 54 26 55 27 56
REMARK SMILES IDX 36 57 28 58 29 59 35 60 37 61 30 62 31 63 32 64 33 65 34 66
REMARK SMILES IDX 60 67 61 68 70 69 62 70 63 71 69 72 71 73 64 74 65 75 66 76
REMARK SMILES IDX 67 77 68 78 44 79 45 80 54 81 46 82 47 83 53 84 55 85 48 86
REMARK SMILES IDX 49 87 50 88 51 89 52 90
REMARK H PARENT 83 17 76 40 42 51
REMARK Flexibility Score: inf
ROOT
ATOM      1  C   UNL A   1      38.939  22.528  26.052  1.00  0.00     0.275 C 
ENDROOT
BRANCH   1   2
ATOM      2  C   UNL A   1      37.489  22.180  25.751  1.00  0.00     0.274 C 
BRANCH   2   3
ATOM      3  O   UNL A   1      36.633  23.327  25.942  1.00  0.00    -0.462 OA
BRANCH   3   4
ATOM      4  C   UNL A   1      35.468  23.316  25.256  1.00  0.00     0.312 C 
ATOM      5  O   UNL A   1      35.379  23.077  24.054  1.00  0.00    -0.252 OA
BRANCH   4   6
ATOM      6  C   UNL A   1      34.231  23.684  26.050  1.00  0.00     0.192 C 
BRANCH   6   7
ATOM      7  C   UNL A   1      32.880  24.093  25.355  1.00  0.00     0.120 C 
ATOM      8  C   UNL A   1      33.787  26.607  25.191  1.00  0.00     0.026 C 
ATOM      9  C   UNL A   1      33.084  25.418  24.490  1.00  0.00     0.105 C 
ATOM     10  S   UNL A   1      31.534  26.186  23.829  1.00  0.00    -0.152 SA
ATOM     11  C   UNL A   1      30.576  26.294  25.369  1.00  0.00     0.070 C 
ATOM     12  C   UNL A   1      31.896  24.431  26.527  1.00  0.00     0.071 C 
ATOM     13  C   UNL A   1      30.525  24.977  26.126  1.00  0.00     0.017 C 
BRANCH   7  14
ATOM     14  N   UNL A   1      32.328  22.907  24.661  1.00  0.00    -0.329 N 
ATOM     15  C   UNL A   1      32.132  21.585  25.208  1.00  0.00     0.262 C 
ATOM     16  C   UNL A   1      32.104  22.877  23.227  1.00  0.00     0.262 C 
ATOM     17  H   UNL A   1      31.936  23.562  25.338  1.00  0.00     0.348 HD
ATOM     18  C   UNL A   1      32.622  20.677  24.089  1.00  0.00     0.067 C 
ATOM     19  C   UNL A   1      32.348  21.436  22.807  1.00  0.00     0.067 C 
ENDBRANCH   7  14
ENDBRANCH   6   7
ENDBRANCH   4   6
ENDBRANCH   3   4
ENDBRANCH   2   3
ENDBRANCH   1   2
BRANCH   1  20
ATOM     20  O   UNL A   1      39.007  23.889  26.498  1.00  0.00    -0.458 OA
BRANCH  20  21
ATOM     21  C   UNL A   1      40.252  24.369  26.700  1.00  0.00     0.338 C 
ATOM     22  O   UNL A   1      41.298  23.967  26.211  1.00  0.00    -0.246 OA
BRANCH  21  23
ATOM     23  C   UNL A   1      40.181  25.510  27.618  1.00  0.00     0.060 A 
ATOM     24  C   UNL A   1      41.093  26.560  27.491  1.00  0.00     0.016 A 
ATOM     25  C   UNL A   1      39.275  25.482  28.677  1.00  0.00     0.016 A 
ATOM     26  C   UNL A   1      41.150  27.548  28.468  1.00  0.00     0.010 A 
ATOM     27  C   UNL A   1      39.273  26.523  29.604  1.00  0.00     0.010 A 
ATOM     28  C   UNL A   1      40.228  27.552  29.525  1.00  0.00    -0.014 A 
BRANCH  28  29
ATOM     29  C   UNL A   1      40.254  28.630  30.548  1.00  0.00     0.031 A 
ATOM     30  C   UNL A   1      41.224  28.567  31.696  1.00  0.00     0.074 A 
ATOM     31  C   UNL A   1      39.383  29.654  30.455  1.00  0.00     0.049 A 
ATOM     32  N   UNL A   1      41.277  29.309  32.772  1.00  0.00    -0.248 NA
ATOM     33  C   UNL A   1      42.259  27.524  31.634  1.00  0.00     0.031 C 
ATOM     34  C   UNL A   1      38.406  29.839  29.379  1.00  0.00     0.029 A 
ATOM     35  N   UNL A   1      39.172  30.726  31.284  1.00  0.00    -0.354 N 
ATOM     36  C   UNL A   1      42.320  28.798  33.536  1.00  0.00     0.074 A 
ATOM     37  C   UNL A   1      42.867  27.676  32.802  1.00  0.00     0.031 C 
ATOM     38  C   UNL A   1      37.713  30.964  29.604  1.00  0.00     0.029 A 
ATOM     39  C   UNL A   1      38.142  31.539  30.873  1.00  0.00     0.049 A 
ATOM     40  H   UNL A   1      39.705  30.898  32.092  1.00  0.00     0.167 HD
ATOM     41  C   UNL A   1      42.776  29.225  34.738  1.00  0.00     0.037 A 
ATOM     42  C   UNL A   1      37.574  32.603  31.470  1.00  0.00     0.037 A 
ATOM     43  C   UNL A   1      42.244  30.362  35.447  1.00  0.00     0.049 A 
ATOM     44  C   UNL A   1      38.085  33.052  32.806  1.00  0.00     0.074 A 
ATOM     45  C   UNL A   1      42.645  30.887  36.663  1.00  0.00     0.029 A 
ATOM     46  N   UNL A   1      41.200  31.158  34.995  1.00  0.00    -0.354 N 
ATOM     47  N   UNL A   1      39.046  32.536  33.534  1.00  0.00    -0.248 NA
ATOM     48  C   UNL A   1      37.429  34.219  33.409  1.00  0.00     0.031 C 
ATOM     49  C   UNL A   1      41.825  31.982  36.961  1.00  0.00     0.029 A 
ATOM     50  C   UNL A   1      40.936  32.162  35.914  1.00  0.00     0.049 A 
ATOM     51  H   UNL A   1      40.716  31.028  34.148  1.00  0.00     0.167 HD
ATOM     52  C   UNL A   1      39.110  33.312  34.683  1.00  0.00     0.074 A 
ATOM     53  C   UNL A   1      38.106  34.349  34.541  1.00  0.00     0.031 C 
ATOM     54  C   UNL A   1      39.921  33.175  35.761  1.00  0.00     0.037 A 
BRANCH  41  55
ATOM     55  C   UNL A   1      43.888  28.439  35.376  1.00  0.00     0.058 A 
ATOM     56  C   UNL A   1      43.635  27.394  36.278  1.00  0.00     0.135 A 
ATOM     57  C   UNL A   1      45.229  28.730  35.072  1.00  0.00     0.135 A 
ATOM     58  F   UNL A   1      42.373  27.085  36.617  1.00  0.00    -0.206 F 
ATOM     59  C   UNL A   1      44.670  26.686  36.881  1.00  0.00     0.059 A 
ATOM     60  C   UNL A   1      46.280  28.021  35.647  1.00  0.00     0.059 A 
ATOM     61  F   UNL A   1      45.528  29.720  34.216  1.00  0.00    -0.206 F 
ATOM     62  C   UNL A   1      45.991  27.012  36.564  1.00  0.00     0.060 A 
BRANCH  62  63
ATOM     63  S   UNL A   1      47.328  26.098  37.362  1.00  0.00     0.124 S 
ATOM     64  O   UNL A   1      48.503  26.775  36.823  1.00  0.00    -0.237 OA
ATOM     65  O   UNL A   1      47.063  26.324  38.780  1.00  0.00    -0.237 OA
ATOM     66  O   UNL A   1      47.124  24.729  36.902  1.00  0.00    -0.744 OA
ENDBRANCH  62  63
ENDBRANCH  41  55
BRANCH  42  67
ATOM     67  C   UNL A   1      36.434  33.284  30.806  1.00  0.00     0.058 A 
ATOM     68  C   UNL A   1      35.130  33.157  31.303  1.00  0.00     0.135 A 
ATOM     69  C   UNL A   1      36.639  34.131  29.705  1.00  0.00     0.135 A 
ATOM     70  F   UNL A   1      34.886  32.353  32.348  1.00  0.00    -0.206 F 
ATOM     71  C   UNL A   1      34.067  33.853  30.736  1.00  0.00     0.059 A 
ATOM     72  C   UNL A   1      35.596  34.855  29.137  1.00  0.00     0.059 A 
ATOM     73  F   UNL A   1      37.873  34.297  29.205  1.00  0.00    -0.206 F 
ATOM     74  C   UNL A   1      34.313  34.707  29.659  1.00  0.00     0.060 A 
BRANCH  74  75
ATOM     75  S   UNL A   1      32.946  35.682  28.991  1.00  0.00     0.124 S 
ATOM     76  O   UNL A   1      32.336  34.735  28.065  1.00  0.00    -0.237 OA
ATOM     77  O   UNL A   1      32.171  35.991  30.189  1.00  0.00    -0.237 OA
ATOM     78  O   UNL A   1      33.619  36.824  28.379  1.00  0.00    -0.744 OA
ENDBRANCH  74  75
ENDBRANCH  42  67
BRANCH  54  79
ATOM     79  C   UNL A   1      39.753  34.179  36.866  1.00  0.00     0.058 A 
ATOM     80  C   UNL A   1      39.014  33.877  38.020  1.00  0.00     0.135 A 
ATOM     81  C   UNL A   1      40.349  35.446  36.777  1.00  0.00     0.135 A 
ATOM     82  F   UNL A   1      38.417  32.682  38.147  1.00  0.00    -0.206 F 
ATOM     83  C   UNL A   1      38.846  34.811  39.038  1.00  0.00     0.059 A 
ATOM     84  C   UNL A   1      40.213  36.387  37.792  1.00  0.00     0.059 A 
ATOM     85  F   UNL A   1      41.073  35.778  35.696  1.00  0.00    -0.206 F 
ATOM     86  C   UNL A   1      39.446  36.065  38.912  1.00  0.00     0.060 A 
BRANCH  86  87
ATOM     87  S   UNL A   1      39.232  37.267  40.241  1.00  0.00     0.124 S 
ATOM     88  O   UNL A   1      38.528  36.474  41.243  1.00  0.00    -0.237 OA
ATOM     89  O   UNL A   1      40.609  37.625  40.570  1.00  0.00    -0.237 OA
ATOM     90  O   UNL A   1      38.449  38.328  39.614  1.00  0.00    -0.744 OA
ENDBRANCH  86  87
ENDBRANCH  54  79
ENDBRANCH  28  29
ENDBRANCH  21  23
ENDBRANCH  20  21
ENDBRANCH   1  20
TORSDOF 16
ENDMDL
MODEL 3
REMARK VINA RESULT:     -11.2      6.796     12.138
REMARK SMILES C[C@@H]1SCCC[C@@]1(CC(=O)OCCOC(=O)c1ccc(-c2c3nc(c(-c4c(F)cc(S(=O)(=O)[O-])cc4F)c4ccc([nH]4)c(-c4c(F)cc(S(=O)(=O)[O-])cc4F)c4nc(c(-c5c(F)cc(S(=O)(=O)[O-])cc5F)c5ccc2[nH]5)C=C4)C=C3)cc1)[NH+]1CCCC1
REMARK SMILES IDX 13 1 12 2 11 3 9 4 10 5 8 6 7 7 1 8 2 9 3 10 4 11 6 12 5 13
REMARK SMILES IDX 83 14 84 15 87 16 85 18 86 19 14 20 15 21 16 22 17 23 18 24
REMARK SMILES IDX 82 25 19 26 81 27 20 28 21 29 22 30 75 31 23 32 80 33 74 34
REMARK SMILES IDX 76 35 24 36 79 37 73 38 72 39 25 41 59 42 38 43 58 44 39 45
REMARK SMILES IDX 42 46 57 47 77 48 40 49 41 50 56 52 78 53 43 54 26 55 27 56
REMARK SMILES IDX 36 57 28 58 29 59 35 60 37 61 30 62 31 63 32 64 33 65 34 66
REMARK SMILES IDX 60 67 61 68 70 69 62 70 63 71 69 72 71 73 64 74 65 75 66 76
REMARK SMILES IDX 67 77 68 78 44 79 45 80 54 81 46 82 47 83 53 84 55 85 48 86
REMARK SMILES IDX 49 87 50 88 51 89 52 90
REMARK H PARENT 83 17 76 40 42 51
REMARK Flexibility Score: inf
ROOT
ATOM      1  C   UNL A   1      34.308  30.799  27.726  1.00  0.00     0.275 C 
ENDROOT
BRANCH   1   2
ATOM      2  C   UNL A   1      34.209  29.635  26.750  1.00  0.00     0.274 C 
BRANCH   2   3
ATOM      3  O   UNL A   1      33.311  29.949  25.664  1.00  0.00    -0.462 OA
BRANCH   3   4
ATOM      4  C   UNL A   1      33.164  28.989  24.723  1.00  0.00     0.312 C 
ATOM      5  O   UNL A   1      32.656  29.178  23.621  1.00  0.00    -0.252 OA
BRANCH   4   6
ATOM      6  C   UNL A   1      33.616  27.599  25.123  1.00  0.00     0.192 C 
BRANCH   6   7
ATOM      7  C   UNL A   1      32.658  26.353  25.054  1.00  0.00     0.120 C 
ATOM      8  C   UNL A   1      31.398  27.270  27.233  1.00  0.00     0.026 C 
ATOM      9  C   UNL A   1      31.288  26.671  25.808  1.00  0.00     0.105 C 
ATOM     10  S   UNL A   1      30.160  25.223  26.057  1.00  0.00    -0.152 SA
ATOM     11  C   UNL A   1      31.328  24.065  26.829  1.00  0.00     0.070 C 
ATOM     12  C   UNL A   1      33.392  25.220  25.847  1.00  0.00     0.071 C 
ATOM     13  C   UNL A   1      32.619  23.915  26.039  1.00  0.00     0.017 C 
BRANCH   7  14
ATOM     14  N   UNL A   1      32.569  25.903  23.647  1.00  0.00    -0.329 N 
ATOM     15  C   UNL A   1      33.662  25.643  22.740  1.00  0.00     0.262 C 
ATOM     16  C   UNL A   1      31.314  25.869  22.915  1.00  0.00     0.262 C 
ATOM     17  H   UNL A   1      32.794  25.422  24.518  1.00  0.00     0.348 HD
ATOM     18  C   UNL A   1      33.188  26.279  21.442  1.00  0.00     0.067 C 
ATOM     19  C   UNL A   1      31.676  26.172  21.470  1.00  0.00     0.067 C 
ENDBRANCH   7  14
ENDBRANCH   6   7
ENDBRANCH   4   6
ENDBRANCH   3   4
ENDBRANCH   2   3
ENDBRANCH   1   2
BRANCH   1  20
ATOM     20  O   UNL A   1      35.691  31.132  27.913  1.00  0.00    -0.458 OA
BRANCH  20  21
ATOM     21  C   UNL A   1      36.191  30.859  29.136  1.00  0.00     0.338 C 
ATOM     22  O   UNL A   1      35.655  31.037  30.220  1.00  0.00    -0.246 OA
BRANCH  21  23
ATOM     23  C   UNL A   1      37.526  30.272  28.986  1.00  0.00     0.060 A 
ATOM     24  C   UNL A   1      38.362  30.158  30.099  1.00  0.00     0.016 A 
ATOM     25  C   UNL A   1      37.987  29.935  27.714  1.00  0.00     0.016 A 
ATOM     26  C   UNL A   1      39.690  29.778  29.930  1.00  0.00     0.010 A 
ATOM     27  C   UNL A   1      39.292  29.466  27.562  1.00  0.00     0.010 A 
ATOM     28  C   UNL A   1      40.165  29.409  28.663  1.00  0.00    -0.014 A 
BRANCH  28  29
ATOM     29  C   UNL A   1      41.569  28.958  28.483  1.00  0.00     0.031 A 
ATOM     30  C   UNL A   1      42.702  29.944  28.568  1.00  0.00     0.074 A 
ATOM     31  C   UNL A   1      41.821  27.661  28.217  1.00  0.00     0.049 A 
ATOM     32  N   UNL A   1      43.964  29.778  28.266  1.00  0.00    -0.248 NA
ATOM     33  C   UNL A   1      42.370  31.298  29.039  1.00  0.00     0.031 C 
ATOM     34  C   UNL A   1      40.811  26.604  28.128  1.00  0.00     0.029 A 
ATOM     35  N   UNL A   1      43.003  27.014  27.962  1.00  0.00    -0.354 N 
ATOM     36  C   UNL A   1      44.569  31.014  28.467  1.00  0.00     0.074 A 
ATOM     37  C   UNL A   1      43.532  31.922  28.909  1.00  0.00     0.031 C 
ATOM     38  C   UNL A   1      41.416  25.440  27.856  1.00  0.00     0.029 A 
ATOM     39  C   UNL A   1      42.844  25.679  27.678  1.00  0.00     0.049 A 
ATOM     40  H   UNL A   1      43.878  27.461  27.981  1.00  0.00     0.167 HD
ATOM     41  C   UNL A   1      45.869  31.356  28.296  1.00  0.00     0.037 A 
ATOM     42  C   UNL A   1      43.736  24.756  27.275  1.00  0.00     0.037 A 
ATOM     43  C   UNL A   1      46.899  30.437  27.883  1.00  0.00     0.049 A 
ATOM     44  C   UNL A   1      45.168  25.158  27.079  1.00  0.00     0.074 A 
ATOM     45  C   UNL A   1      48.249  30.680  27.696  1.00  0.00     0.029 A 
ATOM     46  N   UNL A   1      46.695  29.092  27.606  1.00  0.00    -0.354 N 
ATOM     47  N   UNL A   1      45.718  26.339  27.236  1.00  0.00    -0.248 NA
ATOM     48  C   UNL A   1      46.097  24.111  26.642  1.00  0.00     0.031 C 
ATOM     49  C   UNL A   1      48.855  29.489  27.277  1.00  0.00     0.029 A 
ATOM     50  C   UNL A   1      47.891  28.495  27.238  1.00  0.00     0.049 A 
ATOM     51  H   UNL A   1      45.828  28.630  27.660  1.00  0.00     0.167 HD
ATOM     52  C   UNL A   1      47.058  26.178  26.913  1.00  0.00     0.074 A 
ATOM     53  C   UNL A   1      47.241  24.779  26.577  1.00  0.00     0.031 C 
ATOM     54  C   UNL A   1      48.048  27.105  26.891  1.00  0.00     0.037 A 
BRANCH  41  55
ATOM     55  C   UNL A   1      46.242  32.795  28.526  1.00  0.00     0.058 A 
ATOM     56  C   UNL A   1      46.252  33.734  27.483  1.00  0.00     0.135 A 
ATOM     57  C   UNL A   1      46.585  33.243  29.812  1.00  0.00     0.135 A 
ATOM     58  F   UNL A   1      45.948  33.357  26.231  1.00  0.00    -0.206 F 
ATOM     59  C   UNL A   1      46.619  35.059  27.700  1.00  0.00     0.059 A 
ATOM     60  C   UNL A   1      46.934  34.568  30.057  1.00  0.00     0.059 A 
ATOM     61  F   UNL A   1      46.591  32.386  30.847  1.00  0.00    -0.206 F 
ATOM     62  C   UNL A   1      46.967  35.465  28.990  1.00  0.00     0.060 A 
BRANCH  62  63
ATOM     63  S   UNL A   1      47.456  37.182  29.260  1.00  0.00     0.124 S 
ATOM     64  O   UNL A   1      48.145  37.088  30.543  1.00  0.00    -0.237 OA
ATOM     65  O   UNL A   1      48.306  37.453  28.104  1.00  0.00    -0.237 OA
ATOM     66  O   UNL A   1      46.185  37.898  29.279  1.00  0.00    -0.744 OA
ENDBRANCH  62  63
ENDBRANCH  41  55
BRANCH  42  67
ATOM     67  C   UNL A   1      43.276  23.371  27.003  1.00  0.00     0.058 A 
ATOM     68  C   UNL A   1      43.155  22.896  25.690  1.00  0.00     0.135 A 
ATOM     69  C   UNL A   1      43.016  22.475  28.053  1.00  0.00     0.135 A 
ATOM     70  F   UNL A   1      43.385  23.719  24.656  1.00  0.00    -0.206 F 
ATOM     71  C   UNL A   1      42.799  21.578  25.425  1.00  0.00     0.059 A 
ATOM     72  C   UNL A   1      42.683  21.147  27.813  1.00  0.00     0.059 A 
ATOM     73  F   UNL A   1      43.136  22.879  29.327  1.00  0.00    -0.206 F 
ATOM     74  C   UNL A   1      42.575  20.708  26.494  1.00  0.00     0.060 A 
BRANCH  74  75
ATOM     75  S   UNL A   1      42.210  18.974  26.144  1.00  0.00     0.124 S 
ATOM     76  O   UNL A   1      40.793  19.035  25.805  1.00  0.00    -0.237 OA
ATOM     77  O   UNL A   1      43.118  18.683  25.039  1.00  0.00    -0.237 OA
ATOM     78  O   UNL A   1      42.533  18.304  27.401  1.00  0.00    -0.744 OA
ENDBRANCH  74  75
ENDBRANCH  42  67
BRANCH  54  79
ATOM     79  C   UNL A   1      49.415  26.626  26.493  1.00  0.00     0.058 A 
ATOM     80  C   UNL A   1      50.292  26.061  27.431  1.00  0.00     0.135 A 
ATOM     81  C   UNL A   1      49.844  26.718  25.160  1.00  0.00     0.135 A 
ATOM     82  F   UNL A   1      49.930  25.960  28.719  1.00  0.00    -0.206 F 
ATOM     83  C   UNL A   1      51.564  25.629  27.067  1.00  0.00     0.059 A 
ATOM     84  C   UNL A   1      51.102  26.273  24.769  1.00  0.00     0.059 A 
ATOM     85  F   UNL A   1      49.037  27.243  24.225  1.00  0.00    -0.206 F 
ATOM     86  C   UNL A   1      51.961  25.744  25.733  1.00  0.00     0.060 A 
BRANCH  86  87
ATOM     87  S   UNL A   1      53.608  25.173  25.265  1.00  0.00     0.124 S 
ATOM     88  O   UNL A   1      54.443  25.852  26.250  1.00  0.00    -0.237 OA
ATOM     89  O   UNL A   1      53.497  23.726  25.418  1.00  0.00    -0.237 OA
ATOM     90  O   UNL A   1      53.750  25.642  23.890  1.00  0.00    -0.744 OA
ENDBRANCH  86  87
ENDBRANCH  54  79
ENDBRANCH  28  29
ENDBRANCH  21  23
ENDBRANCH  20  21
ENDBRANCH   1  20
TORSDOF 16
ENDMDL
