MODEL 1
REMARK VINA RESULT:     -11.5      0.000      0.000
REMARK SMILES O=C(COc1ccc(N2C[C@@H](C(=O)OCCOC(=O)c3ccc(-c4c5nc(c(-c6c(F)cc(S(=O)(=O)[O-])cc6F)c6ccc([nH]6)c(-c6c(F)cc(S(=O)(=O)[O-])cc6F)c6nc(c(-c7c(F)cc(S(=O)(=O)[O-])cc7F)c7ccc4[nH]7)C=C6)C=C5)cc3)CC2=O)cc1)Nc1ccc(Cl)cc1Cl
REMARK SMILES IDX 15 1 14 2 12 3 13 4 11 5 9 6 10 7 87 8 86 9 88 10 8 11 5 12
REMARK SMILES IDX 6 13 90 14 7 15 89 16 4 17 3 18 2 19 1 20 91 21 92 23 93 24
REMARK SMILES IDX 98 25 94 26 97 27 99 28 95 29 96 30 16 31 17 32 18 33 19 34
REMARK SMILES IDX 20 35 21 36 85 37 22 38 84 39 23 40 24 41 25 42 78 43 26 44
REMARK SMILES IDX 83 45 77 46 79 47 27 48 82 49 76 50 75 51 28 53 62 54 41 55
REMARK SMILES IDX 61 56 42 57 45 58 60 59 80 60 43 61 44 62 59 64 81 65 46 66
REMARK SMILES IDX 29 67 30 68 39 69 31 70 32 71 38 72 40 73 33 74 34 75 35 76
REMARK SMILES IDX 36 77 37 78 63 79 64 80 73 81 65 82 66 83 72 84 74 85 67 86
REMARK SMILES IDX 68 87 69 88 70 89 71 90 47 91 48 92 57 93 49 94 50 95 56 96
REMARK SMILES IDX 58 97 51 98 52 99 53 100 54 101 55 102
REMARK H PARENT 91 22 79 52 45 63
REMARK Flexibility Score: inf
ROOT
ATOM      1  C   UNL A   1      43.308  22.691  24.896  1.00  0.00     0.274 C 
ENDROOT
BRANCH   1   2
ATOM      2  O   UNL A   1      42.795  22.244  26.164  1.00  0.00    -0.462 OA
BRANCH   2   3
ATOM      3  C   UNL A   1      41.837  21.286  26.136  1.00  0.00     0.311 C 
ATOM      4  O   UNL A   1      41.996  20.148  25.712  1.00  0.00    -0.252 OA
BRANCH   3   5
ATOM      5  C   UNL A   1      40.526  21.751  26.714  1.00  0.00     0.128 C 
ATOM      6  N   UNL A   1      38.412  22.422  26.034  1.00  0.00    -0.312 N 
ATOM      7  C   UNL A   1      39.406  21.421  25.758  1.00  0.00     0.141 C 
ATOM      8  C   UNL A   1      38.935  23.499  26.757  1.00  0.00     0.227 C 
ATOM      9  C   UNL A   1      40.391  23.236  27.001  1.00  0.00     0.117 C 
ATOM     10  O   UNL A   1      38.365  24.518  27.122  1.00  0.00    -0.274 OA
BRANCH   6  11
ATOM     11  C   UNL A   1      37.162  22.417  25.395  1.00  0.00     0.044 A 
ATOM     12  C   UNL A   1      34.738  22.384  23.983  1.00  0.00     0.120 A 
ATOM     13  C   UNL A   1      34.887  21.596  25.122  1.00  0.00     0.048 A 
ATOM     14  C   UNL A   1      35.785  23.201  23.577  1.00  0.00     0.048 A 
ATOM     15  C   UNL A   1      36.110  21.589  25.810  1.00  0.00     0.030 A 
ATOM     16  C   UNL A   1      36.979  23.229  24.280  1.00  0.00     0.030 A 
BRANCH  12  17
ATOM     17  O   UNL A   1      33.523  22.419  23.350  1.00  0.00    -0.484 OA
BRANCH  17  18
ATOM     18  C   UNL A   1      32.430  22.546  24.265  1.00  0.00     0.329 C 
BRANCH  18  19
ATOM     19  C   UNL A   1      32.105  23.982  24.709  1.00  0.00     0.262 C 
ATOM     20  O   UNL A   1      31.558  24.199  25.785  1.00  0.00    -0.271 OA
ATOM     21  N   UNL A   1      32.399  24.922  23.723  1.00  0.00    -0.322 N 
ATOM     22  H   UNL A   1      32.994  24.649  22.988  1.00  0.00     0.170 HD
BRANCH  21  23
ATOM     23  C   UNL A   1      31.896  26.248  23.714  1.00  0.00     0.060 A 
ATOM     24  C   UNL A   1      30.953  26.526  22.709  1.00  0.00     0.029 A 
ATOM     25  C   UNL A   1      32.209  27.255  24.642  1.00  0.00     0.066 A 
ATOM     26  C   UNL A   1      30.260  27.739  22.691  1.00  0.00     0.023 A 
ATOM     27  C   UNL A   1      31.515  28.473  24.619  1.00  0.00     0.043 A 
ATOM     28  Cl  UNL A   1      33.556  27.160  25.724  1.00  0.00    -0.082 Cl
ATOM     29  C   UNL A   1      30.535  28.700  23.658  1.00  0.00     0.042 A 
ATOM     30  Cl  UNL A   1      29.677  30.192  23.647  1.00  0.00    -0.084 Cl
ENDBRANCH  21  23
ENDBRANCH  18  19
ENDBRANCH  17  18
ENDBRANCH  12  17
ENDBRANCH   6  11
ENDBRANCH   3   5
ENDBRANCH   2   3
ENDBRANCH   1   2
BRANCH   1  31
ATOM     31  C   UNL A   1      43.841  24.123  25.005  1.00  0.00     0.275 C 
BRANCH  31  32
ATOM     32  O   UNL A   1      43.397  24.771  26.213  1.00  0.00    -0.458 OA
BRANCH  32  33
ATOM     33  C   UNL A   1      42.724  25.932  26.021  1.00  0.00     0.338 C 
ATOM     34  O   UNL A   1      42.150  26.288  25.007  1.00  0.00    -0.246 OA
BRANCH  33  35
ATOM     35  C   UNL A   1      42.631  26.682  27.280  1.00  0.00     0.060 A 
ATOM     36  C   UNL A   1      41.790  26.175  28.268  1.00  0.00     0.016 A 
ATOM     37  C   UNL A   1      43.239  27.925  27.447  1.00  0.00     0.016 A 
ATOM     38  C   UNL A   1      41.494  26.918  29.399  1.00  0.00     0.010 A 
ATOM     39  C   UNL A   1      42.983  28.656  28.615  1.00  0.00     0.010 A 
ATOM     40  C   UNL A   1      42.092  28.167  29.588  1.00  0.00    -0.014 A 
BRANCH  40  41
ATOM     41  C   UNL A   1      41.738  28.953  30.794  1.00  0.00     0.031 A 
ATOM     42  C   UNL A   1      40.533  29.848  30.781  1.00  0.00     0.074 A 
ATOM     43  C   UNL A   1      42.470  28.811  31.917  1.00  0.00     0.049 A 
ATOM     44  N   UNL A   1      40.116  30.683  31.697  1.00  0.00    -0.248 NA
ATOM     45  C   UNL A   1      39.683  29.798  29.580  1.00  0.00     0.031 C 
ATOM     46  C   UNL A   1      43.626  27.923  32.067  1.00  0.00     0.029 A 
ATOM     47  N   UNL A   1      42.344  29.402  33.148  1.00  0.00    -0.354 N 
ATOM     48  C   UNL A   1      38.978  31.283  31.173  1.00  0.00     0.074 A 
ATOM     49  C   UNL A   1      38.774  30.723  29.854  1.00  0.00     0.031 C 
ATOM     50  C   UNL A   1      44.094  28.019  33.320  1.00  0.00     0.029 A 
ATOM     51  C   UNL A   1      43.314  29.018  34.042  1.00  0.00     0.049 A 
ATOM     52  H   UNL A   1      41.627  30.040  33.370  1.00  0.00     0.167 HD
ATOM     53  C   UNL A   1      38.180  32.218  31.743  1.00  0.00     0.037 A 
ATOM     54  C   UNL A   1      43.572  29.451  35.291  1.00  0.00     0.037 A 
ATOM     55  C   UNL A   1      38.379  32.747  33.067  1.00  0.00     0.049 A 
ATOM     56  C   UNL A   1      42.695  30.515  35.888  1.00  0.00     0.074 A 
ATOM     57  C   UNL A   1      37.637  33.707  33.733  1.00  0.00     0.029 A 
ATOM     58  N   UNL A   1      39.389  32.352  33.933  1.00  0.00    -0.354 N 
ATOM     59  N   UNL A   1      41.655  31.115  35.358  1.00  0.00    -0.248 NA
ATOM     60  C   UNL A   1      43.032  30.971  37.242  1.00  0.00     0.031 C 
ATOM     61  C   UNL A   1      38.215  33.913  34.990  1.00  0.00     0.029 A 
ATOM     62  C   UNL A   1      39.295  33.055  35.124  1.00  0.00     0.049 A 
ATOM     63  H   UNL A   1      40.072  31.672  33.732  1.00  0.00     0.167 HD
ATOM     64  C   UNL A   1      41.207  32.014  36.319  1.00  0.00     0.074 A 
ATOM     65  C   UNL A   1      42.079  31.865  37.468  1.00  0.00     0.031 C 
ATOM     66  C   UNL A   1      40.174  32.889  36.254  1.00  0.00     0.037 A 
BRANCH  53  67
ATOM     67  C   UNL A   1      37.040  32.748  30.922  1.00  0.00     0.058 A 
ATOM     68  C   UNL A   1      37.229  33.730  29.936  1.00  0.00     0.135 A 
ATOM     69  C   UNL A   1      35.739  32.254  31.113  1.00  0.00     0.135 A 
ATOM     70  F   UNL A   1      38.448  34.251  29.728  1.00  0.00    -0.206 F 
ATOM     71  C   UNL A   1      36.165  34.221  29.186  1.00  0.00     0.059 A 
ATOM     72  C   UNL A   1      34.664  32.714  30.358  1.00  0.00     0.059 A 
ATOM     73  F   UNL A   1      35.503  31.317  32.045  1.00  0.00    -0.206 F 
ATOM     74  C   UNL A   1      34.885  33.710  29.408  1.00  0.00     0.060 A 
BRANCH  74  75
ATOM     75  S   UNL A   1      33.510  34.359  28.433  1.00  0.00     0.124 S 
ATOM     76  O   UNL A   1      32.587  34.783  29.480  1.00  0.00    -0.237 OA
ATOM     77  O   UNL A   1      34.143  35.433  27.673  1.00  0.00    -0.237 OA
ATOM     78  O   UNL A   1      33.080  33.208  27.645  1.00  0.00    -0.744 OA
ENDBRANCH  74  75
ENDBRANCH  53  67
BRANCH  54  79
ATOM     79  C   UNL A   1      44.736  28.904  36.036  1.00  0.00     0.058 A 
ATOM     80  C   UNL A   1      46.009  29.478  35.918  1.00  0.00     0.135 A 
ATOM     81  C   UNL A   1      44.589  27.809  36.902  1.00  0.00     0.135 A 
ATOM     82  F   UNL A   1      46.200  30.522  35.097  1.00  0.00    -0.206 F 
ATOM     83  C   UNL A   1      47.098  28.985  36.629  1.00  0.00     0.059 A 
ATOM     84  C   UNL A   1      45.657  27.314  37.642  1.00  0.00     0.059 A 
ATOM     85  F   UNL A   1      43.387  27.232  37.060  1.00  0.00    -0.206 F 
ATOM     86  C   UNL A   1      46.910  27.903  37.492  1.00  0.00     0.060 A 
BRANCH  86  87
ATOM     87  S   UNL A   1      48.314  27.307  38.460  1.00  0.00     0.124 S 
ATOM     88  O   UNL A   1      48.288  28.213  39.603  1.00  0.00    -0.237 OA
ATOM     89  O   UNL A   1      47.937  25.923  38.733  1.00  0.00    -0.237 OA
ATOM     90  O   UNL A   1      49.442  27.472  37.547  1.00  0.00    -0.744 OA
ENDBRANCH  86  87
ENDBRANCH  54  79
BRANCH  66  91
ATOM     91  C   UNL A   1      39.920  33.735  37.468  1.00  0.00     0.058 A 
ATOM     92  C   UNL A   1      40.575  34.960  37.657  1.00  0.00     0.135 A 
ATOM     93  C   UNL A   1      38.984  33.331  38.433  1.00  0.00     0.135 A 
ATOM     94  F   UNL A   1      41.484  35.386  36.764  1.00  0.00    -0.206 F 
ATOM     95  C   UNL A   1      40.329  35.750  38.775  1.00  0.00     0.059 A 
ATOM     96  C   UNL A   1      38.707  34.114  39.549  1.00  0.00     0.059 A 
ATOM     97  F   UNL A   1      38.326  32.170  38.292  1.00  0.00    -0.206 F 
ATOM     98  C   UNL A   1      39.394  35.315  39.717  1.00  0.00     0.060 A 
BRANCH  98  99
ATOM     99  S   UNL A   1      39.062  36.357  41.154  1.00  0.00     0.124 S 
ATOM    100  O   UNL A   1      40.350  36.331  41.838  1.00  0.00    -0.237 OA
ATOM    101  O   UNL A   1      38.694  37.631  40.542  1.00  0.00    -0.237 OA
ATOM    102  O   UNL A   1      37.974  35.660  41.833  1.00  0.00    -0.744 OA
ENDBRANCH  98  99
ENDBRANCH  66  91
ENDBRANCH  40  41
ENDBRANCH  33  35
ENDBRANCH  32  33
ENDBRANCH  31  32
ENDBRANCH   1  31
TORSDOF 19
ENDMDL
MODEL 2
REMARK VINA RESULT:     -11.5      0.768      1.539
REMARK SMILES O=C(COc1ccc(N2C[C@@H](C(=O)OCCOC(=O)c3ccc(-c4c5nc(c(-c6c(F)cc(S(=O)(=O)[O-])cc6F)c6ccc([nH]6)c(-c6c(F)cc(S(=O)(=O)[O-])cc6F)c6nc(c(-c7c(F)cc(S(=O)(=O)[O-])cc7F)c7ccc4[nH]7)C=C6)C=C5)cc3)CC2=O)cc1)Nc1ccc(Cl)cc1Cl
REMARK SMILES IDX 15 1 14 2 12 3 13 4 11 5 9 6 10 7 87 8 86 9 88 10 8 11 5 12
REMARK SMILES IDX 6 13 90 14 7 15 89 16 4 17 3 18 2 19 1 20 91 21 92 23 93 24
REMARK SMILES IDX 98 25 94 26 97 27 99 28 95 29 96 30 16 31 17 32 18 33 19 34
REMARK SMILES IDX 20 35 21 36 85 37 22 38 84 39 23 40 24 41 25 42 78 43 26 44
REMARK SMILES IDX 83 45 77 46 79 47 27 48 82 49 76 50 75 51 28 53 62 54 41 55
REMARK SMILES IDX 61 56 42 57 45 58 60 59 80 60 43 61 44 62 59 64 81 65 46 66
REMARK SMILES IDX 29 67 30 68 39 69 31 70 32 71 38 72 40 73 33 74 34 75 35 76
REMARK SMILES IDX 36 77 37 78 63 79 64 80 73 81 65 82 66 83 72 84 74 85 67 86
REMARK SMILES IDX 68 87 69 88 70 89 71 90 47 91 48 92 57 93 49 94 50 95 56 96
REMARK SMILES IDX 58 97 51 98 52 99 53 100 54 101 55 102
REMARK H PARENT 91 22 79 52 45 63
REMARK Flexibility Score: inf
ROOT
ATOM      1  C   UNL A   1      43.610  22.506  25.366  1.00  0.00     0.274 C 
ENDROOT
BRANCH   1   2
ATOM      2  O   UNL A   1      42.723  22.233  26.467  1.00  0.00    -0.462 OA
BRANCH   2   3
ATOM      3  C   UNL A   1      41.746  21.320  26.256  1.00  0.00     0.311 C 
ATOM      4  O   UNL A   1      41.913  20.217  25.749  1.00  0.00    -0.252 OA
BRANCH   3   5
ATOM      5  C   UNL A   1      40.396  21.783  26.737  1.00  0.00     0.128 C 
ATOM      6  N   UNL A   1      38.309  22.369  25.912  1.00  0.00    -0.312 N 
ATOM      7  C   UNL A   1      39.336  21.377  25.743  1.00  0.00     0.141 C 
ATOM      8  C   UNL A   1      38.770  23.494  26.602  1.00  0.00     0.227 C 
ATOM      9  C   UNL A   1      40.215  23.278  26.936  1.00  0.00     0.117 C 
ATOM     10  O   UNL A   1      38.160  24.517  26.881  1.00  0.00    -0.274 OA
BRANCH   6  11
ATOM     11  C   UNL A   1      37.095  22.301  25.209  1.00  0.00     0.044 A 
ATOM     12  C   UNL A   1      34.598  22.202  23.936  1.00  0.00     0.120 A 
ATOM     13  C   UNL A   1      35.631  22.950  23.377  1.00  0.00     0.048 A 
ATOM     14  C   UNL A   1      34.827  21.488  25.105  1.00  0.00     0.048 A 
ATOM     15  C   UNL A   1      36.870  23.026  24.030  1.00  0.00     0.030 A 
ATOM     16  C   UNL A   1      36.064  21.525  25.729  1.00  0.00     0.030 A 
BRANCH  12  17
ATOM     17  O   UNL A   1      33.409  22.097  23.262  1.00  0.00    -0.484 OA
BRANCH  17  18
ATOM     18  C   UNL A   1      32.275  22.181  24.132  1.00  0.00     0.329 C 
BRANCH  18  19
ATOM     19  C   UNL A   1      31.630  23.572  24.243  1.00  0.00     0.262 C 
ATOM     20  O   UNL A   1      30.657  23.870  23.560  1.00  0.00    -0.271 OA
ATOM     21  N   UNL A   1      32.339  24.420  25.093  1.00  0.00    -0.322 N 
ATOM     22  H   UNL A   1      32.986  24.015  25.714  1.00  0.00     0.170 HD
BRANCH  21  23
ATOM     23  C   UNL A   1      32.185  25.829  25.118  1.00  0.00     0.060 A 
ATOM     24  C   UNL A   1      31.480  26.337  26.224  1.00  0.00     0.029 A 
ATOM     25  C   UNL A   1      32.722  26.734  24.187  1.00  0.00     0.066 A 
ATOM     26  C   UNL A   1      31.403  27.713  26.454  1.00  0.00     0.023 A 
ATOM     27  C   UNL A   1      32.637  28.113  24.419  1.00  0.00     0.043 A 
ATOM     28  Cl  UNL A   1      33.333  26.251  22.642  1.00  0.00    -0.082 Cl
ATOM     29  C   UNL A   1      31.996  28.594  25.557  1.00  0.00     0.042 A 
ATOM     30  Cl  UNL A   1      31.912  30.289  25.841  1.00  0.00    -0.084 Cl
ENDBRANCH  21  23
ENDBRANCH  18  19
ENDBRANCH  17  18
ENDBRANCH  12  17
ENDBRANCH   6  11
ENDBRANCH   3   5
ENDBRANCH   2   3
ENDBRANCH   1   2
BRANCH   1  31
ATOM     31  C   UNL A   1      43.524  23.981  24.959  1.00  0.00     0.275 C 
BRANCH  31  32
ATOM     32  O   UNL A   1      43.429  24.850  26.106  1.00  0.00    -0.458 OA
BRANCH  32  33
ATOM     33  C   UNL A   1      42.501  25.832  25.998  1.00  0.00     0.338 C 
ATOM     34  O   UNL A   1      41.724  26.010  25.076  1.00  0.00    -0.246 OA
BRANCH  33  35
ATOM     35  C   UNL A   1      42.428  26.604  27.246  1.00  0.00     0.060 A 
ATOM     36  C   UNL A   1      41.635  26.093  28.270  1.00  0.00     0.016 A 
ATOM     37  C   UNL A   1      43.007  27.865  27.369  1.00  0.00     0.016 A 
ATOM     38  C   UNL A   1      41.355  26.851  29.397  1.00  0.00     0.010 A 
ATOM     39  C   UNL A   1      42.769  28.612  28.531  1.00  0.00     0.010 A 
ATOM     40  C   UNL A   1      41.925  28.118  29.542  1.00  0.00    -0.014 A 
BRANCH  40  41
ATOM     41  C   UNL A   1      41.589  28.918  30.744  1.00  0.00     0.031 A 
ATOM     42  C   UNL A   1      40.399  29.832  30.731  1.00  0.00     0.074 A 
ATOM     43  C   UNL A   1      42.324  28.772  31.865  1.00  0.00     0.049 A 
ATOM     44  N   UNL A   1      40.000  30.679  31.643  1.00  0.00    -0.248 NA
ATOM     45  C   UNL A   1      39.543  29.788  29.534  1.00  0.00     0.031 C 
ATOM     46  C   UNL A   1      43.466  27.866  32.015  1.00  0.00     0.029 A 
ATOM     47  N   UNL A   1      42.213  29.373  33.092  1.00  0.00    -0.354 N 
ATOM     48  C   UNL A   1      38.869  31.295  31.120  1.00  0.00     0.074 A 
ATOM     49  C   UNL A   1      38.649  30.729  29.805  1.00  0.00     0.031 C 
ATOM     50  C   UNL A   1      43.941  27.963  33.266  1.00  0.00     0.029 A 
ATOM     51  C   UNL A   1      43.181  28.980  33.984  1.00  0.00     0.049 A 
ATOM     52  H   UNL A   1      41.508  30.024  33.313  1.00  0.00     0.167 HD
ATOM     53  C   UNL A   1      38.088  32.246  31.687  1.00  0.00     0.037 A 
ATOM     54  C   UNL A   1      43.452  29.416  35.230  1.00  0.00     0.037 A 
ATOM     55  C   UNL A   1      38.302  32.781  33.007  1.00  0.00     0.049 A 
ATOM     56  C   UNL A   1      42.595  30.499  35.823  1.00  0.00     0.074 A 
ATOM     57  C   UNL A   1      37.579  33.757  33.669  1.00  0.00     0.029 A 
ATOM     58  N   UNL A   1      39.310  32.375  33.871  1.00  0.00    -0.354 N 
ATOM     59  N   UNL A   1      41.562  31.112  35.294  1.00  0.00    -0.248 NA
ATOM     60  C   UNL A   1      42.945  30.958  37.173  1.00  0.00     0.031 C 
ATOM     61  C   UNL A   1      38.166  33.962  34.923  1.00  0.00     0.029 A 
ATOM     62  C   UNL A   1      39.232  33.087  35.057  1.00  0.00     0.049 A 
ATOM     63  H   UNL A   1      39.981  31.683  33.671  1.00  0.00     0.167 HD
ATOM     64  C   UNL A   1      41.133  32.024  36.251  1.00  0.00     0.074 A 
ATOM     65  C   UNL A   1      42.007  31.869  37.396  1.00  0.00     0.031 C 
ATOM     66  C   UNL A   1      40.113  32.915  36.184  1.00  0.00     0.037 A 
BRANCH  53  67
ATOM     67  C   UNL A   1      36.953  32.789  30.867  1.00  0.00     0.058 A 
ATOM     68  C   UNL A   1      37.153  33.762  29.875  1.00  0.00     0.135 A 
ATOM     69  C   UNL A   1      35.646  32.316  31.067  1.00  0.00     0.135 A 
ATOM     70  F   UNL A   1      38.380  34.263  29.659  1.00  0.00    -0.206 F 
ATOM     71  C   UNL A   1      36.094  34.265  29.127  1.00  0.00     0.059 A 
ATOM     72  C   UNL A   1      34.575  32.789  30.314  1.00  0.00     0.059 A 
ATOM     73  F   UNL A   1      35.399  31.389  32.005  1.00  0.00    -0.206 F 
ATOM     74  C   UNL A   1      34.807  33.775  29.357  1.00  0.00     0.060 A 
BRANCH  74  75
ATOM     75  S   UNL A   1      33.438  34.440  28.383  1.00  0.00     0.124 S 
ATOM     76  O   UNL A   1      32.544  34.920  29.432  1.00  0.00    -0.237 OA
ATOM     77  O   UNL A   1      34.092  35.473  27.586  1.00  0.00    -0.237 OA
ATOM     78  O   UNL A   1      32.962  33.282  27.633  1.00  0.00    -0.744 OA
ENDBRANCH  74  75
ENDBRANCH  53  67
BRANCH  54  79
ATOM     79  C   UNL A   1      44.610  28.856  35.973  1.00  0.00     0.058 A 
ATOM     80  C   UNL A   1      44.462  27.753  36.825  1.00  0.00     0.135 A 
ATOM     81  C   UNL A   1      45.895  29.400  35.823  1.00  0.00     0.135 A 
ATOM     82  F   UNL A   1      43.251  27.204  37.006  1.00  0.00    -0.206 F 
ATOM     83  C   UNL A   1      45.546  27.210  37.507  1.00  0.00     0.059 A 
ATOM     84  C   UNL A   1      46.998  28.860  36.474  1.00  0.00     0.059 A 
ATOM     85  F   UNL A   1      46.092  30.449  35.008  1.00  0.00    -0.206 F 
ATOM     86  C   UNL A   1      46.812  27.770  37.322  1.00  0.00     0.060 A 
BRANCH  86  87
ATOM     87  S   UNL A   1      48.226  27.022  38.160  1.00  0.00     0.124 S 
ATOM     88  O   UNL A   1      47.800  27.070  39.554  1.00  0.00    -0.237 OA
ATOM     89  O   UNL A   1      48.281  25.695  37.554  1.00  0.00    -0.237 OA
ATOM     90  O   UNL A   1      49.331  27.909  37.805  1.00  0.00    -0.744 OA
ENDBRANCH  86  87
ENDBRANCH  54  79
BRANCH  66  91
ATOM     91  C   UNL A   1      39.878  33.773  37.394  1.00  0.00     0.058 A 
ATOM     92  C   UNL A   1      38.949  33.409  38.380  1.00  0.00     0.135 A 
ATOM     93  C   UNL A   1      40.617  34.951  37.585  1.00  0.00     0.135 A 
ATOM     94  F   UNL A   1      38.214  32.295  38.237  1.00  0.00    -0.206 F 
ATOM     95  C   UNL A   1      38.742  34.197  39.506  1.00  0.00     0.059 A 
ATOM     96  C   UNL A   1      40.442  35.743  38.715  1.00  0.00     0.059 A 
ATOM     97  F   UNL A   1      41.524  35.336  36.673  1.00  0.00    -0.206 F 
ATOM     98  C   UNL A   1      39.493  35.365  39.663  1.00  0.00     0.060 A 
BRANCH  98  99
ATOM     99  S   UNL A   1      39.235  36.370  41.141  1.00  0.00     0.124 S 
ATOM    100  O   UNL A   1      40.607  36.601  41.581  1.00  0.00    -0.237 OA
ATOM    101  O   UNL A   1      38.534  37.536  40.612  1.00  0.00    -0.237 OA
ATOM    102  O   UNL A   1      38.435  35.505  42.002  1.00  0.00    -0.744 OA
ENDBRANCH  98  99
ENDBRANCH  66  91
ENDBRANCH  40  41
ENDBRANCH  33  35
ENDBRANCH  32  33
ENDBRANCH  31  32
ENDBRANCH   1  31
TORSDOF 19
ENDMDL
MODEL 3
REMARK VINA RESULT:     -11.5      1.407      8.137
REMARK SMILES O=C(COc1ccc(N2C[C@@H](C(=O)OCCOC(=O)c3ccc(-c4c5nc(c(-c6c(F)cc(S(=O)(=O)[O-])cc6F)c6ccc([nH]6)c(-c6c(F)cc(S(=O)(=O)[O-])cc6F)c6nc(c(-c7c(F)cc(S(=O)(=O)[O-])cc7F)c7ccc4[nH]7)C=C6)C=C5)cc3)CC2=O)cc1)Nc1ccc(Cl)cc1Cl
REMARK SMILES IDX 15 1 14 2 12 3 13 4 11 5 9 6 10 7 87 8 86 9 88 10 8 11 5 12
REMARK SMILES IDX 6 13 90 14 7 15 89 16 4 17 3 18 2 19 1 20 91 21 92 23 93 24
REMARK SMILES IDX 98 25 94 26 97 27 99 28 95 29 96 30 16 31 17 32 18 33 19 34
REMARK SMILES IDX 20 35 21 36 85 37 22 38 84 39 23 40 24 41 25 42 78 43 26 44
REMARK SMILES IDX 83 45 77 46 79 47 27 48 82 49 76 50 75 51 28 53 62 54 41 55
REMARK SMILES IDX 61 56 42 57 45 58 60 59 80 60 43 61 44 62 59 64 81 65 46 66
REMARK SMILES IDX 29 67 30 68 39 69 31 70 32 71 38 72 40 73 33 74 34 75 35 76
REMARK SMILES IDX 36 77 37 78 63 79 64 80 73 81 65 82 66 83 72 84 74 85 67 86
REMARK SMILES IDX 68 87 69 88 70 89 71 90 47 91 48 92 57 93 49 94 50 95 56 96
REMARK SMILES IDX 58 97 51 98 52 99 53 100 54 101 55 102
REMARK H PARENT 91 22 79 52 45 63
REMARK Flexibility Score: inf
ROOT
ATOM      1  C   UNL A   1      42.211  22.594  28.126  1.00  0.00     0.274 C 
ENDROOT
BRANCH   1   2
ATOM      2  O   UNL A   1      40.912  22.027  27.874  1.00  0.00    -0.462 OA
BRANCH   2   3
ATOM      3  C   UNL A   1      40.877  20.800  27.301  1.00  0.00     0.311 C 
ATOM      4  O   UNL A   1      41.435  19.804  27.744  1.00  0.00    -0.252 OA
BRANCH   3   5
ATOM      5  C   UNL A   1      40.047  20.762  26.046  1.00  0.00     0.128 C 
ATOM      6  N   UNL A   1      37.939  21.355  25.279  1.00  0.00    -0.312 N 
ATOM      7  C   UNL A   1      39.014  21.863  26.087  1.00  0.00     0.141 C 
ATOM      8  C   UNL A   1      38.042  19.976  25.068  1.00  0.00     0.227 C 
ATOM      9  C   UNL A   1      39.269  19.485  25.777  1.00  0.00     0.117 C 
ATOM     10  O   UNL A   1      37.280  19.242  24.455  1.00  0.00    -0.274 OA
BRANCH   6  11
ATOM     11  C   UNL A   1      36.798  22.126  25.000  1.00  0.00     0.044 A 
ATOM     12  C   UNL A   1      34.561  23.759  24.559  1.00  0.00     0.120 A 
ATOM     13  C   UNL A   1      35.384  23.408  23.492  1.00  0.00     0.048 A 
ATOM     14  C   UNL A   1      34.844  23.269  25.828  1.00  0.00     0.048 A 
ATOM     15  C   UNL A   1      36.521  22.618  23.717  1.00  0.00     0.030 A 
ATOM     16  C   UNL A   1      35.941  22.451  26.046  1.00  0.00     0.030 A 
BRANCH  12  17
ATOM     17  O   UNL A   1      33.428  24.490  24.317  1.00  0.00    -0.484 OA
BRANCH  17  18
ATOM     18  C   UNL A   1      33.470  25.786  24.923  1.00  0.00     0.329 C 
BRANCH  18  19
ATOM     19  C   UNL A   1      32.890  26.930  24.075  1.00  0.00     0.262 C 
ATOM     20  O   UNL A   1      33.623  27.651  23.407  1.00  0.00    -0.271 OA
ATOM     21  N   UNL A   1      31.518  27.085  24.259  1.00  0.00    -0.322 N 
ATOM     22  H   UNL A   1      31.021  26.342  24.672  1.00  0.00     0.170 HD
BRANCH  21  23
ATOM     23  C   UNL A   1      30.792  28.245  23.888  1.00  0.00     0.060 A 
ATOM     24  C   UNL A   1      29.866  28.067  22.845  1.00  0.00     0.029 A 
ATOM     25  C   UNL A   1      30.877  29.504  24.506  1.00  0.00     0.066 A 
ATOM     26  C   UNL A   1      28.973  29.084  22.497  1.00  0.00     0.023 A 
ATOM     27  C   UNL A   1      29.984  30.524  24.151  1.00  0.00     0.043 A 
ATOM     28  Cl  UNL A   1      32.165  29.949  25.573  1.00  0.00    -0.082 Cl
ATOM     29  C   UNL A   1      29.027  30.303  23.164  1.00  0.00     0.042 A 
ATOM     30  Cl  UNL A   1      27.924  31.555  22.746  1.00  0.00    -0.084 Cl
ENDBRANCH  21  23
ENDBRANCH  18  19
ENDBRANCH  17  18
ENDBRANCH  12  17
ENDBRANCH   6  11
ENDBRANCH   3   5
ENDBRANCH   2   3
ENDBRANCH   1   2
BRANCH   1  31
ATOM     31  C   UNL A   1      42.697  23.389  26.909  1.00  0.00     0.275 C 
BRANCH  31  32
ATOM     32  O   UNL A   1      41.615  24.074  26.248  1.00  0.00    -0.458 OA
BRANCH  32  33
ATOM     33  C   UNL A   1      41.885  25.355  25.899  1.00  0.00     0.338 C 
ATOM     34  O   UNL A   1      42.291  25.753  24.821  1.00  0.00    -0.246 OA
BRANCH  33  35
ATOM     35  C   UNL A   1      41.466  26.274  26.966  1.00  0.00     0.060 A 
ATOM     36  C   UNL A   1      42.153  27.480  27.079  1.00  0.00     0.016 A 
ATOM     37  C   UNL A   1      40.521  25.912  27.924  1.00  0.00     0.016 A 
ATOM     38  C   UNL A   1      41.956  28.310  28.172  1.00  0.00     0.010 A 
ATOM     39  C   UNL A   1      40.282  26.774  29.002  1.00  0.00     0.010 A 
ATOM     40  C   UNL A   1      41.013  27.968  29.144  1.00  0.00    -0.014 A 
BRANCH  40  41
ATOM     41  C   UNL A   1      40.840  28.860  30.316  1.00  0.00     0.031 A 
ATOM     42  C   UNL A   1      41.754  28.729  31.501  1.00  0.00     0.074 A 
ATOM     43  C   UNL A   1      39.900  29.824  30.284  1.00  0.00     0.049 A 
ATOM     44  N   UNL A   1      41.703  29.347  32.652  1.00  0.00    -0.248 NA
ATOM     45  C   UNL A   1      42.871  27.780  31.375  1.00  0.00     0.031 C 
ATOM     46  C   UNL A   1      38.996  30.086  29.160  1.00  0.00     0.029 A 
ATOM     47  N   UNL A   1      39.555  30.770  31.214  1.00  0.00    -0.354 N 
ATOM     48  C   UNL A   1      42.757  28.839  33.401  1.00  0.00     0.074 A 
ATOM     49  C   UNL A   1      43.426  27.855  32.577  1.00  0.00     0.031 C 
ATOM     50  C   UNL A   1      38.210  31.131  29.463  1.00  0.00     0.029 A 
ATOM     51  C   UNL A   1      38.509  31.571  30.821  1.00  0.00     0.049 A 
ATOM     52  H   UNL A   1      40.013  30.867  32.081  1.00  0.00     0.167 HD
ATOM     53  C   UNL A   1      43.129  29.165  34.662  1.00  0.00     0.037 A 
ATOM     54  C   UNL A   1      37.840  32.527  31.493  1.00  0.00     0.037 A 
ATOM     55  C   UNL A   1      42.472  30.166  35.462  1.00  0.00     0.049 A 
ATOM     56  C   UNL A   1      38.247  32.844  32.905  1.00  0.00     0.074 A 
ATOM     57  C   UNL A   1      42.760  30.562  36.756  1.00  0.00     0.029 A 
ATOM     58  N   UNL A   1      41.399  30.937  35.038  1.00  0.00    -0.354 N 
ATOM     59  N   UNL A   1      39.211  32.315  33.620  1.00  0.00    -0.248 NA
ATOM     60  C   UNL A   1      37.470  33.876  33.603  1.00  0.00     0.031 C 
ATOM     61  C   UNL A   1      41.844  31.553  37.125  1.00  0.00     0.029 A 
ATOM     62  C   UNL A   1      41.008  31.802  36.048  1.00  0.00     0.049 A 
ATOM     63  H   UNL A   1      40.977  30.879  34.150  1.00  0.00     0.167 HD
ATOM     64  C   UNL A   1      39.162  32.957  34.852  1.00  0.00     0.074 A 
ATOM     65  C   UNL A   1      38.086  33.925  34.776  1.00  0.00     0.031 C 
ATOM     66  C   UNL A   1      39.934  32.757  35.950  1.00  0.00     0.037 A 
BRANCH  53  67
ATOM     67  C   UNL A   1      44.280  28.408  35.263  1.00  0.00     0.058 A 
ATOM     68  C   UNL A   1      45.603  28.866  35.162  1.00  0.00     0.135 A 
ATOM     69  C   UNL A   1      44.052  27.213  35.964  1.00  0.00     0.135 A 
ATOM     70  F   UNL A   1      45.878  29.992  34.485  1.00  0.00    -0.206 F 
ATOM     71  C   UNL A   1      46.662  28.154  35.715  1.00  0.00     0.059 A 
ATOM     72  C   UNL A   1      45.093  26.496  36.544  1.00  0.00     0.059 A 
ATOM     73  F   UNL A   1      42.806  26.729  36.086  1.00  0.00    -0.206 F 
ATOM     74  C   UNL A   1      46.397  26.966  36.401  1.00  0.00     0.060 A 
BRANCH  74  75
ATOM     75  S   UNL A   1      47.781  26.046  37.108  1.00  0.00     0.124 S 
ATOM     76  O   UNL A   1      48.766  27.106  37.299  1.00  0.00    -0.237 OA
ATOM     77  O   UNL A   1      47.200  25.494  38.328  1.00  0.00    -0.237 OA
ATOM     78  O   UNL A   1      48.103  25.069  36.073  1.00  0.00    -0.744 OA
ENDBRANCH  74  75
ENDBRANCH  53  67
BRANCH  54  79
ATOM     79  C   UNL A   1      36.691  33.215  30.849  1.00  0.00     0.058 A 
ATOM     80  C   UNL A   1      35.370  32.893  31.186  1.00  0.00     0.135 A 
ATOM     81  C   UNL A   1      36.897  34.229  29.900  1.00  0.00     0.135 A 
ATOM     82  F   UNL A   1      35.123  31.925  32.082  1.00  0.00    -0.206 F 
ATOM     83  C   UNL A   1      34.290  33.548  30.602  1.00  0.00     0.059 A 
ATOM     84  C   UNL A   1      35.836  34.915  29.321  1.00  0.00     0.059 A 
ATOM     85  F   UNL A   1      38.145  34.583  29.553  1.00  0.00    -0.206 F 
ATOM     86  C   UNL A   1      34.535  34.561  29.672  1.00  0.00     0.060 A 
BRANCH  86  87
ATOM     87  S   UNL A   1      33.132  35.452  28.965  1.00  0.00     0.124 S 
ATOM     88  O   UNL A   1      33.804  36.489  28.190  1.00  0.00    -0.237 OA
ATOM     89  O   UNL A   1      32.461  34.411  28.192  1.00  0.00    -0.237 OA
ATOM     90  O   UNL A   1      32.403  35.914  30.143  1.00  0.00    -0.744 OA
ENDBRANCH  86  87
ENDBRANCH  54  79
BRANCH  66  91
ATOM     91  C   UNL A   1      39.651  33.619  37.146  1.00  0.00     0.058 A 
ATOM     92  C   UNL A   1      38.742  33.221  38.137  1.00  0.00     0.135 A 
ATOM     93  C   UNL A   1      40.325  34.838  37.320  1.00  0.00     0.135 A 
ATOM     94  F   UNL A   1      38.068  32.066  38.012  1.00  0.00    -0.206 F 
ATOM     95  C   UNL A   1      38.491  34.013  39.252  1.00  0.00     0.059 A 
ATOM     96  C   UNL A   1      40.106  35.637  38.437  1.00  0.00     0.059 A 
ATOM     97  F   UNL A   1      41.211  35.258  36.403  1.00  0.00    -0.206 F 
ATOM     98  C   UNL A   1      39.178  35.222  39.391  1.00  0.00     0.060 A 
BRANCH  98  99
ATOM     99  S   UNL A   1      38.865  36.234  40.853  1.00  0.00     0.124 S 
ATOM    100  O   UNL A   1      38.450  37.497  40.253  1.00  0.00    -0.237 OA
ATOM    101  O   UNL A   1      37.817  35.483  41.538  1.00  0.00    -0.237 OA
ATOM    102  O   UNL A   1      40.156  36.253  41.533  1.00  0.00    -0.744 OA
ENDBRANCH  98  99
ENDBRANCH  66  91
ENDBRANCH  40  41
ENDBRANCH  33  35
ENDBRANCH  32  33
ENDBRANCH  31  32
ENDBRANCH   1  31
TORSDOF 19
ENDMDL
