MODEL 1
REMARK VINA RESULT:      -9.6      0.000      0.000
REMARK SMILES CS(=O)(=O)c1ccc(/C=C(/C(=O)OCCOC(=O)c2ccc(-c3c4nc(c(-c5c(F)cc(S(=O)(=O)[O-])cc5F)c5ccc([nH]5)c(-c5c(F)cc(S(=O)(=O)[O-])cc5F)c5nc(c(-c6c(F)cc(S(=O)(=O)[O-])cc6F)c6ccc3[nH]6)C=C5)C=C4)cc2)c2ccc(-c3ccc(F)cc3F)cc2)cc1
REMARK SMILES IDX 15 1 14 2 13 3 11 4 12 5 10 6 9 7 8 8 5 9 6 10 100 11 7 12
REMARK SMILES IDX 99 13 2 14 1 15 3 16 4 17 85 18 86 19 98 20 87 21 97 22
REMARK SMILES IDX 88 23 89 24 90 25 95 26 91 27 94 28 96 29 92 30 93 31 16 32
REMARK SMILES IDX 17 33 18 34 19 35 20 36 84 37 21 38 83 39 22 40 23 41 24 42
REMARK SMILES IDX 77 43 25 44 82 45 76 46 78 47 26 48 81 49 75 50 74 51 27 53
REMARK SMILES IDX 61 54 40 55 60 56 41 57 44 58 59 59 79 60 42 61 43 62 58 64
REMARK SMILES IDX 80 65 45 66 28 67 29 68 38 69 30 70 31 71 37 72 39 73 32 74
REMARK SMILES IDX 33 75 34 76 35 77 36 78 62 79 63 80 72 81 64 82 65 83 71 84
REMARK SMILES IDX 73 85 66 86 67 87 68 88 69 89 70 90 46 91 47 92 56 93 48 94
REMARK SMILES IDX 49 95 55 96 57 97 50 98 51 99 52 100 53 101 54 102
REMARK H PARENT 78 52 44 63
REMARK Flexibility Score: inf
ROOT
ATOM      1  C   UNL A   1      40.090  22.407  26.691  1.00  0.00     0.275 C 
ENDROOT
BRANCH   1   2
ATOM      2  C   UNL A   1      41.274  21.581  26.182  1.00  0.00     0.275 C 
BRANCH   2   3
ATOM      3  O   UNL A   1      41.962  22.245  25.097  1.00  0.00    -0.458 OA
BRANCH   3   4
ATOM      4  C   UNL A   1      43.307  22.376  25.241  1.00  0.00     0.338 C 
ATOM      5  O   UNL A   1      44.131  21.535  24.906  1.00  0.00    -0.246 OA
BRANCH   4   6
ATOM      6  C   UNL A   1      43.700  23.718  25.786  1.00  0.00     0.067 C 
ATOM      7  C   UNL A   1      44.062  24.746  24.979  1.00  0.00     0.024 C 
BRANCH   7   8
ATOM      8  C   UNL A   1      44.401  26.118  25.433  1.00  0.00    -0.025 A 
ATOM      9  C   UNL A   1      44.856  28.560  26.745  1.00  0.00     0.067 A 
ATOM     10  C   UNL A   1      45.892  27.647  26.622  1.00  0.00     0.021 A 
ATOM     11  C   UNL A   1      43.629  28.317  26.117  1.00  0.00     0.021 A 
ATOM     12  C   UNL A   1      45.673  26.469  25.911  1.00  0.00     0.009 A 
ATOM     13  C   UNL A   1      43.401  27.095  25.470  1.00  0.00     0.009 A 
BRANCH   9  14
ATOM     14  S   UNL A   1      45.029  30.026  27.728  1.00  0.00     0.175 S 
ATOM     15  C   UNL A   1      44.401  29.655  29.346  1.00  0.00     0.163 C 
ATOM     16  O   UNL A   1      44.146  31.020  27.140  1.00  0.00    -0.224 OA
ATOM     17  O   UNL A   1      46.452  30.273  27.846  1.00  0.00    -0.224 OA
ENDBRANCH   9  14
ENDBRANCH   7   8
BRANCH   6  18
ATOM     18  C   UNL A   1      43.770  23.838  27.257  1.00  0.00    -0.011 A 
ATOM     19  C   UNL A   1      44.939  23.361  27.846  1.00  0.00     0.009 A 
ATOM     20  C   UNL A   1      42.828  24.479  28.064  1.00  0.00     0.009 A 
ATOM     21  C   UNL A   1      45.159  23.498  29.211  1.00  0.00     0.009 A 
ATOM     22  C   UNL A   1      43.055  24.604  29.452  1.00  0.00     0.009 A 
ATOM     23  C   UNL A   1      44.218  24.093  30.065  1.00  0.00    -0.015 A 
BRANCH  23  24
ATOM     24  C   UNL A   1      44.472  24.096  31.529  1.00  0.00     0.018 A 
ATOM     25  C   UNL A   1      43.812  23.173  32.378  1.00  0.00     0.015 A 
ATOM     26  C   UNL A   1      45.289  25.047  32.165  1.00  0.00     0.133 A 
ATOM     27  C   UNL A   1      43.905  23.246  33.770  1.00  0.00     0.040 A 
ATOM     28  C   UNL A   1      45.424  25.097  33.550  1.00  0.00     0.079 A 
ATOM     29  F   UNL A   1      45.953  25.968  31.450  1.00  0.00    -0.206 F 
ATOM     30  C   UNL A   1      44.715  24.210  34.343  1.00  0.00     0.126 A 
ATOM     31  F   UNL A   1      44.825  24.274  35.674  1.00  0.00    -0.207 F 
ENDBRANCH  23  24
ENDBRANCH   6  18
ENDBRANCH   4   6
ENDBRANCH   3   4
ENDBRANCH   2   3
ENDBRANCH   1   2
BRANCH   1  32
ATOM     32  O   UNL A   1      40.101  23.719  26.096  1.00  0.00    -0.458 OA
BRANCH  32  33
ATOM     33  C   UNL A   1      39.151  24.577  26.537  1.00  0.00     0.338 C 
ATOM     34  O   UNL A   1      37.972  24.591  26.233  1.00  0.00    -0.246 OA
BRANCH  33  35
ATOM     35  C   UNL A   1      39.703  25.452  27.588  1.00  0.00     0.060 A 
ATOM     36  C   UNL A   1      39.321  25.177  28.887  1.00  0.00     0.016 A 
ATOM     37  C   UNL A   1      40.364  26.649  27.302  1.00  0.00     0.016 A 
ATOM     38  C   UNL A   1      39.437  26.164  29.857  1.00  0.00     0.010 A 
ATOM     39  C   UNL A   1      40.589  27.595  28.328  1.00  0.00     0.010 A 
ATOM     40  C   UNL A   1      40.062  27.397  29.616  1.00  0.00    -0.014 A 
BRANCH  40  41
ATOM     41  C   UNL A   1      40.066  28.421  30.721  1.00  0.00     0.031 A 
ATOM     42  C   UNL A   1      41.187  28.486  31.740  1.00  0.00     0.074 A 
ATOM     43  C   UNL A   1      39.160  29.428  30.708  1.00  0.00     0.049 A 
ATOM     44  N   UNL A   1      41.358  29.336  32.726  1.00  0.00    -0.248 NA
ATOM     45  C   UNL A   1      42.270  27.499  31.623  1.00  0.00     0.031 C 
ATOM     46  C   UNL A   1      38.097  29.592  29.712  1.00  0.00     0.029 A 
ATOM     47  N   UNL A   1      39.032  30.551  31.494  1.00  0.00    -0.354 N 
ATOM     48  C   UNL A   1      42.527  28.951  33.378  1.00  0.00     0.074 A 
ATOM     49  C   UNL A   1      43.041  27.807  32.657  1.00  0.00     0.031 C 
ATOM     50  C   UNL A   1      37.533  30.796  29.857  1.00  0.00     0.029 A 
ATOM     51  C   UNL A   1      38.056  31.424  31.061  1.00  0.00     0.049 A 
ATOM     52  H   UNL A   1      39.586  30.716  32.292  1.00  0.00     0.167 HD
ATOM     53  C   UNL A   1      43.108  29.488  34.482  1.00  0.00     0.037 A 
ATOM     54  C   UNL A   1      37.591  32.579  31.581  1.00  0.00     0.037 A 
ATOM     55  C   UNL A   1      42.617  30.648  35.188  1.00  0.00     0.049 A 
ATOM     56  C   UNL A   1      38.189  33.088  32.862  1.00  0.00     0.074 A 
ATOM     57  C   UNL A   1      43.118  31.227  36.344  1.00  0.00     0.029 A 
ATOM     58  N   UNL A   1      41.521  31.410  34.813  1.00  0.00    -0.354 N 
ATOM     59  N   UNL A   1      39.220  32.630  33.532  1.00  0.00    -0.248 NA
ATOM     60  C   UNL A   1      37.546  34.260  33.471  1.00  0.00     0.031 C 
ATOM     61  C   UNL A   1      42.289  32.296  36.701  1.00  0.00     0.029 A 
ATOM     62  C   UNL A   1      41.312  32.430  35.731  1.00  0.00     0.049 A 
ATOM     63  H   UNL A   1      40.971  31.250  34.011  1.00  0.00     0.167 HD
ATOM     64  C   UNL A   1      39.363  33.477  34.627  1.00  0.00     0.074 A 
ATOM     65  C   UNL A   1      38.332  34.486  34.514  1.00  0.00     0.031 C 
ATOM     66  C   UNL A   1      40.265  33.419  35.638  1.00  0.00     0.037 A 
BRANCH  53  67
ATOM     67  C   UNL A   1      44.299  28.770  35.065  1.00  0.00     0.058 A 
ATOM     68  C   UNL A   1      45.613  28.992  34.628  1.00  0.00     0.135 A 
ATOM     69  C   UNL A   1      44.110  27.860  36.122  1.00  0.00     0.135 A 
ATOM     70  F   UNL A   1      45.854  29.839  33.613  1.00  0.00    -0.206 F 
ATOM     71  C   UNL A   1      46.693  28.317  35.195  1.00  0.00     0.059 A 
ATOM     72  C   UNL A   1      45.176  27.197  36.722  1.00  0.00     0.059 A 
ATOM     73  F   UNL A   1      42.875  27.613  36.585  1.00  0.00    -0.206 F 
ATOM     74  C   UNL A   1      46.463  27.418  36.240  1.00  0.00     0.060 A 
BRANCH  74  75
ATOM     75  S   UNL A   1      47.866  26.534  36.952  1.00  0.00     0.124 S 
ATOM     76  O   UNL A   1      48.288  27.457  38.002  1.00  0.00    -0.237 OA
ATOM     77  O   UNL A   1      47.253  25.291  37.410  1.00  0.00    -0.237 OA
ATOM     78  O   UNL A   1      48.790  26.399  35.831  1.00  0.00    -0.744 OA
ENDBRANCH  74  75
ENDBRANCH  53  67
BRANCH  54  79
ATOM     79  C   UNL A   1      36.464  33.309  30.920  1.00  0.00     0.058 A 
ATOM     80  C   UNL A   1      36.666  34.091  29.771  1.00  0.00     0.135 A 
ATOM     81  C   UNL A   1      35.159  33.260  31.438  1.00  0.00     0.135 A 
ATOM     82  F   UNL A   1      37.897  34.228  29.257  1.00  0.00    -0.206 F 
ATOM     83  C   UNL A   1      35.627  34.787  29.162  1.00  0.00     0.059 A 
ATOM     84  C   UNL A   1      34.096  33.916  30.826  1.00  0.00     0.059 A 
ATOM     85  F   UNL A   1      34.898  32.546  32.545  1.00  0.00    -0.206 F 
ATOM     86  C   UNL A   1      34.342  34.688  29.695  1.00  0.00     0.060 A 
BRANCH  86  87
ATOM     87  S   UNL A   1      33.000  35.586  28.891  1.00  0.00     0.124 S 
ATOM     88  O   UNL A   1      33.734  36.595  28.135  1.00  0.00    -0.237 OA
ATOM     89  O   UNL A   1      32.359  34.537  28.103  1.00  0.00    -0.237 OA
ATOM     90  O   UNL A   1      32.213  36.087  30.013  1.00  0.00    -0.744 OA
ENDBRANCH  86  87
ENDBRANCH  54  79
BRANCH  66  91
ATOM     91  C   UNL A   1      40.169  34.476  36.708  1.00  0.00     0.058 A 
ATOM     92  C   UNL A   1      39.304  34.337  37.807  1.00  0.00     0.135 A 
ATOM     93  C   UNL A   1      40.950  35.643  36.641  1.00  0.00     0.135 A 
ATOM     94  F   UNL A   1      38.530  33.246  37.924  1.00  0.00    -0.206 F 
ATOM     95  C   UNL A   1      39.180  35.332  38.771  1.00  0.00     0.059 A 
ATOM     96  C   UNL A   1      40.868  36.636  37.612  1.00  0.00     0.059 A 
ATOM     97  F   UNL A   1      41.805  35.828  35.623  1.00  0.00    -0.206 F 
ATOM     98  C   UNL A   1      39.965  36.481  38.664  1.00  0.00     0.060 A 
BRANCH  98  99
ATOM     99  S   UNL A   1      39.798  37.763  39.924  1.00  0.00     0.124 S 
ATOM    100  O   UNL A   1      41.009  38.548  39.708  1.00  0.00    -0.237 OA
ATOM    101  O   UNL A   1      38.547  38.412  39.545  1.00  0.00    -0.237 OA
ATOM    102  O   UNL A   1      39.752  37.010  41.173  1.00  0.00    -0.744 OA
ENDBRANCH  98  99
ENDBRANCH  66  91
ENDBRANCH  40  41
ENDBRANCH  33  35
ENDBRANCH  32  33
ENDBRANCH   1  32
TORSDOF 18
ENDMDL
MODEL 2
REMARK VINA RESULT:      -9.4      4.266     10.800
REMARK SMILES CS(=O)(=O)c1ccc(/C=C(/C(=O)OCCOC(=O)c2ccc(-c3c4nc(c(-c5c(F)cc(S(=O)(=O)[O-])cc5F)c5ccc([nH]5)c(-c5c(F)cc(S(=O)(=O)[O-])cc5F)c5nc(c(-c6c(F)cc(S(=O)(=O)[O-])cc6F)c6ccc3[nH]6)C=C5)C=C4)cc2)c2ccc(-c3ccc(F)cc3F)cc2)cc1
REMARK SMILES IDX 15 1 14 2 13 3 11 4 12 5 10 6 9 7 8 8 5 9 6 10 100 11 7 12
REMARK SMILES IDX 99 13 2 14 1 15 3 16 4 17 85 18 86 19 98 20 87 21 97 22
REMARK SMILES IDX 88 23 89 24 90 25 95 26 91 27 94 28 96 29 92 30 93 31 16 32
REMARK SMILES IDX 17 33 18 34 19 35 20 36 84 37 21 38 83 39 22 40 23 41 24 42
REMARK SMILES IDX 77 43 25 44 82 45 76 46 78 47 26 48 81 49 75 50 74 51 27 53
REMARK SMILES IDX 61 54 40 55 60 56 41 57 44 58 59 59 79 60 42 61 43 62 58 64
REMARK SMILES IDX 80 65 45 66 28 67 29 68 38 69 30 70 31 71 37 72 39 73 32 74
REMARK SMILES IDX 33 75 34 76 35 77 36 78 62 79 63 80 72 81 64 82 65 83 71 84
REMARK SMILES IDX 73 85 66 86 67 87 68 88 69 89 70 90 46 91 47 92 56 93 48 94
REMARK SMILES IDX 49 95 55 96 57 97 50 98 51 99 52 100 53 101 54 102
REMARK H PARENT 78 52 44 63
REMARK Flexibility Score: inf
ROOT
ATOM      1  C   UNL A   1      41.904  22.639  26.823  1.00  0.00     0.275 C 
ENDROOT
BRANCH   1   2
ATOM      2  C   UNL A   1      40.421  22.473  27.161  1.00  0.00     0.275 C 
BRANCH   2   3
ATOM      3  O   UNL A   1      39.576  22.778  26.028  1.00  0.00    -0.458 OA
BRANCH   3   4
ATOM      4  C   UNL A   1      38.368  23.327  26.321  1.00  0.00     0.338 C 
ATOM      5  O   UNL A   1      38.207  24.399  26.891  1.00  0.00    -0.246 OA
BRANCH   4   6
ATOM      6  C   UNL A   1      37.222  22.515  25.791  1.00  0.00     0.067 C 
ATOM      7  C   UNL A   1      37.363  21.215  25.436  1.00  0.00     0.024 C 
BRANCH   7   8
ATOM      8  C   UNL A   1      36.269  20.328  24.965  1.00  0.00    -0.025 A 
ATOM      9  C   UNL A   1      34.204  18.469  24.555  1.00  0.00     0.067 A 
ATOM     10  C   UNL A   1      33.890  19.792  24.825  1.00  0.00     0.021 A 
ATOM     11  C   UNL A   1      35.539  18.088  24.371  1.00  0.00     0.021 A 
ATOM     12  C   UNL A   1      34.922  20.718  24.959  1.00  0.00     0.009 A 
ATOM     13  C   UNL A   1      36.568  19.015  24.584  1.00  0.00     0.009 A 
BRANCH   9  14
ATOM     14  S   UNL A   1      32.949  17.218  24.482  1.00  0.00     0.175 S 
ATOM     15  C   UNL A   1      33.585  15.782  25.310  1.00  0.00     0.163 C 
ATOM     16  O   UNL A   1      32.795  16.874  23.078  1.00  0.00    -0.224 OA
ATOM     17  O   UNL A   1      31.828  17.719  25.252  1.00  0.00    -0.224 OA
ENDBRANCH   9  14
ENDBRANCH   7   8
BRANCH   6  18
ATOM     18  C   UNL A   1      35.948  23.234  25.580  1.00  0.00    -0.011 A 
ATOM     19  C   UNL A   1      35.737  23.721  24.293  1.00  0.00     0.009 A 
ATOM     20  C   UNL A   1      34.921  23.354  26.517  1.00  0.00     0.009 A 
ATOM     21  C   UNL A   1      34.538  24.336  23.949  1.00  0.00     0.009 A 
ATOM     22  C   UNL A   1      33.711  23.991  26.163  1.00  0.00     0.009 A 
ATOM     23  C   UNL A   1      33.500  24.521  24.873  1.00  0.00    -0.015 A 
BRANCH  23  24
ATOM     24  C   UNL A   1      32.297  25.293  24.463  1.00  0.00     0.018 A 
ATOM     25  C   UNL A   1      32.226  26.690  24.688  1.00  0.00     0.015 A 
ATOM     26  C   UNL A   1      31.146  24.692  23.927  1.00  0.00     0.133 A 
ATOM     27  C   UNL A   1      31.057  27.420  24.461  1.00  0.00     0.040 A 
ATOM     28  C   UNL A   1      29.991  25.421  23.654  1.00  0.00     0.079 A 
ATOM     29  F   UNL A   1      31.110  23.373  23.682  1.00  0.00    -0.206 F 
ATOM     30  C   UNL A   1      29.949  26.775  23.942  1.00  0.00     0.126 A 
ATOM     31  F   UNL A   1      28.832  27.471  23.704  1.00  0.00    -0.207 F 
ENDBRANCH  23  24
ENDBRANCH   6  18
ENDBRANCH   4   6
ENDBRANCH   3   4
ENDBRANCH   2   3
ENDBRANCH   1   2
BRANCH   1  32
ATOM     32  O   UNL A   1      42.410  23.870  27.377  1.00  0.00    -0.458 OA
BRANCH  32  33
ATOM     33  C   UNL A   1      42.182  24.986  26.645  1.00  0.00     0.338 C 
ATOM     34  O   UNL A   1      42.315  25.118  25.442  1.00  0.00    -0.246 OA
BRANCH  33  35
ATOM     35  C   UNL A   1      41.592  26.039  27.491  1.00  0.00     0.060 A 
ATOM     36  C   UNL A   1      42.247  27.256  27.514  1.00  0.00     0.016 A 
ATOM     37  C   UNL A   1      40.584  25.781  28.423  1.00  0.00     0.016 A 
ATOM     38  C   UNL A   1      42.024  28.133  28.567  1.00  0.00     0.010 A 
ATOM     39  C   UNL A   1      40.278  26.738  29.418  1.00  0.00     0.010 A 
ATOM     40  C   UNL A   1      41.047  27.907  29.549  1.00  0.00    -0.014 A 
BRANCH  40  41
ATOM     41  C   UNL A   1      40.943  28.890  30.687  1.00  0.00     0.031 A 
ATOM     42  C   UNL A   1      39.826  29.914  30.752  1.00  0.00     0.074 A 
ATOM     43  C   UNL A   1      41.738  28.749  31.774  1.00  0.00     0.049 A 
ATOM     44  N   UNL A   1      39.572  30.801  31.686  1.00  0.00    -0.248 NA
ATOM     45  C   UNL A   1      38.850  29.926  29.652  1.00  0.00     0.031 C 
ATOM     46  C   UNL A   1      42.774  27.724  31.931  1.00  0.00     0.029 A 
ATOM     47  N   UNL A   1      41.753  29.402  32.986  1.00  0.00    -0.354 N 
ATOM     48  C   UNL A   1      38.452  31.511  31.260  1.00  0.00     0.074 A 
ATOM     49  C   UNL A   1      38.056  30.932  29.995  1.00  0.00     0.031 C 
ATOM     50  C   UNL A   1      43.211  27.724  33.196  1.00  0.00     0.029 A 
ATOM     51  C   UNL A   1      42.631  28.858  33.899  1.00  0.00     0.049 A 
ATOM     52  H   UNL A   1      41.189  30.186  33.182  1.00  0.00     0.167 HD
ATOM     53  C   UNL A   1      37.823  32.556  31.856  1.00  0.00     0.037 A 
ATOM     54  C   UNL A   1      42.976  29.237  35.148  1.00  0.00     0.037 A 
ATOM     55  C   UNL A   1      38.195  33.120  33.132  1.00  0.00     0.049 A 
ATOM     56  C   UNL A   1      42.334  30.463  35.735  1.00  0.00     0.074 A 
ATOM     57  C   UNL A   1      37.641  34.212  33.784  1.00  0.00     0.029 A 
ATOM     58  N   UNL A   1      39.204  32.643  33.956  1.00  0.00    -0.354 N 
ATOM     59  N   UNL A   1      41.360  31.196  35.252  1.00  0.00    -0.248 NA
ATOM     60  C   UNL A   1      42.855  30.925  37.028  1.00  0.00     0.031 C 
ATOM     61  C   UNL A   1      38.357  34.432  34.967  1.00  0.00     0.029 A 
ATOM     62  C   UNL A   1      39.310  33.438  35.089  1.00  0.00     0.049 A 
ATOM     63  H   UNL A   1      39.764  31.856  33.763  1.00  0.00     0.167 HD
ATOM     64  C   UNL A   1      41.134  32.191  36.199  1.00  0.00     0.074 A 
ATOM     65  C   UNL A   1      42.055  31.949  37.289  1.00  0.00     0.031 C 
ATOM     66  C   UNL A   1      40.248  33.217  36.163  1.00  0.00     0.037 A 
BRANCH  53  67
ATOM     67  C   UNL A   1      36.716  33.236  31.090  1.00  0.00     0.058 A 
ATOM     68  C   UNL A   1      36.947  34.025  29.954  1.00  0.00     0.135 A 
ATOM     69  C   UNL A   1      35.381  33.054  31.496  1.00  0.00     0.135 A 
ATOM     70  F   UNL A   1      38.201  34.246  29.528  1.00  0.00    -0.206 F 
ATOM     71  C   UNL A   1      35.898  34.633  29.265  1.00  0.00     0.059 A 
ATOM     72  C   UNL A   1      34.317  33.628  30.807  1.00  0.00     0.059 A 
ATOM     73  F   UNL A   1      35.100  32.305  32.573  1.00  0.00    -0.206 F 
ATOM     74  C   UNL A   1      34.586  34.430  29.702  1.00  0.00     0.060 A 
BRANCH  74  75
ATOM     75  S   UNL A   1      33.238  35.240  28.814  1.00  0.00     0.124 S 
ATOM     76  O   UNL A   1      32.439  35.766  29.918  1.00  0.00    -0.237 OA
ATOM     77  O   UNL A   1      33.945  36.235  28.014  1.00  0.00    -0.237 OA
ATOM     78  O   UNL A   1      32.624  34.153  28.060  1.00  0.00    -0.744 OA
ENDBRANCH  74  75
ENDBRANCH  53  67
BRANCH  54  79
ATOM     79  C   UNL A   1      44.018  28.480  35.909  1.00  0.00     0.058 A 
ATOM     80  C   UNL A   1      45.387  28.749  35.752  1.00  0.00     0.135 A 
ATOM     81  C   UNL A   1      43.667  27.448  36.798  1.00  0.00     0.135 A 
ATOM     82  F   UNL A   1      45.794  29.680  34.878  1.00  0.00    -0.206 F 
ATOM     83  C   UNL A   1      46.362  28.037  36.443  1.00  0.00     0.059 A 
ATOM     84  C   UNL A   1      44.621  26.748  37.529  1.00  0.00     0.059 A 
ATOM     85  F   UNL A   1      42.378  27.126  36.982  1.00  0.00    -0.206 F 
ATOM     86  C   UNL A   1      45.967  27.040  37.335  1.00  0.00     0.060 A 
BRANCH  86  87
ATOM     87  S   UNL A   1      47.239  26.130  38.234  1.00  0.00     0.124 S 
ATOM     88  O   UNL A   1      48.313  27.115  38.300  1.00  0.00    -0.237 OA
ATOM     89  O   UNL A   1      46.567  25.831  39.495  1.00  0.00    -0.237 OA
ATOM     90  O   UNL A   1      47.494  24.975  37.378  1.00  0.00    -0.744 OA
ENDBRANCH  86  87
ENDBRANCH  54  79
BRANCH  66  91
ATOM     91  C   UNL A   1      40.238  34.160  37.340  1.00  0.00     0.058 A 
ATOM     92  C   UNL A   1      39.406  33.944  38.451  1.00  0.00     0.135 A 
ATOM     93  C   UNL A   1      41.070  35.292  37.362  1.00  0.00     0.135 A 
ATOM     94  F   UNL A   1      38.586  32.880  38.485  1.00  0.00    -0.206 F 
ATOM     95  C   UNL A   1      39.362  34.837  39.517  1.00  0.00     0.059 A 
ATOM     96  C   UNL A   1      41.068  36.181  38.434  1.00  0.00     0.059 A 
ATOM     97  F   UNL A   1      41.897  35.546  36.336  1.00  0.00    -0.206 F 
ATOM     98  C   UNL A   1      40.195  35.956  39.498  1.00  0.00     0.060 A 
BRANCH  98  99
ATOM     99  S   UNL A   1      40.132  37.105  40.889  1.00  0.00     0.124 S 
ATOM    100  O   UNL A   1      39.029  36.559  41.673  1.00  0.00    -0.237 OA
ATOM    101  O   UNL A   1      41.460  36.958  41.475  1.00  0.00    -0.237 OA
ATOM    102  O   UNL A   1      39.873  38.394  40.255  1.00  0.00    -0.744 OA
ENDBRANCH  98  99
ENDBRANCH  66  91
ENDBRANCH  40  41
ENDBRANCH  33  35
ENDBRANCH  32  33
ENDBRANCH   1  32
TORSDOF 18
ENDMDL
MODEL 3
REMARK VINA RESULT:      -9.2      4.701     12.460
REMARK SMILES CS(=O)(=O)c1ccc(/C=C(/C(=O)OCCOC(=O)c2ccc(-c3c4nc(c(-c5c(F)cc(S(=O)(=O)[O-])cc5F)c5ccc([nH]5)c(-c5c(F)cc(S(=O)(=O)[O-])cc5F)c5nc(c(-c6c(F)cc(S(=O)(=O)[O-])cc6F)c6ccc3[nH]6)C=C5)C=C4)cc2)c2ccc(-c3ccc(F)cc3F)cc2)cc1
REMARK SMILES IDX 15 1 14 2 13 3 11 4 12 5 10 6 9 7 8 8 5 9 6 10 100 11 7 12
REMARK SMILES IDX 99 13 2 14 1 15 3 16 4 17 85 18 86 19 98 20 87 21 97 22
REMARK SMILES IDX 88 23 89 24 90 25 95 26 91 27 94 28 96 29 92 30 93 31 16 32
REMARK SMILES IDX 17 33 18 34 19 35 20 36 84 37 21 38 83 39 22 40 23 41 24 42
REMARK SMILES IDX 77 43 25 44 82 45 76 46 78 47 26 48 81 49 75 50 74 51 27 53
REMARK SMILES IDX 61 54 40 55 60 56 41 57 44 58 59 59 79 60 42 61 43 62 58 64
REMARK SMILES IDX 80 65 45 66 28 67 29 68 38 69 30 70 31 71 37 72 39 73 32 74
REMARK SMILES IDX 33 75 34 76 35 77 36 78 62 79 63 80 72 81 64 82 65 83 71 84
REMARK SMILES IDX 73 85 66 86 67 87 68 88 69 89 70 90 46 91 47 92 56 93 48 94
REMARK SMILES IDX 49 95 55 96 57 97 50 98 51 99 52 100 53 101 54 102
REMARK H PARENT 78 52 44 63
REMARK Flexibility Score: inf
ROOT
ATOM      1  C   UNL A   1      36.291  32.219  32.358  1.00  0.00     0.275 C 
ENDROOT
BRANCH   1   2
ATOM      2  C   UNL A   1      36.734  32.260  33.822  1.00  0.00     0.275 C 
BRANCH   2   3
ATOM      3  O   UNL A   1      38.074  32.786  33.961  1.00  0.00    -0.458 OA
BRANCH   3   4
ATOM      4  C   UNL A   1      38.928  32.040  34.710  1.00  0.00     0.338 C 
ATOM      5  O   UNL A   1      38.757  31.753  35.888  1.00  0.00    -0.246 OA
BRANCH   4   6
ATOM      6  C   UNL A   1      40.087  31.516  33.912  1.00  0.00     0.067 C 
ATOM      7  C   UNL A   1      40.623  30.292  34.136  1.00  0.00     0.024 C 
BRANCH   7   8
ATOM      8  C   UNL A   1      41.724  29.677  33.352  1.00  0.00    -0.025 A 
ATOM      9  C   UNL A   1      43.884  28.230  32.290  1.00  0.00     0.067 A 
ATOM     10  C   UNL A   1      42.587  27.835  31.999  1.00  0.00     0.021 A 
ATOM     11  C   UNL A   1      44.113  29.408  33.010  1.00  0.00     0.021 A 
ATOM     12  C   UNL A   1      41.525  28.600  32.476  1.00  0.00     0.009 A 
ATOM     13  C   UNL A   1      43.035  30.125  33.545  1.00  0.00     0.009 A 
BRANCH   9  14
ATOM     14  S   UNL A   1      45.279  27.244  31.812  1.00  0.00     0.175 S 
ATOM     15  C   UNL A   1      44.651  25.784  31.024  1.00  0.00     0.163 C 
ATOM     16  O   UNL A   1      45.925  26.825  33.045  1.00  0.00    -0.224 OA
ATOM     17  O   UNL A   1      46.001  28.014  30.819  1.00  0.00    -0.224 OA
ENDBRANCH   9  14
ENDBRANCH   7   8
BRANCH   6  18
ATOM     18  C   UNL A   1      40.684  32.446  32.931  1.00  0.00    -0.011 A 
ATOM     19  C   UNL A   1      40.058  32.493  31.687  1.00  0.00     0.009 A 
ATOM     20  C   UNL A   1      41.726  33.338  33.189  1.00  0.00     0.009 A 
ATOM     21  C   UNL A   1      40.473  33.392  30.712  1.00  0.00     0.009 A 
ATOM     22  C   UNL A   1      42.148  34.241  32.188  1.00  0.00     0.009 A 
ATOM     23  C   UNL A   1      41.546  34.272  30.913  1.00  0.00    -0.015 A 
BRANCH  23  24
ATOM     24  C   UNL A   1      42.007  35.120  29.782  1.00  0.00     0.018 A 
ATOM     25  C   UNL A   1      43.306  35.685  29.786  1.00  0.00     0.015 A 
ATOM     26  C   UNL A   1      41.176  35.484  28.708  1.00  0.00     0.133 A 
ATOM     27  C   UNL A   1      43.718  36.608  28.823  1.00  0.00     0.040 A 
ATOM     28  C   UNL A   1      41.595  36.369  27.717  1.00  0.00     0.079 A 
ATOM     29  F   UNL A   1      39.926  35.008  28.616  1.00  0.00    -0.206 F 
ATOM     30  C   UNL A   1      42.855  36.940  27.794  1.00  0.00     0.126 A 
ATOM     31  F   UNL A   1      43.249  37.809  26.856  1.00  0.00    -0.207 F 
ENDBRANCH  23  24
ENDBRANCH   6  18
ENDBRANCH   4   6
ENDBRANCH   3   4
ENDBRANCH   2   3
ENDBRANCH   1   2
BRANCH   1  32
ATOM     32  O   UNL A   1      36.670  30.967  31.754  1.00  0.00    -0.458 OA
BRANCH  32  33
ATOM     33  C   UNL A   1      36.453  30.862  30.422  1.00  0.00     0.338 C 
ATOM     34  O   UNL A   1      35.566  31.391  29.776  1.00  0.00    -0.246 OA
BRANCH  33  35
ATOM     35  C   UNL A   1      37.547  30.108  29.785  1.00  0.00     0.060 A 
ATOM     36  C   UNL A   1      38.392  29.410  30.627  1.00  0.00     0.016 A 
ATOM     37  C   UNL A   1      37.895  30.273  28.442  1.00  0.00     0.016 A 
ATOM     38  C   UNL A   1      39.652  29.038  30.177  1.00  0.00     0.010 A 
ATOM     39  C   UNL A   1      39.130  29.777  27.965  1.00  0.00     0.010 A 
ATOM     40  C   UNL A   1      40.065  29.210  28.848  1.00  0.00    -0.014 A 
BRANCH  40  41
ATOM     41  C   UNL A   1      41.480  28.837  28.489  1.00  0.00     0.031 A 
ATOM     42  C   UNL A   1      42.642  29.773  28.760  1.00  0.00     0.074 A 
ATOM     43  C   UNL A   1      41.764  27.573  28.092  1.00  0.00     0.049 A 
ATOM     44  N   UNL A   1      43.924  29.582  28.549  1.00  0.00    -0.248 NA
ATOM     45  C   UNL A   1      42.337  31.074  29.373  1.00  0.00     0.031 C 
ATOM     46  C   UNL A   1      40.775  26.505  27.916  1.00  0.00     0.029 A 
ATOM     47  N   UNL A   1      42.961  26.939  27.848  1.00  0.00    -0.354 N 
ATOM     48  C   UNL A   1      44.566  30.752  28.945  1.00  0.00     0.074 A 
ATOM     49  C   UNL A   1      43.535  31.640  29.438  1.00  0.00     0.031 C 
ATOM     50  C   UNL A   1      41.407  25.338  27.741  1.00  0.00     0.029 A 
ATOM     51  C   UNL A   1      42.835  25.587  27.608  1.00  0.00     0.049 A 
ATOM     52  H   UNL A   1      43.828  27.407  27.846  1.00  0.00     0.167 HD
ATOM     53  C   UNL A   1      45.886  31.066  28.889  1.00  0.00     0.037 A 
ATOM     54  C   UNL A   1      43.743  24.646  27.274  1.00  0.00     0.037 A 
ATOM     55  C   UNL A   1      46.924  30.174  28.427  1.00  0.00     0.049 A 
ATOM     56  C   UNL A   1      45.182  25.053  27.118  1.00  0.00     0.074 A 
ATOM     57  C   UNL A   1      48.280  30.430  28.291  1.00  0.00     0.029 A 
ATOM     58  N   UNL A   1      46.732  28.859  28.030  1.00  0.00    -0.354 N 
ATOM     59  N   UNL A   1      45.746  26.209  27.378  1.00  0.00    -0.248 NA
ATOM     60  C   UNL A   1      46.104  24.034  26.602  1.00  0.00     0.031 C 
ATOM     61  C   UNL A   1      48.895  29.294  27.753  1.00  0.00     0.029 A 
ATOM     62  C   UNL A   1      47.937  28.305  27.619  1.00  0.00     0.049 A 
ATOM     63  H   UNL A   1      45.868  28.388  28.038  1.00  0.00     0.167 HD
ATOM     64  C   UNL A   1      47.096  26.042  27.082  1.00  0.00     0.074 A 
ATOM     65  C   UNL A   1      47.264  24.672  26.649  1.00  0.00     0.031 C 
ATOM     66  C   UNL A   1      48.102  26.948  27.157  1.00  0.00     0.037 A 
BRANCH  53  67
ATOM     67  C   UNL A   1      46.288  32.474  29.249  1.00  0.00     0.058 A 
ATOM     68  C   UNL A   1      46.602  32.867  30.558  1.00  0.00     0.135 A 
ATOM     69  C   UNL A   1      46.394  33.444  28.235  1.00  0.00     0.135 A 
ATOM     70  F   UNL A   1      46.505  31.988  31.570  1.00  0.00    -0.206 F 
ATOM     71  C   UNL A   1      46.978  34.176  30.855  1.00  0.00     0.059 A 
ATOM     72  C   UNL A   1      46.794  34.749  28.504  1.00  0.00     0.059 A 
ATOM     73  F   UNL A   1      46.111  33.124  26.963  1.00  0.00    -0.206 F 
ATOM     74  C   UNL A   1      47.068  35.111  29.820  1.00  0.00     0.060 A 
BRANCH  74  75
ATOM     75  S   UNL A   1      47.534  36.809  30.220  1.00  0.00     0.124 S 
ATOM     76  O   UNL A   1      47.624  37.405  28.890  1.00  0.00    -0.237 OA
ATOM     77  O   UNL A   1      46.413  37.256  31.040  1.00  0.00    -0.237 OA
ATOM     78  O   UNL A   1      48.803  36.658  30.924  1.00  0.00    -0.744 OA
ENDBRANCH  74  75
ENDBRANCH  53  67
BRANCH  54  79
ATOM     79  C   UNL A   1      43.314  23.237  27.012  1.00  0.00     0.058 A 
ATOM     80  C   UNL A   1      43.056  22.338  28.060  1.00  0.00     0.135 A 
ATOM     81  C   UNL A   1      43.176  22.748  25.701  1.00  0.00     0.135 A 
ATOM     82  F   UNL A   1      43.224  22.722  29.333  1.00  0.00    -0.206 F 
ATOM     83  C   UNL A   1      42.675  21.022  27.823  1.00  0.00     0.059 A 
ATOM     84  C   UNL A   1      42.760  21.447  25.439  1.00  0.00     0.059 A 
ATOM     85  F   UNL A   1      43.425  23.547  24.652  1.00  0.00    -0.206 F 
ATOM     86  C   UNL A   1      42.524  20.586  26.507  1.00  0.00     0.060 A 
BRANCH  86  87
ATOM     87  S   UNL A   1      42.019  18.880  26.212  1.00  0.00     0.124 S 
ATOM     88  O   UNL A   1      42.951  18.475  25.166  1.00  0.00    -0.237 OA
ATOM     89  O   UNL A   1      42.223  18.269  27.522  1.00  0.00    -0.237 OA
ATOM     90  O   UNL A   1      40.625  19.010  25.798  1.00  0.00    -0.744 OA
ENDBRANCH  86  87
ENDBRANCH  54  79
BRANCH  66  91
ATOM     91  C   UNL A   1      49.479  26.482  26.752  1.00  0.00     0.058 A 
ATOM     92  C   UNL A   1      50.368  25.917  27.681  1.00  0.00     0.135 A 
ATOM     93  C   UNL A   1      49.916  26.599  25.422  1.00  0.00     0.135 A 
ATOM     94  F   UNL A   1      50.007  25.784  28.968  1.00  0.00    -0.206 F 
ATOM     95  C   UNL A   1      51.654  25.530  27.320  1.00  0.00     0.059 A 
ATOM     96  C   UNL A   1      51.186  26.185  25.030  1.00  0.00     0.059 A 
ATOM     97  F   UNL A   1      49.108  27.118  24.485  1.00  0.00    -0.206 F 
ATOM     98  C   UNL A   1      52.056  25.670  25.992  1.00  0.00     0.060 A 
BRANCH  98  99
ATOM     99  S   UNL A   1      53.727  25.159  25.534  1.00  0.00     0.124 S 
ATOM    100  O   UNL A   1      54.489  25.554  26.714  1.00  0.00    -0.237 OA
ATOM    101  O   UNL A   1      53.569  23.722  25.333  1.00  0.00    -0.237 OA
ATOM    102  O   UNL A   1      54.000  25.929  24.324  1.00  0.00    -0.744 OA
ENDBRANCH  98  99
ENDBRANCH  66  91
ENDBRANCH  40  41
ENDBRANCH  33  35
ENDBRANCH  32  33
ENDBRANCH   1  32
TORSDOF 18
ENDMDL
