MODEL 1
REMARK VINA RESULT:     -10.6      0.000      0.000
REMARK SMILES C[C@@](O)(CNC(=O)c1ccc(Br)cc1N)CC(=O)OCCOC(=O)c1ccc(-c2c3nc(c(-c4c(F)cc(S(=O)(=O)[O-])cc4F)c4ccc([nH]4)c(-c4c(F)cc(S(=O)(=O)[O-])cc4F)c4nc(c(-c5c(F)cc(S(=O)(=O)[O-])cc5F)c5ccc2[nH]5)C=C4)C=C3)cc1
REMARK SMILES IDX 20 1 19 2 17 3 18 4 16 5 2 6 1 7 3 8 4 10 5 11 6 12 7 14
REMARK SMILES IDX 8 15 9 16 14 17 10 18 13 19 11 20 12 21 15 22 21 25 22 26
REMARK SMILES IDX 23 27 24 28 25 29 26 30 90 31 27 32 89 33 28 34 29 35 30 36
REMARK SMILES IDX 83 37 31 38 88 39 82 40 84 41 32 42 87 43 81 44 80 45 33 47
REMARK SMILES IDX 67 48 46 49 66 50 47 51 50 52 65 53 85 54 48 55 49 56 64 58
REMARK SMILES IDX 86 59 51 60 34 61 35 62 44 63 36 64 37 65 43 66 45 67 38 68
REMARK SMILES IDX 39 69 40 70 41 71 42 72 68 73 69 74 78 75 70 76 71 77 77 78
REMARK SMILES IDX 79 79 72 80 73 81 74 82 75 83 76 84 52 85 53 86 62 87 54 88
REMARK SMILES IDX 55 89 61 90 63 91 56 92 57 93 58 94 59 95 60 96
REMARK H PARENT 3 9 5 13 15 23 15 24 84 46 50 57
REMARK Flexibility Score: inf
ROOT
ATOM      1  C   UNL A   1      33.675  33.916  28.003  1.00  0.00     0.274 C 
ENDROOT
BRANCH   1   2
ATOM      2  O   UNL A   1      32.597  34.558  28.724  1.00  0.00    -0.462 OA
BRANCH   2   3
ATOM      3  C   UNL A   1      32.847  35.763  29.270  1.00  0.00     0.308 C 
ATOM      4  O   UNL A   1      32.529  36.830  28.752  1.00  0.00    -0.252 OA
BRANCH   3   5
ATOM      5  C   UNL A   1      33.627  35.743  30.571  1.00  0.00     0.159 C 
BRANCH   5   6
ATOM      6  C   UNL A   1      33.210  36.462  31.866  1.00  0.00     0.090 C 
ATOM      7  C   UNL A   1      31.878  36.052  32.490  1.00  0.00     0.044 C 
BRANCH   6   8
ATOM      8  O   UNL A   1      33.000  37.850  31.456  1.00  0.00    -0.388 OA
ATOM      9  H   UNL A   1      33.416  37.999  30.593  1.00  0.00     0.211 HD
ENDBRANCH   6   8
BRANCH   6  10
ATOM     10  C   UNL A   1      34.309  36.553  32.949  1.00  0.00     0.151 C 
BRANCH  10  11
ATOM     11  N   UNL A   1      34.385  35.472  33.919  1.00  0.00    -0.349 N 
ATOM     12  C   UNL A   1      35.119  34.306  33.877  1.00  0.00     0.253 C 
ATOM     13  H   UNL A   1      33.830  35.590  34.724  1.00  0.00     0.163 HD
ATOM     14  O   UNL A   1      34.991  33.453  34.753  1.00  0.00    -0.269 OA
BRANCH  12  15
ATOM     15  C   UNL A   1      36.032  34.056  32.738  1.00  0.00     0.062 A 
ATOM     16  C   UNL A   1      37.291  34.671  32.748  1.00  0.00     0.017 A 
ATOM     17  C   UNL A   1      35.641  33.229  31.665  1.00  0.00     0.045 A 
ATOM     18  C   UNL A   1      38.119  34.578  31.634  1.00  0.00     0.016 A 
ATOM     19  C   UNL A   1      36.477  33.166  30.544  1.00  0.00     0.042 A 
ATOM     20  C   UNL A   1      37.701  33.838  30.532  1.00  0.00     0.020 A 
ATOM     21  Br  UNL A   1      38.806  33.742  29.001  1.00  0.00    -0.051 Br
BRANCH  17  22
ATOM     22  N   UNL A   1      34.403  32.595  31.614  1.00  0.00    -0.398 N 
ATOM     23  H   UNL A   1      33.830  32.698  30.820  1.00  0.00     0.156 HD
ATOM     24  H   UNL A   1      34.100  32.045  32.372  1.00  0.00     0.156 HD
ENDBRANCH  17  22
ENDBRANCH  12  15
ENDBRANCH  10  11
ENDBRANCH   6  10
ENDBRANCH   5   6
ENDBRANCH   3   5
ENDBRANCH   2   3
ENDBRANCH   1   2
BRANCH   1  25
ATOM     25  C   UNL A   1      33.540  32.400  28.077  1.00  0.00     0.275 C 
BRANCH  25  26
ATOM     26  O   UNL A   1      34.636  31.794  27.380  1.00  0.00    -0.458 OA
BRANCH  26  27
ATOM     27  C   UNL A   1      34.714  30.455  27.523  1.00  0.00     0.338 C 
ATOM     28  O   UNL A   1      33.923  29.617  27.125  1.00  0.00    -0.246 OA
BRANCH  27  29
ATOM     29  C   UNL A   1      35.996  30.133  28.145  1.00  0.00     0.060 A 
ATOM     30  C   UNL A   1      35.996  29.589  29.424  1.00  0.00     0.016 A 
ATOM     31  C   UNL A   1      37.189  30.366  27.452  1.00  0.00     0.016 A 
ATOM     32  C   UNL A   1      37.212  29.307  30.028  1.00  0.00     0.010 A 
ATOM     33  C   UNL A   1      38.406  30.061  28.048  1.00  0.00     0.010 A 
ATOM     34  C   UNL A   1      38.420  29.544  29.346  1.00  0.00    -0.014 A 
BRANCH  34  35
ATOM     35  C   UNL A   1      39.694  29.217  30.014  1.00  0.00     0.031 A 
ATOM     36  C   UNL A   1      40.086  29.921  31.277  1.00  0.00     0.074 A 
ATOM     37  C   UNL A   1      40.446  28.234  29.488  1.00  0.00     0.049 A 
ATOM     38  N   UNL A   1      41.086  29.661  32.076  1.00  0.00    -0.248 NA
ATOM     39  C   UNL A   1      39.261  31.066  31.699  1.00  0.00     0.031 C 
ATOM     40  C   UNL A   1      40.154  27.533  28.234  1.00  0.00     0.029 A 
ATOM     41  N   UNL A   1      41.586  27.634  29.949  1.00  0.00    -0.354 N 
ATOM     42  C   UNL A   1      40.998  30.590  33.105  1.00  0.00     0.074 A 
ATOM     43  C   UNL A   1      39.884  31.459  32.803  1.00  0.00     0.031 C 
ATOM     44  C   UNL A   1      41.063  26.563  28.053  1.00  0.00     0.029 A 
ATOM     45  C   UNL A   1      42.016  26.596  29.158  1.00  0.00     0.049 A 
ATOM     46  H   UNL A   1      42.053  27.919  30.767  1.00  0.00     0.167 HD
ATOM     47  C   UNL A   1      41.765  30.677  34.215  1.00  0.00     0.037 A 
ATOM     48  C   UNL A   1      43.058  25.759  29.317  1.00  0.00     0.037 A 
ATOM     49  C   UNL A   1      42.862  29.788  34.497  1.00  0.00     0.049 A 
ATOM     50  C   UNL A   1      43.906  25.901  30.552  1.00  0.00     0.074 A 
ATOM     51  C   UNL A   1      43.681  29.763  35.611  1.00  0.00     0.029 A 
ATOM     52  N   UNL A   1      43.295  28.771  33.658  1.00  0.00    -0.354 N 
ATOM     53  N   UNL A   1      43.763  26.733  31.557  1.00  0.00    -0.248 NA
ATOM     54  C   UNL A   1      45.048  24.988  30.683  1.00  0.00     0.031 C 
ATOM     55  C   UNL A   1      44.642  28.768  35.422  1.00  0.00     0.029 A 
ATOM     56  C   UNL A   1      44.387  28.130  34.217  1.00  0.00     0.049 A 
ATOM     57  H   UNL A   1      42.885  28.539  32.793  1.00  0.00     0.167 HD
ATOM     58  C   UNL A   1      44.787  26.432  32.447  1.00  0.00     0.074 A 
ATOM     59  C   UNL A   1      45.523  25.324  31.874  1.00  0.00     0.031 C 
ATOM     60  C   UNL A   1      45.096  27.023  33.627  1.00  0.00     0.037 A 
BRANCH  47  61
ATOM     61  C   UNL A   1      41.446  31.742  35.227  1.00  0.00     0.058 A 
ATOM     62  C   UNL A   1      42.128  32.969  35.235  1.00  0.00     0.135 A 
ATOM     63  C   UNL A   1      40.366  31.588  36.111  1.00  0.00     0.135 A 
ATOM     64  F   UNL A   1      43.180  33.163  34.423  1.00  0.00    -0.206 F 
ATOM     65  C   UNL A   1      41.745  34.008  36.074  1.00  0.00     0.059 A 
ATOM     66  C   UNL A   1      39.950  32.622  36.943  1.00  0.00     0.059 A 
ATOM     67  F   UNL A   1      39.685  30.431  36.151  1.00  0.00    -0.206 F 
ATOM     68  C   UNL A   1      40.643  33.832  36.915  1.00  0.00     0.060 A 
BRANCH  68  69
ATOM     69  S   UNL A   1      40.113  35.222  37.936  1.00  0.00     0.124 S 
ATOM     70  O   UNL A   1      38.971  34.649  38.642  1.00  0.00    -0.237 OA
ATOM     71  O   UNL A   1      41.298  35.474  38.750  1.00  0.00    -0.237 OA
ATOM     72  O   UNL A   1      39.790  36.259  36.962  1.00  0.00    -0.744 OA
ENDBRANCH  68  69
ENDBRANCH  47  61
BRANCH  48  73
ATOM     73  C   UNL A   1      43.345  24.720  28.293  1.00  0.00     0.058 A 
ATOM     74  C   UNL A   1      44.112  25.008  27.155  1.00  0.00     0.135 A 
ATOM     75  C   UNL A   1      42.852  23.413  28.433  1.00  0.00     0.135 A 
ATOM     76  F   UNL A   1      44.609  26.242  26.976  1.00  0.00    -0.206 F 
ATOM     77  C   UNL A   1      44.353  24.049  26.177  1.00  0.00     0.059 A 
ATOM     78  C   UNL A   1      43.107  22.428  27.485  1.00  0.00     0.059 A 
ATOM     79  F   UNL A   1      42.131  23.076  29.514  1.00  0.00    -0.206 F 
ATOM     80  C   UNL A   1      43.843  22.761  26.351  1.00  0.00     0.060 A 
BRANCH  80  81
ATOM     81  S   UNL A   1      44.165  21.524  25.076  1.00  0.00     0.124 S 
ATOM     82  O   UNL A   1      43.111  20.552  25.338  1.00  0.00    -0.237 OA
ATOM     83  O   UNL A   1      44.025  22.306  23.852  1.00  0.00    -0.237 OA
ATOM     84  O   UNL A   1      45.523  21.078  25.376  1.00  0.00    -0.744 OA
ENDBRANCH  80  81
ENDBRANCH  48  73
BRANCH  60  85
ATOM     85  C   UNL A   1      46.271  26.476  34.387  1.00  0.00     0.058 A 
ATOM     86  C   UNL A   1      46.116  25.457  35.341  1.00  0.00     0.135 A 
ATOM     87  C   UNL A   1      47.573  26.919  34.103  1.00  0.00     0.135 A 
ATOM     88  F   UNL A   1      44.891  25.003  35.652  1.00  0.00    -0.206 F 
ATOM     89  C   UNL A   1      47.210  24.910  36.000  1.00  0.00     0.059 A 
ATOM     90  C   UNL A   1      48.685  26.362  34.727  1.00  0.00     0.059 A 
ATOM     91  F   UNL A   1      47.776  27.882  33.191  1.00  0.00    -0.206 F 
ATOM     92  C   UNL A   1      48.491  25.364  35.680  1.00  0.00     0.060 A 
BRANCH  92  93
ATOM     93  S   UNL A   1      49.901  24.611  36.517  1.00  0.00     0.124 S 
ATOM     94  O   UNL A   1      49.760  23.211  36.133  1.00  0.00    -0.237 OA
ATOM     95  O   UNL A   1      51.029  25.322  35.922  1.00  0.00    -0.237 OA
ATOM     96  O   UNL A   1      49.656  24.901  37.927  1.00  0.00    -0.744 OA
ENDBRANCH  92  93
ENDBRANCH  60  85
ENDBRANCH  34  35
ENDBRANCH  27  29
ENDBRANCH  26  27
ENDBRANCH  25  26
ENDBRANCH   1  25
TORSDOF 20
ENDMDL
MODEL 2
REMARK VINA RESULT:     -10.2      3.155      8.680
REMARK SMILES C[C@@](O)(CNC(=O)c1ccc(Br)cc1N)CC(=O)OCCOC(=O)c1ccc(-c2c3nc(c(-c4c(F)cc(S(=O)(=O)[O-])cc4F)c4ccc([nH]4)c(-c4c(F)cc(S(=O)(=O)[O-])cc4F)c4nc(c(-c5c(F)cc(S(=O)(=O)[O-])cc5F)c5ccc2[nH]5)C=C4)C=C3)cc1
REMARK SMILES IDX 20 1 19 2 17 3 18 4 16 5 2 6 1 7 3 8 4 10 5 11 6 12 7 14
REMARK SMILES IDX 8 15 9 16 14 17 10 18 13 19 11 20 12 21 15 22 21 25 22 26
REMARK SMILES IDX 23 27 24 28 25 29 26 30 90 31 27 32 89 33 28 34 29 35 30 36
REMARK SMILES IDX 83 37 31 38 88 39 82 40 84 41 32 42 87 43 81 44 80 45 33 47
REMARK SMILES IDX 67 48 46 49 66 50 47 51 50 52 65 53 85 54 48 55 49 56 64 58
REMARK SMILES IDX 86 59 51 60 34 61 35 62 44 63 36 64 37 65 43 66 45 67 38 68
REMARK SMILES IDX 39 69 40 70 41 71 42 72 68 73 69 74 78 75 70 76 71 77 77 78
REMARK SMILES IDX 79 79 72 80 73 81 74 82 75 83 76 84 52 85 53 86 62 87 54 88
REMARK SMILES IDX 55 89 61 90 63 91 56 92 57 93 58 94 59 95 60 96
REMARK H PARENT 3 9 5 13 15 23 15 24 84 46 50 57
REMARK Flexibility Score: inf
ROOT
ATOM      1  C   UNL A   1      34.581  33.896  28.558  1.00  0.00     0.274 C 
ENDROOT
BRANCH   1   2
ATOM      2  O   UNL A   1      33.700  34.969  28.146  1.00  0.00    -0.462 OA
BRANCH   2   3
ATOM      3  C   UNL A   1      33.050  35.643  29.113  1.00  0.00     0.308 C 
ATOM      4  O   UNL A   1      32.197  36.501  28.896  1.00  0.00    -0.252 OA
BRANCH   3   5
ATOM      5  C   UNL A   1      33.482  35.331  30.533  1.00  0.00     0.159 C 
BRANCH   5   6
ATOM      6  C   UNL A   1      33.101  36.152  31.777  1.00  0.00     0.090 C 
ATOM      7  C   UNL A   1      31.753  35.846  32.425  1.00  0.00     0.044 C 
BRANCH   6   8
ATOM      8  O   UNL A   1      32.955  37.518  31.277  1.00  0.00    -0.388 OA
ATOM      9  H   UNL A   1      32.121  37.893  31.600  1.00  0.00     0.211 HD
ENDBRANCH   6   8
BRANCH   6  10
ATOM     10  C   UNL A   1      34.204  36.262  32.853  1.00  0.00     0.151 C 
BRANCH  10  11
ATOM     11  N   UNL A   1      34.325  35.169  33.805  1.00  0.00    -0.349 N 
ATOM     12  C   UNL A   1      35.185  34.092  33.799  1.00  0.00     0.253 C 
ATOM     13  H   UNL A   1      33.699  35.202  34.564  1.00  0.00     0.163 HD
ATOM     14  O   UNL A   1      35.084  33.205  34.645  1.00  0.00    -0.269 OA
BRANCH  12  15
ATOM     15  C   UNL A   1      36.206  33.976  32.733  1.00  0.00     0.062 A 
ATOM     16  C   UNL A   1      37.311  34.836  32.774  1.00  0.00     0.017 A 
ATOM     17  C   UNL A   1      36.066  33.030  31.697  1.00  0.00     0.045 A 
ATOM     18  C   UNL A   1      38.215  34.857  31.717  1.00  0.00     0.016 A 
ATOM     19  C   UNL A   1      36.973  33.082  30.632  1.00  0.00     0.042 A 
ATOM     20  C   UNL A   1      38.033  33.989  30.645  1.00  0.00     0.020 A 
ATOM     21  Br  UNL A   1      39.238  34.043  29.189  1.00  0.00    -0.051 Br
BRANCH  17  22
ATOM     22  N   UNL A   1      34.988  32.153  31.617  1.00  0.00    -0.398 N 
ATOM     23  H   UNL A   1      34.396  32.171  30.831  1.00  0.00     0.156 HD
ATOM     24  H   UNL A   1      34.818  31.514  32.347  1.00  0.00     0.156 HD
ENDBRANCH  17  22
ENDBRANCH  12  15
ENDBRANCH  10  11
ENDBRANCH   6  10
ENDBRANCH   5   6
ENDBRANCH   3   5
ENDBRANCH   2   3
ENDBRANCH   1   2
BRANCH   1  25
ATOM     25  C   UNL A   1      34.159  32.580  27.915  1.00  0.00     0.275 C 
BRANCH  25  26
ATOM     26  O   UNL A   1      34.524  31.496  28.778  1.00  0.00    -0.458 OA
BRANCH  26  27
ATOM     27  C   UNL A   1      34.807  30.345  28.134  1.00  0.00     0.338 C 
ATOM     28  O   UNL A   1      34.104  29.745  27.340  1.00  0.00    -0.246 OA
BRANCH  27  29
ATOM     29  C   UNL A   1      36.183  29.968  28.450  1.00  0.00     0.060 A 
ATOM     30  C   UNL A   1      37.153  30.105  27.465  1.00  0.00     0.016 A 
ATOM     31  C   UNL A   1      36.503  29.490  29.726  1.00  0.00     0.016 A 
ATOM     32  C   UNL A   1      38.454  29.725  27.753  1.00  0.00     0.010 A 
ATOM     33  C   UNL A   1      37.812  29.132  30.022  1.00  0.00     0.010 A 
ATOM     34  C   UNL A   1      38.789  29.234  29.029  1.00  0.00    -0.014 A 
BRANCH  34  35
ATOM     35  C   UNL A   1      40.187  28.854  29.304  1.00  0.00     0.031 A 
ATOM     36  C   UNL A   1      40.691  27.498  28.914  1.00  0.00     0.074 A 
ATOM     37  C   UNL A   1      40.994  29.778  29.853  1.00  0.00     0.049 A 
ATOM     38  N   UNL A   1      41.917  27.047  28.941  1.00  0.00    -0.248 NA
ATOM     39  C   UNL A   1      39.700  26.517  28.439  1.00  0.00     0.031 C 
ATOM     40  C   UNL A   1      40.566  31.106  30.304  1.00  0.00     0.029 A 
ATOM     41  N   UNL A   1      42.341  29.760  30.098  1.00  0.00    -0.354 N 
ATOM     42  C   UNL A   1      41.850  25.744  28.465  1.00  0.00     0.074 A 
ATOM     43  C   UNL A   1      40.458  25.451  28.213  1.00  0.00     0.031 C 
ATOM     44  C   UNL A   1      41.639  31.794  30.723  1.00  0.00     0.029 A 
ATOM     45  C   UNL A   1      42.820  30.946  30.601  1.00  0.00     0.049 A 
ATOM     46  H   UNL A   1      42.910  28.975  29.932  1.00  0.00     0.167 HD
ATOM     47  C   UNL A   1      42.872  24.889  28.234  1.00  0.00     0.037 A 
ATOM     48  C   UNL A   1      44.078  31.308  30.915  1.00  0.00     0.037 A 
ATOM     49  C   UNL A   1      44.253  25.213  28.484  1.00  0.00     0.049 A 
ATOM     50  C   UNL A   1      45.188  30.323  30.667  1.00  0.00     0.074 A 
ATOM     51  C   UNL A   1      45.372  24.434  28.249  1.00  0.00     0.029 A 
ATOM     52  N   UNL A   1      44.702  26.407  29.027  1.00  0.00    -0.354 N 
ATOM     53  N   UNL A   1      45.120  29.122  30.143  1.00  0.00    -0.248 NA
ATOM     54  C   UNL A   1      46.544  30.741  31.043  1.00  0.00     0.031 C 
ATOM     55  C   UNL A   1      46.492  25.136  28.700  1.00  0.00     0.029 A 
ATOM     56  C   UNL A   1      46.080  26.376  29.161  1.00  0.00     0.049 A 
ATOM     57  H   UNL A   1      44.127  27.165  29.280  1.00  0.00     0.167 HD
ATOM     58  C   UNL A   1      46.426  28.647  30.110  1.00  0.00     0.074 A 
ATOM     59  C   UNL A   1      47.264  29.702  30.642  1.00  0.00     0.031 C 
ATOM     60  C   UNL A   1      46.890  27.446  29.687  1.00  0.00     0.037 A 
BRANCH  47  61
ATOM     61  C   UNL A   1      42.559  23.534  27.662  1.00  0.00     0.058 A 
ATOM     62  C   UNL A   1      42.541  23.315  26.276  1.00  0.00     0.135 A 
ATOM     63  C   UNL A   1      42.402  22.421  28.503  1.00  0.00     0.135 A 
ATOM     64  F   UNL A   1      42.668  24.346  25.425  1.00  0.00    -0.206 F 
ATOM     65  C   UNL A   1      42.391  22.039  25.744  1.00  0.00     0.059 A 
ATOM     66  C   UNL A   1      42.274  21.133  27.994  1.00  0.00     0.059 A 
ATOM     67  F   UNL A   1      42.403  22.577  29.837  1.00  0.00    -0.206 F 
ATOM     68  C   UNL A   1      42.275  20.951  26.612  1.00  0.00     0.060 A 
BRANCH  68  69
ATOM     69  S   UNL A   1      42.162  19.296  25.900  1.00  0.00     0.124 S 
ATOM     70  O   UNL A   1      40.729  19.181  25.649  1.00  0.00    -0.237 OA
ATOM     71  O   UNL A   1      43.006  19.413  24.715  1.00  0.00    -0.237 OA
ATOM     72  O   UNL A   1      42.683  18.433  26.956  1.00  0.00    -0.744 OA
ENDBRANCH  68  69
ENDBRANCH  47  61
BRANCH  48  73
ATOM     73  C   UNL A   1      44.348  32.656  31.482  1.00  0.00     0.058 A 
ATOM     74  C   UNL A   1      44.303  32.888  32.864  1.00  0.00     0.135 A 
ATOM     75  C   UNL A   1      44.655  33.742  30.648  1.00  0.00     0.135 A 
ATOM     76  F   UNL A   1      44.016  31.882  33.705  1.00  0.00    -0.206 F 
ATOM     77  C   UNL A   1      44.519  34.154  33.398  1.00  0.00     0.059 A 
ATOM     78  C   UNL A   1      44.908  35.010  31.160  1.00  0.00     0.059 A 
ATOM     79  F   UNL A   1      44.735  33.571  29.320  1.00  0.00    -0.206 F 
ATOM     80  C   UNL A   1      44.819  35.210  32.536  1.00  0.00     0.060 A 
BRANCH  80  81
ATOM     81  S   UNL A   1      45.101  36.848  33.239  1.00  0.00     0.124 S 
ATOM     82  O   UNL A   1      43.749  37.245  33.611  1.00  0.00    -0.237 OA
ATOM     83  O   UNL A   1      46.008  36.553  34.344  1.00  0.00    -0.237 OA
ATOM     84  O   UNL A   1      45.695  37.592  32.132  1.00  0.00    -0.744 OA
ENDBRANCH  80  81
ENDBRANCH  48  73
BRANCH  60  85
ATOM     85  C   UNL A   1      48.372  27.211  29.766  1.00  0.00     0.058 A 
ATOM     86  C   UNL A   1      49.231  27.600  28.726  1.00  0.00     0.135 A 
ATOM     87  C   UNL A   1      48.946  26.663  30.924  1.00  0.00     0.135 A 
ATOM     88  F   UNL A   1      48.731  28.124  27.595  1.00  0.00    -0.206 F 
ATOM     89  C   UNL A   1      50.608  27.436  28.825  1.00  0.00     0.059 A 
ATOM     90  C   UNL A   1      50.324  26.521  31.058  1.00  0.00     0.059 A 
ATOM     91  F   UNL A   1      48.169  26.286  31.952  1.00  0.00    -0.206 F 
ATOM     92  C   UNL A   1      51.145  26.903  29.999  1.00  0.00     0.060 A 
BRANCH  92  93
ATOM     93  S   UNL A   1      52.937  26.738  30.124  1.00  0.00     0.124 S 
ATOM     94  O   UNL A   1      53.338  28.103  30.444  1.00  0.00    -0.237 OA
ATOM     95  O   UNL A   1      53.083  25.764  31.201  1.00  0.00    -0.237 OA
ATOM     96  O   UNL A   1      53.329  26.264  28.799  1.00  0.00    -0.744 OA
ENDBRANCH  92  93
ENDBRANCH  60  85
ENDBRANCH  34  35
ENDBRANCH  27  29
ENDBRANCH  26  27
ENDBRANCH  25  26
ENDBRANCH   1  25
TORSDOF 20
ENDMDL
MODEL 3
REMARK VINA RESULT:     -10.1      1.115      8.438
REMARK SMILES C[C@@](O)(CNC(=O)c1ccc(Br)cc1N)CC(=O)OCCOC(=O)c1ccc(-c2c3nc(c(-c4c(F)cc(S(=O)(=O)[O-])cc4F)c4ccc([nH]4)c(-c4c(F)cc(S(=O)(=O)[O-])cc4F)c4nc(c(-c5c(F)cc(S(=O)(=O)[O-])cc5F)c5ccc2[nH]5)C=C4)C=C3)cc1
REMARK SMILES IDX 20 1 19 2 17 3 18 4 16 5 2 6 1 7 3 8 4 10 5 11 6 12 7 14
REMARK SMILES IDX 8 15 9 16 14 17 10 18 13 19 11 20 12 21 15 22 21 25 22 26
REMARK SMILES IDX 23 27 24 28 25 29 26 30 90 31 27 32 89 33 28 34 29 35 30 36
REMARK SMILES IDX 83 37 31 38 88 39 82 40 84 41 32 42 87 43 81 44 80 45 33 47
REMARK SMILES IDX 67 48 46 49 66 50 47 51 50 52 65 53 85 54 48 55 49 56 64 58
REMARK SMILES IDX 86 59 51 60 34 61 35 62 44 63 36 64 37 65 43 66 45 67 38 68
REMARK SMILES IDX 39 69 40 70 41 71 42 72 68 73 69 74 78 75 70 76 71 77 77 78
REMARK SMILES IDX 79 79 72 80 73 81 74 82 75 83 76 84 52 85 53 86 62 87 54 88
REMARK SMILES IDX 55 89 61 90 63 91 56 92 57 93 58 94 59 95 60 96
REMARK H PARENT 3 9 5 13 15 23 15 24 84 46 50 57
REMARK Flexibility Score: inf
ROOT
ATOM      1  C   UNL A   1      33.313  34.076  27.934  1.00  0.00     0.274 C 
ENDROOT
BRANCH   1   2
ATOM      2  O   UNL A   1      33.325  34.602  29.283  1.00  0.00    -0.462 OA
BRANCH   2   3
ATOM      3  C   UNL A   1      32.963  35.888  29.450  1.00  0.00     0.308 C 
ATOM      4  O   UNL A   1      32.120  36.457  28.761  1.00  0.00    -0.252 OA
BRANCH   3   5
ATOM      5  C   UNL A   1      33.716  36.647  30.525  1.00  0.00     0.159 C 
BRANCH   5   6
ATOM      6  C   UNL A   1      33.250  36.820  31.981  1.00  0.00     0.090 C 
ATOM      7  C   UNL A   1      31.964  36.104  32.388  1.00  0.00     0.044 C 
BRANCH   6   8
ATOM      8  O   UNL A   1      32.918  38.239  32.088  1.00  0.00    -0.388 OA
ATOM      9  H   UNL A   1      32.958  38.512  33.018  1.00  0.00     0.211 HD
ENDBRANCH   6   8
BRANCH   6  10
ATOM     10  C   UNL A   1      34.346  36.610  33.051  1.00  0.00     0.151 C 
BRANCH  10  11
ATOM     11  N   UNL A   1      34.267  35.407  33.864  1.00  0.00    -0.349 N 
ATOM     12  C   UNL A   1      34.943  34.213  33.732  1.00  0.00     0.253 C 
ATOM     13  H   UNL A   1      33.638  35.452  34.620  1.00  0.00     0.163 HD
ATOM     14  O   UNL A   1      34.682  33.261  34.465  1.00  0.00    -0.269 OA
BRANCH  12  15
ATOM     15  C   UNL A   1      35.955  34.059  32.662  1.00  0.00     0.062 A 
ATOM     16  C   UNL A   1      37.212  34.652  32.846  1.00  0.00     0.017 A 
ATOM     17  C   UNL A   1      35.661  33.342  31.484  1.00  0.00     0.045 A 
ATOM     18  C   UNL A   1      38.138  34.654  31.809  1.00  0.00     0.016 A 
ATOM     19  C   UNL A   1      36.597  33.375  30.444  1.00  0.00     0.042 A 
ATOM     20  C   UNL A   1      37.820  34.027  30.607  1.00  0.00     0.020 A 
ATOM     21  Br  UNL A   1      39.061  34.062  29.182  1.00  0.00    -0.051 Br
BRANCH  17  22
ATOM     22  N   UNL A   1      34.430  32.734  31.260  1.00  0.00    -0.398 N 
ATOM     23  H   UNL A   1      34.370  31.947  30.673  1.00  0.00     0.156 HD
ATOM     24  H   UNL A   1      33.619  33.091  31.689  1.00  0.00     0.156 HD
ENDBRANCH  17  22
ENDBRANCH  12  15
ENDBRANCH  10  11
ENDBRANCH   6  10
ENDBRANCH   5   6
ENDBRANCH   3   5
ENDBRANCH   2   3
ENDBRANCH   1   2
BRANCH   1  25
ATOM     25  C   UNL A   1      33.297  32.552  27.955  1.00  0.00     0.275 C 
BRANCH  25  26
ATOM     26  O   UNL A   1      34.610  32.064  27.652  1.00  0.00    -0.458 OA
BRANCH  26  27
ATOM     27  C   UNL A   1      34.708  30.718  27.619  1.00  0.00     0.338 C 
ATOM     28  O   UNL A   1      33.975  29.933  27.043  1.00  0.00    -0.246 OA
BRANCH  27  29
ATOM     29  C   UNL A   1      35.939  30.331  28.303  1.00  0.00     0.060 A 
ATOM     30  C   UNL A   1      37.155  30.706  27.746  1.00  0.00     0.016 A 
ATOM     31  C   UNL A   1      35.878  29.606  29.499  1.00  0.00     0.016 A 
ATOM     32  C   UNL A   1      38.326  30.318  28.379  1.00  0.00     0.010 A 
ATOM     33  C   UNL A   1      37.050  29.238  30.145  1.00  0.00     0.010 A 
ATOM     34  C   UNL A   1      38.280  29.581  29.578  1.00  0.00    -0.014 A 
BRANCH  34  35
ATOM     35  C   UNL A   1      39.546  29.200  30.231  1.00  0.00     0.031 A 
ATOM     36  C   UNL A   1      40.387  28.098  29.662  1.00  0.00     0.074 A 
ATOM     37  C   UNL A   1      39.938  29.908  31.304  1.00  0.00     0.049 A 
ATOM     38  N   UNL A   1      41.591  27.731  30.012  1.00  0.00    -0.248 NA
ATOM     39  C   UNL A   1      39.810  27.301  28.566  1.00  0.00     0.031 C 
ATOM     40  C   UNL A   1      39.152  30.966  31.947  1.00  0.00     0.029 A 
ATOM     41  N   UNL A   1      41.101  29.873  32.025  1.00  0.00    -0.354 N 
ATOM     42  C   UNL A   1      41.924  26.680  29.168  1.00  0.00     0.074 A 
ATOM     43  C   UNL A   1      40.777  26.425  28.327  1.00  0.00     0.031 C 
ATOM     44  C   UNL A   1      39.876  31.513  32.934  1.00  0.00     0.029 A 
ATOM     45  C   UNL A   1      41.161  30.826  33.013  1.00  0.00     0.049 A 
ATOM     46  H   UNL A   1      41.824  29.228  31.852  1.00  0.00     0.167 HD
ATOM     47  C   UNL A   1      43.100  26.016  29.090  1.00  0.00     0.037 A 
ATOM     48  C   UNL A   1      42.150  31.116  33.878  1.00  0.00     0.037 A 
ATOM     49  C   UNL A   1      44.232  26.300  29.933  1.00  0.00     0.049 A 
ATOM     50  C   UNL A   1      43.436  30.341  33.779  1.00  0.00     0.074 A 
ATOM     51  C   UNL A   1      45.485  25.714  29.912  1.00  0.00     0.029 A 
ATOM     52  N   UNL A   1      44.248  27.245  30.949  1.00  0.00    -0.354 N 
ATOM     53  N   UNL A   1      43.767  29.403  32.923  1.00  0.00    -0.248 NA
ATOM     54  C   UNL A   1      44.486  30.667  34.753  1.00  0.00     0.031 C 
ATOM     55  C   UNL A   1      46.240  26.265  30.949  1.00  0.00     0.029 A 
ATOM     56  C   UNL A   1      45.480  27.239  31.580  1.00  0.00     0.049 A 
ATOM     57  H   UNL A   1      43.495  27.833  31.185  1.00  0.00     0.167 HD
ATOM     58  C   UNL A   1      45.069  29.039  33.244  1.00  0.00     0.074 A 
ATOM     59  C   UNL A   1      45.473  29.877  34.354  1.00  0.00     0.031 C 
ATOM     60  C   UNL A   1      45.857  28.091  32.679  1.00  0.00     0.037 A 
BRANCH  47  61
ATOM     61  C   UNL A   1      43.249  24.939  28.051  1.00  0.00     0.058 A 
ATOM     62  C   UNL A   1      43.774  25.219  26.780  1.00  0.00     0.135 A 
ATOM     63  C   UNL A   1      42.984  23.597  28.369  1.00  0.00     0.135 A 
ATOM     64  F   UNL A   1      44.028  26.487  26.417  1.00  0.00    -0.206 F 
ATOM     65  C   UNL A   1      44.044  24.207  25.866  1.00  0.00     0.059 A 
ATOM     66  C   UNL A   1      43.268  22.566  27.480  1.00  0.00     0.059 A 
ATOM     67  F   UNL A   1      42.472  23.276  29.568  1.00  0.00    -0.206 F 
ATOM     68  C   UNL A   1      43.803  22.881  26.231  1.00  0.00     0.060 A 
BRANCH  68  69
ATOM     69  S   UNL A   1      44.236  21.578  25.060  1.00  0.00     0.124 S 
ATOM     70  O   UNL A   1      44.079  22.267  23.782  1.00  0.00    -0.237 OA
ATOM     71  O   UNL A   1      45.609  21.263  25.445  1.00  0.00    -0.237 OA
ATOM     72  O   UNL A   1      43.255  20.533  25.331  1.00  0.00    -0.744 OA
ENDBRANCH  68  69
ENDBRANCH  47  61
BRANCH  48  73
ATOM     73  C   UNL A   1      41.965  32.187  34.894  1.00  0.00     0.058 A 
ATOM     74  C   UNL A   1      41.370  31.919  36.135  1.00  0.00     0.135 A 
ATOM     75  C   UNL A   1      42.379  33.503  34.640  1.00  0.00     0.135 A 
ATOM     76  F   UNL A   1      40.959  30.675  36.429  1.00  0.00    -0.206 F 
ATOM     77  C   UNL A   1      41.161  32.923  37.075  1.00  0.00     0.059 A 
ATOM     78  C   UNL A   1      42.212  34.518  35.576  1.00  0.00     0.059 A 
ATOM     79  F   UNL A   1      42.976  33.810  33.477  1.00  0.00    -0.206 F 
ATOM     80  C   UNL A   1      41.585  34.221  36.784  1.00  0.00     0.060 A 
BRANCH  80  81
ATOM     81  S   UNL A   1      41.312  35.516  38.012  1.00  0.00     0.124 S 
ATOM     82  O   UNL A   1      42.012  34.974  39.170  1.00  0.00    -0.237 OA
ATOM     83  O   UNL A   1      41.930  36.674  37.375  1.00  0.00    -0.237 OA
ATOM     84  O   UNL A   1      39.857  35.572  38.123  1.00  0.00    -0.744 OA
ENDBRANCH  80  81
ENDBRANCH  48  73
BRANCH  60  85
ATOM     85  C   UNL A   1      47.241  27.919  33.239  1.00  0.00     0.058 A 
ATOM     86  C   UNL A   1      47.508  26.989  34.255  1.00  0.00     0.135 A 
ATOM     87  C   UNL A   1      48.322  28.635  32.700  1.00  0.00     0.135 A 
ATOM     88  F   UNL A   1      46.509  26.283  34.807  1.00  0.00    -0.206 F 
ATOM     89  C   UNL A   1      48.799  26.788  34.731  1.00  0.00     0.059 A 
ATOM     90  C   UNL A   1      49.626  28.426  33.138  1.00  0.00     0.059 A 
ATOM     91  F   UNL A   1      48.121  29.528  31.718  1.00  0.00    -0.206 F 
ATOM     92  C   UNL A   1      49.852  27.506  34.161  1.00  0.00     0.060 A 
BRANCH  92  93
ATOM     93  S   UNL A   1      51.525  27.200  34.764  1.00  0.00     0.124 S 
ATOM     94  O   UNL A   1      51.377  27.468  36.191  1.00  0.00    -0.237 OA
ATOM     95  O   UNL A   1      51.733  25.803  34.399  1.00  0.00    -0.237 OA
ATOM     96  O   UNL A   1      52.335  28.165  34.026  1.00  0.00    -0.744 OA
ENDBRANCH  92  93
ENDBRANCH  60  85
ENDBRANCH  34  35
ENDBRANCH  27  29
ENDBRANCH  26  27
ENDBRANCH  25  26
ENDBRANCH   1  25
TORSDOF 20
ENDMDL
