MODEL 1
REMARK VINA RESULT:     -11.2      0.000      0.000
REMARK SMILES CC(C)(C)OC(=O)N1C[C@@H](COCc2ccccc2)O[C@@H](C(=O)OCCOC(=O)c2ccc(-c3c4nc(c(-c5c(F)cc(S(=O)(=O)[O-])cc5F)c5ccc([nH]5)c(-c5c(F)cc(S(=O)(=O)[O-])cc5F)c5nc(c(-c6c(F)cc(S(=O)(=O)[O-])cc6F)c6ccc3[nH]6)C=C5)C=C4)cc2)C1
REMARK SMILES IDX 25 1 24 2 22 3 23 4 21 5 8 6 9 7 96 8 10 9 20 10 6 11 7 12
REMARK SMILES IDX 5 13 2 14 1 15 3 16 4 17 11 18 12 19 13 20 14 21 15 22 19 23
REMARK SMILES IDX 16 24 18 25 17 26 26 27 27 28 28 29 29 30 30 31 31 32 95 33
REMARK SMILES IDX 32 34 94 35 33 36 34 37 35 38 88 39 36 40 93 41 87 42 89 43
REMARK SMILES IDX 37 44 92 45 86 46 85 47 38 49 72 50 51 51 71 52 52 53 55 54
REMARK SMILES IDX 70 55 90 56 53 57 54 58 69 60 91 61 56 62 39 63 40 64 49 65
REMARK SMILES IDX 41 66 42 67 48 68 50 69 43 70 44 71 45 72 46 73 47 74 73 75
REMARK SMILES IDX 74 76 83 77 75 78 76 79 82 80 84 81 77 82 78 83 79 84 80 85
REMARK SMILES IDX 81 86 57 87 58 88 67 89 59 90 60 91 66 92 68 93 61 94 62 95
REMARK SMILES IDX 63 96 64 97 65 98
REMARK H PARENT 89 48 55 59
REMARK Flexibility Score: inf
ROOT
ATOM      1  C   UNL A   1      37.666  23.129  25.367  1.00  0.00     0.274 C 
ENDROOT
BRANCH   1   2
ATOM      2  O   UNL A   1      36.435  23.555  24.749  1.00  0.00    -0.460 OA
BRANCH   2   3
ATOM      3  C   UNL A   1      36.069  22.819  23.671  1.00  0.00     0.337 C 
ATOM      4  O   UNL A   1      36.735  22.730  22.639  1.00  0.00    -0.249 OA
BRANCH   3   5
ATOM      5  C   UNL A   1      34.753  22.078  23.819  1.00  0.00     0.247 C 
ATOM      6  N   UNL A   1      33.283  20.291  24.522  1.00  0.00    -0.302 N 
ATOM      7  C   UNL A   1      32.192  21.262  24.696  1.00  0.00     0.157 C 
ATOM      8  C   UNL A   1      34.654  20.826  24.685  1.00  0.00     0.167 C 
ATOM      9  C   UNL A   1      32.447  22.554  23.895  1.00  0.00     0.164 C 
ATOM     10  O   UNL A   1      33.759  23.017  24.248  1.00  0.00    -0.357 OA
BRANCH   6  11
ATOM     11  C   UNL A   1      33.072  18.971  24.185  1.00  0.00     0.410 C 
ATOM     12  O   UNL A   1      32.280  18.606  23.330  1.00  0.00    -0.224 OA
BRANCH  11  13
ATOM     13  O   UNL A   1      33.830  18.146  24.948  1.00  0.00    -0.444 OA
BRANCH  13  14
ATOM     14  C   UNL A   1      34.067  16.756  24.605  1.00  0.00     0.106 C 
ATOM     15  C   UNL A   1      35.383  16.406  25.317  1.00  0.00     0.056 C 
ATOM     16  C   UNL A   1      34.267  16.653  23.092  1.00  0.00     0.056 C 
ATOM     17  C   UNL A   1      32.982  15.797  25.105  1.00  0.00     0.056 C 
ENDBRANCH  13  14
ENDBRANCH  11  13
ENDBRANCH   6  11
BRANCH   9  18
ATOM     18  C   UNL A   1      31.389  23.616  24.232  1.00  0.00     0.194 C 
BRANCH  18  19
ATOM     19  O   UNL A   1      30.713  23.559  25.488  1.00  0.00    -0.374 OA
BRANCH  19  20
ATOM     20  C   UNL A   1      31.148  24.374  26.579  1.00  0.00     0.195 C 
BRANCH  20  21
ATOM     21  C   UNL A   1      31.762  25.739  26.296  1.00  0.00    -0.022 A 
ATOM     22  C   UNL A   1      33.154  25.813  26.107  1.00  0.00     0.006 A 
ATOM     23  C   UNL A   1      31.052  26.946  26.308  1.00  0.00     0.006 A 
ATOM     24  C   UNL A   1      33.798  27.042  25.915  1.00  0.00     0.000 A 
ATOM     25  C   UNL A   1      31.692  28.176  26.127  1.00  0.00     0.000 A 
ATOM     26  C   UNL A   1      33.065  28.224  25.925  1.00  0.00     0.000 A 
ENDBRANCH  20  21
ENDBRANCH  19  20
ENDBRANCH  18  19
ENDBRANCH   9  18
ENDBRANCH   3   5
ENDBRANCH   2   3
ENDBRANCH   1   2
BRANCH   1  27
ATOM     27  C   UNL A   1      38.107  24.092  26.476  1.00  0.00     0.275 C 
BRANCH  27  28
ATOM     28  O   UNL A   1      39.432  23.808  26.969  1.00  0.00    -0.458 OA
BRANCH  28  29
ATOM     29  C   UNL A   1      40.343  24.777  26.721  1.00  0.00     0.338 C 
ATOM     30  O   UNL A   1      40.933  24.975  25.671  1.00  0.00    -0.246 OA
BRANCH  29  31
ATOM     31  C   UNL A   1      40.473  25.685  27.867  1.00  0.00     0.060 A 
ATOM     32  C   UNL A   1      39.428  25.737  28.789  1.00  0.00     0.016 A 
ATOM     33  C   UNL A   1      41.526  26.594  27.946  1.00  0.00     0.016 A 
ATOM     34  C   UNL A   1      39.388  26.731  29.758  1.00  0.00     0.010 A 
ATOM     35  C   UNL A   1      41.517  27.558  28.961  1.00  0.00     0.010 A 
ATOM     36  C   UNL A   1      40.438  27.649  29.859  1.00  0.00    -0.014 A 
BRANCH  36  37
ATOM     37  C   UNL A   1      40.392  28.706  30.899  1.00  0.00     0.031 A 
ATOM     38  C   UNL A   1      41.326  28.647  32.075  1.00  0.00     0.074 A 
ATOM     39  C   UNL A   1      39.518  29.722  30.774  1.00  0.00     0.049 A 
ATOM     40  N   UNL A   1      41.359  29.403  33.142  1.00  0.00    -0.248 NA
ATOM     41  C   UNL A   1      42.352  27.593  32.053  1.00  0.00     0.031 C 
ATOM     42  C   UNL A   1      38.599  29.915  29.648  1.00  0.00     0.029 A 
ATOM     43  N   UNL A   1      39.253  30.785  31.602  1.00  0.00    -0.354 N 
ATOM     44  C   UNL A   1      42.388  28.902  33.932  1.00  0.00     0.074 A 
ATOM     45  C   UNL A   1      42.937  27.760  33.231  1.00  0.00     0.031 C 
ATOM     46  C   UNL A   1      37.883  31.031  29.850  1.00  0.00     0.029 A 
ATOM     47  C   UNL A   1      38.239  31.594  31.148  1.00  0.00     0.049 A 
ATOM     48  H   UNL A   1      39.743  30.951  32.439  1.00  0.00     0.167 HD
ATOM     49  C   UNL A   1      42.833  29.358  35.127  1.00  0.00     0.037 A 
ATOM     50  C   UNL A   1      37.635  32.648  31.729  1.00  0.00     0.037 A 
ATOM     51  C   UNL A   1      42.281  30.504  35.806  1.00  0.00     0.049 A 
ATOM     52  C   UNL A   1      38.093  33.087  33.092  1.00  0.00     0.074 A 
ATOM     53  C   UNL A   1      42.661  31.055  37.018  1.00  0.00     0.029 A 
ATOM     54  N   UNL A   1      41.228  31.275  35.331  1.00  0.00    -0.354 N 
ATOM     55  N   UNL A   1      39.058  32.596  33.835  1.00  0.00    -0.248 NA
ATOM     56  C   UNL A   1      37.379  34.216  33.701  1.00  0.00     0.031 C 
ATOM     57  C   UNL A   1      41.804  32.124  37.301  1.00  0.00     0.029 A 
ATOM     58  C   UNL A   1      40.929  32.281  36.238  1.00  0.00     0.049 A 
ATOM     59  H   UNL A   1      40.761  31.129  34.477  1.00  0.00     0.167 HD
ATOM     60  C   UNL A   1      39.086  33.377  34.986  1.00  0.00     0.074 A 
ATOM     61  C   UNL A   1      38.048  34.377  34.834  1.00  0.00     0.031 C 
ATOM     62  C   UNL A   1      39.898  33.275  36.067  1.00  0.00     0.037 A 
BRANCH  49  63
ATOM     63  C   UNL A   1      43.949  28.597  35.794  1.00  0.00     0.058 A 
ATOM     64  C   UNL A   1      43.702  27.506  36.643  1.00  0.00     0.135 A 
ATOM     65  C   UNL A   1      45.289  28.955  35.566  1.00  0.00     0.135 A 
ATOM     66  F   UNL A   1      42.443  27.127  36.910  1.00  0.00    -0.206 F 
ATOM     67  C   UNL A   1      44.740  26.820  37.269  1.00  0.00     0.059 A 
ATOM     68  C   UNL A   1      46.344  28.263  36.156  1.00  0.00     0.059 A 
ATOM     69  F   UNL A   1      45.586  29.988  34.762  1.00  0.00    -0.206 F 
ATOM     70  C   UNL A   1      46.058  27.208  37.020  1.00  0.00     0.060 A 
BRANCH  70  71
ATOM     71  S   UNL A   1      47.391  26.315  37.848  1.00  0.00     0.124 S 
ATOM     72  O   UNL A   1      47.532  25.142  36.991  1.00  0.00    -0.237 OA
ATOM     73  O   UNL A   1      48.490  27.274  37.792  1.00  0.00    -0.237 OA
ATOM     74  O   UNL A   1      46.854  26.058  39.179  1.00  0.00    -0.744 OA
ENDBRANCH  70  71
ENDBRANCH  49  63
BRANCH  50  75
ATOM     75  C   UNL A   1      36.524  33.349  31.030  1.00  0.00     0.058 A 
ATOM     76  C   UNL A   1      35.196  33.194  31.451  1.00  0.00     0.135 A 
ATOM     77  C   UNL A   1      36.767  34.198  29.937  1.00  0.00     0.135 A 
ATOM     78  F   UNL A   1      34.911  32.387  32.484  1.00  0.00    -0.206 F 
ATOM     79  C   UNL A   1      34.146  33.841  30.808  1.00  0.00     0.059 A 
ATOM     80  C   UNL A   1      35.738  34.881  29.297  1.00  0.00     0.059 A 
ATOM     81  F   UNL A   1      38.022  34.393  29.502  1.00  0.00    -0.206 F 
ATOM     82  C   UNL A   1      34.429  34.687  29.733  1.00  0.00     0.060 A 
BRANCH  82  83
ATOM     83  S   UNL A   1      33.062  35.555  28.935  1.00  0.00     0.124 S 
ATOM     84  O   UNL A   1      32.319  36.054  30.085  1.00  0.00    -0.237 OA
ATOM     85  O   UNL A   1      33.762  36.560  28.141  1.00  0.00    -0.237 OA
ATOM     86  O   UNL A   1      32.403  34.505  28.163  1.00  0.00    -0.744 OA
ENDBRANCH  82  83
ENDBRANCH  50  75
BRANCH  62  87
ATOM     87  C   UNL A   1      39.729  34.303  37.154  1.00  0.00     0.058 A 
ATOM     88  C   UNL A   1      38.958  34.052  38.300  1.00  0.00     0.135 A 
ATOM     89  C   UNL A   1      40.389  35.539  37.067  1.00  0.00     0.135 A 
ATOM     90  F   UNL A   1      38.299  32.889  38.431  1.00  0.00    -0.206 F 
ATOM     91  C   UNL A   1      38.829  34.999  39.310  1.00  0.00     0.059 A 
ATOM     92  C   UNL A   1      40.299  36.490  38.079  1.00  0.00     0.059 A 
ATOM     93  F   UNL A   1      41.146  35.828  35.996  1.00  0.00    -0.206 F 
ATOM     94  C   UNL A   1      39.507  36.215  39.192  1.00  0.00     0.060 A 
BRANCH  94  95
ATOM     95  S   UNL A   1      39.360  37.420  40.527  1.00  0.00     0.124 S 
ATOM     96  O   UNL A   1      40.695  38.011  40.539  1.00  0.00    -0.237 OA
ATOM     97  O   UNL A   1      38.287  38.287  40.048  1.00  0.00    -0.237 OA
ATOM     98  O   UNL A   1      39.025  36.602  41.689  1.00  0.00    -0.744 OA
ENDBRANCH  94  95
ENDBRANCH  62  87
ENDBRANCH  36  37
ENDBRANCH  29  31
ENDBRANCH  28  29
ENDBRANCH  27  28
ENDBRANCH   1  27
TORSDOF 21
ENDMDL
MODEL 2
REMARK VINA RESULT:     -11.1      1.137      8.947
REMARK SMILES CC(C)(C)OC(=O)N1C[C@@H](COCc2ccccc2)O[C@@H](C(=O)OCCOC(=O)c2ccc(-c3c4nc(c(-c5c(F)cc(S(=O)(=O)[O-])cc5F)c5ccc([nH]5)c(-c5c(F)cc(S(=O)(=O)[O-])cc5F)c5nc(c(-c6c(F)cc(S(=O)(=O)[O-])cc6F)c6ccc3[nH]6)C=C5)C=C4)cc2)C1
REMARK SMILES IDX 25 1 24 2 22 3 23 4 21 5 8 6 9 7 96 8 10 9 20 10 6 11 7 12
REMARK SMILES IDX 5 13 2 14 1 15 3 16 4 17 11 18 12 19 13 20 14 21 15 22 19 23
REMARK SMILES IDX 16 24 18 25 17 26 26 27 27 28 28 29 29 30 30 31 31 32 95 33
REMARK SMILES IDX 32 34 94 35 33 36 34 37 35 38 88 39 36 40 93 41 87 42 89 43
REMARK SMILES IDX 37 44 92 45 86 46 85 47 38 49 72 50 51 51 71 52 52 53 55 54
REMARK SMILES IDX 70 55 90 56 53 57 54 58 69 60 91 61 56 62 39 63 40 64 49 65
REMARK SMILES IDX 41 66 42 67 48 68 50 69 43 70 44 71 45 72 46 73 47 74 73 75
REMARK SMILES IDX 74 76 83 77 75 78 76 79 82 80 84 81 77 82 78 83 79 84 80 85
REMARK SMILES IDX 81 86 57 87 58 88 67 89 59 90 60 91 66 92 68 93 61 94 62 95
REMARK SMILES IDX 63 96 64 97 65 98
REMARK H PARENT 89 48 55 59
REMARK Flexibility Score: inf
ROOT
ATOM      1  C   UNL A   1      37.895  22.957  25.715  1.00  0.00     0.274 C 
ENDROOT
BRANCH   1   2
ATOM      2  O   UNL A   1      36.459  22.966  25.584  1.00  0.00    -0.460 OA
BRANCH   2   3
ATOM      3  C   UNL A   1      36.013  23.345  24.362  1.00  0.00     0.337 C 
ATOM      4  O   UNL A   1      36.677  23.262  23.329  1.00  0.00    -0.249 OA
BRANCH   3   5
ATOM      5  C   UNL A   1      34.594  23.884  24.339  1.00  0.00     0.247 C 
ATOM      6  N   UNL A   1      32.692  25.082  23.445  1.00  0.00    -0.302 N 
ATOM      7  C   UNL A   1      31.788  24.105  24.073  1.00  0.00     0.157 C 
ATOM      8  C   UNL A   1      34.042  24.579  23.099  1.00  0.00     0.167 C 
ATOM      9  C   UNL A   1      32.478  23.350  25.225  1.00  0.00     0.164 C 
ATOM     10  O   UNL A   1      33.707  22.820  24.707  1.00  0.00    -0.357 OA
BRANCH   6  11
ATOM     11  C   UNL A   1      32.346  26.397  23.223  1.00  0.00     0.410 C 
ATOM     12  O   UNL A   1      32.710  27.040  22.249  1.00  0.00    -0.224 OA
BRANCH  11  13
ATOM     13  O   UNL A   1      31.588  26.881  24.236  1.00  0.00    -0.444 OA
BRANCH  13  14
ATOM     14  C   UNL A   1      32.145  27.632  25.346  1.00  0.00     0.106 C 
ATOM     15  C   UNL A   1      31.542  26.972  26.595  1.00  0.00     0.056 C 
ATOM     16  C   UNL A   1      31.657  29.079  25.251  1.00  0.00     0.056 C 
ATOM     17  C   UNL A   1      33.671  27.549  25.449  1.00  0.00     0.056 C 
ENDBRANCH  13  14
ENDBRANCH  11  13
ENDBRANCH   6  11
BRANCH   9  18
ATOM     18  C   UNL A   1      31.577  22.218  25.744  1.00  0.00     0.194 C 
BRANCH  18  19
ATOM     19  O   UNL A   1      31.625  20.938  25.115  1.00  0.00    -0.374 OA
BRANCH  19  20
ATOM     20  C   UNL A   1      32.596  19.970  25.520  1.00  0.00     0.195 C 
BRANCH  20  21
ATOM     21  C   UNL A   1      32.990  18.857  24.556  1.00  0.00    -0.022 A 
ATOM     22  C   UNL A   1      34.103  18.061  24.883  1.00  0.00     0.006 A 
ATOM     23  C   UNL A   1      32.383  18.632  23.314  1.00  0.00     0.006 A 
ATOM     24  C   UNL A   1      34.568  17.068  24.012  1.00  0.00     0.000 A 
ATOM     25  C   UNL A   1      32.851  17.648  22.437  1.00  0.00     0.000 A 
ATOM     26  C   UNL A   1      33.941  16.862  22.788  1.00  0.00     0.000 A 
ENDBRANCH  20  21
ENDBRANCH  19  20
ENDBRANCH  18  19
ENDBRANCH   9  18
ENDBRANCH   3   5
ENDBRANCH   2   3
ENDBRANCH   1   2
BRANCH   1  27
ATOM     27  C   UNL A   1      38.425  24.302  26.228  1.00  0.00     0.275 C 
BRANCH  27  28
ATOM     28  O   UNL A   1      39.821  24.251  26.589  1.00  0.00    -0.458 OA
BRANCH  28  29
ATOM     29  C   UNL A   1      40.494  25.409  26.396  1.00  0.00     0.338 C 
ATOM     30  O   UNL A   1      40.893  25.852  25.332  1.00  0.00    -0.246 OA
BRANCH  29  31
ATOM     31  C   UNL A   1      40.600  26.172  27.645  1.00  0.00     0.060 A 
ATOM     32  C   UNL A   1      39.670  25.920  28.654  1.00  0.00     0.016 A 
ATOM     33  C   UNL A   1      41.491  27.236  27.761  1.00  0.00     0.016 A 
ATOM     34  C   UNL A   1      39.576  26.761  29.755  1.00  0.00     0.010 A 
ATOM     35  C   UNL A   1      41.438  28.047  28.901  1.00  0.00     0.010 A 
ATOM     36  C   UNL A   1      40.466  27.830  29.894  1.00  0.00    -0.014 A 
BRANCH  36  37
ATOM     37  C   UNL A   1      40.363  28.722  31.075  1.00  0.00     0.031 A 
ATOM     38  C   UNL A   1      39.356  29.837  31.092  1.00  0.00     0.074 A 
ATOM     39  C   UNL A   1      41.169  28.517  32.134  1.00  0.00     0.049 A 
ATOM     40  N   UNL A   1      39.194  30.791  31.972  1.00  0.00    -0.248 NA
ATOM     41  C   UNL A   1      38.412  29.893  29.965  1.00  0.00     0.031 C 
ATOM     42  C   UNL A   1      42.149  27.433  32.255  1.00  0.00     0.029 A 
ATOM     43  N   UNL A   1      41.299  29.211  33.311  1.00  0.00    -0.354 N 
ATOM     44  C   UNL A   1      38.151  31.576  31.495  1.00  0.00     0.074 A 
ATOM     45  C   UNL A   1      37.735  31.001  30.232  1.00  0.00     0.031 C 
ATOM     46  C   UNL A   1      42.767  27.529  33.442  1.00  0.00     0.029 A 
ATOM     47  C   UNL A   1      42.282  28.717  34.135  1.00  0.00     0.049 A 
ATOM     48  H   UNL A   1      40.741  29.988  33.543  1.00  0.00     0.167 HD
ATOM     49  C   UNL A   1      37.591  32.672  32.062  1.00  0.00     0.037 A 
ATOM     50  C   UNL A   1      42.766  29.189  35.299  1.00  0.00     0.037 A 
ATOM     51  C   UNL A   1      38.011  33.226  33.326  1.00  0.00     0.049 A 
ATOM     52  C   UNL A   1      42.183  30.452  35.869  1.00  0.00     0.074 A 
ATOM     53  C   UNL A   1      37.508  34.329  33.993  1.00  0.00     0.029 A 
ATOM     54  N   UNL A   1      39.037  32.717  34.112  1.00  0.00    -0.354 N 
ATOM     55  N   UNL A   1      41.207  31.194  35.401  1.00  0.00    -0.248 NA
ATOM     56  C   UNL A   1      42.771  30.949  37.120  1.00  0.00     0.031 C 
ATOM     57  C   UNL A   1      38.265  34.520  35.155  1.00  0.00     0.029 A 
ATOM     58  C   UNL A   1      39.198  33.500  35.245  1.00  0.00     0.049 A 
ATOM     59  H   UNL A   1      39.571  31.920  33.896  1.00  0.00     0.167 HD
ATOM     60  C   UNL A   1      41.042  32.228  36.317  1.00  0.00     0.074 A 
ATOM     61  C   UNL A   1      42.013  32.007  37.369  1.00  0.00     0.031 C 
ATOM     62  C   UNL A   1      40.165  33.262  36.289  1.00  0.00     0.037 A 
BRANCH  49  63
ATOM     63  C   UNL A   1      36.488  33.365  31.305  1.00  0.00     0.058 A 
ATOM     64  C   UNL A   1      35.148  33.304  31.721  1.00  0.00     0.135 A 
ATOM     65  C   UNL A   1      36.779  34.117  30.154  1.00  0.00     0.135 A 
ATOM     66  F   UNL A   1      34.807  32.590  32.805  1.00  0.00    -0.206 F 
ATOM     67  C   UNL A   1      34.133  33.934  31.005  1.00  0.00     0.059 A 
ATOM     68  C   UNL A   1      35.784  34.780  29.440  1.00  0.00     0.059 A 
ATOM     69  F   UNL A   1      38.042  34.212  29.710  1.00  0.00    -0.206 F 
ATOM     70  C   UNL A   1      34.462  34.668  29.864  1.00  0.00     0.060 A 
BRANCH  70  71
ATOM     71  S   UNL A   1      33.133  35.469  28.940  1.00  0.00     0.124 S 
ATOM     72  O   UNL A   1      32.316  36.014  30.020  1.00  0.00    -0.237 OA
ATOM     73  O   UNL A   1      33.858  36.449  28.139  1.00  0.00    -0.237 OA
ATOM     74  O   UNL A   1      32.530  34.372  28.190  1.00  0.00    -0.744 OA
ENDBRANCH  70  71
ENDBRANCH  49  63
BRANCH  50  75
ATOM     75  C   UNL A   1      43.870  28.472  35.991  1.00  0.00     0.058 A 
ATOM     76  C   UNL A   1      43.603  27.409  36.866  1.00  0.00     0.135 A 
ATOM     77  C   UNL A   1      45.215  28.821  35.782  1.00  0.00     0.135 A 
ATOM     78  F   UNL A   1      42.334  27.042  37.106  1.00  0.00    -0.206 F 
ATOM     79  C   UNL A   1      44.623  26.728  37.521  1.00  0.00     0.059 A 
ATOM     80  C   UNL A   1      46.255  28.136  36.401  1.00  0.00     0.059 A 
ATOM     81  F   UNL A   1      45.527  29.822  34.944  1.00  0.00    -0.206 F 
ATOM     82  C   UNL A   1      45.948  27.097  37.278  1.00  0.00     0.060 A 
BRANCH  82  83
ATOM     83  S   UNL A   1      47.265  26.177  38.101  1.00  0.00     0.124 S 
ATOM     84  O   UNL A   1      47.207  24.896  37.407  1.00  0.00    -0.237 OA
ATOM     85  O   UNL A   1      48.436  27.003  37.820  1.00  0.00    -0.237 OA
ATOM     86  O   UNL A   1      46.841  26.159  39.498  1.00  0.00    -0.744 OA
ENDBRANCH  82  83
ENDBRANCH  50  75
BRANCH  62  87
ATOM     87  C   UNL A   1      40.184  34.212  37.457  1.00  0.00     0.058 A 
ATOM     88  C   UNL A   1      40.985  35.364  37.464  1.00  0.00     0.135 A 
ATOM     89  C   UNL A   1      39.348  33.988  38.563  1.00  0.00     0.135 A 
ATOM     90  F   UNL A   1      41.810  35.621  36.436  1.00  0.00    -0.206 F 
ATOM     91  C   UNL A   1      40.976  36.248  38.538  1.00  0.00     0.059 A 
ATOM     92  C   UNL A   1      39.299  34.875  39.634  1.00  0.00     0.059 A 
ATOM     93  F   UNL A   1      38.555  32.905  38.604  1.00  0.00    -0.206 F 
ATOM     94  C   UNL A   1      40.126  35.996  39.618  1.00  0.00     0.060 A 
BRANCH  94  95
ATOM     95  S   UNL A   1      40.097  37.172  40.987  1.00  0.00     0.124 S 
ATOM     96  O   UNL A   1      38.971  36.680  41.774  1.00  0.00    -0.237 OA
ATOM     97  O   UNL A   1      41.417  36.987  41.584  1.00  0.00    -0.237 OA
ATOM     98  O   UNL A   1      39.889  38.458  40.328  1.00  0.00    -0.744 OA
ENDBRANCH  94  95
ENDBRANCH  62  87
ENDBRANCH  36  37
ENDBRANCH  29  31
ENDBRANCH  28  29
ENDBRANCH  27  28
ENDBRANCH   1  27
TORSDOF 21
ENDMDL
MODEL 3
REMARK VINA RESULT:     -11.0      0.949      8.177
REMARK SMILES CC(C)(C)OC(=O)N1C[C@@H](COCc2ccccc2)O[C@@H](C(=O)OCCOC(=O)c2ccc(-c3c4nc(c(-c5c(F)cc(S(=O)(=O)[O-])cc5F)c5ccc([nH]5)c(-c5c(F)cc(S(=O)(=O)[O-])cc5F)c5nc(c(-c6c(F)cc(S(=O)(=O)[O-])cc6F)c6ccc3[nH]6)C=C5)C=C4)cc2)C1
REMARK SMILES IDX 25 1 24 2 22 3 23 4 21 5 8 6 9 7 96 8 10 9 20 10 6 11 7 12
REMARK SMILES IDX 5 13 2 14 1 15 3 16 4 17 11 18 12 19 13 20 14 21 15 22 19 23
REMARK SMILES IDX 16 24 18 25 17 26 26 27 27 28 28 29 29 30 30 31 31 32 95 33
REMARK SMILES IDX 32 34 94 35 33 36 34 37 35 38 88 39 36 40 93 41 87 42 89 43
REMARK SMILES IDX 37 44 92 45 86 46 85 47 38 49 72 50 51 51 71 52 52 53 55 54
REMARK SMILES IDX 70 55 90 56 53 57 54 58 69 60 91 61 56 62 39 63 40 64 49 65
REMARK SMILES IDX 41 66 42 67 48 68 50 69 43 70 44 71 45 72 46 73 47 74 73 75
REMARK SMILES IDX 74 76 83 77 75 78 76 79 82 80 84 81 77 82 78 83 79 84 80 85
REMARK SMILES IDX 81 86 57 87 58 88 67 89 59 90 60 91 66 92 68 93 61 94 62 95
REMARK SMILES IDX 63 96 64 97 65 98
REMARK H PARENT 89 48 55 59
REMARK Flexibility Score: inf
ROOT
ATOM      1  C   UNL A   1      37.137  23.614  26.045  1.00  0.00     0.274 C 
ENDROOT
BRANCH   1   2
ATOM      2  O   UNL A   1      36.093  24.286  25.312  1.00  0.00    -0.460 OA
BRANCH   2   3
ATOM      3  C   UNL A   1      35.621  23.589  24.249  1.00  0.00     0.337 C 
ATOM      4  O   UNL A   1      36.167  23.559  23.146  1.00  0.00    -0.249 OA
BRANCH   3   5
ATOM      5  C   UNL A   1      34.343  22.812  24.511  1.00  0.00     0.247 C 
ATOM      6  N   UNL A   1      32.953  20.848  24.754  1.00  0.00    -0.302 N 
ATOM      7  C   UNL A   1      32.165  21.538  25.786  1.00  0.00     0.157 C 
ATOM      8  C   UNL A   1      34.360  21.291  24.614  1.00  0.00     0.167 C 
ATOM      9  C   UNL A   1      32.322  23.069  25.693  1.00  0.00     0.164 C 
ATOM     10  O   UNL A   1      33.729  23.349  25.689  1.00  0.00    -0.357 OA
BRANCH   6  11
ATOM     11  C   UNL A   1      32.430  19.878  23.926  1.00  0.00     0.410 C 
ATOM     12  O   UNL A   1      32.040  20.095  22.788  1.00  0.00    -0.224 OA
BRANCH  11  13
ATOM     13  O   UNL A   1      32.377  18.678  24.551  1.00  0.00    -0.444 OA
BRANCH  13  14
ATOM     14  C   UNL A   1      33.293  17.594  24.251  1.00  0.00     0.106 C 
ATOM     15  C   UNL A   1      32.836  16.444  25.162  1.00  0.00     0.056 C 
ATOM     16  C   UNL A   1      34.706  18.024  24.647  1.00  0.00     0.056 C 
ATOM     17  C   UNL A   1      33.229  17.109  22.799  1.00  0.00     0.056 C 
ENDBRANCH  13  14
ENDBRANCH  11  13
ENDBRANCH   6  11
BRANCH   9  18
ATOM     18  C   UNL A   1      31.636  23.754  26.885  1.00  0.00     0.194 C 
BRANCH  18  19
ATOM     19  O   UNL A   1      31.178  25.100  26.753  1.00  0.00    -0.374 OA
BRANCH  19  20
ATOM     20  C   UNL A   1      30.109  25.414  25.858  1.00  0.00     0.195 C 
BRANCH  20  21
ATOM     21  C   UNL A   1      30.248  26.602  24.914  1.00  0.00    -0.022 A 
ATOM     22  C   UNL A   1      31.232  27.565  25.201  1.00  0.00     0.006 A 
ATOM     23  C   UNL A   1      29.397  26.858  23.831  1.00  0.00     0.006 A 
ATOM     24  C   UNL A   1      31.370  28.720  24.421  1.00  0.00     0.000 A 
ATOM     25  C   UNL A   1      29.525  28.015  23.056  1.00  0.00     0.000 A 
ATOM     26  C   UNL A   1      30.515  28.944  23.347  1.00  0.00     0.000 A 
ENDBRANCH  20  21
ENDBRANCH  19  20
ENDBRANCH  18  19
ENDBRANCH   9  18
ENDBRANCH   3   5
ENDBRANCH   2   3
ENDBRANCH   1   2
BRANCH   1  27
ATOM     27  C   UNL A   1      38.530  24.025  25.552  1.00  0.00     0.275 C 
BRANCH  27  28
ATOM     28  O   UNL A   1      39.475  24.197  26.629  1.00  0.00    -0.458 OA
BRANCH  28  29
ATOM     29  C   UNL A   1      40.324  25.238  26.469  1.00  0.00     0.338 C 
ATOM     30  O   UNL A   1      40.866  25.587  25.432  1.00  0.00    -0.246 OA
BRANCH  29  31
ATOM     31  C   UNL A   1      40.445  26.016  27.708  1.00  0.00     0.060 A 
ATOM     32  C   UNL A   1      39.467  25.851  28.688  1.00  0.00     0.016 A 
ATOM     33  C   UNL A   1      41.409  27.014  27.837  1.00  0.00     0.016 A 
ATOM     34  C   UNL A   1      39.399  26.717  29.771  1.00  0.00     0.010 A 
ATOM     35  C   UNL A   1      41.378  27.848  28.961  1.00  0.00     0.010 A 
ATOM     36  C   UNL A   1      40.360  27.721  29.923  1.00  0.00    -0.014 A 
BRANCH  36  37
ATOM     37  C   UNL A   1      40.285  28.640  31.086  1.00  0.00     0.031 A 
ATOM     38  C   UNL A   1      39.297  29.774  31.086  1.00  0.00     0.074 A 
ATOM     39  C   UNL A   1      41.097  28.445  32.141  1.00  0.00     0.049 A 
ATOM     40  N   UNL A   1      39.161  30.750  31.947  1.00  0.00    -0.248 NA
ATOM     41  C   UNL A   1      38.343  29.821  29.968  1.00  0.00     0.031 C 
ATOM     42  C   UNL A   1      42.058  27.346  32.277  1.00  0.00     0.029 A 
ATOM     43  N   UNL A   1      41.250  29.162  33.301  1.00  0.00    -0.354 N 
ATOM     44  C   UNL A   1      38.127  31.543  31.462  1.00  0.00     0.074 A 
ATOM     45  C   UNL A   1      37.689  30.948  30.217  1.00  0.00     0.031 C 
ATOM     46  C   UNL A   1      42.690  27.457  33.455  1.00  0.00     0.029 A 
ATOM     47  C   UNL A   1      42.232  28.669  34.127  1.00  0.00     0.049 A 
ATOM     48  H   UNL A   1      40.708  29.954  33.521  1.00  0.00     0.167 HD
ATOM     49  C   UNL A   1      37.592  32.661  32.010  1.00  0.00     0.037 A 
ATOM     50  C   UNL A   1      42.736  29.158  35.276  1.00  0.00     0.037 A 
ATOM     51  C   UNL A   1      38.034  33.234  33.257  1.00  0.00     0.049 A 
ATOM     52  C   UNL A   1      42.181  30.443  35.823  1.00  0.00     0.074 A 
ATOM     53  C   UNL A   1      37.557  34.361  33.905  1.00  0.00     0.029 A 
ATOM     54  N   UNL A   1      39.058  32.725  34.045  1.00  0.00    -0.354 N 
ATOM     55  N   UNL A   1      41.213  31.192  35.348  1.00  0.00    -0.248 NA
ATOM     56  C   UNL A   1      42.789  30.956  37.057  1.00  0.00     0.031 C 
ATOM     57  C   UNL A   1      38.329  34.563  35.055  1.00  0.00     0.029 A 
ATOM     58  C   UNL A   1      39.245  33.529  35.159  1.00  0.00     0.049 A 
ATOM     59  H   UNL A   1      39.577  31.913  33.842  1.00  0.00     0.167 HD
ATOM     60  C   UNL A   1      41.076  32.248  36.242  1.00  0.00     0.074 A 
ATOM     61  C   UNL A   1      42.053  32.034  37.290  1.00  0.00     0.031 C 
ATOM     62  C   UNL A   1      40.217  33.297  36.199  1.00  0.00     0.037 A 
BRANCH  49  63
ATOM     63  C   UNL A   1      36.495  33.356  31.249  1.00  0.00     0.058 A 
ATOM     64  C   UNL A   1      36.746  34.065  30.062  1.00  0.00     0.135 A 
ATOM     65  C   UNL A   1      35.166  33.298  31.704  1.00  0.00     0.135 A 
ATOM     66  F   UNL A   1      37.996  34.166  29.586  1.00  0.00    -0.206 F 
ATOM     67  C   UNL A   1      35.727  34.719  29.374  1.00  0.00     0.059 A 
ATOM     68  C   UNL A   1      34.127  33.919  31.015  1.00  0.00     0.059 A 
ATOM     69  F   UNL A   1      34.866  32.634  32.831  1.00  0.00    -0.206 F 
ATOM     70  C   UNL A   1      34.420  34.642  29.861  1.00  0.00     0.060 A 
BRANCH  70  71
ATOM     71  S   UNL A   1      33.113  35.505  28.964  1.00  0.00     0.124 S 
ATOM     72  O   UNL A   1      32.522  34.416  28.192  1.00  0.00    -0.237 OA
ATOM     73  O   UNL A   1      32.289  36.034  30.046  1.00  0.00    -0.237 OA
ATOM     74  O   UNL A   1      33.837  36.504  28.185  1.00  0.00    -0.744 OA
ENDBRANCH  70  71
ENDBRANCH  49  63
BRANCH  50  75
ATOM     75  C   UNL A   1      43.834  28.436  35.973  1.00  0.00     0.058 A 
ATOM     76  C   UNL A   1      43.555  27.404  36.881  1.00  0.00     0.135 A 
ATOM     77  C   UNL A   1      45.183  28.750  35.737  1.00  0.00     0.135 A 
ATOM     78  F   UNL A   1      42.283  27.071  37.147  1.00  0.00    -0.206 F 
ATOM     79  C   UNL A   1      44.570  26.719  37.541  1.00  0.00     0.059 A 
ATOM     80  C   UNL A   1      46.216  28.060  36.362  1.00  0.00     0.059 A 
ATOM     81  F   UNL A   1      45.505  29.720  34.867  1.00  0.00    -0.206 F 
ATOM     82  C   UNL A   1      45.899  27.053  37.271  1.00  0.00     0.060 A 
BRANCH  82  83
ATOM     83  S   UNL A   1      47.208  26.127  38.102  1.00  0.00     0.124 S 
ATOM     84  O   UNL A   1      46.650  25.966  39.439  1.00  0.00    -0.237 OA
ATOM     85  O   UNL A   1      47.286  24.915  37.292  1.00  0.00    -0.237 OA
ATOM     86  O   UNL A   1      48.363  27.015  38.001  1.00  0.00    -0.744 OA
ENDBRANCH  82  83
ENDBRANCH  50  75
BRANCH  62  87
ATOM     87  C   UNL A   1      40.264  34.272  37.345  1.00  0.00     0.058 A 
ATOM     88  C   UNL A   1      41.017  35.454  37.284  1.00  0.00     0.135 A 
ATOM     89  C   UNL A   1      39.503  34.039  38.502  1.00  0.00     0.135 A 
ATOM     90  F   UNL A   1      41.770  35.722  36.205  1.00  0.00    -0.206 F 
ATOM     91  C   UNL A   1      41.033  36.360  38.339  1.00  0.00     0.059 A 
ATOM     92  C   UNL A   1      39.479  34.946  39.558  1.00  0.00     0.059 A 
ATOM     93  F   UNL A   1      38.758  32.927  38.610  1.00  0.00    -0.206 F 
ATOM     94  C   UNL A   1      40.257  36.099  39.471  1.00  0.00     0.060 A 
BRANCH  94  95
ATOM     95  S   UNL A   1      40.259  37.301  40.817  1.00  0.00     0.124 S 
ATOM     96  O   UNL A   1      41.335  38.198  40.409  1.00  0.00    -0.237 OA
ATOM     97  O   UNL A   1      38.909  37.855  40.741  1.00  0.00    -0.237 OA
ATOM     98  O   UNL A   1      40.531  36.490  42.000  1.00  0.00    -0.744 OA
ENDBRANCH  94  95
ENDBRANCH  62  87
ENDBRANCH  36  37
ENDBRANCH  29  31
ENDBRANCH  28  29
ENDBRANCH  27  28
ENDBRANCH   1  27
TORSDOF 21
ENDMDL
