MODEL 1
REMARK VINA RESULT:     -12.9      0.000      0.000
REMARK SMILES O=C(OCCOC(=O)c1ccccc1-c1ccccc1C(=O)N1CC[NH+](Cc2ccc3c(c2)OCO3)CC1)c1ccc(-c2c3nc(c(-c4c(F)cc(S(=O)(=O)[O-])cc4F)c4ccc([nH]4)c(-c4c(F)cc(S(=O)(=O)[O-])cc4F)c4nc(c(-c5c(F)cc(S(=O)(=O)[O-])cc5F)c5ccc2[nH]5)C=C4)C=C3)cc1
REMARK SMILES IDX 5 1 4 2 3 3 2 4 1 5 39 6 40 7 104 8 41 9 103 10 42 11 43 12
REMARK SMILES IDX 44 13 97 14 45 15 102 16 96 17 98 18 46 19 101 20 95 21
REMARK SMILES IDX 94 22 47 24 81 25 60 26 80 27 61 28 64 29 79 30 99 31 62 32
REMARK SMILES IDX 63 33 78 35 100 36 65 37 48 38 49 39 58 40 50 41 51 42 57 43
REMARK SMILES IDX 59 44 52 45 53 46 54 47 55 48 56 49 82 50 83 51 92 52 84 53
REMARK SMILES IDX 85 54 91 55 93 56 86 57 87 58 88 59 89 60 90 61 66 62 67 63
REMARK SMILES IDX 76 64 68 65 69 66 75 67 77 68 70 69 71 70 72 71 73 72 74 73
REMARK SMILES IDX 6 74 7 75 8 76 9 77 10 78 14 79 11 80 13 81 12 82 15 83
REMARK SMILES IDX 16 84 20 85 17 86 19 87 18 88 21 89 22 90 23 91 24 92 38 93
REMARK SMILES IDX 25 94 37 95 26 96 27 98 28 99 29 100 33 101 30 102 32 103
REMARK SMILES IDX 31 104 34 105 36 106 35 107
REMARK H PARENT 98 23 64 34 26 97
REMARK Flexibility Score: inf
ROOT
ATOM      1  C   UNL A   1      37.344  22.457  24.857  1.00  0.00     0.275 C 
ENDROOT
BRANCH   1   2
ATOM      2  C   UNL A   1      38.335  22.638  26.013  1.00  0.00     0.275 C 
BRANCH   2   3
ATOM      3  O   UNL A   1      38.958  23.934  26.150  1.00  0.00    -0.458 OA
BRANCH   3   4
ATOM      4  C   UNL A   1      40.135  24.287  26.724  1.00  0.00     0.338 C 
ATOM      5  O   UNL A   1      41.123  23.568  26.590  1.00  0.00    -0.246 OA
BRANCH   4   6
ATOM      6  C   UNL A   1      40.237  25.457  27.639  1.00  0.00     0.060 A 
ATOM      7  C   UNL A   1      41.185  26.471  27.512  1.00  0.00     0.016 A 
ATOM      8  C   UNL A   1      39.302  25.538  28.685  1.00  0.00     0.016 A 
ATOM      9  C   UNL A   1      41.126  27.606  28.323  1.00  0.00     0.010 A 
ATOM     10  C   UNL A   1      39.258  26.661  29.523  1.00  0.00     0.010 A 
ATOM     11  C   UNL A   1      40.169  27.707  29.339  1.00  0.00    -0.014 A 
BRANCH  11  12
ATOM     12  C   UNL A   1      40.373  28.761  30.367  1.00  0.00     0.031 A 
ATOM     13  C   UNL A   1      39.361  29.842  30.391  1.00  0.00     0.074 A 
ATOM     14  C   UNL A   1      41.324  28.693  31.317  1.00  0.00     0.049 A 
ATOM     15  N   UNL A   1      39.142  30.722  31.321  1.00  0.00    -0.248 NA
ATOM     16  C   UNL A   1      38.479  29.943  29.217  1.00  0.00     0.031 C 
ATOM     17  C   UNL A   1      42.369  27.704  31.294  1.00  0.00     0.029 A 
ATOM     18  N   UNL A   1      41.588  29.390  32.466  1.00  0.00    -0.354 N 
ATOM     19  C   UNL A   1      38.086  31.477  30.851  1.00  0.00     0.074 A 
ATOM     20  C   UNL A   1      37.745  30.992  29.534  1.00  0.00     0.031 C 
ATOM     21  C   UNL A   1      43.137  27.782  32.389  1.00  0.00     0.029 A 
ATOM     22  C   UNL A   1      42.618  28.848  33.219  1.00  0.00     0.049 A 
ATOM     23  H   UNL A   1      41.093  30.198  32.732  1.00  0.00     0.167 HD
ATOM     24  C   UNL A   1      37.449  32.480  31.487  1.00  0.00     0.037 A 
ATOM     25  C   UNL A   1      43.054  29.147  34.460  1.00  0.00     0.037 A 
ATOM     26  C   UNL A   1      37.861  32.963  32.771  1.00  0.00     0.049 A 
ATOM     27  C   UNL A   1      42.315  30.254  35.156  1.00  0.00     0.074 A 
ATOM     28  C   UNL A   1      37.367  34.027  33.493  1.00  0.00     0.029 A 
ATOM     29  N   UNL A   1      38.897  32.406  33.516  1.00  0.00    -0.354 N 
ATOM     30  N   UNL A   1      41.280  30.935  34.718  1.00  0.00    -0.248 NA
ATOM     31  C   UNL A   1      42.785  30.648  36.487  1.00  0.00     0.031 C 
ATOM     32  C   UNL A   1      38.128  34.134  34.664  1.00  0.00     0.029 A 
ATOM     33  C   UNL A   1      39.066  33.110  34.692  1.00  0.00     0.049 A 
ATOM     34  H   UNL A   1      39.433  31.626  33.244  1.00  0.00     0.167 HD
ATOM     35  C   UNL A   1      40.972  31.841  35.716  1.00  0.00     0.074 A 
ATOM     36  C   UNL A   1      41.908  31.593  36.800  1.00  0.00     0.031 C 
ATOM     37  C   UNL A   1      40.020  32.806  35.732  1.00  0.00     0.037 A 
BRANCH  24  38
ATOM     38  C   UNL A   1      36.327  33.100  30.719  1.00  0.00     0.058 A 
ATOM     39  C   UNL A   1      36.577  33.926  29.607  1.00  0.00     0.135 A 
ATOM     40  C   UNL A   1      35.020  33.044  31.222  1.00  0.00     0.135 A 
ATOM     41  F   UNL A   1      37.827  34.063  29.134  1.00  0.00    -0.206 F 
ATOM     42  C   UNL A   1      35.578  34.721  29.060  1.00  0.00     0.059 A 
ATOM     43  C   UNL A   1      34.000  33.812  30.671  1.00  0.00     0.059 A 
ATOM     44  F   UNL A   1      34.743  32.302  32.305  1.00  0.00    -0.206 F 
ATOM     45  C   UNL A   1      34.297  34.670  29.611  1.00  0.00     0.060 A 
BRANCH  45  46
ATOM     46  S   UNL A   1      33.027  35.767  28.951  1.00  0.00     0.124 S 
ATOM     47  O   UNL A   1      32.338  34.884  28.015  1.00  0.00    -0.237 OA
ATOM     48  O   UNL A   1      32.275  36.132  30.147  1.00  0.00    -0.237 OA
ATOM     49  O   UNL A   1      33.797  36.848  28.345  1.00  0.00    -0.744 OA
ENDBRANCH  45  46
ENDBRANCH  24  38
BRANCH  25  50
ATOM     50  C   UNL A   1      44.156  28.389  35.133  1.00  0.00     0.058 A 
ATOM     51  C   UNL A   1      45.502  28.771  34.980  1.00  0.00     0.135 A 
ATOM     52  C   UNL A   1      43.906  27.258  35.929  1.00  0.00     0.135 A 
ATOM     53  F   UNL A   1      45.811  29.847  34.240  1.00  0.00    -0.206 F 
ATOM     54  C   UNL A   1      46.549  28.049  35.553  1.00  0.00     0.059 A 
ATOM     55  C   UNL A   1      44.935  26.531  36.532  1.00  0.00     0.059 A 
ATOM     56  F   UNL A   1      42.645  26.851  36.140  1.00  0.00    -0.206 F 
ATOM     57  C   UNL A   1      46.256  26.924  36.324  1.00  0.00     0.060 A 
BRANCH  57  58
ATOM     58  S   UNL A   1      47.618  25.998  37.075  1.00  0.00     0.124 S 
ATOM     59  O   UNL A   1      46.980  25.451  38.268  1.00  0.00    -0.237 OA
ATOM     60  O   UNL A   1      47.950  25.034  36.030  1.00  0.00    -0.237 OA
ATOM     61  O   UNL A   1      48.629  27.025  37.314  1.00  0.00    -0.744 OA
ENDBRANCH  57  58
ENDBRANCH  25  50
BRANCH  37  62
ATOM     62  C   UNL A   1      39.960  33.646  36.966  1.00  0.00     0.058 A 
ATOM     63  C   UNL A   1      40.756  34.793  37.102  1.00  0.00     0.135 A 
ATOM     64  C   UNL A   1      39.049  33.334  37.984  1.00  0.00     0.135 A 
ATOM     65  F   UNL A   1      41.647  35.117  36.152  1.00  0.00    -0.206 F 
ATOM     66  C   UNL A   1      40.656  35.603  38.224  1.00  0.00     0.059 A 
ATOM     67  C   UNL A   1      38.916  34.144  39.102  1.00  0.00     0.059 A 
ATOM     68  F   UNL A   1      38.269  32.246  37.885  1.00  0.00    -0.206 F 
ATOM     69  C   UNL A   1      39.729  35.271  39.215  1.00  0.00     0.060 A 
BRANCH  69  70
ATOM     70  S   UNL A   1      39.566  36.363  40.639  1.00  0.00     0.124 S 
ATOM     71  O   UNL A   1      38.717  35.568  41.520  1.00  0.00    -0.237 OA
ATOM     72  O   UNL A   1      40.952  36.527  41.069  1.00  0.00    -0.237 OA
ATOM     73  O   UNL A   1      38.947  37.559  40.077  1.00  0.00    -0.744 OA
ENDBRANCH  69  70
ENDBRANCH  37  62
ENDBRANCH  11  12
ENDBRANCH   4   6
ENDBRANCH   3   4
ENDBRANCH   2   3
ENDBRANCH   1   2
BRANCH   1  74
ATOM     74  O   UNL A   1      35.996  22.896  25.094  1.00  0.00    -0.458 OA
BRANCH  74  75
ATOM     75  C   UNL A   1      35.173  21.939  25.573  1.00  0.00     0.338 C 
ATOM     76  O   UNL A   1      35.531  20.773  25.768  1.00  0.00    -0.246 OA
BRANCH  75  77
ATOM     77  C   UNL A   1      33.786  22.391  25.873  1.00  0.00     0.067 A 
ATOM     78  C   UNL A   1      33.653  23.608  26.574  1.00  0.00     0.016 A 
ATOM     79  C   UNL A   1      32.635  21.618  25.629  1.00  0.00    -0.003 A 
ATOM     80  C   UNL A   1      32.412  24.108  26.962  1.00  0.00     0.001 A 
ATOM     81  C   UNL A   1      31.387  22.113  26.090  1.00  0.00     0.009 A 
ATOM     82  C   UNL A   1      31.272  23.357  26.719  1.00  0.00     0.001 A 
BRANCH  79  83
ATOM     83  C   UNL A   1      32.645  20.344  24.902  1.00  0.00    -0.005 A 
ATOM     84  C   UNL A   1      32.807  19.157  25.661  1.00  0.00     0.009 A 
ATOM     85  C   UNL A   1      32.490  20.227  23.510  1.00  0.00     0.047 A 
ATOM     86  C   UNL A   1      32.874  17.896  25.081  1.00  0.00     0.001 A 
ATOM     87  C   UNL A   1      32.571  18.938  22.934  1.00  0.00     0.014 A 
ATOM     88  C   UNL A   1      32.773  17.788  23.707  1.00  0.00     0.001 A 
BRANCH  85  89
ATOM     89  C   UNL A   1      32.073  21.346  22.589  1.00  0.00     0.254 C 
ATOM     90  O   UNL A   1      31.308  21.087  21.657  1.00  0.00    -0.269 OA
ATOM     91  N   UNL A   1      32.402  22.671  22.897  1.00  0.00    -0.327 N 
ATOM     92  C   UNL A   1      31.320  23.635  22.797  1.00  0.00     0.181 C 
ATOM     93  C   UNL A   1      33.675  23.213  22.429  1.00  0.00     0.181 C 
ATOM     94  C   UNL A   1      31.626  24.971  23.506  1.00  0.00     0.284 C 
ATOM     95  C   UNL A   1      34.002  24.647  22.946  1.00  0.00     0.284 C 
ATOM     96  N   UNL A   1      32.914  25.604  23.195  1.00  0.00    -0.328 N 
ATOM     97  H   UNL A   1      33.218  26.044  24.063  1.00  0.00     0.348 HD
BRANCH  96  98
ATOM     98  C   UNL A   1      32.831  26.780  22.324  1.00  0.00     0.299 C 
BRANCH  98  99
ATOM     99  C   UNL A   1      32.688  28.060  23.120  1.00  0.00     0.010 A 
ATOM    100  C   UNL A   1      31.404  28.635  23.243  1.00  0.00     0.013 A 
ATOM    101  C   UNL A   1      33.718  28.413  24.010  1.00  0.00     0.060 A 
ATOM    102  C   UNL A   1      31.071  29.370  24.379  1.00  0.00     0.051 A 
ATOM    103  C   UNL A   1      33.335  29.066  25.156  1.00  0.00     0.166 A 
ATOM    104  C   UNL A   1      32.040  29.497  25.350  1.00  0.00     0.165 A 
ATOM    105  O   UNL A   1      34.071  29.115  26.305  1.00  0.00    -0.454 OA
ATOM    106  O   UNL A   1      31.822  29.873  26.642  1.00  0.00    -0.454 OA
ATOM    107  C   UNL A   1      33.004  29.315  27.257  1.00  0.00     0.468 C 
ENDBRANCH  98  99
ENDBRANCH  96  98
ENDBRANCH  85  89
ENDBRANCH  79  83
ENDBRANCH  75  77
ENDBRANCH  74  75
ENDBRANCH   1  74
TORSDOF 18
ENDMDL
MODEL 2
REMARK VINA RESULT:     -12.6      1.434      2.065
REMARK SMILES O=C(OCCOC(=O)c1ccccc1-c1ccccc1C(=O)N1CC[NH+](Cc2ccc3c(c2)OCO3)CC1)c1ccc(-c2c3nc(c(-c4c(F)cc(S(=O)(=O)[O-])cc4F)c4ccc([nH]4)c(-c4c(F)cc(S(=O)(=O)[O-])cc4F)c4nc(c(-c5c(F)cc(S(=O)(=O)[O-])cc5F)c5ccc2[nH]5)C=C4)C=C3)cc1
REMARK SMILES IDX 5 1 4 2 3 3 2 4 1 5 39 6 40 7 104 8 41 9 103 10 42 11 43 12
REMARK SMILES IDX 44 13 97 14 45 15 102 16 96 17 98 18 46 19 101 20 95 21
REMARK SMILES IDX 94 22 47 24 81 25 60 26 80 27 61 28 64 29 79 30 99 31 62 32
REMARK SMILES IDX 63 33 78 35 100 36 65 37 48 38 49 39 58 40 50 41 51 42 57 43
REMARK SMILES IDX 59 44 52 45 53 46 54 47 55 48 56 49 82 50 83 51 92 52 84 53
REMARK SMILES IDX 85 54 91 55 93 56 86 57 87 58 88 59 89 60 90 61 66 62 67 63
REMARK SMILES IDX 76 64 68 65 69 66 75 67 77 68 70 69 71 70 72 71 73 72 74 73
REMARK SMILES IDX 6 74 7 75 8 76 9 77 10 78 14 79 11 80 13 81 12 82 15 83
REMARK SMILES IDX 16 84 20 85 17 86 19 87 18 88 21 89 22 90 23 91 24 92 38 93
REMARK SMILES IDX 25 94 37 95 26 96 27 98 28 99 29 100 33 101 30 102 32 103
REMARK SMILES IDX 31 104 34 105 36 106 35 107
REMARK H PARENT 98 23 64 34 26 97
REMARK Flexibility Score: inf
ROOT
ATOM      1  C   UNL A   1      36.997  22.594  24.111  1.00  0.00     0.275 C 
ENDROOT
BRANCH   1   2
ATOM      2  C   UNL A   1      37.577  23.582  25.131  1.00  0.00     0.275 C 
BRANCH   2   3
ATOM      3  O   UNL A   1      38.520  23.059  26.092  1.00  0.00    -0.458 OA
BRANCH   3   4
ATOM      4  C   UNL A   1      39.781  23.458  26.392  1.00  0.00     0.338 C 
ATOM      5  O   UNL A   1      40.737  22.740  26.106  1.00  0.00    -0.246 OA
BRANCH   4   6
ATOM      6  C   UNL A   1      40.041  24.688  27.190  1.00  0.00     0.060 A 
ATOM      7  C   UNL A   1      40.901  25.712  26.796  1.00  0.00     0.016 A 
ATOM      8  C   UNL A   1      39.358  24.817  28.412  1.00  0.00     0.016 A 
ATOM      9  C   UNL A   1      40.982  26.896  27.531  1.00  0.00     0.010 A 
ATOM     10  C   UNL A   1      39.460  25.991  29.171  1.00  0.00     0.010 A 
ATOM     11  C   UNL A   1      40.270  27.043  28.727  1.00  0.00    -0.014 A 
BRANCH  11  12
ATOM     12  C   UNL A   1      40.658  28.165  29.621  1.00  0.00     0.031 A 
ATOM     13  C   UNL A   1      39.679  29.271  29.727  1.00  0.00     0.074 A 
ATOM     14  C   UNL A   1      41.755  28.144  30.400  1.00  0.00     0.049 A 
ATOM     15  N   UNL A   1      39.632  30.225  30.608  1.00  0.00    -0.248 NA
ATOM     16  C   UNL A   1      38.614  29.306  28.712  1.00  0.00     0.031 C 
ATOM     17  C   UNL A   1      42.767  27.129  30.281  1.00  0.00     0.029 A 
ATOM     18  N   UNL A   1      42.218  28.919  31.431  1.00  0.00    -0.354 N 
ATOM     19  C   UNL A   1      38.522  30.969  30.262  1.00  0.00     0.074 A 
ATOM     20  C   UNL A   1      37.958  30.396  29.063  1.00  0.00     0.031 C 
ATOM     21  C   UNL A   1      43.710  27.270  31.224  1.00  0.00     0.029 A 
ATOM     22  C   UNL A   1      43.353  28.409  32.042  1.00  0.00     0.049 A 
ATOM     23  H   UNL A   1      41.785  29.758  31.710  1.00  0.00     0.167 HD
ATOM     24  C   UNL A   1      38.014  32.034  30.914  1.00  0.00     0.037 A 
ATOM     25  C   UNL A   1      43.995  28.789  33.164  1.00  0.00     0.037 A 
ATOM     26  C   UNL A   1      38.643  32.602  32.069  1.00  0.00     0.049 A 
ATOM     27  C   UNL A   1      43.399  29.965  33.884  1.00  0.00     0.074 A 
ATOM     28  C   UNL A   1      38.293  33.731  32.777  1.00  0.00     0.029 A 
ATOM     29  N   UNL A   1      39.783  32.076  32.673  1.00  0.00    -0.354 N 
ATOM     30  N   UNL A   1      42.314  30.638  33.573  1.00  0.00    -0.248 NA
ATOM     31  C   UNL A   1      44.092  30.447  35.082  1.00  0.00     0.031 C 
ATOM     32  C   UNL A   1      39.241  33.906  33.793  1.00  0.00     0.029 A 
ATOM     33  C   UNL A   1      40.156  32.863  33.745  1.00  0.00     0.049 A 
ATOM     34  H   UNL A   1      40.254  31.264  32.378  1.00  0.00     0.167 HD
ATOM     35  C   UNL A   1      42.191  31.625  34.533  1.00  0.00     0.074 A 
ATOM     36  C   UNL A   1      43.293  31.435  35.462  1.00  0.00     0.031 C 
ATOM     37  C   UNL A   1      41.269  32.613  34.632  1.00  0.00     0.037 A 
BRANCH  24  38
ATOM     38  C   UNL A   1      36.787  32.624  30.297  1.00  0.00     0.058 A 
ATOM     39  C   UNL A   1      36.879  33.559  29.249  1.00  0.00     0.135 A 
ATOM     40  C   UNL A   1      35.536  32.420  30.895  1.00  0.00     0.135 A 
ATOM     41  F   UNL A   1      38.069  33.837  28.693  1.00  0.00    -0.206 F 
ATOM     42  C   UNL A   1      35.780  34.314  28.858  1.00  0.00     0.059 A 
ATOM     43  C   UNL A   1      34.419  33.146  30.500  1.00  0.00     0.059 A 
ATOM     44  F   UNL A   1      35.410  31.568  31.925  1.00  0.00    -0.206 F 
ATOM     45  C   UNL A   1      34.559  34.112  29.503  1.00  0.00     0.060 A 
BRANCH  45  46
ATOM     46  S   UNL A   1      33.158  35.154  29.048  1.00  0.00     0.124 S 
ATOM     47  O   UNL A   1      33.833  36.316  28.480  1.00  0.00    -0.237 OA
ATOM     48  O   UNL A   1      32.436  34.312  28.099  1.00  0.00    -0.237 OA
ATOM     49  O   UNL A   1      32.480  35.380  30.321  1.00  0.00    -0.744 OA
ENDBRANCH  45  46
ENDBRANCH  24  38
BRANCH  25  50
ATOM     50  C   UNL A   1      45.185  28.056  33.702  1.00  0.00     0.058 A 
ATOM     51  C   UNL A   1      45.035  26.989  34.606  1.00  0.00     0.135 A 
ATOM     52  C   UNL A   1      46.499  28.405  33.347  1.00  0.00     0.135 A 
ATOM     53  F   UNL A   1      43.807  26.598  34.981  1.00  0.00    -0.206 F 
ATOM     54  C   UNL A   1      46.130  26.325  35.161  1.00  0.00     0.059 A 
ATOM     55  C   UNL A   1      47.611  27.742  33.871  1.00  0.00     0.059 A 
ATOM     56  F   UNL A   1      46.717  29.395  32.469  1.00  0.00    -0.206 F 
ATOM     57  C   UNL A   1      47.418  26.714  34.792  1.00  0.00     0.060 A 
BRANCH  57  58
ATOM     58  S   UNL A   1      48.834  25.842  35.506  1.00  0.00     0.124 S 
ATOM     59  O   UNL A   1      48.216  24.602  35.962  1.00  0.00    -0.237 OA
ATOM     60  O   UNL A   1      49.733  25.724  34.363  1.00  0.00    -0.237 OA
ATOM     61  O   UNL A   1      49.287  26.746  36.560  1.00  0.00    -0.744 OA
ENDBRANCH  57  58
ENDBRANCH  25  50
BRANCH  37  62
ATOM     62  C   UNL A   1      41.428  33.546  35.787  1.00  0.00     0.058 A 
ATOM     63  C   UNL A   1      42.180  34.724  35.671  1.00  0.00     0.135 A 
ATOM     64  C   UNL A   1      40.766  33.287  36.995  1.00  0.00     0.135 A 
ATOM     65  F   UNL A   1      42.837  34.999  34.533  1.00  0.00    -0.206 F 
ATOM     66  C   UNL A   1      42.280  35.617  36.728  1.00  0.00     0.059 A 
ATOM     67  C   UNL A   1      40.832  34.178  38.055  1.00  0.00     0.059 A 
ATOM     68  F   UNL A   1      40.034  32.171  37.140  1.00  0.00    -0.206 F 
ATOM     69  C   UNL A   1      41.597  35.336  37.913  1.00  0.00     0.060 A 
BRANCH  69  70
ATOM     70  S   UNL A   1      41.684  36.531  39.260  1.00  0.00     0.124 S 
ATOM     71  O   UNL A   1      40.679  37.505  38.851  1.00  0.00    -0.237 OA
ATOM     72  O   UNL A   1      41.347  35.717  40.423  1.00  0.00    -0.237 OA
ATOM     73  O   UNL A   1      43.068  36.994  39.208  1.00  0.00    -0.744 OA
ENDBRANCH  69  70
ENDBRANCH  37  62
ENDBRANCH  11  12
ENDBRANCH   4   6
ENDBRANCH   3   4
ENDBRANCH   2   3
ENDBRANCH   1   2
BRANCH   1  74
ATOM     74  O   UNL A   1      35.580  22.365  24.176  1.00  0.00    -0.458 OA
BRANCH  74  75
ATOM     75  C   UNL A   1      35.153  21.833  25.340  1.00  0.00     0.338 C 
ATOM     76  O   UNL A   1      35.853  21.102  26.049  1.00  0.00    -0.246 OA
BRANCH  75  77
ATOM     77  C   UNL A   1      33.764  22.202  25.733  1.00  0.00     0.067 A 
ATOM     78  C   UNL A   1      33.618  23.356  26.532  1.00  0.00     0.016 A 
ATOM     79  C   UNL A   1      32.633  21.404  25.478  1.00  0.00    -0.003 A 
ATOM     80  C   UNL A   1      32.377  23.774  27.010  1.00  0.00     0.001 A 
ATOM     81  C   UNL A   1      31.390  21.810  26.029  1.00  0.00     0.009 A 
ATOM     82  C   UNL A   1      31.257  22.997  26.758  1.00  0.00     0.001 A 
BRANCH  79  83
ATOM     83  C   UNL A   1      32.658  20.191  24.654  1.00  0.00    -0.005 A 
ATOM     84  C   UNL A   1      32.950  18.963  25.303  1.00  0.00     0.009 A 
ATOM     85  C   UNL A   1      32.399  20.168  23.273  1.00  0.00     0.047 A 
ATOM     86  C   UNL A   1      33.043  17.756  24.621  1.00  0.00     0.001 A 
ATOM     87  C   UNL A   1      32.508  18.933  22.592  1.00  0.00     0.014 A 
ATOM     88  C   UNL A   1      32.838  17.743  23.255  1.00  0.00     0.001 A 
BRANCH  85  89
ATOM     89  C   UNL A   1      31.845  21.323  22.478  1.00  0.00     0.254 C 
ATOM     90  O   UNL A   1      31.015  21.086  21.597  1.00  0.00    -0.269 OA
ATOM     91  N   UNL A   1      32.132  22.640  22.856  1.00  0.00    -0.327 N 
ATOM     92  C   UNL A   1      30.997  23.545  22.921  1.00  0.00     0.181 C 
ATOM     93  C   UNL A   1      33.328  23.286  22.323  1.00  0.00     0.181 C 
ATOM     94  C   UNL A   1      31.296  24.842  23.700  1.00  0.00     0.284 C 
ATOM     95  C   UNL A   1      33.626  24.696  22.917  1.00  0.00     0.284 C 
ATOM     96  N   UNL A   1      32.516  25.569  23.329  1.00  0.00    -0.328 N 
ATOM     97  H   UNL A   1      32.874  25.963  24.199  1.00  0.00     0.348 HD
BRANCH  96  98
ATOM     98  C   UNL A   1      32.296  26.797  22.559  1.00  0.00     0.299 C 
BRANCH  98  99
ATOM     99  C   UNL A   1      31.193  27.645  23.157  1.00  0.00     0.010 A 
ATOM    100  C   UNL A   1      31.504  28.474  24.257  1.00  0.00     0.013 A 
ATOM    101  C   UNL A   1      30.038  27.879  22.388  1.00  0.00     0.060 A 
ATOM    102  C   UNL A   1      30.812  29.667  24.453  1.00  0.00     0.051 A 
ATOM    103  C   UNL A   1      29.434  29.101  22.555  1.00  0.00     0.166 A 
ATOM    104  C   UNL A   1      29.835  29.984  23.534  1.00  0.00     0.165 A 
ATOM    105  O   UNL A   1      28.600  29.685  21.646  1.00  0.00    -0.454 OA
ATOM    106  O   UNL A   1      29.290  31.220  23.353  1.00  0.00    -0.454 OA
ATOM    107  C   UNL A   1      28.800  31.070  22.003  1.00  0.00     0.468 C 
ENDBRANCH  98  99
ENDBRANCH  96  98
ENDBRANCH  85  89
ENDBRANCH  79  83
ENDBRANCH  75  77
ENDBRANCH  74  75
ENDBRANCH   1  74
TORSDOF 18
ENDMDL
MODEL 3
REMARK VINA RESULT:     -12.6      5.944     10.142
REMARK SMILES O=C(OCCOC(=O)c1ccccc1-c1ccccc1C(=O)N1CC[NH+](Cc2ccc3c(c2)OCO3)CC1)c1ccc(-c2c3nc(c(-c4c(F)cc(S(=O)(=O)[O-])cc4F)c4ccc([nH]4)c(-c4c(F)cc(S(=O)(=O)[O-])cc4F)c4nc(c(-c5c(F)cc(S(=O)(=O)[O-])cc5F)c5ccc2[nH]5)C=C4)C=C3)cc1
REMARK SMILES IDX 5 1 4 2 3 3 2 4 1 5 39 6 40 7 104 8 41 9 103 10 42 11 43 12
REMARK SMILES IDX 44 13 97 14 45 15 102 16 96 17 98 18 46 19 101 20 95 21
REMARK SMILES IDX 94 22 47 24 81 25 60 26 80 27 61 28 64 29 79 30 99 31 62 32
REMARK SMILES IDX 63 33 78 35 100 36 65 37 48 38 49 39 58 40 50 41 51 42 57 43
REMARK SMILES IDX 59 44 52 45 53 46 54 47 55 48 56 49 82 50 83 51 92 52 84 53
REMARK SMILES IDX 85 54 91 55 93 56 86 57 87 58 88 59 89 60 90 61 66 62 67 63
REMARK SMILES IDX 76 64 68 65 69 66 75 67 77 68 70 69 71 70 72 71 73 72 74 73
REMARK SMILES IDX 6 74 7 75 8 76 9 77 10 78 14 79 11 80 13 81 12 82 15 83
REMARK SMILES IDX 16 84 20 85 17 86 19 87 18 88 21 89 22 90 23 91 24 92 38 93
REMARK SMILES IDX 25 94 37 95 26 96 27 98 28 99 29 100 33 101 30 102 32 103
REMARK SMILES IDX 31 104 34 105 36 106 35 107
REMARK H PARENT 98 23 64 34 26 97
REMARK Flexibility Score: inf
ROOT
ATOM      1  C   UNL A   1      37.748  20.946  25.030  1.00  0.00     0.275 C 
ENDROOT
BRANCH   1   2
ATOM      2  C   UNL A   1      38.932  20.975  26.004  1.00  0.00     0.275 C 
BRANCH   2   3
ATOM      3  O   UNL A   1      39.944  19.958  25.841  1.00  0.00    -0.458 OA
BRANCH   3   4
ATOM      4  C   UNL A   1      41.282  20.006  26.060  1.00  0.00     0.338 C 
ATOM      5  O   UNL A   1      41.949  18.975  26.013  1.00  0.00    -0.246 OA
BRANCH   4   6
ATOM      6  C   UNL A   1      41.955  21.259  26.500  1.00  0.00     0.060 A 
ATOM      7  C   UNL A   1      42.292  21.547  27.821  1.00  0.00     0.016 A 
ATOM      8  C   UNL A   1      42.279  22.198  25.504  1.00  0.00     0.016 A 
ATOM      9  C   UNL A   1      43.049  22.678  28.133  1.00  0.00     0.010 A 
ATOM     10  C   UNL A   1      43.011  23.351  25.816  1.00  0.00     0.010 A 
ATOM     11  C   UNL A   1      43.407  23.593  27.136  1.00  0.00    -0.014 A 
BRANCH  11  12
ATOM     12  C   UNL A   1      43.905  24.923  27.575  1.00  0.00     0.031 A 
ATOM     13  C   UNL A   1      45.329  25.206  27.283  1.00  0.00     0.074 A 
ATOM     14  C   UNL A   1      43.106  25.880  28.083  1.00  0.00     0.049 A 
ATOM     15  N   UNL A   1      45.946  26.349  27.312  1.00  0.00    -0.248 NA
ATOM     16  C   UNL A   1      46.165  24.054  26.907  1.00  0.00     0.031 C 
ATOM     17  C   UNL A   1      41.738  25.630  28.448  1.00  0.00     0.029 A 
ATOM     18  N   UNL A   1      43.259  27.213  28.360  1.00  0.00    -0.354 N 
ATOM     19  C   UNL A   1      47.244  26.057  26.944  1.00  0.00     0.074 A 
ATOM     20  C   UNL A   1      47.342  24.628  26.754  1.00  0.00     0.031 C 
ATOM     21  C   UNL A   1      41.126  26.756  28.841  1.00  0.00     0.029 A 
ATOM     22  C   UNL A   1      42.082  27.838  28.742  1.00  0.00     0.049 A 
ATOM     23  H   UNL A   1      44.122  27.681  28.294  1.00  0.00     0.167 HD
ATOM     24  C   UNL A   1      48.260  26.925  26.765  1.00  0.00     0.037 A 
ATOM     25  C   UNL A   1      41.800  29.142  28.936  1.00  0.00     0.037 A 
ATOM     26  C   UNL A   1      48.129  28.328  27.022  1.00  0.00     0.049 A 
ATOM     27  C   UNL A   1      42.942  30.091  28.712  1.00  0.00     0.074 A 
ATOM     28  C   UNL A   1      49.094  29.310  26.971  1.00  0.00     0.029 A 
ATOM     29  N   UNL A   1      46.938  28.941  27.404  1.00  0.00    -0.354 N 
ATOM     30  N   UNL A   1      44.162  29.808  28.315  1.00  0.00    -0.248 NA
ATOM     31  C   UNL A   1      42.697  31.515  28.959  1.00  0.00     0.031 C 
ATOM     32  C   UNL A   1      48.492  30.516  27.353  1.00  0.00     0.029 A 
ATOM     33  C   UNL A   1      47.143  30.293  27.599  1.00  0.00     0.049 A 
ATOM     34  H   UNL A   1      46.076  28.479  27.519  1.00  0.00     0.167 HD
ATOM     35  C   UNL A   1      44.835  31.014  28.267  1.00  0.00     0.074 A 
ATOM     36  C   UNL A   1      43.871  32.038  28.635  1.00  0.00     0.031 C 
ATOM     37  C   UNL A   1      46.134  31.259  27.967  1.00  0.00     0.037 A 
BRANCH  24  38
ATOM     38  C   UNL A   1      49.554  26.303  26.351  1.00  0.00     0.058 A 
ATOM     39  C   UNL A   1      50.480  25.846  27.308  1.00  0.00     0.135 A 
ATOM     40  C   UNL A   1      49.961  26.361  25.011  1.00  0.00     0.135 A 
ATOM     41  F   UNL A   1      50.156  25.838  28.611  1.00  0.00    -0.206 F 
ATOM     42  C   UNL A   1      51.785  25.526  26.954  1.00  0.00     0.059 A 
ATOM     43  C   UNL A   1      51.255  26.019  24.633  1.00  0.00     0.059 A 
ATOM     44  F   UNL A   1      49.126  26.829  24.070  1.00  0.00    -0.206 F 
ATOM     45  C   UNL A   1      52.167  25.633  25.616  1.00  0.00     0.060 A 
BRANCH  45  46
ATOM     46  S   UNL A   1      53.883  25.297  25.177  1.00  0.00     0.124 S 
ATOM     47  O   UNL A   1      53.906  25.692  23.772  1.00  0.00    -0.237 OA
ATOM     48  O   UNL A   1      54.617  26.165  26.092  1.00  0.00    -0.237 OA
ATOM     49  O   UNL A   1      54.022  23.866  25.430  1.00  0.00    -0.744 OA
ENDBRANCH  45  46
ENDBRANCH  24  38
BRANCH  25  50
ATOM     50  C   UNL A   1      40.428  29.627  29.289  1.00  0.00     0.058 A 
ATOM     51  C   UNL A   1      39.413  29.712  28.318  1.00  0.00     0.135 A 
ATOM     52  C   UNL A   1      40.094  30.036  30.591  1.00  0.00     0.135 A 
ATOM     53  F   UNL A   1      39.662  29.329  27.056  1.00  0.00    -0.206 F 
ATOM     54  C   UNL A   1      38.144  30.211  28.611  1.00  0.00     0.059 A 
ATOM     55  C   UNL A   1      38.823  30.519  30.916  1.00  0.00     0.059 A 
ATOM     56  F   UNL A   1      41.003  29.959  31.574  1.00  0.00    -0.206 F 
ATOM     57  C   UNL A   1      37.859  30.620  29.914  1.00  0.00     0.060 A 
BRANCH  57  58
ATOM     58  S   UNL A   1      36.207  31.256  30.291  1.00  0.00     0.124 S 
ATOM     59  O   UNL A   1      35.442  30.788  29.140  1.00  0.00    -0.237 OA
ATOM     60  O   UNL A   1      35.907  30.605  31.562  1.00  0.00    -0.237 OA
ATOM     61  O   UNL A   1      36.413  32.699  30.368  1.00  0.00    -0.744 OA
ENDBRANCH  57  58
ENDBRANCH  25  50
BRANCH  37  62
ATOM     62  C   UNL A   1      46.564  32.688  28.028  1.00  0.00     0.058 A 
ATOM     63  C   UNL A   1      46.358  33.555  26.945  1.00  0.00     0.135 A 
ATOM     64  C   UNL A   1      47.123  33.203  29.205  1.00  0.00     0.135 A 
ATOM     65  F   UNL A   1      45.835  33.094  25.797  1.00  0.00    -0.206 F 
ATOM     66  C   UNL A   1      46.706  34.895  27.025  1.00  0.00     0.059 A 
ATOM     67  C   UNL A   1      47.455  34.545  29.315  1.00  0.00     0.059 A 
ATOM     68  F   UNL A   1      47.331  32.403  30.263  1.00  0.00    -0.206 F 
ATOM     69  C   UNL A   1      47.249  35.380  28.217  1.00  0.00     0.060 A 
BRANCH  69  70
ATOM     70  S   UNL A   1      47.643  37.135  28.331  1.00  0.00     0.124 S 
ATOM     71  O   UNL A   1      48.847  37.111  29.153  1.00  0.00    -0.237 OA
ATOM     72  O   UNL A   1      47.833  37.505  26.932  1.00  0.00    -0.237 OA
ATOM     73  O   UNL A   1      46.458  37.704  28.966  1.00  0.00    -0.744 OA
ENDBRANCH  69  70
ENDBRANCH  37  62
ENDBRANCH  11  12
ENDBRANCH   4   6
ENDBRANCH   3   4
ENDBRANCH   2   3
ENDBRANCH   1   2
BRANCH   1  74
ATOM     74  O   UNL A   1      36.454  21.232  25.587  1.00  0.00    -0.458 OA
BRANCH  74  75
ATOM     75  C   UNL A   1      35.647  21.955  24.782  1.00  0.00     0.338 C 
ATOM     76  O   UNL A   1      35.929  22.231  23.610  1.00  0.00    -0.246 OA
BRANCH  75  77
ATOM     77  C   UNL A   1      34.364  22.392  25.399  1.00  0.00     0.067 A 
ATOM     78  C   UNL A   1      34.390  23.601  26.128  1.00  0.00     0.016 A 
ATOM     79  C   UNL A   1      33.192  21.613  25.417  1.00  0.00    -0.003 A 
ATOM     80  C   UNL A   1      33.269  24.086  26.798  1.00  0.00     0.001 A 
ATOM     81  C   UNL A   1      32.081  22.093  26.160  1.00  0.00     0.009 A 
ATOM     82  C   UNL A   1      32.108  23.329  26.814  1.00  0.00     0.001 A 
BRANCH  79  83
ATOM     83  C   UNL A   1      33.040  20.348  24.691  1.00  0.00    -0.005 A 
ATOM     84  C   UNL A   1      33.381  19.154  25.375  1.00  0.00     0.009 A 
ATOM     85  C   UNL A   1      32.567  20.246  23.371  1.00  0.00     0.047 A 
ATOM     86  C   UNL A   1      33.320  17.900  24.779  1.00  0.00     0.001 A 
ATOM     87  C   UNL A   1      32.520  18.964  22.775  1.00  0.00     0.014 A 
ATOM     88  C   UNL A   1      32.903  17.806  23.465  1.00  0.00     0.001 A 
BRANCH  85  89
ATOM     89  C   UNL A   1      31.940  21.371  22.588  1.00  0.00     0.254 C 
ATOM     90  O   UNL A   1      30.988  21.113  21.847  1.00  0.00    -0.269 OA
ATOM     91  N   UNL A   1      32.315  22.696  22.836  1.00  0.00    -0.327 N 
ATOM     92  C   UNL A   1      31.227  23.645  22.999  1.00  0.00     0.181 C 
ATOM     93  C   UNL A   1      33.442  23.264  22.102  1.00  0.00     0.181 C 
ATOM     94  C   UNL A   1      31.670  24.975  23.644  1.00  0.00     0.284 C 
ATOM     95  C   UNL A   1      33.862  24.695  22.557  1.00  0.00     0.284 C 
ATOM     96  N   UNL A   1      32.847  25.632  23.061  1.00  0.00    -0.328 N 
ATOM     97  H   UNL A   1      33.334  26.064  23.846  1.00  0.00     0.348 HD
BRANCH  96  98
ATOM     98  C   UNL A   1      32.556  26.819  22.252  1.00  0.00     0.299 C 
BRANCH  98  99
ATOM     99  C   UNL A   1      32.489  28.074  23.097  1.00  0.00     0.010 A 
ATOM    100  C   UNL A   1      31.231  28.680  23.303  1.00  0.00     0.013 A 
ATOM    101  C   UNL A   1      33.572  28.366  23.948  1.00  0.00     0.060 A 
ATOM    102  C   UNL A   1      30.975  29.382  24.479  1.00  0.00     0.051 A 
ATOM    103  C   UNL A   1      33.264  28.987  25.133  1.00  0.00     0.166 A 
ATOM    104  C   UNL A   1      31.993  29.448  25.405  1.00  0.00     0.165 A 
ATOM    105  O   UNL A   1      34.055  28.975  26.244  1.00  0.00    -0.454 OA
ATOM    106  O   UNL A   1      31.849  29.783  26.717  1.00  0.00    -0.454 OA
ATOM    107  C   UNL A   1      33.041  29.171  27.254  1.00  0.00     0.468 C 
ENDBRANCH  98  99
ENDBRANCH  96  98
ENDBRANCH  85  89
ENDBRANCH  79  83
ENDBRANCH  75  77
ENDBRANCH  74  75
ENDBRANCH   1  74
TORSDOF 18
ENDMDL
