MODEL 1
REMARK VINA RESULT:     -10.9      0.000      0.000
REMARK SMILES CCC[C@]1(C(=O)NC[C@@H]2CC[C@H](C(=O)OCCOC(=O)c3ccc(-c4c5nc(c(-c6c(F)cc(S(=O)(=O)[O-])cc6F)c6ccc([nH]6)c(-c6c(F)cc(S(=O)(=O)[O-])cc6F)c6nc(c(-c7c(F)cc(S(=O)(=O)[O-])cc7F)c7ccc4[nH]7)C=C6)C=C5)cc3)O2)CCC[NH2+]C1
REMARK SMILES IDX 16 1 15 2 13 3 14 4 12 5 9 6 10 7 87 8 11 9 8 10 7 11 5 12
REMARK SMILES IDX 6 13 4 15 88 16 92 17 89 18 91 19 90 20 3 23 2 24 1 25 17 26
REMARK SMILES IDX 18 27 19 28 20 29 21 30 22 31 86 32 23 33 85 34 24 35 25 36
REMARK SMILES IDX 26 37 79 38 27 39 84 40 78 41 80 42 28 43 83 44 77 45 76 46
REMARK SMILES IDX 29 48 63 49 42 50 62 51 43 52 46 53 61 54 81 55 44 56 45 57
REMARK SMILES IDX 60 59 82 60 47 61 30 62 31 63 40 64 32 65 33 66 39 67 41 68
REMARK SMILES IDX 34 69 35 70 36 71 37 72 38 73 64 74 65 75 74 76 66 77 67 78
REMARK SMILES IDX 73 79 75 80 68 81 69 82 70 83 71 84 72 85 48 86 49 87 58 88
REMARK SMILES IDX 50 89 51 90 57 91 59 92 52 93 53 94 54 95 55 96 56 97
REMARK H PARENT 7 14 91 21 91 22 80 47 46 58
REMARK Flexibility Score: inf
ROOT
ATOM      1  C   UNL A   1      33.899  32.270  28.059  1.00  0.00     0.274 C 
ENDROOT
BRANCH   1   2
ATOM      2  O   UNL A   1      34.394  31.242  27.178  1.00  0.00    -0.460 OA
BRANCH   2   3
ATOM      3  C   UNL A   1      33.877  29.999  27.369  1.00  0.00     0.335 C 
ATOM      4  O   UNL A   1      34.534  29.018  27.702  1.00  0.00    -0.249 OA
BRANCH   3   5
ATOM      5  C   UNL A   1      32.360  29.937  27.138  1.00  0.00     0.228 C 
ATOM      6  C   UNL A   1      31.579  27.871  26.405  1.00  0.00     0.138 C 
ATOM      7  C   UNL A   1      31.837  28.729  25.172  1.00  0.00     0.037 C 
ATOM      8  O   UNL A   1      31.853  28.671  27.565  1.00  0.00    -0.361 OA
ATOM      9  C   UNL A   1      31.855  30.133  25.723  1.00  0.00     0.047 C 
BRANCH   6  10
ATOM     10  C   UNL A   1      32.378  26.563  26.505  1.00  0.00     0.147 C 
BRANCH  10  11
ATOM     11  N   UNL A   1      31.598  25.416  26.965  1.00  0.00    -0.353 N 
ATOM     12  C   UNL A   1      31.529  24.104  26.630  1.00  0.00     0.232 C 
ATOM     13  O   UNL A   1      30.690  23.472  27.286  1.00  0.00    -0.274 OA
ATOM     14  H   UNL A   1      30.975  25.652  27.690  1.00  0.00     0.163 HD
BRANCH  12  15
ATOM     15  C   UNL A   1      32.381  23.423  25.520  1.00  0.00     0.098 C 
ATOM     16  C   UNL A   1      31.829  21.987  25.327  1.00  0.00     0.028 C 
ATOM     17  C   UNL A   1      32.289  24.228  24.204  1.00  0.00     0.277 C 
ATOM     18  C   UNL A   1      32.325  21.317  24.052  1.00  0.00     0.063 C 
ATOM     19  N   UNL A   1      32.778  23.516  23.017  1.00  0.00    -0.345 N 
ATOM     20  C   UNL A   1      32.117  22.222  22.843  1.00  0.00     0.260 C 
ATOM     21  H   UNL A   1      32.600  24.090  22.192  1.00  0.00     0.346 HD
ATOM     22  H   UNL A   1      33.776  23.347  23.138  1.00  0.00     0.346 HD
BRANCH  15  23
ATOM     23  C   UNL A   1      33.866  23.346  26.066  1.00  0.00     0.022 C 
BRANCH  23  24
ATOM     24  C   UNL A   1      34.969  24.283  25.550  1.00  0.00    -0.002 C 
ATOM     25  C   UNL A   1      36.098  23.569  24.812  1.00  0.00     0.004 C 
ENDBRANCH  23  24
ENDBRANCH  15  23
ENDBRANCH  12  15
ENDBRANCH  10  11
ENDBRANCH   6  10
ENDBRANCH   3   5
ENDBRANCH   2   3
ENDBRANCH   1   2
BRANCH   1  26
ATOM     26  C   UNL A   1      34.650  32.249  29.392  1.00  0.00     0.275 C 
BRANCH  26  27
ATOM     27  O   UNL A   1      36.009  31.797  29.236  1.00  0.00    -0.458 OA
BRANCH  27  28
ATOM     28  C   UNL A   1      36.469  31.002  30.231  1.00  0.00     0.338 C 
ATOM     29  O   UNL A   1      35.910  30.729  31.280  1.00  0.00    -0.246 OA
BRANCH  28  30
ATOM     30  C   UNL A   1      37.740  30.384  29.831  1.00  0.00     0.060 A 
ATOM     31  C   UNL A   1      38.661  30.062  30.828  1.00  0.00     0.016 A 
ATOM     32  C   UNL A   1      38.076  30.246  28.486  1.00  0.00     0.016 A 
ATOM     33  C   UNL A   1      39.944  29.648  30.489  1.00  0.00     0.010 A 
ATOM     34  C   UNL A   1      39.353  29.784  28.144  1.00  0.00     0.010 A 
ATOM     35  C   UNL A   1      40.302  29.504  29.143  1.00  0.00    -0.014 A 
BRANCH  35  36
ATOM     36  C   UNL A   1      41.681  29.084  28.796  1.00  0.00     0.031 A 
ATOM     37  C   UNL A   1      42.802  30.086  28.822  1.00  0.00     0.074 A 
ATOM     38  C   UNL A   1      41.926  27.798  28.479  1.00  0.00     0.049 A 
ATOM     39  N   UNL A   1      44.044  29.942  28.440  1.00  0.00    -0.248 NA
ATOM     40  C   UNL A   1      42.484  31.426  29.341  1.00  0.00     0.031 C 
ATOM     41  C   UNL A   1      40.927  26.726  28.458  1.00  0.00     0.029 A 
ATOM     42  N   UNL A   1      43.090  27.173  28.110  1.00  0.00    -0.354 N 
ATOM     43  C   UNL A   1      44.647  31.179  28.634  1.00  0.00     0.074 A 
ATOM     44  C   UNL A   1      43.635  32.063  29.172  1.00  0.00     0.031 C 
ATOM     45  C   UNL A   1      41.522  25.577  28.100  1.00  0.00     0.029 A 
ATOM     46  C   UNL A   1      42.929  25.841  27.815  1.00  0.00     0.049 A 
ATOM     47  H   UNL A   1      43.959  27.635  28.063  1.00  0.00     0.167 HD
ATOM     48  C   UNL A   1      45.927  31.541  28.382  1.00  0.00     0.037 A 
ATOM     49  C   UNL A   1      43.807  24.941  27.332  1.00  0.00     0.037 A 
ATOM     50  C   UNL A   1      46.938  30.645  27.888  1.00  0.00     0.049 A 
ATOM     51  C   UNL A   1      45.218  25.373  27.049  1.00  0.00     0.074 A 
ATOM     52  C   UNL A   1      48.270  30.913  27.619  1.00  0.00     0.029 A 
ATOM     53  N   UNL A   1      46.734  29.304  27.599  1.00  0.00    -0.354 N 
ATOM     54  N   UNL A   1      45.765  26.554  27.213  1.00  0.00    -0.248 NA
ATOM     55  C   UNL A   1      46.128  24.357  26.503  1.00  0.00     0.031 C 
ATOM     56  C   UNL A   1      48.865  29.739  27.144  1.00  0.00     0.029 A 
ATOM     57  C   UNL A   1      47.912  28.734  27.146  1.00  0.00     0.049 A 
ATOM     58  H   UNL A   1      45.878  28.828  27.701  1.00  0.00     0.167 HD
ATOM     59  C   UNL A   1      47.084  26.420  26.801  1.00  0.00     0.074 A 
ATOM     60  C   UNL A   1      47.259  25.040  26.395  1.00  0.00     0.031 C 
ATOM     61  C   UNL A   1      48.063  27.356  26.756  1.00  0.00     0.037 A 
BRANCH  48  62
ATOM     62  C   UNL A   1      46.308  32.975  28.612  1.00  0.00     0.058 A 
ATOM     63  C   UNL A   1      46.184  33.943  27.606  1.00  0.00     0.135 A 
ATOM     64  C   UNL A   1      46.747  33.393  29.879  1.00  0.00     0.135 A 
ATOM     65  F   UNL A   1      45.789  33.590  26.373  1.00  0.00    -0.206 F 
ATOM     66  C   UNL A   1      46.489  35.280  27.845  1.00  0.00     0.059 A 
ATOM     67  C   UNL A   1      47.040  34.726  30.145  1.00  0.00     0.059 A 
ATOM     68  F   UNL A   1      46.886  32.502  30.873  1.00  0.00    -0.206 F 
ATOM     69  C   UNL A   1      46.915  35.663  29.120  1.00  0.00     0.060 A 
BRANCH  69  70
ATOM     70  S   UNL A   1      47.280  37.403  29.427  1.00  0.00     0.124 S 
ATOM     71  O   UNL A   1      48.557  37.314  30.128  1.00  0.00    -0.237 OA
ATOM     72  O   UNL A   1      47.337  37.958  28.078  1.00  0.00    -0.237 OA
ATOM     73  O   UNL A   1      46.150  37.849  30.236  1.00  0.00    -0.744 OA
ENDBRANCH  69  70
ENDBRANCH  48  62
BRANCH  49  74
ATOM     74  C   UNL A   1      43.365  23.552  27.044  1.00  0.00     0.058 A 
ATOM     75  C   UNL A   1      43.100  23.134  25.733  1.00  0.00     0.135 A 
ATOM     76  C   UNL A   1      43.193  22.620  28.078  1.00  0.00     0.135 A 
ATOM     77  F   UNL A   1      43.243  23.993  24.713  1.00  0.00    -0.206 F 
ATOM     78  C   UNL A   1      42.661  21.842  25.456  1.00  0.00     0.059 A 
ATOM     79  C   UNL A   1      42.777  21.317  27.826  1.00  0.00     0.059 A 
ATOM     80  F   UNL A   1      43.447  22.970  29.349  1.00  0.00    -0.206 F 
ATOM     81  C   UNL A   1      42.498  20.942  26.512  1.00  0.00     0.060 A 
BRANCH  81  82
ATOM     82  S   UNL A   1      41.958  19.257  26.152  1.00  0.00     0.124 S 
ATOM     83  O   UNL A   1      42.312  18.569  27.387  1.00  0.00    -0.237 OA
ATOM     84  O   UNL A   1      40.529  19.431  25.906  1.00  0.00    -0.237 OA
ATOM     85  O   UNL A   1      42.749  18.900  24.978  1.00  0.00    -0.744 OA
ENDBRANCH  81  82
ENDBRANCH  49  74
BRANCH  61  86
ATOM     86  C   UNL A   1      49.412  26.911  26.275  1.00  0.00     0.058 A 
ATOM     87  C   UNL A   1      50.321  26.275  27.134  1.00  0.00     0.135 A 
ATOM     88  C   UNL A   1      49.781  27.083  24.932  1.00  0.00     0.135 A 
ATOM     89  F   UNL A   1      50.014  26.095  28.429  1.00  0.00    -0.206 F 
ATOM     90  C   UNL A   1      51.562  25.841  26.682  1.00  0.00     0.059 A 
ATOM     91  C   UNL A   1      51.010  26.640  24.454  1.00  0.00     0.059 A 
ATOM     92  F   UNL A   1      48.942  27.679  24.071  1.00  0.00    -0.206 F 
ATOM     93  C   UNL A   1      51.898  26.030  25.339  1.00  0.00     0.060 A 
BRANCH  93  94
ATOM     94  S   UNL A   1      53.498  25.434  24.749  1.00  0.00     0.124 S 
ATOM     95  O   UNL A   1      54.419  26.283  25.497  1.00  0.00    -0.237 OA
ATOM     96  O   UNL A   1      53.475  24.027  25.137  1.00  0.00    -0.237 OA
ATOM     97  O   UNL A   1      53.439  25.682  23.312  1.00  0.00    -0.744 OA
ENDBRANCH  93  94
ENDBRANCH  61  86
ENDBRANCH  35  36
ENDBRANCH  28  30
ENDBRANCH  27  28
ENDBRANCH  26  27
ENDBRANCH   1  26
TORSDOF 19
ENDMDL
MODEL 2
REMARK VINA RESULT:     -10.7      6.672     12.118
REMARK SMILES CCC[C@]1(C(=O)NC[C@@H]2CC[C@H](C(=O)OCCOC(=O)c3ccc(-c4c5nc(c(-c6c(F)cc(S(=O)(=O)[O-])cc6F)c6ccc([nH]6)c(-c6c(F)cc(S(=O)(=O)[O-])cc6F)c6nc(c(-c7c(F)cc(S(=O)(=O)[O-])cc7F)c7ccc4[nH]7)C=C6)C=C5)cc3)O2)CCC[NH2+]C1
REMARK SMILES IDX 16 1 15 2 13 3 14 4 12 5 9 6 10 7 87 8 11 9 8 10 7 11 5 12
REMARK SMILES IDX 6 13 4 15 88 16 92 17 89 18 91 19 90 20 3 23 2 24 1 25 17 26
REMARK SMILES IDX 18 27 19 28 20 29 21 30 22 31 86 32 23 33 85 34 24 35 25 36
REMARK SMILES IDX 26 37 79 38 27 39 84 40 78 41 80 42 28 43 83 44 77 45 76 46
REMARK SMILES IDX 29 48 63 49 42 50 62 51 43 52 46 53 61 54 81 55 44 56 45 57
REMARK SMILES IDX 60 59 82 60 47 61 30 62 31 63 40 64 32 65 33 66 39 67 41 68
REMARK SMILES IDX 34 69 35 70 36 71 37 72 38 73 64 74 65 75 74 76 66 77 67 78
REMARK SMILES IDX 73 79 75 80 68 81 69 82 70 83 71 84 72 85 48 86 49 87 58 88
REMARK SMILES IDX 50 89 51 90 57 91 59 92 52 93 53 94 54 95 55 96 56 97
REMARK H PARENT 7 14 91 21 91 22 80 47 46 58
REMARK Flexibility Score: inf
ROOT
ATOM      1  C   UNL A   1      37.853  22.188  25.304  1.00  0.00     0.274 C 
ENDROOT
BRANCH   1   2
ATOM      2  O   UNL A   1      36.715  21.831  26.113  1.00  0.00    -0.460 OA
BRANCH   2   3
ATOM      3  C   UNL A   1      35.506  22.251  25.652  1.00  0.00     0.335 C 
ATOM      4  O   UNL A   1      34.880  23.200  26.110  1.00  0.00    -0.249 OA
BRANCH   3   5
ATOM      5  C   UNL A   1      34.991  21.415  24.471  1.00  0.00     0.228 C 
ATOM      6  C   UNL A   1      32.940  22.111  23.619  1.00  0.00     0.138 C 
ATOM      7  C   UNL A   1      32.665  21.017  24.645  1.00  0.00     0.037 C 
ATOM      8  O   UNL A   1      34.362  22.266  23.509  1.00  0.00    -0.361 OA
ATOM      9  C   UNL A   1      33.994  20.314  24.769  1.00  0.00     0.047 C 
BRANCH   6  10
ATOM     10  C   UNL A   1      32.311  23.483  23.899  1.00  0.00     0.147 C 
BRANCH  10  11
ATOM     11  N   UNL A   1      31.904  23.686  25.288  1.00  0.00    -0.353 N 
ATOM     12  C   UNL A   1      31.513  24.753  26.029  1.00  0.00     0.232 C 
ATOM     13  O   UNL A   1      31.269  24.468  27.210  1.00  0.00    -0.274 OA
ATOM     14  H   UNL A   1      31.918  22.851  25.809  1.00  0.00     0.163 HD
BRANCH  12  15
ATOM     15  C   UNL A   1      31.395  26.211  25.498  1.00  0.00     0.098 C 
ATOM     16  C   UNL A   1      32.754  26.579  24.850  1.00  0.00     0.028 C 
ATOM     17  C   UNL A   1      30.248  26.315  24.468  1.00  0.00     0.277 C 
ATOM     18  C   UNL A   1      32.690  27.834  23.988  1.00  0.00     0.063 C 
ATOM     19  N   UNL A   1      30.255  27.547  23.669  1.00  0.00    -0.345 N 
ATOM     20  C   UNL A   1      31.538  27.755  22.994  1.00  0.00     0.260 C 
ATOM     21  H   UNL A   1      29.519  27.487  22.965  1.00  0.00     0.346 HD
ATOM     22  H   UNL A   1      30.100  28.334  24.299  1.00  0.00     0.346 HD
BRANCH  15  23
ATOM     23  C   UNL A   1      31.147  27.137  26.759  1.00  0.00     0.022 C 
BRANCH  23  24
ATOM     24  C   UNL A   1      32.255  28.029  27.340  1.00  0.00    -0.002 C 
ATOM     25  C   UNL A   1      32.013  29.524  27.153  1.00  0.00     0.004 C 
ENDBRANCH  23  24
ENDBRANCH  15  23
ENDBRANCH  12  15
ENDBRANCH  10  11
ENDBRANCH   6  10
ENDBRANCH   3   5
ENDBRANCH   2   3
ENDBRANCH   1   2
BRANCH   1  26
ATOM     26  C   UNL A   1      39.055  22.536  26.185  1.00  0.00     0.275 C 
BRANCH  26  27
ATOM     27  O   UNL A   1      39.111  23.944  26.487  1.00  0.00    -0.458 OA
BRANCH  27  28
ATOM     28  C   UNL A   1      40.327  24.402  26.866  1.00  0.00     0.338 C 
ATOM     29  O   UNL A   1      41.418  24.029  26.470  1.00  0.00    -0.246 OA
BRANCH  28  30
ATOM     30  C   UNL A   1      40.169  25.541  27.782  1.00  0.00     0.060 A 
ATOM     31  C   UNL A   1      41.138  26.544  27.762  1.00  0.00     0.016 A 
ATOM     32  C   UNL A   1      39.155  25.555  28.737  1.00  0.00     0.016 A 
ATOM     33  C   UNL A   1      41.132  27.543  28.729  1.00  0.00     0.010 A 
ATOM     34  C   UNL A   1      39.122  26.587  29.683  1.00  0.00     0.010 A 
ATOM     35  C   UNL A   1      40.123  27.574  29.699  1.00  0.00    -0.014 A 
BRANCH  35  36
ATOM     36  C   UNL A   1      40.142  28.631  30.738  1.00  0.00     0.031 A 
ATOM     37  C   UNL A   1      41.108  28.540  31.887  1.00  0.00     0.074 A 
ATOM     38  C   UNL A   1      39.306  29.682  30.635  1.00  0.00     0.049 A 
ATOM     39  N   UNL A   1      41.198  29.296  32.950  1.00  0.00    -0.248 NA
ATOM     40  C   UNL A   1      42.101  27.454  31.835  1.00  0.00     0.031 C 
ATOM     41  C   UNL A   1      38.351  29.901  29.545  1.00  0.00     0.029 A 
ATOM     42  N   UNL A   1      39.120  30.762  31.460  1.00  0.00    -0.354 N 
ATOM     43  C   UNL A   1      42.227  28.757  33.713  1.00  0.00     0.074 A 
ATOM     44  C   UNL A   1      42.735  27.611  32.989  1.00  0.00     0.031 C 
ATOM     45  C   UNL A   1      37.685  31.045  29.767  1.00  0.00     0.029 A 
ATOM     46  C   UNL A   1      38.126  31.612  31.038  1.00  0.00     0.049 A 
ATOM     47  H   UNL A   1      39.650  30.915  32.277  1.00  0.00     0.167 HD
ATOM     48  C   UNL A   1      42.699  29.181  34.909  1.00  0.00     0.037 A 
ATOM     49  C   UNL A   1      37.602  32.704  31.626  1.00  0.00     0.037 A 
ATOM     50  C   UNL A   1      42.217  30.348  35.601  1.00  0.00     0.049 A 
ATOM     51  C   UNL A   1      38.136  33.144  32.960  1.00  0.00     0.074 A 
ATOM     52  C   UNL A   1      42.645  30.870  36.810  1.00  0.00     0.029 A 
ATOM     53  N   UNL A   1      41.208  31.179  35.142  1.00  0.00    -0.354 N 
ATOM     54  N   UNL A   1      39.091  32.608  33.681  1.00  0.00    -0.248 NA
ATOM     55  C   UNL A   1      37.514  34.329  33.568  1.00  0.00     0.031 C 
ATOM     56  C   UNL A   1      41.878  32.005  37.092  1.00  0.00     0.029 A 
ATOM     57  C   UNL A   1      40.992  32.205  36.046  1.00  0.00     0.049 A 
ATOM     58  H   UNL A   1      40.716  31.058  34.296  1.00  0.00     0.167 HD
ATOM     59  C   UNL A   1      39.192  33.395  34.821  1.00  0.00     0.074 A 
ATOM     60  C   UNL A   1      38.212  34.455  34.688  1.00  0.00     0.031 C 
ATOM     61  C   UNL A   1      40.017  33.252  35.886  1.00  0.00     0.037 A 
BRANCH  48  62
ATOM     62  C   UNL A   1      43.779  28.369  35.564  1.00  0.00     0.058 A 
ATOM     63  C   UNL A   1      43.482  27.331  36.459  1.00  0.00     0.135 A 
ATOM     64  C   UNL A   1      45.126  28.598  35.243  1.00  0.00     0.135 A 
ATOM     65  F   UNL A   1      42.212  27.086  36.813  1.00  0.00    -0.206 F 
ATOM     66  C   UNL A   1      44.488  26.549  37.019  1.00  0.00     0.059 A 
ATOM     67  C   UNL A   1      46.146  27.818  35.777  1.00  0.00     0.059 A 
ATOM     68  F   UNL A   1      45.460  29.584  34.395  1.00  0.00    -0.206 F 
ATOM     69  C   UNL A   1      45.818  26.799  36.670  1.00  0.00     0.060 A 
BRANCH  69  70
ATOM     70  S   UNL A   1      47.111  25.760  37.381  1.00  0.00     0.124 S 
ATOM     71  O   UNL A   1      46.323  24.715  38.028  1.00  0.00    -0.237 OA
ATOM     72  O   UNL A   1      47.867  25.345  36.204  1.00  0.00    -0.237 OA
ATOM     73  O   UNL A   1      47.815  26.665  38.285  1.00  0.00    -0.744 OA
ENDBRANCH  69  70
ENDBRANCH  48  62
BRANCH  49  74
ATOM     74  C   UNL A   1      36.480  33.431  30.980  1.00  0.00     0.058 A 
ATOM     75  C   UNL A   1      35.183  33.379  31.507  1.00  0.00     0.135 A 
ATOM     76  C   UNL A   1      36.685  34.186  29.815  1.00  0.00     0.135 A 
ATOM     77  F   UNL A   1      34.938  32.663  32.615  1.00  0.00    -0.206 F 
ATOM     78  C   UNL A   1      34.121  34.036  30.893  1.00  0.00     0.059 A 
ATOM     79  C   UNL A   1      35.645  34.870  29.195  1.00  0.00     0.059 A 
ATOM     80  F   UNL A   1      37.912  34.277  29.279  1.00  0.00    -0.206 F 
ATOM     81  C   UNL A   1      34.362  34.776  29.734  1.00  0.00     0.060 A 
BRANCH  81  82
ATOM     82  S   UNL A   1      32.991  35.654  28.952  1.00  0.00     0.124 S 
ATOM     83  O   UNL A   1      32.407  34.605  28.126  1.00  0.00    -0.237 OA
ATOM     84  O   UNL A   1      32.196  36.080  30.100  1.00  0.00    -0.237 OA
ATOM     85  O   UNL A   1      33.659  36.732  28.229  1.00  0.00    -0.744 OA
ENDBRANCH  81  82
ENDBRANCH  49  74
BRANCH  61  86
ATOM     86  C   UNL A   1      39.910  34.278  36.975  1.00  0.00     0.058 A 
ATOM     87  C   UNL A   1      40.523  35.535  36.859  1.00  0.00     0.135 A 
ATOM     88  C   UNL A   1      39.151  34.017  38.127  1.00  0.00     0.135 A 
ATOM     89  F   UNL A   1      41.264  35.827  35.777  1.00  0.00    -0.206 F 
ATOM     90  C   UNL A   1      40.403  36.494  37.858  1.00  0.00     0.059 A 
ATOM     91  C   UNL A   1      39.004  34.968  39.131  1.00  0.00     0.059 A 
ATOM     92  F   UNL A   1      38.541  32.831  38.280  1.00  0.00    -0.206 F 
ATOM     93  C   UNL A   1      39.642  36.200  38.992  1.00  0.00     0.060 A 
BRANCH  93  94
ATOM     94  S   UNL A   1      39.463  37.462  40.272  1.00  0.00     0.124 S 
ATOM     95  O   UNL A   1      38.738  36.729  41.304  1.00  0.00    -0.237 OA
ATOM     96  O   UNL A   1      40.849  37.796  40.585  1.00  0.00    -0.237 OA
ATOM     97  O   UNL A   1      38.709  38.516  39.600  1.00  0.00    -0.744 OA
ENDBRANCH  93  94
ENDBRANCH  61  86
ENDBRANCH  35  36
ENDBRANCH  28  30
ENDBRANCH  27  28
ENDBRANCH  26  27
ENDBRANCH   1  26
TORSDOF 19
ENDMDL
MODEL 3
REMARK VINA RESULT:     -10.7      2.694      3.968
REMARK SMILES CCC[C@]1(C(=O)NC[C@@H]2CC[C@H](C(=O)OCCOC(=O)c3ccc(-c4c5nc(c(-c6c(F)cc(S(=O)(=O)[O-])cc6F)c6ccc([nH]6)c(-c6c(F)cc(S(=O)(=O)[O-])cc6F)c6nc(c(-c7c(F)cc(S(=O)(=O)[O-])cc7F)c7ccc4[nH]7)C=C6)C=C5)cc3)O2)CCC[NH2+]C1
REMARK SMILES IDX 16 1 15 2 13 3 14 4 12 5 9 6 10 7 87 8 11 9 8 10 7 11 5 12
REMARK SMILES IDX 6 13 4 15 88 16 92 17 89 18 91 19 90 20 3 23 2 24 1 25 17 26
REMARK SMILES IDX 18 27 19 28 20 29 21 30 22 31 86 32 23 33 85 34 24 35 25 36
REMARK SMILES IDX 26 37 79 38 27 39 84 40 78 41 80 42 28 43 83 44 77 45 76 46
REMARK SMILES IDX 29 48 63 49 42 50 62 51 43 52 46 53 61 54 81 55 44 56 45 57
REMARK SMILES IDX 60 59 82 60 47 61 30 62 31 63 40 64 32 65 33 66 39 67 41 68
REMARK SMILES IDX 34 69 35 70 36 71 37 72 38 73 64 74 65 75 74 76 66 77 67 78
REMARK SMILES IDX 73 79 75 80 68 81 69 82 70 83 71 84 72 85 48 86 49 87 58 88
REMARK SMILES IDX 50 89 51 90 57 91 59 92 52 93 53 94 54 95 55 96 56 97
REMARK H PARENT 7 14 91 21 91 22 80 47 46 58
REMARK Flexibility Score: inf
ROOT
ATOM      1  C   UNL A   1      31.608  28.815  26.241  1.00  0.00     0.274 C 
ENDROOT
BRANCH   1   2
ATOM      2  O   UNL A   1      31.312  27.639  25.461  1.00  0.00    -0.460 OA
BRANCH   2   3
ATOM      3  C   UNL A   1      30.865  27.865  24.196  1.00  0.00     0.335 C 
ATOM      4  O   UNL A   1      30.429  28.939  23.795  1.00  0.00    -0.249 OA
BRANCH   3   5
ATOM      5  C   UNL A   1      30.972  26.628  23.293  1.00  0.00     0.228 C 
ATOM      6  C   UNL A   1      33.014  25.518  23.414  1.00  0.00     0.138 C 
ATOM      7  C   UNL A   1      33.092  26.501  22.251  1.00  0.00     0.037 C 
ATOM      8  O   UNL A   1      31.692  25.593  23.967  1.00  0.00    -0.361 OA
ATOM      9  C   UNL A   1      31.645  26.794  21.946  1.00  0.00     0.047 C 
BRANCH   6  10
ATOM     10  C   UNL A   1      34.036  25.715  24.544  1.00  0.00     0.147 C 
BRANCH  10  11
ATOM     11  N   UNL A   1      33.791  24.890  25.726  1.00  0.00    -0.353 N 
ATOM     12  C   UNL A   1      34.025  23.597  26.061  1.00  0.00     0.232 C 
ATOM     13  O   UNL A   1      33.627  23.304  27.196  1.00  0.00    -0.274 OA
ATOM     14  H   UNL A   1      33.352  25.393  26.449  1.00  0.00     0.163 HD
BRANCH  12  15
ATOM     15  C   UNL A   1      34.698  22.545  25.133  1.00  0.00     0.098 C 
ATOM     16  C   UNL A   1      35.897  23.240  24.437  1.00  0.00     0.028 C 
ATOM     17  C   UNL A   1      35.172  21.328  25.958  1.00  0.00     0.277 C 
ATOM     18  C   UNL A   1      36.855  22.261  23.769  1.00  0.00     0.063 C 
ATOM     19  N   UNL A   1      36.098  20.434  25.252  1.00  0.00    -0.345 N 
ATOM     20  C   UNL A   1      37.262  21.152  24.731  1.00  0.00     0.260 C 
ATOM     21  H   UNL A   1      36.419  19.713  25.900  1.00  0.00     0.346 HD
ATOM     22  H   UNL A   1      35.601  20.023  24.462  1.00  0.00     0.346 HD
BRANCH  15  23
ATOM     23  C   UNL A   1      33.621  22.141  24.044  1.00  0.00     0.022 C 
BRANCH  23  24
ATOM     24  C   UNL A   1      32.442  21.215  24.376  1.00  0.00    -0.002 C 
ATOM     25  C   UNL A   1      32.638  19.770  23.922  1.00  0.00     0.004 C 
ENDBRANCH  23  24
ENDBRANCH  15  23
ENDBRANCH  12  15
ENDBRANCH  10  11
ENDBRANCH   6  10
ENDBRANCH   3   5
ENDBRANCH   2   3
ENDBRANCH   1   2
BRANCH   1  26
ATOM     26  C   UNL A   1      32.440  28.452  27.474  1.00  0.00     0.275 C 
BRANCH  26  27
ATOM     27  O   UNL A   1      33.844  28.696  27.265  1.00  0.00    -0.458 OA
BRANCH  27  28
ATOM     28  C   UNL A   1      34.288  29.900  27.695  1.00  0.00     0.338 C 
ATOM     29  O   UNL A   1      33.640  30.925  27.829  1.00  0.00    -0.246 OA
BRANCH  28  30
ATOM     30  C   UNL A   1      35.694  29.797  28.109  1.00  0.00     0.060 A 
ATOM     31  C   UNL A   1      36.683  30.032  27.153  1.00  0.00     0.016 A 
ATOM     32  C   UNL A   1      36.033  29.346  29.383  1.00  0.00     0.016 A 
ATOM     33  C   UNL A   1      38.016  29.769  27.447  1.00  0.00     0.010 A 
ATOM     34  C   UNL A   1      37.380  29.125  29.693  1.00  0.00     0.010 A 
ATOM     35  C   UNL A   1      38.378  29.314  28.720  1.00  0.00    -0.014 A 
BRANCH  35  36
ATOM     36  C   UNL A   1      39.800  29.015  29.012  1.00  0.00     0.031 A 
ATOM     37  C   UNL A   1      40.674  30.063  29.645  1.00  0.00     0.074 A 
ATOM     38  C   UNL A   1      40.297  27.796  28.729  1.00  0.00     0.049 A 
ATOM     39  N   UNL A   1      41.962  30.035  29.869  1.00  0.00    -0.248 NA
ATOM     40  C   UNL A   1      40.015  31.305  30.078  1.00  0.00     0.031 C 
ATOM     41  C   UNL A   1      39.536  26.685  28.151  1.00  0.00     0.029 A 
ATOM     42  N   UNL A   1      41.561  27.286  28.884  1.00  0.00    -0.354 N 
ATOM     43  C   UNL A   1      42.276  31.266  30.432  1.00  0.00     0.074 A 
ATOM     44  C   UNL A   1      41.042  32.019  30.519  1.00  0.00     0.031 C 
ATOM     45  C   UNL A   1      40.348  25.625  28.005  1.00  0.00     0.029 A 
ATOM     46  C   UNL A   1      41.694  25.997  28.428  1.00  0.00     0.049 A 
ATOM     47  H   UNL A   1      42.303  27.795  29.286  1.00  0.00     0.167 HD
ATOM     48  C   UNL A   1      43.485  31.725  30.834  1.00  0.00     0.037 A 
ATOM     49  C   UNL A   1      42.785  25.214  28.326  1.00  0.00     0.037 A 
ATOM     50  C   UNL A   1      44.699  30.954  30.784  1.00  0.00     0.049 A 
ATOM     51  C   UNL A   1      44.117  25.753  28.767  1.00  0.00     0.074 A 
ATOM     52  C   UNL A   1      45.971  31.324  31.186  1.00  0.00     0.029 A 
ATOM     53  N   UNL A   1      44.792  29.654  30.312  1.00  0.00    -0.354 N 
ATOM     54  N   UNL A   1      44.401  26.930  29.273  1.00  0.00    -0.248 NA
ATOM     55  C   UNL A   1      45.278  24.866  28.614  1.00  0.00     0.031 C 
ATOM     56  C   UNL A   1      46.838  30.255  30.936  1.00  0.00     0.029 A 
ATOM     57  C   UNL A   1      46.100  29.210  30.405  1.00  0.00     0.049 A 
ATOM     58  H   UNL A   1      44.039  29.124  29.963  1.00  0.00     0.167 HD
ATOM     59  C   UNL A   1      45.770  26.920  29.507  1.00  0.00     0.074 A 
ATOM     60  C   UNL A   1      46.255  25.615  29.104  1.00  0.00     0.031 C 
ATOM     61  C   UNL A   1      46.557  27.904  30.006  1.00  0.00     0.037 A 
BRANCH  48  62
ATOM     62  C   UNL A   1      43.566  33.134  31.344  1.00  0.00     0.058 A 
ATOM     63  C   UNL A   1      43.518  33.428  32.714  1.00  0.00     0.135 A 
ATOM     64  C   UNL A   1      43.755  34.199  30.448  1.00  0.00     0.135 A 
ATOM     65  F   UNL A   1      43.319  32.448  33.609  1.00  0.00    -0.206 F 
ATOM     66  C   UNL A   1      43.649  34.733  33.180  1.00  0.00     0.059 A 
ATOM     67  C   UNL A   1      43.905  35.508  30.892  1.00  0.00     0.059 A 
ATOM     68  F   UNL A   1      43.802  33.969  29.126  1.00  0.00    -0.206 F 
ATOM     69  C   UNL A   1      43.844  35.767  32.261  1.00  0.00     0.060 A 
BRANCH  69  70
ATOM     70  S   UNL A   1      44.041  37.452  32.878  1.00  0.00     0.124 S 
ATOM     71  O   UNL A   1      42.944  37.540  33.837  1.00  0.00    -0.237 OA
ATOM     72  O   UNL A   1      45.382  37.424  33.452  1.00  0.00    -0.237 OA
ATOM     73  O   UNL A   1      43.893  38.271  31.679  1.00  0.00    -0.744 OA
ENDBRANCH  69  70
ENDBRANCH  48  62
BRANCH  49  74
ATOM     74  C   UNL A   1      42.673  23.854  27.741  1.00  0.00     0.058 A 
ATOM     75  C   UNL A   1      42.513  22.725  28.555  1.00  0.00     0.135 A 
ATOM     76  C   UNL A   1      42.731  23.658  26.352  1.00  0.00     0.135 A 
ATOM     77  F   UNL A   1      42.460  22.863  29.889  1.00  0.00    -0.206 F 
ATOM     78  C   UNL A   1      42.433  21.445  28.017  1.00  0.00     0.059 A 
ATOM     79  C   UNL A   1      42.631  22.391  25.788  1.00  0.00     0.059 A 
ATOM     80  F   UNL A   1      42.870  24.710  25.530  1.00  0.00    -0.206 F 
ATOM     81  C   UNL A   1      42.498  21.288  26.631  1.00  0.00     0.060 A 
BRANCH  81  82
ATOM     82  S   UNL A   1      42.363  19.630  25.928  1.00  0.00     0.124 S 
ATOM     83  O   UNL A   1      43.376  19.676  24.881  1.00  0.00    -0.237 OA
ATOM     84  O   UNL A   1      42.668  18.778  27.074  1.00  0.00    -0.237 OA
ATOM     85  O   UNL A   1      40.978  19.577  25.469  1.00  0.00    -0.744 OA
ENDBRANCH  81  82
ENDBRANCH  49  74
BRANCH  61  86
ATOM     86  C   UNL A   1      48.016  27.596  30.164  1.00  0.00     0.058 A 
ATOM     87  C   UNL A   1      48.533  27.107  31.373  1.00  0.00     0.135 A 
ATOM     88  C   UNL A   1      48.898  27.752  29.083  1.00  0.00     0.135 A 
ATOM     89  F   UNL A   1      47.728  26.948  32.437  1.00  0.00    -0.206 F 
ATOM     90  C   UNL A   1      49.881  26.799  31.512  1.00  0.00     0.059 A 
ATOM     91  C   UNL A   1      50.248  27.433  29.195  1.00  0.00     0.059 A 
ATOM     92  F   UNL A   1      48.449  28.210  27.904  1.00  0.00    -0.206 F 
ATOM     93  C   UNL A   1      50.732  26.968  30.417  1.00  0.00     0.060 A 
BRANCH  93  94
ATOM     94  S   UNL A   1      52.476  26.535  30.593  1.00  0.00     0.124 S 
ATOM     95  O   UNL A   1      53.002  27.713  31.273  1.00  0.00    -0.237 OA
ATOM     96  O   UNL A   1      52.421  25.313  31.391  1.00  0.00    -0.237 OA
ATOM     97  O   UNL A   1      52.918  26.354  29.214  1.00  0.00    -0.744 OA
ENDBRANCH  93  94
ENDBRANCH  61  86
ENDBRANCH  35  36
ENDBRANCH  28  30
ENDBRANCH  27  28
ENDBRANCH  26  27
ENDBRANCH   1  26
TORSDOF 19
ENDMDL
