MODEL 1
REMARK VINA RESULT:     -11.3      0.000      0.000
REMARK SMILES C[C@@H]1[NH2+]CC[C@@H]1C(=O)Nc1cc(F)ccc1C(=O)OCCOC(=O)c1ccc(-c2c3nc(c(-c4c(F)cc(S(=O)(=O)[O-])cc4F)c4ccc([nH]4)c(-c4c(F)cc(S(=O)(=O)[O-])cc4F)c4nc(c(-c5c(F)cc(S(=O)(=O)[O-])cc5F)c5ccc2[nH]5)C=C4)C=C3)cc1
REMARK SMILES IDX 21 1 20 2 19 3 17 4 18 5 16 6 10 7 11 8 12 9 15 10 13 11
REMARK SMILES IDX 14 12 9 13 7 14 8 15 6 17 1 18 2 19 3 20 4 21 5 24 22 25
REMARK SMILES IDX 23 26 24 27 25 28 26 29 90 30 27 31 89 32 28 33 29 34 30 35
REMARK SMILES IDX 83 36 31 37 88 38 82 39 84 40 32 41 87 42 81 43 80 44 33 46
REMARK SMILES IDX 67 47 46 48 66 49 47 50 50 51 65 52 85 53 48 54 49 55 64 57
REMARK SMILES IDX 86 58 51 59 34 60 35 61 44 62 36 63 37 64 43 65 45 66 38 67
REMARK SMILES IDX 39 68 40 69 41 70 42 71 68 72 69 73 78 74 70 75 71 76 77 77
REMARK SMILES IDX 79 78 72 79 73 80 74 81 75 82 76 83 52 84 53 85 62 86 54 87
REMARK SMILES IDX 55 88 61 89 63 90 56 91 57 92 58 93 59 94 60 95
REMARK H PARENT 9 16 3 22 3 23 84 45 50 56
REMARK Flexibility Score: inf
ROOT
ATOM      1  C   UNL A   1      33.529  29.572  27.102  1.00  0.00     0.275 C 
ENDROOT
BRANCH   1   2
ATOM      2  C   UNL A   1      33.409  29.298  25.602  1.00  0.00     0.275 C 
BRANCH   2   3
ATOM      3  O   UNL A   1      33.763  27.930  25.299  1.00  0.00    -0.458 OA
BRANCH   3   4
ATOM      4  C   UNL A   1      32.923  27.264  24.466  1.00  0.00     0.340 C 
ATOM      5  O   UNL A   1      32.855  27.412  23.256  1.00  0.00    -0.246 OA
BRANCH   4   6
ATOM      6  C   UNL A   1      32.147  26.214  25.192  1.00  0.00     0.083 A 
ATOM      7  C   UNL A   1      32.704  25.037  25.755  1.00  0.00     0.058 A 
ATOM      8  C   UNL A   1      31.822  24.130  26.334  1.00  0.00     0.066 A 
ATOM      9  C   UNL A   1      30.454  24.395  26.425  1.00  0.00     0.125 A 
ATOM     10  C   UNL A   1      30.760  26.467  25.302  1.00  0.00     0.021 A 
ATOM     11  F   UNL A   1      29.660  23.515  27.048  1.00  0.00    -0.207 F 
ATOM     12  C   UNL A   1      29.910  25.554  25.909  1.00  0.00     0.040 A 
BRANCH   7  13
ATOM     13  N   UNL A   1      34.105  24.880  25.771  1.00  0.00    -0.325 N 
ATOM     14  C   UNL A   1      35.035  23.919  25.539  1.00  0.00     0.233 C 
ATOM     15  O   UNL A   1      36.191  24.277  25.821  1.00  0.00    -0.274 OA
ATOM     16  H   UNL A   1      34.541  25.724  26.029  1.00  0.00     0.169 HD
BRANCH  14  17
ATOM     17  C   UNL A   1      34.791  22.543  24.913  1.00  0.00     0.142 C 
ATOM     18  C   UNL A   1      34.294  21.564  27.261  1.00  0.00     0.076 C 
ATOM     19  C   UNL A   1      34.142  21.431  25.751  1.00  0.00     0.192 C 
ATOM     20  N   UNL A   1      34.735  20.167  25.263  1.00  0.00    -0.343 N 
ATOM     21  C   UNL A   1      36.135  20.482  25.002  1.00  0.00     0.261 C 
ATOM     22  H   UNL A   1      34.271  19.861  24.409  1.00  0.00     0.346 HD
ATOM     23  H   UNL A   1      34.633  19.411  25.940  1.00  0.00     0.346 HD
ATOM     24  C   UNL A   1      36.125  21.897  24.453  1.00  0.00     0.081 C 
ENDBRANCH  14  17
ENDBRANCH   7  13
ENDBRANCH   4   6
ENDBRANCH   3   4
ENDBRANCH   2   3
ENDBRANCH   1   2
BRANCH   1  25
ATOM     25  O   UNL A   1      33.946  30.933  27.319  1.00  0.00    -0.458 OA
BRANCH  25  26
ATOM     26  C   UNL A   1      34.668  31.143  28.443  1.00  0.00     0.338 C 
ATOM     27  O   UNL A   1      34.356  31.827  29.405  1.00  0.00    -0.246 OA
BRANCH  26  28
ATOM     28  C   UNL A   1      35.899  30.337  28.423  1.00  0.00     0.060 A 
ATOM     29  C   UNL A   1      36.326  29.759  29.612  1.00  0.00     0.016 A 
ATOM     30  C   UNL A   1      36.740  30.345  27.314  1.00  0.00     0.016 A 
ATOM     31  C   UNL A   1      37.647  29.342  29.750  1.00  0.00     0.010 A 
ATOM     32  C   UNL A   1      38.023  29.786  27.417  1.00  0.00     0.010 A 
ATOM     33  C   UNL A   1      38.524  29.339  28.656  1.00  0.00    -0.014 A 
BRANCH  33  34
ATOM     34  C   UNL A   1      39.966  28.956  28.816  1.00  0.00     0.031 A 
ATOM     35  C   UNL A   1      40.953  29.954  29.384  1.00  0.00     0.074 A 
ATOM     36  C   UNL A   1      40.413  27.721  28.497  1.00  0.00     0.049 A 
ATOM     37  N   UNL A   1      42.262  29.936  29.355  1.00  0.00    -0.248 NA
ATOM     38  C   UNL A   1      40.393  31.138  30.057  1.00  0.00     0.031 C 
ATOM     39  C   UNL A   1      39.592  26.612  28.009  1.00  0.00     0.029 A 
ATOM     40  N   UNL A   1      41.680  27.183  28.551  1.00  0.00    -0.354 N 
ATOM     41  C   UNL A   1      42.676  31.139  29.920  1.00  0.00     0.074 A 
ATOM     42  C   UNL A   1      41.479  31.861  30.292  1.00  0.00     0.031 C 
ATOM     43  C   UNL A   1      40.353  25.516  27.878  1.00  0.00     0.029 A 
ATOM     44  C   UNL A   1      41.743  25.871  28.136  1.00  0.00     0.049 A 
ATOM     45  H   UNL A   1      42.467  27.688  28.855  1.00  0.00     0.167 HD
ATOM     46  C   UNL A   1      43.936  31.597  30.110  1.00  0.00     0.037 A 
ATOM     47  C   UNL A   1      42.795  25.055  27.922  1.00  0.00     0.037 A 
ATOM     48  C   UNL A   1      45.124  30.831  29.827  1.00  0.00     0.049 A 
ATOM     49  C   UNL A   1      44.187  25.587  28.109  1.00  0.00     0.074 A 
ATOM     50  C   UNL A   1      46.447  31.207  29.981  1.00  0.00     0.029 A 
ATOM     51  N   UNL A   1      45.132  29.522  29.371  1.00  0.00    -0.354 N 
ATOM     52  N   UNL A   1      44.564  26.774  28.516  1.00  0.00    -0.248 NA
ATOM     53  C   UNL A   1      45.296  24.685  27.773  1.00  0.00     0.031 C 
ATOM     54  C   UNL A   1      47.256  30.134  29.591  1.00  0.00     0.029 A 
ATOM     55  C   UNL A   1      46.436  29.075  29.238  1.00  0.00     0.049 A 
ATOM     56  H   UNL A   1      44.329  28.987  29.170  1.00  0.00     0.167 HD
ATOM     57  C   UNL A   1      45.953  26.759  28.495  1.00  0.00     0.074 A 
ATOM     58  C   UNL A   1      46.351  25.439  28.051  1.00  0.00     0.031 C 
ATOM     59  C   UNL A   1      46.819  27.753  28.809  1.00  0.00     0.037 A 
BRANCH  46  60
ATOM     60  C   UNL A   1      44.114  33.003  30.620  1.00  0.00     0.058 A 
ATOM     61  C   UNL A   1      44.164  33.247  32.004  1.00  0.00     0.135 A 
ATOM     62  C   UNL A   1      44.172  34.112  29.762  1.00  0.00     0.135 A 
ATOM     63  F   UNL A   1      44.115  32.224  32.873  1.00  0.00    -0.206 F 
ATOM     64  C   UNL A   1      44.247  34.537  32.517  1.00  0.00     0.059 A 
ATOM     65  C   UNL A   1      44.285  35.412  30.254  1.00  0.00     0.059 A 
ATOM     66  F   UNL A   1      44.152  33.937  28.431  1.00  0.00    -0.206 F 
ATOM     67  C   UNL A   1      44.307  35.614  31.634  1.00  0.00     0.060 A 
BRANCH  67  68
ATOM     68  S   UNL A   1      44.456  37.280  32.316  1.00  0.00     0.124 S 
ATOM     69  O   UNL A   1      44.037  38.105  31.189  1.00  0.00    -0.237 OA
ATOM     70  O   UNL A   1      43.536  37.231  33.448  1.00  0.00    -0.237 OA
ATOM     71  O   UNL A   1      45.868  37.373  32.674  1.00  0.00    -0.744 OA
ENDBRANCH  67  68
ENDBRANCH  46  60
BRANCH  47  72
ATOM     72  C   UNL A   1      42.564  23.661  27.449  1.00  0.00     0.058 A 
ATOM     73  C   UNL A   1      42.417  22.598  28.355  1.00  0.00     0.135 A 
ATOM     74  C   UNL A   1      42.533  23.358  26.080  1.00  0.00     0.135 A 
ATOM     75  F   UNL A   1      42.439  22.832  29.677  1.00  0.00    -0.206 F 
ATOM     76  C   UNL A   1      42.300  21.282  27.925  1.00  0.00     0.059 A 
ATOM     77  C   UNL A   1      42.384  22.050  25.623  1.00  0.00     0.059 A 
ATOM     78  F   UNL A   1      42.646  24.341  25.174  1.00  0.00    -0.206 F 
ATOM     79  C   UNL A   1      42.292  21.017  26.555  1.00  0.00     0.060 A 
BRANCH  79  80
ATOM     80  S   UNL A   1      42.168  19.298  26.017  1.00  0.00     0.124 S 
ATOM     81  O   UNL A   1      42.677  18.590  27.186  1.00  0.00    -0.237 OA
ATOM     82  O   UNL A   1      40.737  19.160  25.764  1.00  0.00    -0.237 OA
ATOM     83  O   UNL A   1      43.019  19.254  24.833  1.00  0.00    -0.744 OA
ENDBRANCH  79  80
ENDBRANCH  47  72
BRANCH  59  84
ATOM     84  C   UNL A   1      48.288  27.451  28.726  1.00  0.00     0.058 A 
ATOM     85  C   UNL A   1      48.973  26.951  29.844  1.00  0.00     0.135 A 
ATOM     86  C   UNL A   1      49.032  27.728  27.569  1.00  0.00     0.135 A 
ATOM     87  F   UNL A   1      48.306  26.671  30.976  1.00  0.00    -0.206 F 
ATOM     88  C   UNL A   1      50.348  26.754  29.827  1.00  0.00     0.059 A 
ATOM     89  C   UNL A   1      50.408  27.516  27.521  1.00  0.00     0.059 A 
ATOM     90  F   UNL A   1      48.421  28.195  26.468  1.00  0.00    -0.206 F 
ATOM     91  C   UNL A   1      51.058  27.045  28.661  1.00  0.00     0.060 A 
BRANCH  91  92
ATOM     92  S   UNL A   1      52.844  26.781  28.655  1.00  0.00     0.124 S 
ATOM     93  O   UNL A   1      53.345  28.129  28.411  1.00  0.00    -0.237 OA
ATOM     94  O   UNL A   1      53.082  26.247  29.993  1.00  0.00    -0.237 OA
ATOM     95  O   UNL A   1      53.042  25.830  27.564  1.00  0.00    -0.744 OA
ENDBRANCH  91  92
ENDBRANCH  59  84
ENDBRANCH  33  34
ENDBRANCH  26  28
ENDBRANCH  25  26
ENDBRANCH   1  25
TORSDOF 16
ENDMDL
MODEL 2
REMARK VINA RESULT:     -11.2      4.193     10.066
REMARK SMILES C[C@@H]1[NH2+]CC[C@@H]1C(=O)Nc1cc(F)ccc1C(=O)OCCOC(=O)c1ccc(-c2c3nc(c(-c4c(F)cc(S(=O)(=O)[O-])cc4F)c4ccc([nH]4)c(-c4c(F)cc(S(=O)(=O)[O-])cc4F)c4nc(c(-c5c(F)cc(S(=O)(=O)[O-])cc5F)c5ccc2[nH]5)C=C4)C=C3)cc1
REMARK SMILES IDX 21 1 20 2 19 3 17 4 18 5 16 6 10 7 11 8 12 9 15 10 13 11
REMARK SMILES IDX 14 12 9 13 7 14 8 15 6 17 1 18 2 19 3 20 4 21 5 24 22 25
REMARK SMILES IDX 23 26 24 27 25 28 26 29 90 30 27 31 89 32 28 33 29 34 30 35
REMARK SMILES IDX 83 36 31 37 88 38 82 39 84 40 32 41 87 42 81 43 80 44 33 46
REMARK SMILES IDX 67 47 46 48 66 49 47 50 50 51 65 52 85 53 48 54 49 55 64 57
REMARK SMILES IDX 86 58 51 59 34 60 35 61 44 62 36 63 37 64 43 65 45 66 38 67
REMARK SMILES IDX 39 68 40 69 41 70 42 71 68 72 69 73 78 74 70 75 71 76 77 77
REMARK SMILES IDX 79 78 72 79 73 80 74 81 75 82 76 83 52 84 53 85 62 86 54 87
REMARK SMILES IDX 55 88 61 89 63 90 56 91 57 92 58 93 59 94 60 95
REMARK H PARENT 9 16 3 22 3 23 84 45 50 56
REMARK Flexibility Score: inf
ROOT
ATOM      1  C   UNL A   1      38.635  21.714  25.558  1.00  0.00     0.275 C 
ENDROOT
BRANCH   1   2
ATOM      2  C   UNL A   1      37.379  22.560  25.341  1.00  0.00     0.275 C 
BRANCH   2   3
ATOM      3  O   UNL A   1      36.448  21.886  24.466  1.00  0.00    -0.458 OA
BRANCH   3   4
ATOM      4  C   UNL A   1      35.563  22.677  23.809  1.00  0.00     0.340 C 
ATOM      5  O   UNL A   1      35.809  23.356  22.824  1.00  0.00    -0.246 OA
BRANCH   4   6
ATOM      6  C   UNL A   1      34.183  22.536  24.363  1.00  0.00     0.083 A 
ATOM      7  C   UNL A   1      33.326  23.617  24.693  1.00  0.00     0.058 A 
ATOM      8  C   UNL A   1      32.098  23.304  25.266  1.00  0.00     0.066 A 
ATOM      9  C   UNL A   1      31.690  21.980  25.445  1.00  0.00     0.125 A 
ATOM     10  C   UNL A   1      33.748  21.203  24.544  1.00  0.00     0.021 A 
ATOM     11  F   UNL A   1      30.472  21.736  25.944  1.00  0.00    -0.207 F 
ATOM     12  C   UNL A   1      32.505  20.923  25.095  1.00  0.00     0.040 A 
BRANCH   7  13
ATOM     13  N   UNL A   1      33.717  24.930  24.359  1.00  0.00    -0.325 N 
ATOM     14  C   UNL A   1      33.616  26.191  24.852  1.00  0.00     0.233 C 
ATOM     15  O   UNL A   1      34.054  27.057  24.078  1.00  0.00    -0.274 OA
ATOM     16  H   UNL A   1      34.216  24.934  23.510  1.00  0.00     0.169 HD
BRANCH  14  17
ATOM     17  C   UNL A   1      33.113  26.590  26.243  1.00  0.00     0.142 C 
ATOM     18  C   UNL A   1      30.709  26.830  25.303  1.00  0.00     0.076 C 
ATOM     19  C   UNL A   1      31.604  26.633  26.521  1.00  0.00     0.192 C 
ATOM     20  N   UNL A   1      31.411  27.720  27.506  1.00  0.00    -0.343 N 
ATOM     21  C   UNL A   1      32.345  28.765  27.104  1.00  0.00     0.261 C 
ATOM     22  H   UNL A   1      31.625  27.391  28.448  1.00  0.00     0.346 HD
ATOM     23  H   UNL A   1      30.448  28.053  27.524  1.00  0.00     0.346 HD
ATOM     24  C   UNL A   1      33.575  28.026  26.610  1.00  0.00     0.081 C 
ENDBRANCH  14  17
ENDBRANCH   7  13
ENDBRANCH   4   6
ENDBRANCH   3   4
ENDBRANCH   2   3
ENDBRANCH   1   2
BRANCH   1  25
ATOM     25  O   UNL A   1      39.329  22.160  26.737  1.00  0.00    -0.458 OA
BRANCH  25  26
ATOM     26  C   UNL A   1      40.449  22.884  26.511  1.00  0.00     0.338 C 
ATOM     27  O   UNL A   1      41.428  22.549  25.864  1.00  0.00    -0.246 OA
BRANCH  26  28
ATOM     28  C   UNL A   1      40.312  24.233  27.082  1.00  0.00     0.060 A 
ATOM     29  C   UNL A   1      41.331  25.150  26.852  1.00  0.00     0.016 A 
ATOM     30  C   UNL A   1      39.322  24.517  28.017  1.00  0.00     0.016 A 
ATOM     31  C   UNL A   1      41.460  26.269  27.670  1.00  0.00     0.010 A 
ATOM     32  C   UNL A   1      39.376  25.721  28.736  1.00  0.00     0.010 A 
ATOM     33  C   UNL A   1      40.484  26.585  28.626  1.00  0.00    -0.014 A 
BRANCH  33  34
ATOM     34  C   UNL A   1      40.653  27.750  29.555  1.00  0.00     0.031 A 
ATOM     35  C   UNL A   1      41.863  27.821  30.463  1.00  0.00     0.074 A 
ATOM     36  C   UNL A   1      39.768  28.771  29.585  1.00  0.00     0.049 A 
ATOM     37  N   UNL A   1      42.069  28.573  31.515  1.00  0.00    -0.248 NA
ATOM     38  C   UNL A   1      42.980  26.910  30.160  1.00  0.00     0.031 C 
ATOM     39  C   UNL A   1      38.588  28.907  28.729  1.00  0.00     0.029 A 
ATOM     40  N   UNL A   1      39.732  29.906  30.365  1.00  0.00    -0.354 N 
ATOM     41  C   UNL A   1      43.290  28.166  32.046  1.00  0.00     0.074 A 
ATOM     42  C   UNL A   1      43.784  27.105  31.196  1.00  0.00     0.031 C 
ATOM     43  C   UNL A   1      37.990  30.081  28.976  1.00  0.00     0.029 A 
ATOM     44  C   UNL A   1      38.655  30.724  30.102  1.00  0.00     0.049 A 
ATOM     45  H   UNL A   1      40.410  30.113  31.046  1.00  0.00     0.167 HD
ATOM     46  C   UNL A   1      43.936  28.633  33.141  1.00  0.00     0.037 A 
ATOM     47  C   UNL A   1      38.206  31.831  30.728  1.00  0.00     0.037 A 
ATOM     48  C   UNL A   1      43.486  29.755  33.925  1.00  0.00     0.049 A 
ATOM     49  C   UNL A   1      38.917  32.320  31.957  1.00  0.00     0.074 A 
ATOM     50  C   UNL A   1      44.068  30.305  35.055  1.00  0.00     0.029 A 
ATOM     51  N   UNL A   1      42.368  30.524  33.640  1.00  0.00    -0.354 N 
ATOM     52  N   UNL A   1      39.996  31.841  32.526  1.00  0.00    -0.248 NA
ATOM     53  C   UNL A   1      38.331  33.474  32.652  1.00  0.00     0.031 C 
ATOM     54  C   UNL A   1      43.286  31.388  35.469  1.00  0.00     0.029 A 
ATOM     55  C   UNL A   1      42.243  31.542  34.571  1.00  0.00     0.049 A 
ATOM     56  H   UNL A   1      41.752  30.369  32.886  1.00  0.00     0.167 HD
ATOM     57  C   UNL A   1      40.225  32.641  33.639  1.00  0.00     0.074 A 
ATOM     58  C   UNL A   1      39.181  33.645  33.655  1.00  0.00     0.031 C 
ATOM     59  C   UNL A   1      41.208  32.545  34.567  1.00  0.00     0.037 A 
BRANCH  46  60
ATOM     60  C   UNL A   1      45.188  27.924  33.587  1.00  0.00     0.058 A 
ATOM     61  C   UNL A   1      45.102  26.849  34.490  1.00  0.00     0.135 A 
ATOM     62  C   UNL A   1      46.468  28.333  33.184  1.00  0.00     0.135 A 
ATOM     63  F   UNL A   1      43.903  26.412  34.909  1.00  0.00    -0.206 F 
ATOM     64  C   UNL A   1      46.238  26.219  34.988  1.00  0.00     0.059 A 
ATOM     65  C   UNL A   1      47.619  27.697  33.647  1.00  0.00     0.059 A 
ATOM     66  F   UNL A   1      46.609  29.338  32.305  1.00  0.00    -0.206 F 
ATOM     67  C   UNL A   1      47.492  26.650  34.561  1.00  0.00     0.060 A 
BRANCH  67  68
ATOM     68  S   UNL A   1      48.955  25.794  35.185  1.00  0.00     0.124 S 
ATOM     69  O   UNL A   1      49.224  24.839  34.117  1.00  0.00    -0.237 OA
ATOM     70  O   UNL A   1      49.915  26.887  35.320  1.00  0.00    -0.237 OA
ATOM     71  O   UNL A   1      48.497  25.219  36.446  1.00  0.00    -0.744 OA
ENDBRANCH  67  68
ENDBRANCH  46  60
BRANCH  47  72
ATOM     72  C   UNL A   1      36.982  32.516  30.226  1.00  0.00     0.058 A 
ATOM     73  C   UNL A   1      37.062  33.571  29.302  1.00  0.00     0.135 A 
ATOM     74  C   UNL A   1      35.709  32.162  30.700  1.00  0.00     0.135 A 
ATOM     75  F   UNL A   1      38.255  33.952  28.817  1.00  0.00    -0.206 F 
ATOM     76  C   UNL A   1      35.936  34.280  28.904  1.00  0.00     0.059 A 
ATOM     77  C   UNL A   1      34.562  32.837  30.290  1.00  0.00     0.059 A 
ATOM     78  F   UNL A   1      35.576  31.146  31.566  1.00  0.00    -0.206 F 
ATOM     79  C   UNL A   1      34.690  33.911  29.410  1.00  0.00     0.060 A 
BRANCH  79  80
ATOM     80  S   UNL A   1      33.243  34.865  28.902  1.00  0.00     0.124 S 
ATOM     81  O   UNL A   1      32.564  35.062  30.178  1.00  0.00    -0.237 OA
ATOM     82  O   UNL A   1      33.851  36.054  28.315  1.00  0.00    -0.237 OA
ATOM     83  O   UNL A   1      32.569  33.978  27.960  1.00  0.00    -0.744 OA
ENDBRANCH  79  80
ENDBRANCH  47  72
BRANCH  59  84
ATOM     84  C   UNL A   1      41.236  33.573  35.662  1.00  0.00     0.058 A 
ATOM     85  C   UNL A   1      40.590  33.325  36.883  1.00  0.00     0.135 A 
ATOM     86  C   UNL A   1      41.833  34.829  35.477  1.00  0.00     0.135 A 
ATOM     87  F   UNL A   1      40.002  32.138  37.109  1.00  0.00    -0.206 F 
ATOM     88  C   UNL A   1      40.517  34.293  37.877  1.00  0.00     0.059 A 
ATOM     89  C   UNL A   1      41.792  35.807  36.467  1.00  0.00     0.059 A 
ATOM     90  F   UNL A   1      42.475  35.109  34.331  1.00  0.00    -0.206 F 
ATOM     91  C   UNL A   1      41.116  35.535  37.656  1.00  0.00     0.060 A 
BRANCH  91  92
ATOM     92  S   UNL A   1      41.013  36.781  38.959  1.00  0.00     0.124 S 
ATOM     93  O   UNL A   1      41.065  35.959  40.163  1.00  0.00    -0.237 OA
ATOM     94  O   UNL A   1      42.194  37.600  38.697  1.00  0.00    -0.237 OA
ATOM     95  O   UNL A   1      39.734  37.437  38.699  1.00  0.00    -0.744 OA
ENDBRANCH  91  92
ENDBRANCH  59  84
ENDBRANCH  33  34
ENDBRANCH  26  28
ENDBRANCH  25  26
ENDBRANCH   1  25
TORSDOF 16
ENDMDL
MODEL 3
REMARK VINA RESULT:     -11.2      1.771      2.528
REMARK SMILES C[C@@H]1[NH2+]CC[C@@H]1C(=O)Nc1cc(F)ccc1C(=O)OCCOC(=O)c1ccc(-c2c3nc(c(-c4c(F)cc(S(=O)(=O)[O-])cc4F)c4ccc([nH]4)c(-c4c(F)cc(S(=O)(=O)[O-])cc4F)c4nc(c(-c5c(F)cc(S(=O)(=O)[O-])cc5F)c5ccc2[nH]5)C=C4)C=C3)cc1
REMARK SMILES IDX 21 1 20 2 19 3 17 4 18 5 16 6 10 7 11 8 12 9 15 10 13 11
REMARK SMILES IDX 14 12 9 13 7 14 8 15 6 17 1 18 2 19 3 20 4 21 5 24 22 25
REMARK SMILES IDX 23 26 24 27 25 28 26 29 90 30 27 31 89 32 28 33 29 34 30 35
REMARK SMILES IDX 83 36 31 37 88 38 82 39 84 40 32 41 87 42 81 43 80 44 33 46
REMARK SMILES IDX 67 47 46 48 66 49 47 50 50 51 65 52 85 53 48 54 49 55 64 57
REMARK SMILES IDX 86 58 51 59 34 60 35 61 44 62 36 63 37 64 43 65 45 66 38 67
REMARK SMILES IDX 39 68 40 69 41 70 42 71 68 72 69 73 78 74 70 75 71 76 77 77
REMARK SMILES IDX 79 78 72 79 73 80 74 81 75 82 76 83 52 84 53 85 62 86 54 87
REMARK SMILES IDX 55 88 61 89 63 90 56 91 57 92 58 93 59 94 60 95
REMARK H PARENT 9 16 3 22 3 23 84 45 50 56
REMARK Flexibility Score: inf
ROOT
ATOM      1  C   UNL A   1      33.459  29.428  27.606  1.00  0.00     0.275 C 
ENDROOT
BRANCH   1   2
ATOM      2  C   UNL A   1      33.688  28.793  26.234  1.00  0.00     0.275 C 
BRANCH   2   3
ATOM      3  O   UNL A   1      33.132  29.618  25.185  1.00  0.00    -0.458 OA
BRANCH   3   4
ATOM      4  C   UNL A   1      32.951  29.016  23.983  1.00  0.00     0.340 C 
ATOM      5  O   UNL A   1      33.831  28.531  23.289  1.00  0.00    -0.246 OA
BRANCH   4   6
ATOM      6  C   UNL A   1      31.502  28.900  23.638  1.00  0.00     0.083 A 
ATOM      7  C   UNL A   1      30.891  27.751  23.073  1.00  0.00     0.058 A 
ATOM      8  C   UNL A   1      29.542  27.842  22.749  1.00  0.00     0.066 A 
ATOM      9  C   UNL A   1      28.797  28.990  23.032  1.00  0.00     0.125 A 
ATOM     10  C   UNL A   1      30.728  30.048  23.925  1.00  0.00     0.021 A 
ATOM     11  F   UNL A   1      27.486  29.000  22.756  1.00  0.00    -0.207 F 
ATOM     12  C   UNL A   1      29.377  30.099  23.613  1.00  0.00     0.040 A 
BRANCH   7  13
ATOM     13  N   UNL A   1      31.646  26.567  22.941  1.00  0.00    -0.325 N 
ATOM     14  C   UNL A   1      31.685  25.310  23.451  1.00  0.00     0.233 C 
ATOM     15  O   UNL A   1      32.668  24.655  23.067  1.00  0.00    -0.274 OA
ATOM     16  H   UNL A   1      32.361  26.690  22.276  1.00  0.00     0.169 HD
BRANCH  14  17
ATOM     17  C   UNL A   1      30.626  24.652  24.341  1.00  0.00     0.142 C 
ATOM     18  C   UNL A   1      31.376  26.136  26.329  1.00  0.00     0.076 C 
ATOM     19  C   UNL A   1      30.288  25.272  25.704  1.00  0.00     0.192 C 
ATOM     20  N   UNL A   1      29.938  24.135  26.583  1.00  0.00    -0.343 N 
ATOM     21  C   UNL A   1      30.866  23.072  26.213  1.00  0.00     0.261 C 
ATOM     22  H   UNL A   1      28.975  23.841  26.423  1.00  0.00     0.346 HD
ATOM     23  H   UNL A   1      30.010  24.379  27.570  1.00  0.00     0.346 HD
ATOM     24  C   UNL A   1      31.035  23.201  24.711  1.00  0.00     0.081 C 
ENDBRANCH  14  17
ENDBRANCH   7  13
ENDBRANCH   4   6
ENDBRANCH   3   4
ENDBRANCH   2   3
ENDBRANCH   1   2
BRANCH   1  25
ATOM     25  O   UNL A   1      33.907  30.796  27.594  1.00  0.00    -0.458 OA
BRANCH  25  26
ATOM     26  C   UNL A   1      34.748  31.137  28.596  1.00  0.00     0.338 C 
ATOM     27  O   UNL A   1      34.540  31.934  29.498  1.00  0.00    -0.246 OA
BRANCH  26  28
ATOM     28  C   UNL A   1      35.978  30.330  28.534  1.00  0.00     0.060 A 
ATOM     29  C   UNL A   1      36.448  29.757  29.709  1.00  0.00     0.016 A 
ATOM     30  C   UNL A   1      36.776  30.331  27.394  1.00  0.00     0.016 A 
ATOM     31  C   UNL A   1      37.773  29.340  29.800  1.00  0.00     0.010 A 
ATOM     32  C   UNL A   1      38.062  29.772  27.453  1.00  0.00     0.010 A 
ATOM     33  C   UNL A   1      38.608  29.330  28.674  1.00  0.00    -0.014 A 
BRANCH  33  34
ATOM     34  C   UNL A   1      40.055  28.946  28.782  1.00  0.00     0.031 A 
ATOM     35  C   UNL A   1      41.065  29.951  29.296  1.00  0.00     0.074 A 
ATOM     36  C   UNL A   1      40.487  27.706  28.465  1.00  0.00     0.049 A 
ATOM     37  N   UNL A   1      42.372  29.929  29.214  1.00  0.00    -0.248 NA
ATOM     38  C   UNL A   1      40.535  31.146  29.971  1.00  0.00     0.031 C 
ATOM     39  C   UNL A   1      39.645  26.591  28.028  1.00  0.00     0.029 A 
ATOM     40  N   UNL A   1      41.754  27.166  28.477  1.00  0.00    -0.354 N 
ATOM     41  C   UNL A   1      42.810  31.140  29.744  1.00  0.00     0.074 A 
ATOM     42  C   UNL A   1      41.630  31.871  30.152  1.00  0.00     0.031 C 
ATOM     43  C   UNL A   1      40.399  25.492  27.883  1.00  0.00     0.029 A 
ATOM     44  C   UNL A   1      41.798  25.847  28.080  1.00  0.00     0.049 A 
ATOM     45  H   UNL A   1      42.554  27.674  28.741  1.00  0.00     0.167 HD
ATOM     46  C   UNL A   1      44.078  31.599  29.875  1.00  0.00     0.037 A 
ATOM     47  C   UNL A   1      42.840  25.026  27.837  1.00  0.00     0.037 A 
ATOM     48  C   UNL A   1      45.252  30.826  29.557  1.00  0.00     0.049 A 
ATOM     49  C   UNL A   1      44.239  25.558  27.960  1.00  0.00     0.074 A 
ATOM     50  C   UNL A   1      46.581  31.201  29.652  1.00  0.00     0.029 A 
ATOM     51  N   UNL A   1      45.240  29.509  29.121  1.00  0.00    -0.354 N 
ATOM     52  N   UNL A   1      44.634  26.751  28.333  1.00  0.00    -0.248 NA
ATOM     53  C   UNL A   1      45.333  24.648  27.594  1.00  0.00     0.031 C 
ATOM     54  C   UNL A   1      47.372  30.121  29.247  1.00  0.00     0.029 A 
ATOM     55  C   UNL A   1      46.537  29.058  28.944  1.00  0.00     0.049 A 
ATOM     56  H   UNL A   1      44.429  28.974  28.961  1.00  0.00     0.167 HD
ATOM     57  C   UNL A   1      46.021  26.732  28.257  1.00  0.00     0.074 A 
ATOM     58  C   UNL A   1      46.399  25.404  27.817  1.00  0.00     0.031 C 
ATOM     59  C   UNL A   1      46.901  27.729  28.520  1.00  0.00     0.037 A 
BRANCH  46  60
ATOM     60  C   UNL A   1      44.279  33.012  30.357  1.00  0.00     0.058 A 
ATOM     61  C   UNL A   1      44.292  34.073  29.434  1.00  0.00     0.135 A 
ATOM     62  C   UNL A   1      44.521  33.319  31.704  1.00  0.00     0.135 A 
ATOM     63  F   UNL A   1      44.064  33.839  28.131  1.00  0.00    -0.206 F 
ATOM     64  C   UNL A   1      44.553  35.381  29.827  1.00  0.00     0.059 A 
ATOM     65  C   UNL A   1      44.756  34.628  32.125  1.00  0.00     0.059 A 
ATOM     66  F   UNL A   1      44.497  32.349  32.632  1.00  0.00    -0.206 F 
ATOM     67  C   UNL A   1      44.784  35.649  31.175  1.00  0.00     0.060 A 
BRANCH  67  68
ATOM     68  S   UNL A   1      45.081  37.359  31.675  1.00  0.00     0.124 S 
ATOM     69  O   UNL A   1      46.430  37.283  32.223  1.00  0.00    -0.237 OA
ATOM     70  O   UNL A   1      44.947  38.076  30.409  1.00  0.00    -0.237 OA
ATOM     71  O   UNL A   1      44.020  37.617  32.644  1.00  0.00    -0.744 OA
ENDBRANCH  67  68
ENDBRANCH  46  60
BRANCH  47  72
ATOM     72  C   UNL A   1      42.588  23.626  27.395  1.00  0.00     0.058 A 
ATOM     73  C   UNL A   1      42.415  22.587  28.325  1.00  0.00     0.135 A 
ATOM     74  C   UNL A   1      42.563  23.290  26.033  1.00  0.00     0.135 A 
ATOM     75  F   UNL A   1      42.432  22.852  29.641  1.00  0.00    -0.206 F 
ATOM     76  C   UNL A   1      42.278  21.264  27.925  1.00  0.00     0.059 A 
ATOM     77  C   UNL A   1      42.394  21.976  25.606  1.00  0.00     0.059 A 
ATOM     78  F   UNL A   1      42.699  24.250  25.105  1.00  0.00    -0.206 F 
ATOM     79  C   UNL A   1      42.276  20.967  26.562  1.00  0.00     0.060 A 
BRANCH  79  80
ATOM     80  S   UNL A   1      42.126  19.237  26.063  1.00  0.00     0.124 S 
ATOM     81  O   UNL A   1      43.028  19.187  24.918  1.00  0.00    -0.237 OA
ATOM     82  O   UNL A   1      42.577  18.534  27.259  1.00  0.00    -0.237 OA
ATOM     83  O   UNL A   1      40.707  19.098  25.754  1.00  0.00    -0.744 OA
ENDBRANCH  79  80
ENDBRANCH  47  72
BRANCH  59  84
ATOM     84  C   UNL A   1      48.365  27.422  28.383  1.00  0.00     0.058 A 
ATOM     85  C   UNL A   1      49.083  26.898  29.469  1.00  0.00     0.135 A 
ATOM     86  C   UNL A   1      49.072  27.717  27.207  1.00  0.00     0.135 A 
ATOM     87  F   UNL A   1      48.452  26.601  30.617  1.00  0.00    -0.206 F 
ATOM     88  C   UNL A   1      50.456  26.696  29.403  1.00  0.00     0.059 A 
ATOM     89  C   UNL A   1      50.443  27.501  27.110  1.00  0.00     0.059 A 
ATOM     90  F   UNL A   1      48.426  28.208  26.136  1.00  0.00    -0.206 F 
ATOM     91  C   UNL A   1      51.129  27.007  28.219  1.00  0.00     0.060 A 
BRANCH  91  92
ATOM     92  S   UNL A   1      52.913  26.735  28.150  1.00  0.00     0.124 S 
ATOM     93  O   UNL A   1      53.006  25.598  27.242  1.00  0.00    -0.237 OA
ATOM     94  O   UNL A   1      53.399  28.008  27.626  1.00  0.00    -0.237 OA
ATOM     95  O   UNL A   1      53.267  26.460  29.540  1.00  0.00    -0.744 OA
ENDBRANCH  91  92
ENDBRANCH  59  84
ENDBRANCH  33  34
ENDBRANCH  26  28
ENDBRANCH  25  26
ENDBRANCH   1  25
TORSDOF 16
ENDMDL
