MODEL 1
REMARK VINA RESULT:     -10.5      0.000      0.000
REMARK SMILES CCN1C(=O)N(CC)[C@H]2NC(=O)N(CCCC(=O)OCCOC(=O)c3ccc(-c4c5nc(c(-c6c(F)cc(S(=O)(=O)[O-])cc6F)c6ccc([nH]6)c(-c6c(F)cc(S(=O)(=O)[O-])cc6F)c6nc(c(-c7c(F)cc(S(=O)(=O)[O-])cc7F)c7ccc4[nH]7)C=C6)C=C5)cc3)[C@@H]21
REMARK SMILES IDX 20 1 19 2 17 3 18 4 16 5 15 6 14 7 13 8 3 9 4 10 91 11 5 12
REMARK SMILES IDX 6 13 9 14 10 15 11 16 12 18 2 19 1 20 7 21 8 22 21 23 22 24
REMARK SMILES IDX 23 25 24 26 25 27 26 28 90 29 27 30 89 31 28 32 29 33 30 34
REMARK SMILES IDX 83 35 31 36 88 37 82 38 84 39 32 40 87 41 81 42 80 43 33 45
REMARK SMILES IDX 67 46 46 47 66 48 47 49 50 50 65 51 85 52 48 53 49 54 64 56
REMARK SMILES IDX 86 57 51 58 34 59 35 60 44 61 36 62 37 63 43 64 45 65 38 66
REMARK SMILES IDX 39 67 40 68 41 69 42 70 68 71 69 72 78 73 70 74 71 75 77 76
REMARK SMILES IDX 79 77 72 78 73 79 74 80 75 81 76 82 52 83 53 84 62 85 54 86
REMARK SMILES IDX 55 87 61 88 63 89 56 90 57 91 58 92 59 93 60 94
REMARK H PARENT 10 17 84 44 50 55
REMARK Flexibility Score: inf
ROOT
ATOM      1  C   UNL A   1      40.475  21.352  26.010  1.00  0.00     0.274 C 
ENDROOT
BRANCH   1   2
ATOM      2  O   UNL A   1      39.026  21.275  26.139  1.00  0.00    -0.462 OA
BRANCH   2   3
ATOM      3  C   UNL A   1      37.916  21.745  25.553  1.00  0.00     0.305 C 
ATOM      4  O   UNL A   1      37.365  21.033  24.711  1.00  0.00    -0.252 OA
BRANCH   3   5
ATOM      5  C   UNL A   1      37.323  23.105  25.834  1.00  0.00     0.124 C 
BRANCH   5   6
ATOM      6  C   UNL A   1      36.133  23.654  25.028  1.00  0.00     0.033 C 
BRANCH   6   7
ATOM      7  C   UNL A   1      34.706  23.671  25.645  1.00  0.00     0.124 C 
BRANCH   7   8
ATOM      8  N   UNL A   1      33.926  22.432  25.689  1.00  0.00    -0.300 N 
ATOM      9  N   UNL A   1      32.573  21.947  23.503  1.00  0.00    -0.300 N 
ATOM     10  C   UNL A   1      32.266  20.668  22.968  1.00  0.00     0.323 C 
ATOM     11  C   UNL A   1      33.485  21.687  24.568  1.00  0.00     0.231 C 
ATOM     12  O   UNL A   1      31.812  20.450  21.861  1.00  0.00    -0.248 OA
ATOM     13  N   UNL A   1      32.528  19.737  24.015  1.00  0.00    -0.300 N 
ATOM     14  C   UNL A   1      32.722  20.529  25.187  1.00  0.00     0.228 C 
ATOM     15  N   UNL A   1      33.467  20.268  26.347  1.00  0.00    -0.314 N 
ATOM     16  C   UNL A   1      34.005  21.506  26.771  1.00  0.00     0.320 C 
ATOM     17  H   UNL A   1      33.592  19.393  26.782  1.00  0.00     0.167 HD
ATOM     18  O   UNL A   1      34.446  21.707  27.889  1.00  0.00    -0.249 OA
BRANCH   9  19
ATOM     19  C   UNL A   1      32.010  23.166  22.983  1.00  0.00     0.120 C 
ATOM     20  C   UNL A   1      32.968  24.062  22.228  1.00  0.00     0.027 C 
ENDBRANCH   9  19
BRANCH  13  21
ATOM     21  C   UNL A   1      32.344  18.308  23.954  1.00  0.00     0.120 C 
ATOM     22  C   UNL A   1      33.419  17.602  23.142  1.00  0.00     0.027 C 
ENDBRANCH  13  21
ENDBRANCH   7   8
ENDBRANCH   6   7
ENDBRANCH   5   6
ENDBRANCH   3   5
ENDBRANCH   2   3
ENDBRANCH   1   2
BRANCH   1  23
ATOM     23  C   UNL A   1      41.109  22.407  26.929  1.00  0.00     0.275 C 
BRANCH  23  24
ATOM     24  O   UNL A   1      40.550  23.693  26.641  1.00  0.00    -0.458 OA
BRANCH  24  25
ATOM     25  C   UNL A   1      41.512  24.660  26.559  1.00  0.00     0.338 C 
ATOM     26  O   UNL A   1      42.258  24.837  25.631  1.00  0.00    -0.246 OA
BRANCH  25  27
ATOM     27  C   UNL A   1      41.265  25.655  27.633  1.00  0.00     0.060 A 
ATOM     28  C   UNL A   1      42.199  26.690  27.764  1.00  0.00     0.016 A 
ATOM     29  C   UNL A   1      40.105  25.648  28.408  1.00  0.00     0.016 A 
ATOM     30  C   UNL A   1      41.955  27.753  28.621  1.00  0.00     0.010 A 
ATOM     31  C   UNL A   1      39.887  26.685  29.314  1.00  0.00     0.010 A 
ATOM     32  C   UNL A   1      40.810  27.738  29.417  1.00  0.00    -0.014 A 
BRANCH  32  33
ATOM     33  C   UNL A   1      40.684  28.737  30.492  1.00  0.00     0.031 A 
ATOM     34  C   UNL A   1      41.587  28.592  31.677  1.00  0.00     0.074 A 
ATOM     35  C   UNL A   1      39.810  29.752  30.387  1.00  0.00     0.049 A 
ATOM     36  N   UNL A   1      41.613  29.276  32.787  1.00  0.00    -0.248 NA
ATOM     37  C   UNL A   1      42.604  27.527  31.596  1.00  0.00     0.031 C 
ATOM     38  C   UNL A   1      38.949  30.013  29.235  1.00  0.00     0.029 A 
ATOM     39  N   UNL A   1      39.499  30.748  31.275  1.00  0.00    -0.354 N 
ATOM     40  C   UNL A   1      42.639  28.721  33.540  1.00  0.00     0.074 A 
ATOM     41  C   UNL A   1      43.202  27.634  32.772  1.00  0.00     0.031 C 
ATOM     42  C   UNL A   1      38.179  31.083  29.501  1.00  0.00     0.029 A 
ATOM     43  C   UNL A   1      38.475  31.559  30.851  1.00  0.00     0.049 A 
ATOM     44  H   UNL A   1      39.964  30.870  32.134  1.00  0.00     0.167 HD
ATOM     45  C   UNL A   1      43.067  29.092  34.767  1.00  0.00     0.037 A 
ATOM     46  C   UNL A   1      37.835  32.550  31.501  1.00  0.00     0.037 A 
ATOM     47  C   UNL A   1      42.478  30.167  35.517  1.00  0.00     0.049 A 
ATOM     48  C   UNL A   1      38.282  32.901  32.897  1.00  0.00     0.074 A 
ATOM     49  C   UNL A   1      42.808  30.619  36.781  1.00  0.00     0.029 A 
ATOM     50  N   UNL A   1      41.429  30.959  35.066  1.00  0.00    -0.354 N 
ATOM     51  N   UNL A   1      39.238  32.360  33.617  1.00  0.00    -0.248 NA
ATOM     52  C   UNL A   1      37.569  33.993  33.571  1.00  0.00     0.031 C 
ATOM     53  C   UNL A   1      41.931  31.657  37.111  1.00  0.00     0.029 A 
ATOM     54  C   UNL A   1      41.089  31.887  36.033  1.00  0.00     0.049 A 
ATOM     55  H   UNL A   1      40.993  30.872  34.188  1.00  0.00     0.167 HD
ATOM     56  C   UNL A   1      39.256  33.058  34.819  1.00  0.00     0.074 A 
ATOM     57  C   UNL A   1      38.220  34.069  34.724  1.00  0.00     0.031 C 
ATOM     58  C   UNL A   1      40.054  32.883  35.902  1.00  0.00     0.037 A 
BRANCH  45  59
ATOM     59  C   UNL A   1      44.188  28.301  35.375  1.00  0.00     0.058 A 
ATOM     60  C   UNL A   1      45.523  28.728  35.292  1.00  0.00     0.135 A 
ATOM     61  C   UNL A   1      43.923  27.102  36.054  1.00  0.00     0.135 A 
ATOM     62  F   UNL A   1      45.834  29.851  34.626  1.00  0.00    -0.206 F 
ATOM     63  C   UNL A   1      46.559  27.983  35.847  1.00  0.00     0.059 A 
ATOM     64  C   UNL A   1      44.940  26.354  36.638  1.00  0.00     0.059 A 
ATOM     65  F   UNL A   1      42.666  26.641  36.147  1.00  0.00    -0.206 F 
ATOM     66  C   UNL A   1      46.256  26.798  36.520  1.00  0.00     0.060 A 
BRANCH  66  67
ATOM     67  S   UNL A   1      47.609  25.850  37.247  1.00  0.00     0.124 S 
ATOM     68  O   UNL A   1      46.952  25.235  38.395  1.00  0.00    -0.237 OA
ATOM     69  O   UNL A   1      47.973  24.943  36.164  1.00  0.00    -0.237 OA
ATOM     70  O   UNL A   1      48.604  26.870  37.567  1.00  0.00    -0.744 OA
ENDBRANCH  66  67
ENDBRANCH  45  59
BRANCH  46  71
ATOM     71  C   UNL A   1      36.694  33.251  30.852  1.00  0.00     0.058 A 
ATOM     72  C   UNL A   1      36.902  34.231  29.871  1.00  0.00     0.135 A 
ATOM     73  C   UNL A   1      35.368  32.940  31.192  1.00  0.00     0.135 A 
ATOM     74  F   UNL A   1      38.150  34.574  29.519  1.00  0.00    -0.206 F 
ATOM     75  C   UNL A   1      35.838  34.882  29.254  1.00  0.00     0.059 A 
ATOM     76  C   UNL A   1      34.287  33.561  30.572  1.00  0.00     0.059 A 
ATOM     77  F   UNL A   1      35.112  32.005  32.121  1.00  0.00    -0.206 F 
ATOM     78  C   UNL A   1      34.532  34.537  29.609  1.00  0.00     0.060 A 
BRANCH  78  79
ATOM     79  S   UNL A   1      33.158  35.350  28.764  1.00  0.00     0.124 S 
ATOM     80  O   UNL A   1      33.859  36.292  27.899  1.00  0.00    -0.237 OA
ATOM     81  O   UNL A   1      32.504  34.232  28.093  1.00  0.00    -0.237 OA
ATOM     82  O   UNL A   1      32.396  35.946  29.858  1.00  0.00    -0.744 OA
ENDBRANCH  78  79
ENDBRANCH  46  71
BRANCH  58  83
ATOM     83  C   UNL A   1      39.861  33.822  37.059  1.00  0.00     0.058 A 
ATOM     84  C   UNL A   1      40.445  35.097  37.078  1.00  0.00     0.135 A 
ATOM     85  C   UNL A   1      39.019  33.466  38.126  1.00  0.00     0.135 A 
ATOM     86  F   UNL A   1      41.260  35.483  36.084  1.00  0.00    -0.206 F 
ATOM     87  C   UNL A   1      40.217  35.982  38.126  1.00  0.00     0.059 A 
ATOM     88  C   UNL A   1      38.756  34.345  39.170  1.00  0.00     0.059 A 
ATOM     89  F   UNL A   1      38.425  32.262  38.146  1.00  0.00    -0.206 F 
ATOM     90  C   UNL A   1      39.368  35.597  39.167  1.00  0.00     0.060 A 
BRANCH  90  91
ATOM     91  S   UNL A   1      39.046  36.771  40.500  1.00  0.00     0.124 S 
ATOM     92  O   UNL A   1      40.379  36.939  41.071  1.00  0.00    -0.237 OA
ATOM     93  O   UNL A   1      38.515  37.925  39.780  1.00  0.00    -0.237 OA
ATOM     94  O   UNL A   1      38.084  36.071  41.345  1.00  0.00    -0.744 OA
ENDBRANCH  90  91
ENDBRANCH  58  83
ENDBRANCH  32  33
ENDBRANCH  25  27
ENDBRANCH  24  25
ENDBRANCH  23  24
ENDBRANCH   1  23
TORSDOF 19
ENDMDL
MODEL 2
REMARK VINA RESULT:     -10.4      1.767      3.016
REMARK SMILES CCN1C(=O)N(CC)[C@H]2NC(=O)N(CCCC(=O)OCCOC(=O)c3ccc(-c4c5nc(c(-c6c(F)cc(S(=O)(=O)[O-])cc6F)c6ccc([nH]6)c(-c6c(F)cc(S(=O)(=O)[O-])cc6F)c6nc(c(-c7c(F)cc(S(=O)(=O)[O-])cc7F)c7ccc4[nH]7)C=C6)C=C5)cc3)[C@@H]21
REMARK SMILES IDX 20 1 19 2 17 3 18 4 16 5 15 6 14 7 13 8 3 9 4 10 91 11 5 12
REMARK SMILES IDX 6 13 9 14 10 15 11 16 12 18 2 19 1 20 7 21 8 22 21 23 22 24
REMARK SMILES IDX 23 25 24 26 25 27 26 28 90 29 27 30 89 31 28 32 29 33 30 34
REMARK SMILES IDX 83 35 31 36 88 37 82 38 84 39 32 40 87 41 81 42 80 43 33 45
REMARK SMILES IDX 67 46 46 47 66 48 47 49 50 50 65 51 85 52 48 53 49 54 64 56
REMARK SMILES IDX 86 57 51 58 34 59 35 60 44 61 36 62 37 63 43 64 45 65 38 66
REMARK SMILES IDX 39 67 40 68 41 69 42 70 68 71 69 72 78 73 70 74 71 75 77 76
REMARK SMILES IDX 79 77 72 78 73 79 74 80 75 81 76 82 52 83 53 84 62 85 54 86
REMARK SMILES IDX 55 87 61 88 63 89 56 90 57 91 58 92 59 93 60 94
REMARK H PARENT 10 17 84 44 50 55
REMARK Flexibility Score: inf
ROOT
ATOM      1  C   UNL A   1      38.539  21.925  25.604  1.00  0.00     0.274 C 
ENDROOT
BRANCH   1   2
ATOM      2  O   UNL A   1      37.310  22.700  25.719  1.00  0.00    -0.462 OA
BRANCH   2   3
ATOM      3  C   UNL A   1      36.002  22.596  25.450  1.00  0.00     0.305 C 
ATOM      4  O   UNL A   1      35.285  22.042  26.287  1.00  0.00    -0.252 OA
BRANCH   3   5
ATOM      5  C   UNL A   1      35.360  23.083  24.173  1.00  0.00     0.124 C 
BRANCH   5   6
ATOM      6  C   UNL A   1      33.984  22.574  23.710  1.00  0.00     0.033 C 
BRANCH   6   7
ATOM      7  C   UNL A   1      33.238  23.275  22.541  1.00  0.00     0.124 C 
BRANCH   7   8
ATOM      8  N   UNL A   1      32.734  24.639  22.723  1.00  0.00    -0.300 N 
ATOM      9  N   UNL A   1      31.694  25.084  25.082  1.00  0.00    -0.300 N 
ATOM     10  C   UNL A   1      31.708  26.315  25.789  1.00  0.00     0.323 C 
ATOM     11  C   UNL A   1      32.552  25.299  23.963  1.00  0.00     0.231 C 
ATOM     12  O   UNL A   1      31.400  26.468  26.957  1.00  0.00    -0.248 OA
ATOM     13  N   UNL A   1      32.074  27.308  24.835  1.00  0.00    -0.300 N 
ATOM     14  C   UNL A   1      32.002  26.658  23.565  1.00  0.00     0.228 C 
ATOM     15  N   UNL A   1      32.689  26.919  22.370  1.00  0.00    -0.314 N 
ATOM     16  C   UNL A   1      32.919  25.667  21.752  1.00  0.00     0.320 C 
ATOM     17  H   UNL A   1      32.959  27.802  22.028  1.00  0.00     0.167 HD
ATOM     18  O   UNL A   1      33.215  25.535  20.578  1.00  0.00    -0.249 OA
BRANCH   9  19
ATOM     19  C   UNL A   1      30.932  23.943  25.516  1.00  0.00     0.120 C 
ATOM     20  C   UNL A   1      31.602  23.057  26.544  1.00  0.00     0.027 C 
ENDBRANCH   9  19
BRANCH  13  21
ATOM     21  C   UNL A   1      32.200  28.723  25.079  1.00  0.00     0.120 C 
ATOM     22  C   UNL A   1      30.999  29.522  24.596  1.00  0.00     0.027 C 
ENDBRANCH  13  21
ENDBRANCH   7   8
ENDBRANCH   6   7
ENDBRANCH   5   6
ENDBRANCH   3   5
ENDBRANCH   2   3
ENDBRANCH   1   2
BRANCH   1  23
ATOM     23  C   UNL A   1      39.648  22.406  26.551  1.00  0.00     0.275 C 
BRANCH  23  24
ATOM     24  O   UNL A   1      39.648  23.836  26.605  1.00  0.00    -0.458 OA
BRANCH  24  25
ATOM     25  C   UNL A   1      40.881  24.335  26.919  1.00  0.00     0.338 C 
ATOM     26  O   UNL A   1      41.895  24.153  26.296  1.00  0.00    -0.246 OA
BRANCH  25  27
ATOM     27  C   UNL A   1      40.708  25.398  27.941  1.00  0.00     0.060 A 
ATOM     28  C   UNL A   1      41.745  26.330  28.066  1.00  0.00     0.016 A 
ATOM     29  C   UNL A   1      39.527  25.552  28.668  1.00  0.00     0.016 A 
ATOM     30  C   UNL A   1      41.590  27.450  28.870  1.00  0.00     0.010 A 
ATOM     31  C   UNL A   1      39.392  26.647  29.521  1.00  0.00     0.010 A 
ATOM     32  C   UNL A   1      40.423  27.596  29.619  1.00  0.00    -0.014 A 
BRANCH  32  33
ATOM     33  C   UNL A   1      40.370  28.650  30.646  1.00  0.00     0.031 A 
ATOM     34  C   UNL A   1      41.304  28.526  31.809  1.00  0.00     0.074 A 
ATOM     35  C   UNL A   1      39.533  29.693  30.518  1.00  0.00     0.049 A 
ATOM     36  N   UNL A   1      41.391  29.261  32.883  1.00  0.00    -0.248 NA
ATOM     37  C   UNL A   1      42.275  27.418  31.751  1.00  0.00     0.031 C 
ATOM     38  C   UNL A   1      38.645  29.932  29.380  1.00  0.00     0.029 A 
ATOM     39  N   UNL A   1      39.289  30.742  31.364  1.00  0.00    -0.354 N 
ATOM     40  C   UNL A   1      42.418  28.702  33.631  1.00  0.00     0.074 A 
ATOM     41  C   UNL A   1      42.914  27.558  32.901  1.00  0.00     0.031 C 
ATOM     42  C   UNL A   1      37.927  31.043  29.616  1.00  0.00     0.029 A 
ATOM     43  C   UNL A   1      38.284  31.572  30.931  1.00  0.00     0.049 A 
ATOM     44  H   UNL A   1      39.786  30.887  32.201  1.00  0.00     0.167 HD
ATOM     45  C   UNL A   1      42.900  29.115  34.825  1.00  0.00     0.037 A 
ATOM     46  C   UNL A   1      37.704  32.618  31.550  1.00  0.00     0.037 A 
ATOM     47  C   UNL A   1      42.377  30.248  35.538  1.00  0.00     0.049 A 
ATOM     48  C   UNL A   1      38.208  33.018  32.913  1.00  0.00     0.074 A 
ATOM     49  C   UNL A   1      42.765  30.746  36.768  1.00  0.00     0.029 A 
ATOM     50  N   UNL A   1      41.345  31.058  35.080  1.00  0.00    -0.354 N 
ATOM     51  N   UNL A   1      39.166  32.475  33.630  1.00  0.00    -0.248 NA
ATOM     52  C   UNL A   1      37.560  34.170  33.554  1.00  0.00     0.031 C 
ATOM     53  C   UNL A   1      41.939  31.834  37.072  1.00  0.00     0.029 A 
ATOM     54  C   UNL A   1      41.073  32.045  36.010  1.00  0.00     0.049 A 
ATOM     55  H   UNL A   1      40.879  30.946  34.221  1.00  0.00     0.167 HD
ATOM     56  C   UNL A   1      39.249  33.228  34.794  1.00  0.00     0.074 A 
ATOM     57  C   UNL A   1      38.251  34.274  34.681  1.00  0.00     0.031 C 
ATOM     58  C   UNL A   1      40.074  33.075  35.861  1.00  0.00     0.037 A 
BRANCH  45  59
ATOM     59  C   UNL A   1      44.008  28.310  35.438  1.00  0.00     0.058 A 
ATOM     60  C   UNL A   1      45.359  28.616  35.206  1.00  0.00     0.135 A 
ATOM     61  C   UNL A   1      43.716  27.219  36.270  1.00  0.00     0.135 A 
ATOM     62  F   UNL A   1      45.693  29.629  34.391  1.00  0.00    -0.206 F 
ATOM     63  C   UNL A   1      46.382  27.858  35.767  1.00  0.00     0.059 A 
ATOM     64  C   UNL A   1      44.722  26.462  36.862  1.00  0.00     0.059 A 
ATOM     65  F   UNL A   1      42.441  26.874  36.510  1.00  0.00    -0.206 F 
ATOM     66  C   UNL A   1      46.052  26.783  36.595  1.00  0.00     0.060 A 
BRANCH  66  67
ATOM     67  S   UNL A   1      47.390  25.818  37.327  1.00  0.00     0.124 S 
ATOM     68  O   UNL A   1      48.566  26.471  36.760  1.00  0.00    -0.237 OA
ATOM     69  O   UNL A   1      47.179  26.023  38.756  1.00  0.00    -0.237 OA
ATOM     70  O   UNL A   1      47.134  24.463  36.846  1.00  0.00    -0.744 OA
ENDBRANCH  66  67
ENDBRANCH  45  59
BRANCH  46  71
ATOM     71  C   UNL A   1      36.571  33.333  30.902  1.00  0.00     0.058 A 
ATOM     72  C   UNL A   1      36.775  34.184  29.806  1.00  0.00     0.135 A 
ATOM     73  C   UNL A   1      35.254  33.163  31.359  1.00  0.00     0.135 A 
ATOM     74  F   UNL A   1      38.016  34.390  29.339  1.00  0.00    -0.206 F 
ATOM     75  C   UNL A   1      35.717  34.846  29.190  1.00  0.00     0.059 A 
ATOM     76  C   UNL A   1      34.178  33.796  30.745  1.00  0.00     0.059 A 
ATOM     77  F   UNL A   1      35.001  32.354  32.400  1.00  0.00    -0.206 F 
ATOM     78  C   UNL A   1      34.419  34.643  29.665  1.00  0.00     0.060 A 
BRANCH  78  79
ATOM     79  S   UNL A   1      33.048  35.465  28.825  1.00  0.00     0.124 S 
ATOM     80  O   UNL A   1      32.468  34.367  28.061  1.00  0.00    -0.237 OA
ATOM     81  O   UNL A   1      32.250  35.954  29.945  1.00  0.00    -0.237 OA
ATOM     82  O   UNL A   1      33.709  36.502  28.038  1.00  0.00    -0.744 OA
ENDBRANCH  78  79
ENDBRANCH  46  71
BRANCH  58  83
ATOM     83  C   UNL A   1      39.954  34.075  36.975  1.00  0.00     0.058 A 
ATOM     84  C   UNL A   1      40.575  35.331  36.907  1.00  0.00     0.135 A 
ATOM     85  C   UNL A   1      39.147  33.798  38.091  1.00  0.00     0.135 A 
ATOM     86  F   UNL A   1      41.360  35.642  35.863  1.00  0.00    -0.206 F 
ATOM     87  C   UNL A   1      40.414  36.273  37.916  1.00  0.00     0.059 A 
ATOM     88  C   UNL A   1      38.951  34.736  39.098  1.00  0.00     0.059 A 
ATOM     89  F   UNL A   1      38.520  32.615  38.195  1.00  0.00    -0.206 F 
ATOM     90  C   UNL A   1      39.598  35.967  39.008  1.00  0.00     0.060 A 
BRANCH  90  91
ATOM     91  S   UNL A   1      39.363  37.215  40.290  1.00  0.00     0.124 S 
ATOM     92  O   UNL A   1      38.712  38.286  39.541  1.00  0.00    -0.237 OA
ATOM     93  O   UNL A   1      38.523  36.517  41.258  1.00  0.00    -0.237 OA
ATOM     94  O   UNL A   1      40.722  37.501  40.740  1.00  0.00    -0.744 OA
ENDBRANCH  90  91
ENDBRANCH  58  83
ENDBRANCH  32  33
ENDBRANCH  25  27
ENDBRANCH  24  25
ENDBRANCH  23  24
ENDBRANCH   1  23
TORSDOF 19
ENDMDL
MODEL 3
REMARK VINA RESULT:     -10.4      6.405     11.276
REMARK SMILES CCN1C(=O)N(CC)[C@H]2NC(=O)N(CCCC(=O)OCCOC(=O)c3ccc(-c4c5nc(c(-c6c(F)cc(S(=O)(=O)[O-])cc6F)c6ccc([nH]6)c(-c6c(F)cc(S(=O)(=O)[O-])cc6F)c6nc(c(-c7c(F)cc(S(=O)(=O)[O-])cc7F)c7ccc4[nH]7)C=C6)C=C5)cc3)[C@@H]21
REMARK SMILES IDX 20 1 19 2 17 3 18 4 16 5 15 6 14 7 13 8 3 9 4 10 91 11 5 12
REMARK SMILES IDX 6 13 9 14 10 15 11 16 12 18 2 19 1 20 7 21 8 22 21 23 22 24
REMARK SMILES IDX 23 25 24 26 25 27 26 28 90 29 27 30 89 31 28 32 29 33 30 34
REMARK SMILES IDX 83 35 31 36 88 37 82 38 84 39 32 40 87 41 81 42 80 43 33 45
REMARK SMILES IDX 67 46 46 47 66 48 47 49 50 50 65 51 85 52 48 53 49 54 64 56
REMARK SMILES IDX 86 57 51 58 34 59 35 60 44 61 36 62 37 63 43 64 45 65 38 66
REMARK SMILES IDX 39 67 40 68 41 69 42 70 68 71 69 72 78 73 70 74 71 75 77 76
REMARK SMILES IDX 79 77 72 78 73 79 74 80 75 81 76 82 52 83 53 84 62 85 54 86
REMARK SMILES IDX 55 87 61 88 63 89 56 90 57 91 58 92 59 93 60 94
REMARK H PARENT 10 17 84 44 50 55
REMARK Flexibility Score: inf
ROOT
ATOM      1  C   UNL A   1      38.418  21.545  25.678  1.00  0.00     0.274 C 
ENDROOT
BRANCH   1   2
ATOM      2  O   UNL A   1      37.241  21.604  24.823  1.00  0.00    -0.462 OA
BRANCH   2   3
ATOM      3  C   UNL A   1      35.933  21.315  24.855  1.00  0.00     0.305 C 
ATOM      4  O   UNL A   1      35.609  20.134  25.001  1.00  0.00    -0.252 OA
BRANCH   3   5
ATOM      5  C   UNL A   1      34.837  22.339  24.688  1.00  0.00     0.124 C 
BRANCH   5   6
ATOM      6  C   UNL A   1      34.820  23.325  23.506  1.00  0.00     0.033 C 
BRANCH   6   7
ATOM      7  C   UNL A   1      33.576  23.420  22.579  1.00  0.00     0.124 C 
BRANCH   7   8
ATOM      8  N   UNL A   1      32.764  24.640  22.587  1.00  0.00    -0.300 N 
ATOM      9  N   UNL A   1      31.512  25.072  24.844  1.00  0.00    -0.300 N 
ATOM     10  C   UNL A   1      31.202  26.337  25.406  1.00  0.00     0.323 C 
ATOM     11  C   UNL A   1      32.363  25.363  23.737  1.00  0.00     0.231 C 
ATOM     12  O   UNL A   1      30.798  26.534  26.538  1.00  0.00    -0.248 OA
ATOM     13  N   UNL A   1      31.387  27.284  24.358  1.00  0.00    -0.300 N 
ATOM     14  C   UNL A   1      31.542  26.508  23.169  1.00  0.00     0.228 C 
ATOM     15  N   UNL A   1      32.220  26.798  21.975  1.00  0.00    -0.314 N 
ATOM     16  C   UNL A   1      32.766  25.578  21.512  1.00  0.00     0.320 C 
ATOM     17  H   UNL A   1      32.302  27.680  21.544  1.00  0.00     0.167 HD
ATOM     18  O   UNL A   1      33.154  25.397  20.372  1.00  0.00    -0.249 OA
BRANCH   9  19
ATOM     19  C   UNL A   1      31.006  23.835  25.379  1.00  0.00     0.120 C 
ATOM     20  C   UNL A   1      31.773  23.263  26.551  1.00  0.00     0.027 C 
ENDBRANCH   9  19
BRANCH  13  21
ATOM     21  C   UNL A   1      31.172  28.707  24.442  1.00  0.00     0.120 C 
ATOM     22  C   UNL A   1      30.113  29.210  23.474  1.00  0.00     0.027 C 
ENDBRANCH  13  21
ENDBRANCH   7   8
ENDBRANCH   6   7
ENDBRANCH   5   6
ENDBRANCH   3   5
ENDBRANCH   2   3
ENDBRANCH   1   2
BRANCH   1  23
ATOM     23  C   UNL A   1      39.144  20.193  25.617  1.00  0.00     0.275 C 
BRANCH  23  24
ATOM     24  O   UNL A   1      40.027  20.070  26.737  1.00  0.00    -0.458 OA
BRANCH  24  25
ATOM     25  C   UNL A   1      41.330  19.935  26.347  1.00  0.00     0.338 C 
ATOM     26  O   UNL A   1      41.786  19.017  25.715  1.00  0.00    -0.246 OA
BRANCH  25  27
ATOM     27  C   UNL A   1      42.008  21.243  26.528  1.00  0.00     0.060 A 
ATOM     28  C   UNL A   1      42.319  21.618  27.841  1.00  0.00     0.016 A 
ATOM     29  C   UNL A   1      42.433  22.021  25.451  1.00  0.00     0.016 A 
ATOM     30  C   UNL A   1      43.103  22.736  28.085  1.00  0.00     0.010 A 
ATOM     31  C   UNL A   1      43.172  23.178  25.698  1.00  0.00     0.010 A 
ATOM     32  C   UNL A   1      43.508  23.533  27.015  1.00  0.00    -0.014 A 
BRANCH  32  33
ATOM     33  C   UNL A   1      44.126  24.838  27.300  1.00  0.00     0.031 A 
ATOM     34  C   UNL A   1      43.225  25.938  27.769  1.00  0.00     0.074 A 
ATOM     35  C   UNL A   1      45.451  25.015  27.170  1.00  0.00     0.049 A 
ATOM     36  N   UNL A   1      43.499  27.193  27.997  1.00  0.00    -0.248 NA
ATOM     37  C   UNL A   1      41.819  25.570  28.017  1.00  0.00     0.031 C 
ATOM     38  C   UNL A   1      46.411  23.979  26.794  1.00  0.00     0.029 A 
ATOM     39  N   UNL A   1      46.215  26.141  27.332  1.00  0.00    -0.354 N 
ATOM     40  C   UNL A   1      42.303  27.766  28.406  1.00  0.00     0.074 A 
ATOM     41  C   UNL A   1      41.295  26.730  28.380  1.00  0.00     0.031 C 
ATOM     42  C   UNL A   1      47.636  24.527  26.721  1.00  0.00     0.029 A 
ATOM     43  C   UNL A   1      47.538  25.955  27.016  1.00  0.00     0.049 A 
ATOM     44  H   UNL A   1      45.850  27.000  27.644  1.00  0.00     0.167 HD
ATOM     45  C   UNL A   1      42.073  29.046  28.769  1.00  0.00     0.037 A 
ATOM     46  C   UNL A   1      48.541  26.851  26.944  1.00  0.00     0.037 A 
ATOM     47  C   UNL A   1      43.090  30.062  28.771  1.00  0.00     0.049 A 
ATOM     48  C   UNL A   1      48.247  28.289  27.285  1.00  0.00     0.074 A 
ATOM     49  C   UNL A   1      42.971  31.401  29.093  1.00  0.00     0.029 A 
ATOM     50  N   UNL A   1      44.418  29.844  28.427  1.00  0.00    -0.354 N 
ATOM     51  N   UNL A   1      47.109  28.834  27.650  1.00  0.00    -0.248 NA
ATOM     52  C   UNL A   1      49.367  29.236  27.207  1.00  0.00     0.031 C 
ATOM     53  C   UNL A   1      44.220  32.002  28.905  1.00  0.00     0.029 A 
ATOM     54  C   UNL A   1      45.128  31.028  28.516  1.00  0.00     0.049 A 
ATOM     55  H   UNL A   1      44.798  28.976  28.161  1.00  0.00     0.167 HD
ATOM     56  C   UNL A   1      47.378  30.180  27.865  1.00  0.00     0.074 A 
ATOM     57  C   UNL A   1      48.792  30.365  27.599  1.00  0.00     0.031 C 
ATOM     58  C   UNL A   1      46.538  31.174  28.248  1.00  0.00     0.037 A 
BRANCH  45  59
ATOM     59  C   UNL A   1      40.668  29.416  29.147  1.00  0.00     0.058 A 
ATOM     60  C   UNL A   1      39.654  29.546  28.184  1.00  0.00     0.135 A 
ATOM     61  C   UNL A   1      40.330  29.639  30.490  1.00  0.00     0.135 A 
ATOM     62  F   UNL A   1      39.931  29.375  26.882  1.00  0.00    -0.206 F 
ATOM     63  C   UNL A   1      38.356  29.901  28.540  1.00  0.00     0.059 A 
ATOM     64  C   UNL A   1      39.034  29.970  30.872  1.00  0.00     0.059 A 
ATOM     65  F   UNL A   1      41.266  29.544  31.448  1.00  0.00    -0.206 F 
ATOM     66  C   UNL A   1      38.056  30.110  29.888  1.00  0.00     0.060 A 
BRANCH  66  67
ATOM     67  S   UNL A   1      36.366  30.556  30.335  1.00  0.00     0.124 S 
ATOM     68  O   UNL A   1      36.092  29.617  31.418  1.00  0.00    -0.237 OA
ATOM     69  O   UNL A   1      36.505  31.954  30.729  1.00  0.00    -0.237 OA
ATOM     70  O   UNL A   1      35.617  30.327  29.102  1.00  0.00    -0.744 OA
ENDBRANCH  66  67
ENDBRANCH  45  59
BRANCH  46  71
ATOM     71  C   UNL A   1      49.896  26.419  26.507  1.00  0.00     0.058 A 
ATOM     72  C   UNL A   1      50.289  26.493  25.164  1.00  0.00     0.135 A 
ATOM     73  C   UNL A   1      50.834  25.937  27.435  1.00  0.00     0.135 A 
ATOM     74  F   UNL A   1      49.426  26.934  24.236  1.00  0.00    -0.206 F 
ATOM     75  C   UNL A   1      51.559  26.098  24.752  1.00  0.00     0.059 A 
ATOM     76  C   UNL A   1      52.118  25.560  27.052  1.00  0.00     0.059 A 
ATOM     77  F   UNL A   1      50.513  25.851  28.736  1.00  0.00    -0.206 F 
ATOM     78  C   UNL A   1      52.470  25.636  25.705  1.00  0.00     0.060 A 
BRANCH  78  79
ATOM     79  S   UNL A   1      54.132  25.178  25.169  1.00  0.00     0.124 S 
ATOM     80  O   UNL A   1      54.937  25.595  26.312  1.00  0.00    -0.237 OA
ATOM     81  O   UNL A   1      54.005  23.737  24.970  1.00  0.00    -0.237 OA
ATOM     82  O   UNL A   1      54.319  25.957  23.949  1.00  0.00    -0.744 OA
ENDBRANCH  78  79
ENDBRANCH  46  71
BRANCH  58  83
ATOM     83  C   UNL A   1      47.129  32.543  28.432  1.00  0.00     0.058 A 
ATOM     84  C   UNL A   1      47.745  32.924  29.633  1.00  0.00     0.135 A 
ATOM     85  C   UNL A   1      47.141  33.458  27.366  1.00  0.00     0.135 A 
ATOM     86  F   UNL A   1      47.756  32.087  30.683  1.00  0.00    -0.206 F 
ATOM     87  C   UNL A   1      48.339  34.173  29.778  1.00  0.00     0.059 A 
ATOM     88  C   UNL A   1      47.753  34.701  27.480  1.00  0.00     0.059 A 
ATOM     89  F   UNL A   1      46.576  33.135  26.191  1.00  0.00    -0.206 F 
ATOM     90  C   UNL A   1      48.340  35.054  28.694  1.00  0.00     0.060 A 
BRANCH  90  91
ATOM     91  S   UNL A   1      49.152  36.655  28.881  1.00  0.00     0.124 S 
ATOM     92  O   UNL A   1      48.031  37.574  28.704  1.00  0.00    -0.237 OA
ATOM     93  O   UNL A   1      49.698  36.574  30.232  1.00  0.00    -0.237 OA
ATOM     94  O   UNL A   1      50.143  36.661  27.809  1.00  0.00    -0.744 OA
ENDBRANCH  90  91
ENDBRANCH  58  83
ENDBRANCH  32  33
ENDBRANCH  25  27
ENDBRANCH  24  25
ENDBRANCH  23  24
ENDBRANCH   1  23
TORSDOF 19
ENDMDL
