MODEL 1
REMARK VINA RESULT:     -11.7      0.000      0.000
REMARK SMILES Cc1ccc([C@@H](C)[NH2+][C@@H](C)CCC(=O)OCCOC(=O)c2ccc(-c3c4nc(c(-c5c(F)cc(S(=O)(=O)[O-])cc5F)c5ccc([nH]5)c(-c5c(F)cc(S(=O)(=O)[O-])cc5F)c5nc(c(-c6c(F)cc(S(=O)(=O)[O-])cc6F)c6ccc3[nH]6)C=C5)C=C4)cc2)cc1F
REMARK SMILES IDX 16 1 15 2 13 3 14 4 12 5 11 6 9 7 10 8 8 9 6 12 7 13 5 14
REMARK SMILES IDX 1 15 2 16 3 17 88 18 4 19 87 20 89 21 17 22 18 23 19 24
REMARK SMILES IDX 20 25 21 26 22 27 86 28 23 29 85 30 24 31 25 32 26 33 79 34
REMARK SMILES IDX 27 35 84 36 78 37 80 38 28 39 83 40 77 41 76 42 29 44 63 45
REMARK SMILES IDX 42 46 62 47 43 48 46 49 61 50 81 51 44 52 45 53 60 55 82 56
REMARK SMILES IDX 47 57 30 58 31 59 40 60 32 61 33 62 39 63 41 64 34 65 35 66
REMARK SMILES IDX 36 67 37 68 38 69 64 70 65 71 74 72 66 73 67 74 73 75 75 76
REMARK SMILES IDX 68 77 69 78 70 79 71 80 72 81 48 82 49 83 58 84 50 85 51 86
REMARK SMILES IDX 57 87 59 88 52 89 53 90 54 91 55 92 56 93
REMARK H PARENT 8 10 8 11 80 43 46 54
REMARK Flexibility Score: inf
ROOT
ATOM      1  C   UNL A   1      33.355  29.203  25.897  1.00  0.00     0.274 C 
ENDROOT
BRANCH   1   2
ATOM      2  O   UNL A   1      33.207  27.901  26.482  1.00  0.00    -0.462 OA
BRANCH   2   3
ATOM      3  C   UNL A   1      31.971  27.545  26.893  1.00  0.00     0.306 C 
ATOM      4  O   UNL A   1      31.527  27.743  28.020  1.00  0.00    -0.252 OA
BRANCH   3   5
ATOM      5  C   UNL A   1      31.145  26.978  25.758  1.00  0.00     0.129 C 
BRANCH   5   6
ATOM      6  C   UNL A   1      31.824  26.054  24.740  1.00  0.00     0.076 C 
BRANCH   6   7
ATOM      7  C   UNL A   1      31.876  24.552  25.079  1.00  0.00     0.180 C 
ATOM      8  C   UNL A   1      31.157  24.300  26.412  1.00  0.00     0.075 C 
BRANCH   7   9
ATOM      9  N   UNL A   1      33.292  24.213  25.183  1.00  0.00    -0.338 N 
ATOM     10  H   UNL A   1      33.824  25.072  25.053  1.00  0.00     0.347 HD
ATOM     11  H   UNL A   1      33.395  23.778  26.100  1.00  0.00     0.347 HD
BRANCH   9  12
ATOM     12  C   UNL A   1      33.807  23.227  24.234  1.00  0.00     0.210 C 
ATOM     13  C   UNL A   1      33.008  21.922  24.158  1.00  0.00     0.081 C 
BRANCH  12  14
ATOM     14  C   UNL A   1      35.241  22.920  24.648  1.00  0.00     0.012 A 
ATOM     15  C   UNL A   1      39.172  21.904  26.107  1.00  0.00     0.047 C 
ATOM     16  C   UNL A   1      37.828  22.288  25.576  1.00  0.00    -0.015 A 
ATOM     17  C   UNL A   1      37.276  23.551  25.821  1.00  0.00     0.007 A 
ATOM     18  C   UNL A   1      37.082  21.359  24.852  1.00  0.00     0.126 A 
ATOM     19  C   UNL A   1      35.992  23.863  25.365  1.00  0.00     0.010 A 
ATOM     20  C   UNL A   1      35.816  21.667  24.376  1.00  0.00     0.049 A 
ATOM     21  F   UNL A   1      37.581  20.136  24.620  1.00  0.00    -0.207 F 
ENDBRANCH  12  14
ENDBRANCH   9  12
ENDBRANCH   7   9
ENDBRANCH   6   7
ENDBRANCH   5   6
ENDBRANCH   3   5
ENDBRANCH   2   3
ENDBRANCH   1   2
BRANCH   1  22
ATOM     22  C   UNL A   1      33.888  30.148  26.971  1.00  0.00     0.275 C 
BRANCH  22  23
ATOM     23  O   UNL A   1      34.907  29.497  27.762  1.00  0.00    -0.458 OA
BRANCH  23  24
ATOM     24  C   UNL A   1      35.794  30.347  28.361  1.00  0.00     0.338 C 
ATOM     25  O   UNL A   1      35.500  31.449  28.762  1.00  0.00    -0.246 OA
BRANCH  24  26
ATOM     26  C   UNL A   1      37.104  29.701  28.615  1.00  0.00     0.060 A 
ATOM     27  C   UNL A   1      38.114  29.795  27.642  1.00  0.00     0.016 A 
ATOM     28  C   UNL A   1      37.321  29.009  29.805  1.00  0.00     0.016 A 
ATOM     29  C   UNL A   1      39.326  29.127  27.828  1.00  0.00     0.010 A 
ATOM     30  C   UNL A   1      38.517  28.348  29.988  1.00  0.00     0.010 A 
ATOM     31  C   UNL A   1      39.507  28.387  28.994  1.00  0.00    -0.014 A 
BRANCH  31  32
ATOM     32  C   UNL A   1      40.749  27.733  29.370  1.00  0.00     0.031 A 
ATOM     33  C   UNL A   1      41.009  26.353  28.902  1.00  0.00     0.074 A 
ATOM     34  C   UNL A   1      41.747  28.478  29.889  1.00  0.00     0.049 A 
ATOM     35  N   UNL A   1      42.002  25.629  29.291  1.00  0.00    -0.248 NA
ATOM     36  C   UNL A   1      40.133  25.656  27.964  1.00  0.00     0.031 C 
ATOM     37  C   UNL A   1      43.176  28.226  29.773  1.00  0.00     0.029 A 
ATOM     38  N   UNL A   1      41.669  29.596  30.711  1.00  0.00    -0.354 N 
ATOM     39  C   UNL A   1      42.084  24.543  28.448  1.00  0.00     0.074 A 
ATOM     40  C   UNL A   1      40.837  24.544  27.720  1.00  0.00     0.031 C 
ATOM     41  C   UNL A   1      43.833  29.020  30.632  1.00  0.00     0.029 A 
ATOM     42  C   UNL A   1      42.845  29.658  31.484  1.00  0.00     0.049 A 
ATOM     43  H   UNL A   1      40.922  30.235  30.746  1.00  0.00     0.167 HD
ATOM     44  C   UNL A   1      43.264  23.859  28.366  1.00  0.00     0.037 A 
ATOM     45  C   UNL A   1      42.803  29.494  32.850  1.00  0.00     0.037 A 
ATOM     46  C   UNL A   1      44.257  24.429  29.276  1.00  0.00     0.049 A 
ATOM     47  C   UNL A   1      43.450  28.230  33.366  1.00  0.00     0.074 A 
ATOM     48  C   UNL A   1      45.290  25.341  29.129  1.00  0.00     0.029 A 
ATOM     49  N   UNL A   1      44.065  24.289  30.632  1.00  0.00    -0.354 N 
ATOM     50  N   UNL A   1      44.039  27.344  32.616  1.00  0.00    -0.248 NA
ATOM     51  C   UNL A   1      43.402  27.822  34.770  1.00  0.00     0.031 C 
ATOM     52  C   UNL A   1      45.708  25.747  30.430  1.00  0.00     0.029 A 
ATOM     53  C   UNL A   1      44.938  25.070  31.360  1.00  0.00     0.049 A 
ATOM     54  H   UNL A   1      43.386  23.702  31.034  1.00  0.00     0.167 HD
ATOM     55  C   UNL A   1      44.331  26.235  33.363  1.00  0.00     0.074 A 
ATOM     56  C   UNL A   1      43.946  26.594  34.715  1.00  0.00     0.031 C 
ATOM     57  C   UNL A   1      44.807  25.085  32.807  1.00  0.00     0.037 A 
BRANCH  44  58
ATOM     58  C   UNL A   1      43.624  22.820  27.324  1.00  0.00     0.058 A 
ATOM     59  C   UNL A   1      42.873  21.624  27.234  1.00  0.00     0.135 A 
ATOM     60  C   UNL A   1      44.677  22.921  26.393  1.00  0.00     0.135 A 
ATOM     61  F   UNL A   1      41.793  21.409  27.997  1.00  0.00    -0.206 F 
ATOM     62  C   UNL A   1      43.189  20.586  26.359  1.00  0.00     0.059 A 
ATOM     63  C   UNL A   1      45.040  21.875  25.536  1.00  0.00     0.059 A 
ATOM     64  F   UNL A   1      45.365  24.058  26.235  1.00  0.00    -0.206 F 
ATOM     65  C   UNL A   1      44.293  20.705  25.531  1.00  0.00     0.060 A 
BRANCH  65  66
ATOM     66  S   UNL A   1      44.702  19.328  24.446  1.00  0.00     0.124 S 
ATOM     67  O   UNL A   1      44.441  19.892  23.125  1.00  0.00    -0.237 OA
ATOM     68  O   UNL A   1      46.105  19.090  24.768  1.00  0.00    -0.237 OA
ATOM     69  O   UNL A   1      43.776  18.277  24.864  1.00  0.00    -0.744 OA
ENDBRANCH  65  66
ENDBRANCH  44  58
BRANCH  45  70
ATOM     70  C   UNL A   1      41.631  30.162  33.506  1.00  0.00     0.058 A 
ATOM     71  C   UNL A   1      41.770  31.555  33.627  1.00  0.00     0.135 A 
ATOM     72  C   UNL A   1      40.360  29.644  33.213  1.00  0.00     0.135 A 
ATOM     73  F   UNL A   1      42.937  32.085  34.027  1.00  0.00    -0.206 F 
ATOM     74  C   UNL A   1      40.838  32.394  33.047  1.00  0.00     0.059 A 
ATOM     75  C   UNL A   1      39.415  30.461  32.607  1.00  0.00     0.059 A 
ATOM     76  F   UNL A   1      40.153  28.318  33.223  1.00  0.00    -0.206 F 
ATOM     77  C   UNL A   1      39.762  31.799  32.392  1.00  0.00     0.060 A 
BRANCH  77  78
ATOM     78  S   UNL A   1      39.222  32.625  30.875  1.00  0.00     0.124 S 
ATOM     79  O   UNL A   1      39.713  33.986  31.046  1.00  0.00    -0.237 OA
ATOM     80  O   UNL A   1      39.912  31.824  29.867  1.00  0.00    -0.237 OA
ATOM     81  O   UNL A   1      37.779  32.471  30.910  1.00  0.00    -0.744 OA
ENDBRANCH  77  78
ENDBRANCH  45  70
BRANCH  57  82
ATOM     82  C   UNL A   1      45.147  23.860  33.610  1.00  0.00     0.058 A 
ATOM     83  C   UNL A   1      46.458  23.591  34.032  1.00  0.00     0.135 A 
ATOM     84  C   UNL A   1      44.189  22.858  33.886  1.00  0.00     0.135 A 
ATOM     85  F   UNL A   1      47.458  24.444  33.756  1.00  0.00    -0.206 F 
ATOM     86  C   UNL A   1      46.785  22.436  34.743  1.00  0.00     0.059 A 
ATOM     87  C   UNL A   1      44.505  21.672  34.535  1.00  0.00     0.059 A 
ATOM     88  F   UNL A   1      42.896  23.010  33.570  1.00  0.00    -0.206 F 
ATOM     89  C   UNL A   1      45.800  21.484  34.992  1.00  0.00     0.060 A 
BRANCH  89  90
ATOM     90  S   UNL A   1      46.217  19.997  35.917  1.00  0.00     0.124 S 
ATOM     91  O   UNL A   1      45.451  18.967  35.221  1.00  0.00    -0.237 OA
ATOM     92  O   UNL A   1      47.664  19.941  35.733  1.00  0.00    -0.237 OA
ATOM     93  O   UNL A   1      45.764  20.300  37.271  1.00  0.00    -0.744 OA
ENDBRANCH  89  90
ENDBRANCH  57  82
ENDBRANCH  31  32
ENDBRANCH  24  26
ENDBRANCH  23  24
ENDBRANCH  22  23
ENDBRANCH   1  22
TORSDOF 19
ENDMDL
MODEL 2
REMARK VINA RESULT:     -11.5      1.382      2.184
REMARK SMILES Cc1ccc([C@@H](C)[NH2+][C@@H](C)CCC(=O)OCCOC(=O)c2ccc(-c3c4nc(c(-c5c(F)cc(S(=O)(=O)[O-])cc5F)c5ccc([nH]5)c(-c5c(F)cc(S(=O)(=O)[O-])cc5F)c5nc(c(-c6c(F)cc(S(=O)(=O)[O-])cc6F)c6ccc3[nH]6)C=C5)C=C4)cc2)cc1F
REMARK SMILES IDX 16 1 15 2 13 3 14 4 12 5 11 6 9 7 10 8 8 9 6 12 7 13 5 14
REMARK SMILES IDX 1 15 2 16 3 17 88 18 4 19 87 20 89 21 17 22 18 23 19 24
REMARK SMILES IDX 20 25 21 26 22 27 86 28 23 29 85 30 24 31 25 32 26 33 79 34
REMARK SMILES IDX 27 35 84 36 78 37 80 38 28 39 83 40 77 41 76 42 29 44 63 45
REMARK SMILES IDX 42 46 62 47 43 48 46 49 61 50 81 51 44 52 45 53 60 55 82 56
REMARK SMILES IDX 47 57 30 58 31 59 40 60 32 61 33 62 39 63 41 64 34 65 35 66
REMARK SMILES IDX 36 67 37 68 38 69 64 70 65 71 74 72 66 73 67 74 73 75 75 76
REMARK SMILES IDX 68 77 69 78 70 79 71 80 72 81 48 82 49 83 58 84 50 85 51 86
REMARK SMILES IDX 57 87 59 88 52 89 53 90 54 91 55 92 56 93
REMARK H PARENT 8 10 8 11 80 43 46 54
REMARK Flexibility Score: inf
ROOT
ATOM      1  C   UNL A   1      32.741  29.865  26.881  1.00  0.00     0.274 C 
ENDROOT
BRANCH   1   2
ATOM      2  O   UNL A   1      32.966  29.992  25.470  1.00  0.00    -0.462 OA
BRANCH   2   3
ATOM      3  C   UNL A   1      32.259  29.178  24.656  1.00  0.00     0.306 C 
ATOM      4  O   UNL A   1      31.034  29.116  24.627  1.00  0.00    -0.252 OA
BRANCH   3   5
ATOM      5  C   UNL A   1      33.157  28.433  23.692  1.00  0.00     0.129 C 
BRANCH   5   6
ATOM      6  C   UNL A   1      33.630  27.022  24.061  1.00  0.00     0.076 C 
BRANCH   6   7
ATOM      7  C   UNL A   1      33.188  25.869  23.139  1.00  0.00     0.180 C 
ATOM      8  C   UNL A   1      31.668  25.931  22.929  1.00  0.00     0.075 C 
BRANCH   7   9
ATOM      9  N   UNL A   1      33.565  24.638  23.828  1.00  0.00    -0.338 N 
ATOM     10  H   UNL A   1      33.810  23.950  23.117  1.00  0.00     0.347 HD
ATOM     11  H   UNL A   1      34.329  24.905  24.450  1.00  0.00     0.347 HD
BRANCH   9  12
ATOM     12  C   UNL A   1      32.559  24.034  24.699  1.00  0.00     0.210 C 
ATOM     13  C   UNL A   1      32.850  24.142  26.199  1.00  0.00     0.081 C 
BRANCH  12  14
ATOM     14  C   UNL A   1      32.456  22.565  24.307  1.00  0.00     0.012 A 
ATOM     15  C   UNL A   1      32.512  18.411  23.140  1.00  0.00     0.047 C 
ATOM     16  C   UNL A   1      32.448  19.853  23.534  1.00  0.00    -0.015 A 
ATOM     17  C   UNL A   1      32.157  20.856  22.602  1.00  0.00     0.007 A 
ATOM     18  C   UNL A   1      32.726  20.219  24.850  1.00  0.00     0.126 A 
ATOM     19  C   UNL A   1      32.165  22.200  22.984  1.00  0.00     0.010 A 
ATOM     20  C   UNL A   1      32.715  21.550  25.244  1.00  0.00     0.049 A 
ATOM     21  F   UNL A   1      33.027  19.279  25.757  1.00  0.00    -0.207 F 
ENDBRANCH  12  14
ENDBRANCH   9  12
ENDBRANCH   7   9
ENDBRANCH   6   7
ENDBRANCH   5   6
ENDBRANCH   3   5
ENDBRANCH   2   3
ENDBRANCH   1   2
BRANCH   1  22
ATOM     22  C   UNL A   1      33.897  29.066  27.477  1.00  0.00     0.275 C 
BRANCH  22  23
ATOM     23  O   UNL A   1      35.161  29.706  27.187  1.00  0.00    -0.458 OA
BRANCH  23  24
ATOM     24  C   UNL A   1      35.790  30.245  28.273  1.00  0.00     0.338 C 
ATOM     25  O   UNL A   1      35.276  31.049  29.015  1.00  0.00    -0.246 OA
BRANCH  24  26
ATOM     26  C   UNL A   1      37.103  29.607  28.532  1.00  0.00     0.060 A 
ATOM     27  C   UNL A   1      38.114  29.699  27.560  1.00  0.00     0.016 A 
ATOM     28  C   UNL A   1      37.322  28.925  29.728  1.00  0.00     0.016 A 
ATOM     29  C   UNL A   1      39.328  29.038  27.753  1.00  0.00     0.010 A 
ATOM     30  C   UNL A   1      38.520  28.271  29.918  1.00  0.00     0.010 A 
ATOM     31  C   UNL A   1      39.511  28.307  28.925  1.00  0.00    -0.014 A 
BRANCH  31  32
ATOM     32  C   UNL A   1      40.757  27.662  29.307  1.00  0.00     0.031 A 
ATOM     33  C   UNL A   1      41.051  26.304  28.800  1.00  0.00     0.074 A 
ATOM     34  C   UNL A   1      41.730  28.406  29.872  1.00  0.00     0.049 A 
ATOM     35  N   UNL A   1      42.048  25.584  29.188  1.00  0.00    -0.248 NA
ATOM     36  C   UNL A   1      40.208  25.623  27.820  1.00  0.00     0.031 C 
ATOM     37  C   UNL A   1      43.165  28.182  29.780  1.00  0.00     0.029 A 
ATOM     38  N   UNL A   1      41.614  29.495  30.728  1.00  0.00    -0.354 N 
ATOM     39  C   UNL A   1      42.167  24.527  28.312  1.00  0.00     0.074 A 
ATOM     40  C   UNL A   1      40.936  24.531  27.556  1.00  0.00     0.031 C 
ATOM     41  C   UNL A   1      43.789  28.959  30.680  1.00  0.00     0.029 A 
ATOM     42  C   UNL A   1      42.771  29.551  31.529  1.00  0.00     0.049 A 
ATOM     43  H   UNL A   1      40.855  30.120  30.767  1.00  0.00     0.167 HD
ATOM     44  C   UNL A   1      43.360  23.866  28.234  1.00  0.00     0.037 A 
ATOM     45  C   UNL A   1      42.702  29.341  32.888  1.00  0.00     0.037 A 
ATOM     46  C   UNL A   1      44.323  24.423  29.184  1.00  0.00     0.049 A 
ATOM     47  C   UNL A   1      43.359  28.072  33.377  1.00  0.00     0.074 A 
ATOM     48  C   UNL A   1      45.342  25.356  29.091  1.00  0.00     0.029 A 
ATOM     49  N   UNL A   1      44.103  24.234  30.530  1.00  0.00    -0.354 N 
ATOM     50  N   UNL A   1      43.980  27.221  32.612  1.00  0.00    -0.248 NA
ATOM     51  C   UNL A   1      43.288  27.617  34.766  1.00  0.00     0.031 C 
ATOM     52  C   UNL A   1      45.725  25.725  30.413  1.00  0.00     0.029 A 
ATOM     53  C   UNL A   1      44.947  25.006  31.303  1.00  0.00     0.049 A 
ATOM     54  H   UNL A   1      43.426  23.623  30.898  1.00  0.00     0.167 HD
ATOM     55  C   UNL A   1      44.275  26.094  33.329  1.00  0.00     0.074 A 
ATOM     56  C   UNL A   1      43.854  26.401  34.682  1.00  0.00     0.031 C 
ATOM     57  C   UNL A   1      44.784  24.971  32.747  1.00  0.00     0.037 A 
BRANCH  44  58
ATOM     58  C   UNL A   1      43.760  22.869  27.167  1.00  0.00     0.058 A 
ATOM     59  C   UNL A   1      43.038  21.660  27.026  1.00  0.00     0.135 A 
ATOM     60  C   UNL A   1      44.827  23.022  26.259  1.00  0.00     0.135 A 
ATOM     61  F   UNL A   1      41.950  21.397  27.763  1.00  0.00    -0.206 F 
ATOM     62  C   UNL A   1      43.393  20.657  26.126  1.00  0.00     0.059 A 
ATOM     63  C   UNL A   1      45.228  22.010  25.376  1.00  0.00     0.059 A 
ATOM     64  F   UNL A   1      45.492  24.177  26.148  1.00  0.00    -0.206 F 
ATOM     65  C   UNL A   1      44.507  20.826  25.321  1.00  0.00     0.060 A 
BRANCH  65  66
ATOM     66  S   UNL A   1      44.965  19.492  24.202  1.00  0.00     0.124 S 
ATOM     67  O   UNL A   1      44.201  18.369  24.737  1.00  0.00    -0.237 OA
ATOM     68  O   UNL A   1      44.517  20.007  22.913  1.00  0.00    -0.237 OA
ATOM     69  O   UNL A   1      46.413  19.389  24.367  1.00  0.00    -0.744 OA
ENDBRANCH  65  66
ENDBRANCH  44  58
BRANCH  45  70
ATOM     70  C   UNL A   1      41.505  29.967  33.539  1.00  0.00     0.058 A 
ATOM     71  C   UNL A   1      41.609  31.360  33.694  1.00  0.00     0.135 A 
ATOM     72  C   UNL A   1      40.251  29.428  33.213  1.00  0.00     0.135 A 
ATOM     73  F   UNL A   1      42.757  31.908  34.125  1.00  0.00    -0.206 F 
ATOM     74  C   UNL A   1      40.669  32.191  33.117  1.00  0.00     0.059 A 
ATOM     75  C   UNL A   1      39.297  30.238  32.609  1.00  0.00     0.059 A 
ATOM     76  F   UNL A   1      40.074  28.098  33.190  1.00  0.00    -0.206 F 
ATOM     77  C   UNL A   1      39.617  31.588  32.431  1.00  0.00     0.060 A 
BRANCH  77  78
ATOM     78  S   UNL A   1      39.084  32.436  30.923  1.00  0.00     0.124 S 
ATOM     79  O   UNL A   1      37.638  32.260  30.939  1.00  0.00    -0.237 OA
ATOM     80  O   UNL A   1      39.562  33.790  31.187  1.00  0.00    -0.237 OA
ATOM     81  O   UNL A   1      39.789  31.720  29.875  1.00  0.00    -0.744 OA
ENDBRANCH  77  78
ENDBRANCH  45  70
BRANCH  57  82
ATOM     82  C   UNL A   1      45.126  23.725  33.517  1.00  0.00     0.058 A 
ATOM     83  C   UNL A   1      44.147  22.791  33.886  1.00  0.00     0.135 A 
ATOM     84  C   UNL A   1      46.430  23.485  34.007  1.00  0.00     0.135 A 
ATOM     85  F   UNL A   1      42.863  22.963  33.533  1.00  0.00    -0.206 F 
ATOM     86  C   UNL A   1      44.453  21.654  34.634  1.00  0.00     0.059 A 
ATOM     87  C   UNL A   1      46.744  22.394  34.808  1.00  0.00     0.059 A 
ATOM     88  F   UNL A   1      47.461  24.280  33.695  1.00  0.00    -0.206 F 
ATOM     89  C   UNL A   1      45.756  21.463  35.088  1.00  0.00     0.060 A 
BRANCH  89  90
ATOM     90  S   UNL A   1      46.156  19.993  36.045  1.00  0.00     0.124 S 
ATOM     91  O   UNL A   1      45.429  18.945  35.335  1.00  0.00    -0.237 OA
ATOM     92  O   UNL A   1      47.609  19.953  35.914  1.00  0.00    -0.237 OA
ATOM     93  O   UNL A   1      45.651  20.306  37.378  1.00  0.00    -0.744 OA
ENDBRANCH  89  90
ENDBRANCH  57  82
ENDBRANCH  31  32
ENDBRANCH  24  26
ENDBRANCH  23  24
ENDBRANCH  22  23
ENDBRANCH   1  22
TORSDOF 19
ENDMDL
MODEL 3
REMARK VINA RESULT:     -11.3      4.720     11.309
REMARK SMILES Cc1ccc([C@@H](C)[NH2+][C@@H](C)CCC(=O)OCCOC(=O)c2ccc(-c3c4nc(c(-c5c(F)cc(S(=O)(=O)[O-])cc5F)c5ccc([nH]5)c(-c5c(F)cc(S(=O)(=O)[O-])cc5F)c5nc(c(-c6c(F)cc(S(=O)(=O)[O-])cc6F)c6ccc3[nH]6)C=C5)C=C4)cc2)cc1F
REMARK SMILES IDX 16 1 15 2 13 3 14 4 12 5 11 6 9 7 10 8 8 9 6 12 7 13 5 14
REMARK SMILES IDX 1 15 2 16 3 17 88 18 4 19 87 20 89 21 17 22 18 23 19 24
REMARK SMILES IDX 20 25 21 26 22 27 86 28 23 29 85 30 24 31 25 32 26 33 79 34
REMARK SMILES IDX 27 35 84 36 78 37 80 38 28 39 83 40 77 41 76 42 29 44 63 45
REMARK SMILES IDX 42 46 62 47 43 48 46 49 61 50 81 51 44 52 45 53 60 55 82 56
REMARK SMILES IDX 47 57 30 58 31 59 40 60 32 61 33 62 39 63 41 64 34 65 35 66
REMARK SMILES IDX 36 67 37 68 38 69 64 70 65 71 74 72 66 73 67 74 73 75 75 76
REMARK SMILES IDX 68 77 69 78 70 79 71 80 72 81 48 82 49 83 58 84 50 85 51 86
REMARK SMILES IDX 57 87 59 88 52 89 53 90 54 91 55 92 56 93
REMARK H PARENT 8 10 8 11 80 43 46 54
REMARK Flexibility Score: inf
ROOT
ATOM      1  C   UNL A   1      37.050  22.096  25.664  1.00  0.00     0.274 C 
ENDROOT
BRANCH   1   2
ATOM      2  O   UNL A   1      35.649  21.796  25.599  1.00  0.00    -0.462 OA
BRANCH   2   3
ATOM      3  C   UNL A   1      35.294  20.620  25.037  1.00  0.00     0.306 C 
ATOM      4  O   UNL A   1      36.055  19.673  24.865  1.00  0.00    -0.252 OA
BRANCH   3   5
ATOM      5  C   UNL A   1      33.808  20.562  24.750  1.00  0.00     0.129 C 
BRANCH   5   6
ATOM      6  C   UNL A   1      33.209  21.557  23.750  1.00  0.00     0.076 C 
BRANCH   6   7
ATOM      7  C   UNL A   1      32.412  22.742  24.329  1.00  0.00     0.180 C 
ATOM      8  C   UNL A   1      31.380  23.221  23.298  1.00  0.00     0.075 C 
BRANCH   7   9
ATOM      9  N   UNL A   1      33.393  23.788  24.604  1.00  0.00    -0.338 N 
ATOM     10  H   UNL A   1      34.319  23.383  24.475  1.00  0.00     0.347 HD
ATOM     11  H   UNL A   1      33.161  24.545  23.960  1.00  0.00     0.347 HD
BRANCH   9  12
ATOM     12  C   UNL A   1      33.357  24.395  25.933  1.00  0.00     0.210 C 
ATOM     13  C   UNL A   1      32.407  23.720  26.928  1.00  0.00     0.081 C 
BRANCH  12  14
ATOM     14  C   UNL A   1      32.945  25.850  25.746  1.00  0.00     0.012 A 
ATOM     15  C   UNL A   1      31.688  29.973  25.555  1.00  0.00     0.047 C 
ATOM     16  C   UNL A   1      32.118  28.541  25.576  1.00  0.00    -0.015 A 
ATOM     17  C   UNL A   1      31.244  27.508  25.219  1.00  0.00     0.007 A 
ATOM     18  C   UNL A   1      33.405  28.215  26.001  1.00  0.00     0.126 A 
ATOM     19  C   UNL A   1      31.653  26.173  25.307  1.00  0.00     0.010 A 
ATOM     20  C   UNL A   1      33.827  26.895  26.071  1.00  0.00     0.049 A 
ATOM     21  F   UNL A   1      34.255  29.186  26.368  1.00  0.00    -0.207 F 
ENDBRANCH  12  14
ENDBRANCH   9  12
ENDBRANCH   7   9
ENDBRANCH   6   7
ENDBRANCH   5   6
ENDBRANCH   3   5
ENDBRANCH   2   3
ENDBRANCH   1   2
BRANCH   1  22
ATOM     22  C   UNL A   1      37.207  23.525  26.179  1.00  0.00     0.275 C 
BRANCH  22  23
ATOM     23  O   UNL A   1      38.476  24.079  25.763  1.00  0.00    -0.458 OA
BRANCH  23  24
ATOM     24  C   UNL A   1      39.452  24.051  26.718  1.00  0.00     0.338 C 
ATOM     25  O   UNL A   1      40.169  23.098  26.916  1.00  0.00    -0.246 OA
BRANCH  24  26
ATOM     26  C   UNL A   1      39.641  25.372  27.364  1.00  0.00     0.060 A 
ATOM     27  C   UNL A   1      39.213  25.554  28.690  1.00  0.00     0.016 A 
ATOM     28  C   UNL A   1      40.235  26.415  26.655  1.00  0.00     0.016 A 
ATOM     29  C   UNL A   1      39.310  26.812  29.287  1.00  0.00     0.010 A 
ATOM     30  C   UNL A   1      40.330  27.657  27.244  1.00  0.00     0.010 A 
ATOM     31  C   UNL A   1      39.848  27.862  28.546  1.00  0.00    -0.014 A 
BRANCH  31  32
ATOM     32  C   UNL A   1      40.110  29.192  29.072  1.00  0.00     0.031 A 
ATOM     33  C   UNL A   1      39.034  30.207  29.037  1.00  0.00     0.074 A 
ATOM     34  C   UNL A   1      41.212  29.390  29.826  1.00  0.00     0.049 A 
ATOM     35  N   UNL A   1      39.197  31.449  29.339  1.00  0.00    -0.248 NA
ATOM     36  C   UNL A   1      37.669  29.900  28.617  1.00  0.00     0.031 C 
ATOM     37  C   UNL A   1      41.373  30.360  30.899  1.00  0.00     0.029 A 
ATOM     38  N   UNL A   1      42.463  28.795  29.721  1.00  0.00    -0.354 N 
ATOM     39  C   UNL A   1      37.949  32.016  29.468  1.00  0.00     0.074 A 
ATOM     40  C   UNL A   1      37.041  31.049  28.897  1.00  0.00     0.031 C 
ATOM     41  C   UNL A   1      42.672  30.442  31.225  1.00  0.00     0.029 A 
ATOM     42  C   UNL A   1      43.421  29.690  30.235  1.00  0.00     0.049 A 
ATOM     43  H   UNL A   1      42.648  27.901  29.352  1.00  0.00     0.167 HD
ATOM     44  C   UNL A   1      37.821  33.176  30.180  1.00  0.00     0.037 A 
ATOM     45  C   UNL A   1      44.374  30.253  29.417  1.00  0.00     0.037 A 
ATOM     46  C   UNL A   1      39.124  33.634  30.660  1.00  0.00     0.049 A 
ATOM     47  C   UNL A   1      44.233  31.741  29.195  1.00  0.00     0.074 A 
ATOM     48  C   UNL A   1      39.815  33.502  31.853  1.00  0.00     0.029 A 
ATOM     49  N   UNL A   1      40.041  34.090  29.739  1.00  0.00    -0.354 N 
ATOM     50  N   UNL A   1      43.310  32.483  29.737  1.00  0.00    -0.248 NA
ATOM     51  C   UNL A   1      45.075  32.495  28.266  1.00  0.00     0.031 C 
ATOM     52  C   UNL A   1      41.169  33.885  31.624  1.00  0.00     0.029 A 
ATOM     53  C   UNL A   1      41.291  34.261  30.299  1.00  0.00     0.049 A 
ATOM     54  H   UNL A   1      39.831  34.273  28.796  1.00  0.00     0.167 HD
ATOM     55  C   UNL A   1      43.338  33.729  29.173  1.00  0.00     0.074 A 
ATOM     56  C   UNL A   1      44.482  33.702  28.283  1.00  0.00     0.031 C 
ATOM     57  C   UNL A   1      42.384  34.668  29.431  1.00  0.00     0.037 A 
BRANCH  44  58
ATOM     58  C   UNL A   1      36.522  33.799  30.646  1.00  0.00     0.058 A 
ATOM     59  C   UNL A   1      35.577  34.252  29.696  1.00  0.00     0.135 A 
ATOM     60  C   UNL A   1      36.137  33.987  31.989  1.00  0.00     0.135 A 
ATOM     61  F   UNL A   1      35.759  34.077  28.380  1.00  0.00    -0.206 F 
ATOM     62  C   UNL A   1      34.398  34.909  30.042  1.00  0.00     0.059 A 
ATOM     63  C   UNL A   1      34.979  34.683  32.360  1.00  0.00     0.059 A 
ATOM     64  F   UNL A   1      36.838  33.458  32.999  1.00  0.00    -0.206 F 
ATOM     65  C   UNL A   1      34.117  35.147  31.378  1.00  0.00     0.060 A 
BRANCH  65  66
ATOM     66  S   UNL A   1      32.607  36.039  31.789  1.00  0.00     0.124 S 
ATOM     67  O   UNL A   1      33.114  37.133  32.612  1.00  0.00    -0.237 OA
ATOM     68  O   UNL A   1      32.107  36.417  30.472  1.00  0.00    -0.237 OA
ATOM     69  O   UNL A   1      31.808  35.047  32.503  1.00  0.00    -0.744 OA
ENDBRANCH  65  66
ENDBRANCH  44  58
BRANCH  45  70
ATOM     70  C   UNL A   1      44.940  29.306  28.401  1.00  0.00     0.058 A 
ATOM     71  C   UNL A   1      45.857  28.385  28.935  1.00  0.00     0.135 A 
ATOM     72  C   UNL A   1      44.069  28.867  27.391  1.00  0.00     0.135 A 
ATOM     73  F   UNL A   1      46.788  28.791  29.813  1.00  0.00    -0.206 F 
ATOM     74  C   UNL A   1      45.621  27.029  28.817  1.00  0.00     0.059 A 
ATOM     75  C   UNL A   1      43.798  27.511  27.268  1.00  0.00     0.059 A 
ATOM     76  F   UNL A   1      43.274  29.743  26.758  1.00  0.00    -0.206 F 
ATOM     77  C   UNL A   1      44.480  26.637  28.121  1.00  0.00     0.060 A 
BRANCH  77  78
ATOM     78  S   UNL A   1      43.614  25.197  28.796  1.00  0.00     0.124 S 
ATOM     79  O   UNL A   1      44.668  24.476  29.497  1.00  0.00    -0.237 OA
ATOM     80  O   UNL A   1      42.618  25.849  29.643  1.00  0.00    -0.237 OA
ATOM     81  O   UNL A   1      43.090  24.542  27.611  1.00  0.00    -0.744 OA
ENDBRANCH  77  78
ENDBRANCH  45  70
BRANCH  57  82
ATOM     82  C   UNL A   1      42.402  36.048  28.833  1.00  0.00     0.058 A 
ATOM     83  C   UNL A   1      41.813  36.323  27.590  1.00  0.00     0.135 A 
ATOM     84  C   UNL A   1      43.107  37.115  29.435  1.00  0.00     0.135 A 
ATOM     85  F   UNL A   1      41.181  35.360  26.899  1.00  0.00    -0.206 F 
ATOM     86  C   UNL A   1      41.861  37.592  27.012  1.00  0.00     0.059 A 
ATOM     87  C   UNL A   1      43.223  38.368  28.847  1.00  0.00     0.059 A 
ATOM     88  F   UNL A   1      43.681  36.993  30.639  1.00  0.00    -0.206 F 
ATOM     89  C   UNL A   1      42.566  38.608  27.651  1.00  0.00     0.060 A 
BRANCH  89  90
ATOM     90  S   UNL A   1      42.622  40.249  26.913  1.00  0.00     0.124 S 
ATOM     91  O   UNL A   1      41.357  40.312  26.186  1.00  0.00    -0.237 OA
ATOM     92  O   UNL A   1      42.711  41.094  28.100  1.00  0.00    -0.237 OA
ATOM     93  O   UNL A   1      43.817  40.207  26.078  1.00  0.00    -0.744 OA
ENDBRANCH  89  90
ENDBRANCH  57  82
ENDBRANCH  31  32
ENDBRANCH  24  26
ENDBRANCH  23  24
ENDBRANCH  22  23
ENDBRANCH   1  22
TORSDOF 19
ENDMDL
