MODEL 1
REMARK VINA RESULT:     -11.6      0.000      0.000
REMARK SMILES COc1cc2c(c(OC)c1)[C@H](C)C[C@H](CC(=O)OCCOC(=O)c1ccc(-c3c4nc(c(-c5c(F)cc(S(=O)(=O)[O-])cc5F)c5ccc([nH]5)c(-c5c(F)cc(S(=O)(=O)[O-])cc5F)c5nc(c(-c6c(F)cc(S(=O)(=O)[O-])cc6F)c6ccc3[nH]6)C=C5)C=C4)cc1)C2
REMARK SMILES IDX 20 1 19 2 18 3 16 4 17 5 15 6 14 7 3 8 4 9 10 10 5 11 7 12
REMARK SMILES IDX 6 13 90 14 11 15 12 16 13 17 2 18 1 19 8 20 9 21 21 22 22 23
REMARK SMILES IDX 23 24 24 25 25 26 89 27 26 28 88 29 27 30 28 31 29 32 82 33
REMARK SMILES IDX 30 34 87 35 81 36 83 37 31 38 86 39 80 40 79 41 32 43 66 44
REMARK SMILES IDX 45 45 65 46 46 47 49 48 64 49 84 50 47 51 48 52 63 54 85 55
REMARK SMILES IDX 50 56 33 57 34 58 43 59 35 60 36 61 42 62 44 63 37 64 38 65
REMARK SMILES IDX 39 66 40 67 41 68 67 69 68 70 77 71 69 72 70 73 76 74 78 75
REMARK SMILES IDX 71 76 72 77 73 78 74 79 75 80 51 81 52 82 61 83 53 84 54 85
REMARK SMILES IDX 60 86 62 87 55 88 56 89 57 90 58 91 59 92
REMARK H PARENT 83 42 49 53
REMARK Flexibility Score: inf
ROOT
ATOM      1  C   UNL A   1      40.448  22.210  27.069  1.00  0.00     0.275 C 
ENDROOT
BRANCH   1   2
ATOM      2  C   UNL A   1      39.656  21.356  26.077  1.00  0.00     0.274 C 
BRANCH   2   3
ATOM      3  O   UNL A   1      38.364  21.936  25.816  1.00  0.00    -0.462 OA
BRANCH   3   4
ATOM      4  C   UNL A   1      37.573  21.291  24.923  1.00  0.00     0.306 C 
ATOM      5  O   UNL A   1      37.505  20.073  24.803  1.00  0.00    -0.252 OA
BRANCH   4   6
ATOM      6  C   UNL A   1      36.810  22.234  24.015  1.00  0.00     0.126 C 
BRANCH   6   7
ATOM      7  C   UNL A   1      35.432  22.698  24.518  1.00  0.00     0.005 C 
ATOM      8  C   UNL A   1      32.699  26.682  25.651  1.00  0.00     0.122 A 
ATOM      9  C   UNL A   1      33.823  26.109  25.063  1.00  0.00     0.050 A 
ATOM     10  C   UNL A   1      31.842  25.882  26.395  1.00  0.00     0.093 A 
ATOM     11  C   UNL A   1      34.147  24.756  25.276  1.00  0.00    -0.037 A 
ATOM     12  C   UNL A   1      32.139  24.529  26.592  1.00  0.00     0.126 A 
ATOM     13  C   UNL A   1      33.336  23.956  26.109  1.00  0.00     0.000 A 
ATOM     14  C   UNL A   1      35.404  24.228  24.627  1.00  0.00     0.040 C 
ATOM     15  C   UNL A   1      33.732  22.520  26.419  1.00  0.00     0.020 C 
ATOM     16  C   UNL A   1      33.725  22.197  27.922  1.00  0.00     0.013 C 
ATOM     17  C   UNL A   1      35.129  22.124  25.901  1.00  0.00     0.012 C 
BRANCH   8  18
ATOM     18  O   UNL A   1      32.511  28.014  25.399  1.00  0.00    -0.497 OA
ATOM     19  C   UNL A   1      33.310  28.893  26.183  1.00  0.00     0.278 C 
ENDBRANCH   8  18
BRANCH  12  20
ATOM     20  O   UNL A   1      31.216  23.838  27.338  1.00  0.00    -0.496 OA
ATOM     21  C   UNL A   1      30.304  23.099  26.523  1.00  0.00     0.278 C 
ENDBRANCH  12  20
ENDBRANCH   6   7
ENDBRANCH   4   6
ENDBRANCH   3   4
ENDBRANCH   2   3
ENDBRANCH   1   2
BRANCH   1  22
ATOM     22  O   UNL A   1      39.979  23.568  27.066  1.00  0.00    -0.458 OA
BRANCH  22  23
ATOM     23  C   UNL A   1      40.919  24.507  26.820  1.00  0.00     0.338 C 
ATOM     24  O   UNL A   1      41.702  24.544  25.880  1.00  0.00    -0.246 OA
BRANCH  23  25
ATOM     25  C   UNL A   1      40.782  25.591  27.801  1.00  0.00     0.060 A 
ATOM     26  C   UNL A   1      41.828  26.511  27.924  1.00  0.00     0.016 A 
ATOM     27  C   UNL A   1      39.658  25.675  28.623  1.00  0.00     0.016 A 
ATOM     28  C   UNL A   1      41.749  27.530  28.869  1.00  0.00     0.010 A 
ATOM     29  C   UNL A   1      39.583  26.698  29.572  1.00  0.00     0.010 A 
ATOM     30  C   UNL A   1      40.630  27.627  29.705  1.00  0.00    -0.014 A 
BRANCH  30  31
ATOM     31  C   UNL A   1      40.571  28.679  30.746  1.00  0.00     0.031 A 
ATOM     32  C   UNL A   1      41.475  28.594  31.942  1.00  0.00     0.074 A 
ATOM     33  C   UNL A   1      39.702  29.699  30.618  1.00  0.00     0.049 A 
ATOM     34  N   UNL A   1      41.513  29.355  33.005  1.00  0.00    -0.248 NA
ATOM     35  C   UNL A   1      42.465  27.505  31.946  1.00  0.00     0.031 C 
ATOM     36  C   UNL A   1      38.792  29.896  29.488  1.00  0.00     0.029 A 
ATOM     37  N   UNL A   1      39.433  30.755  31.452  1.00  0.00    -0.354 N 
ATOM     38  C   UNL A   1      42.510  28.827  33.814  1.00  0.00     0.074 A 
ATOM     39  C   UNL A   1      43.049  27.674  33.124  1.00  0.00     0.031 C 
ATOM     40  C   UNL A   1      38.054  30.997  29.707  1.00  0.00     0.029 A 
ATOM     41  C   UNL A   1      38.412  31.561  31.007  1.00  0.00     0.049 A 
ATOM     42  H   UNL A   1      39.924  30.920  32.289  1.00  0.00     0.167 HD
ATOM     43  C   UNL A   1      42.936  29.268  35.022  1.00  0.00     0.037 A 
ATOM     44  C   UNL A   1      37.813  32.615  31.595  1.00  0.00     0.037 A 
ATOM     45  C   UNL A   1      42.411  30.430  35.689  1.00  0.00     0.049 A 
ATOM     46  C   UNL A   1      38.290  33.069  32.948  1.00  0.00     0.074 A 
ATOM     47  C   UNL A   1      42.801  30.977  36.898  1.00  0.00     0.029 A 
ATOM     48  N   UNL A   1      41.382  31.224  35.205  1.00  0.00    -0.354 N 
ATOM     49  N   UNL A   1      39.247  32.570  33.695  1.00  0.00    -0.248 NA
ATOM     50  C   UNL A   1      37.608  34.228  33.541  1.00  0.00     0.031 C 
ATOM     51  C   UNL A   1      41.983  32.081  37.164  1.00  0.00     0.029 A 
ATOM     52  C   UNL A   1      41.110  32.245  36.100  1.00  0.00     0.049 A 
ATOM     53  H   UNL A   1      40.913  31.083  34.350  1.00  0.00     0.167 HD
ATOM     54  C   UNL A   1      39.292  33.364  34.835  1.00  0.00     0.074 A 
ATOM     55  C   UNL A   1      38.278  34.385  34.674  1.00  0.00     0.031 C 
ATOM     56  C   UNL A   1      40.101  33.258  35.919  1.00  0.00     0.037 A 
BRANCH  43  57
ATOM     57  C   UNL A   1      44.012  28.481  35.715  1.00  0.00     0.058 A 
ATOM     58  C   UNL A   1      43.710  27.440  36.606  1.00  0.00     0.135 A 
ATOM     59  C   UNL A   1      45.365  28.736  35.439  1.00  0.00     0.135 A 
ATOM     60  F   UNL A   1      42.433  27.166  36.918  1.00  0.00    -0.206 F 
ATOM     61  C   UNL A   1      44.713  26.685  37.207  1.00  0.00     0.059 A 
ATOM     62  C   UNL A   1      46.383  27.982  36.013  1.00  0.00     0.059 A 
ATOM     63  F   UNL A   1      45.707  29.724  34.597  1.00  0.00    -0.206 F 
ATOM     64  C   UNL A   1      46.047  26.962  36.902  1.00  0.00     0.060 A 
BRANCH  64  65
ATOM     65  S   UNL A   1      47.337  25.959  37.669  1.00  0.00     0.124 S 
ATOM     66  O   UNL A   1      48.289  26.981  38.091  1.00  0.00    -0.237 OA
ATOM     67  O   UNL A   1      46.613  25.286  38.743  1.00  0.00    -0.237 OA
ATOM     68  O   UNL A   1      47.786  25.094  36.582  1.00  0.00    -0.744 OA
ENDBRANCH  64  65
ENDBRANCH  43  57
BRANCH  44  69
ATOM     69  C   UNL A   1      36.674  33.293  30.923  1.00  0.00     0.058 A 
ATOM     70  C   UNL A   1      35.357  33.116  31.368  1.00  0.00     0.135 A 
ATOM     71  C   UNL A   1      36.884  34.129  29.815  1.00  0.00     0.135 A 
ATOM     72  F   UNL A   1      35.104  32.319  32.417  1.00  0.00    -0.206 F 
ATOM     73  C   UNL A   1      34.283  33.728  30.727  1.00  0.00     0.059 A 
ATOM     74  C   UNL A   1      35.830  34.771  29.173  1.00  0.00     0.059 A 
ATOM     75  F   UNL A   1      38.127  34.340  29.357  1.00  0.00    -0.206 F 
ATOM     76  C   UNL A   1      34.531  34.554  29.628  1.00  0.00     0.060 A 
BRANCH  76  77
ATOM     77  S   UNL A   1      33.138  35.374  28.823  1.00  0.00     0.124 S 
ATOM     78  O   UNL A   1      33.818  36.387  28.023  1.00  0.00    -0.237 OA
ATOM     79  O   UNL A   1      32.523  34.280  28.077  1.00  0.00    -0.237 OA
ATOM     80  O   UNL A   1      32.352  35.876  29.945  1.00  0.00    -0.744 OA
ENDBRANCH  76  77
ENDBRANCH  44  69
BRANCH  56  81
ATOM     81  C   UNL A   1      39.942  34.286  37.002  1.00  0.00     0.058 A 
ATOM     82  C   UNL A   1      40.570  35.538  36.924  1.00  0.00     0.135 A 
ATOM     83  C   UNL A   1      39.109  34.034  38.104  1.00  0.00     0.135 A 
ATOM     84  F   UNL A   1      41.380  35.825  35.893  1.00  0.00    -0.206 F 
ATOM     85  C   UNL A   1      40.395  36.500  37.914  1.00  0.00     0.059 A 
ATOM     86  C   UNL A   1      38.902  34.990  39.094  1.00  0.00     0.059 A 
ATOM     87  F   UNL A   1      38.478  32.856  38.219  1.00  0.00    -0.206 F 
ATOM     88  C   UNL A   1      39.559  36.216  38.996  1.00  0.00     0.060 A 
BRANCH  88  89
ATOM     89  S   UNL A   1      39.311  37.483  40.258  1.00  0.00     0.124 S 
ATOM     90  O   UNL A   1      40.674  37.962  40.464  1.00  0.00    -0.237 OA
ATOM     91  O   UNL A   1      38.405  38.416  39.595  1.00  0.00    -0.237 OA
ATOM     92  O   UNL A   1      38.730  36.741  41.373  1.00  0.00    -0.744 OA
ENDBRANCH  88  89
ENDBRANCH  56  81
ENDBRANCH  30  31
ENDBRANCH  23  25
ENDBRANCH  22  23
ENDBRANCH   1  22
TORSDOF 17
ENDMDL
MODEL 2
REMARK VINA RESULT:     -11.4      6.598     12.243
REMARK SMILES COc1cc2c(c(OC)c1)[C@H](C)C[C@H](CC(=O)OCCOC(=O)c1ccc(-c3c4nc(c(-c5c(F)cc(S(=O)(=O)[O-])cc5F)c5ccc([nH]5)c(-c5c(F)cc(S(=O)(=O)[O-])cc5F)c5nc(c(-c6c(F)cc(S(=O)(=O)[O-])cc6F)c6ccc3[nH]6)C=C5)C=C4)cc1)C2
REMARK SMILES IDX 20 1 19 2 18 3 16 4 17 5 15 6 14 7 3 8 4 9 10 10 5 11 7 12
REMARK SMILES IDX 6 13 90 14 11 15 12 16 13 17 2 18 1 19 8 20 9 21 21 22 22 23
REMARK SMILES IDX 23 24 24 25 25 26 89 27 26 28 88 29 27 30 28 31 29 32 82 33
REMARK SMILES IDX 30 34 87 35 81 36 83 37 31 38 86 39 80 40 79 41 32 43 66 44
REMARK SMILES IDX 45 45 65 46 46 47 49 48 64 49 84 50 47 51 48 52 63 54 85 55
REMARK SMILES IDX 50 56 33 57 34 58 43 59 35 60 36 61 42 62 44 63 37 64 38 65
REMARK SMILES IDX 39 66 40 67 41 68 67 69 68 70 77 71 69 72 70 73 76 74 78 75
REMARK SMILES IDX 71 76 72 77 73 78 74 79 75 80 51 81 52 82 61 83 53 84 54 85
REMARK SMILES IDX 60 86 62 87 55 88 56 89 57 90 58 91 59 92
REMARK H PARENT 83 42 49 53
REMARK Flexibility Score: inf
ROOT
ATOM      1  C   UNL A   1      34.840  32.266  29.236  1.00  0.00     0.275 C 
ENDROOT
BRANCH   1   2
ATOM      2  C   UNL A   1      33.815  32.273  28.101  1.00  0.00     0.274 C 
BRANCH   2   3
ATOM      3  O   UNL A   1      33.788  31.002  27.423  1.00  0.00    -0.462 OA
BRANCH   3   4
ATOM      4  C   UNL A   1      32.582  30.573  26.975  1.00  0.00     0.306 C 
ATOM      5  O   UNL A   1      31.734  31.292  26.460  1.00  0.00    -0.252 OA
BRANCH   4   6
ATOM      6  C   UNL A   1      32.341  29.100  27.236  1.00  0.00     0.126 C 
BRANCH   6   7
ATOM      7  C   UNL A   1      32.437  28.168  26.015  1.00  0.00     0.005 C 
ATOM      8  C   UNL A   1      34.091  23.760  24.445  1.00  0.00     0.122 A 
ATOM      9  C   UNL A   1      33.781  24.643  25.476  1.00  0.00     0.050 A 
ATOM     10  C   UNL A   1      34.022  24.203  23.131  1.00  0.00     0.093 A 
ATOM     11  C   UNL A   1      33.480  25.993  25.213  1.00  0.00    -0.037 A 
ATOM     12  C   UNL A   1      33.698  25.536  22.856  1.00  0.00     0.126 A 
ATOM     13  C   UNL A   1      33.501  26.478  23.889  1.00  0.00     0.000 A 
ATOM     14  C   UNL A   1      33.191  26.886  26.396  1.00  0.00     0.040 C 
ATOM     15  C   UNL A   1      33.270  27.956  23.607  1.00  0.00     0.020 C 
ATOM     16  C   UNL A   1      34.349  28.582  22.709  1.00  0.00     0.013 C 
ATOM     17  C   UNL A   1      33.198  28.836  24.871  1.00  0.00     0.012 C 
BRANCH   8  18
ATOM     18  O   UNL A   1      34.402  22.484  24.830  1.00  0.00    -0.497 OA
ATOM     19  C   UNL A   1      34.666  22.323  26.220  1.00  0.00     0.278 C 
ENDBRANCH   8  18
BRANCH  12  20
ATOM     20  O   UNL A   1      33.653  25.855  21.521  1.00  0.00    -0.496 OA
ATOM     21  C   UNL A   1      32.373  25.597  20.943  1.00  0.00     0.278 C 
ENDBRANCH  12  20
ENDBRANCH   6   7
ENDBRANCH   4   6
ENDBRANCH   3   4
ENDBRANCH   2   3
ENDBRANCH   1   2
BRANCH   1  22
ATOM     22  O   UNL A   1      35.692  31.111  29.152  1.00  0.00    -0.458 OA
BRANCH  22  23
ATOM     23  C   UNL A   1      36.361  30.798  30.283  1.00  0.00     0.338 C 
ATOM     24  O   UNL A   1      35.901  30.696  31.413  1.00  0.00    -0.246 OA
BRANCH  23  25
ATOM     25  C   UNL A   1      37.747  30.455  29.941  1.00  0.00     0.060 A 
ATOM     26  C   UNL A   1      38.063  30.230  28.598  1.00  0.00     0.016 A 
ATOM     27  C   UNL A   1      38.716  30.311  30.935  1.00  0.00     0.016 A 
ATOM     28  C   UNL A   1      39.358  29.867  28.241  1.00  0.00     0.010 A 
ATOM     29  C   UNL A   1      40.014  29.944  30.574  1.00  0.00     0.010 A 
ATOM     30  C   UNL A   1      40.342  29.714  29.226  1.00  0.00    -0.014 A 
BRANCH  30  31
ATOM     31  C   UNL A   1      41.706  29.276  28.850  1.00  0.00     0.031 A 
ATOM     32  C   UNL A   1      42.822  30.278  28.800  1.00  0.00     0.074 A 
ATOM     33  C   UNL A   1      41.934  27.984  28.547  1.00  0.00     0.049 A 
ATOM     34  N   UNL A   1      44.059  30.119  28.404  1.00  0.00    -0.248 NA
ATOM     35  C   UNL A   1      42.505  31.643  29.249  1.00  0.00     0.031 C 
ATOM     36  C   UNL A   1      40.931  26.918  28.583  1.00  0.00     0.029 A 
ATOM     37  N   UNL A   1      43.080  27.350  28.135  1.00  0.00    -0.354 N 
ATOM     38  C   UNL A   1      44.661  31.364  28.533  1.00  0.00     0.074 A 
ATOM     39  C   UNL A   1      43.653  32.272  29.036  1.00  0.00     0.031 C 
ATOM     40  C   UNL A   1      41.502  25.766  28.195  1.00  0.00     0.029 A 
ATOM     41  C   UNL A   1      42.898  26.018  27.848  1.00  0.00     0.049 A 
ATOM     42  H   UNL A   1      43.948  27.806  28.054  1.00  0.00     0.167 HD
ATOM     43  C   UNL A   1      45.941  31.712  28.258  1.00  0.00     0.037 A 
ATOM     44  C   UNL A   1      43.753  25.113  27.332  1.00  0.00     0.037 A 
ATOM     45  C   UNL A   1      46.943  30.796  27.781  1.00  0.00     0.049 A 
ATOM     46  C   UNL A   1      45.162  25.533  27.012  1.00  0.00     0.074 A 
ATOM     47  C   UNL A   1      48.276  31.046  27.506  1.00  0.00     0.029 A 
ATOM     48  N   UNL A   1      46.724  29.454  27.507  1.00  0.00    -0.354 N 
ATOM     49  N   UNL A   1      45.724  26.711  27.157  1.00  0.00    -0.248 NA
ATOM     50  C   UNL A   1      46.056  24.505  26.460  1.00  0.00     0.031 C 
ATOM     51  C   UNL A   1      48.855  29.864  27.031  1.00  0.00     0.029 A 
ATOM     52  C   UNL A   1      47.891  28.867  27.048  1.00  0.00     0.049 A 
ATOM     53  H   UNL A   1      45.864  28.987  27.622  1.00  0.00     0.167 HD
ATOM     54  C   UNL A   1      47.038  26.560  26.729  1.00  0.00     0.074 A 
ATOM     55  C   UNL A   1      47.193  25.174  26.336  1.00  0.00     0.031 C 
ATOM     56  C   UNL A   1      48.028  27.484  26.668  1.00  0.00     0.037 A 
BRANCH  43  57
ATOM     57  C   UNL A   1      46.330  33.151  28.445  1.00  0.00     0.058 A 
ATOM     58  C   UNL A   1      46.206  34.091  27.411  1.00  0.00     0.135 A 
ATOM     59  C   UNL A   1      46.780  33.605  29.695  1.00  0.00     0.135 A 
ATOM     60  F   UNL A   1      45.797  33.706  26.192  1.00  0.00    -0.206 F 
ATOM     61  C   UNL A   1      46.524  35.433  27.608  1.00  0.00     0.059 A 
ATOM     62  C   UNL A   1      47.085  34.944  29.920  1.00  0.00     0.059 A 
ATOM     63  F   UNL A   1      46.921  32.745  30.715  1.00  0.00    -0.206 F 
ATOM     64  C   UNL A   1      46.962  35.849  28.867  1.00  0.00     0.060 A 
BRANCH  64  65
ATOM     65  S   UNL A   1      47.347  37.595  29.115  1.00  0.00     0.124 S 
ATOM     66  O   UNL A   1      46.672  38.208  27.975  1.00  0.00    -0.237 OA
ATOM     67  O   UNL A   1      46.754  37.865  30.422  1.00  0.00    -0.237 OA
ATOM     68  O   UNL A   1      48.806  37.631  29.074  1.00  0.00    -0.744 OA
ENDBRANCH  64  65
ENDBRANCH  43  57
BRANCH  44  69
ATOM     69  C   UNL A   1      43.291  23.728  27.055  1.00  0.00     0.058 A 
ATOM     70  C   UNL A   1      43.182  22.779  28.081  1.00  0.00     0.135 A 
ATOM     71  C   UNL A   1      42.953  23.326  25.753  1.00  0.00     0.135 A 
ATOM     72  F   UNL A   1      43.502  23.113  29.340  1.00  0.00    -0.206 F 
ATOM     73  C   UNL A   1      42.774  21.473  27.826  1.00  0.00     0.059 A 
ATOM     74  C   UNL A   1      42.519  22.033  25.476  1.00  0.00     0.059 A 
ATOM     75  F   UNL A   1      43.029  24.199  24.737  1.00  0.00    -0.206 F 
ATOM     76  C   UNL A   1      42.445  21.110  26.517  1.00  0.00     0.060 A 
BRANCH  76  77
ATOM     77  S   UNL A   1      41.882  19.424  26.196  1.00  0.00     0.124 S 
ATOM     78  O   UNL A   1      42.642  19.086  24.998  1.00  0.00    -0.237 OA
ATOM     79  O   UNL A   1      42.274  18.728  27.418  1.00  0.00    -0.237 OA
ATOM     80  O   UNL A   1      40.443  19.583  26.010  1.00  0.00    -0.744 OA
ENDBRANCH  76  77
ENDBRANCH  44  69
BRANCH  56  81
ATOM     81  C   UNL A   1      49.374  27.023  26.184  1.00  0.00     0.058 A 
ATOM     82  C   UNL A   1      50.296  26.414  27.048  1.00  0.00     0.135 A 
ATOM     83  C   UNL A   1      49.722  27.146  24.830  1.00  0.00     0.135 A 
ATOM     84  F   UNL A   1      50.012  26.278  28.353  1.00  0.00    -0.206 F 
ATOM     85  C   UNL A   1      51.529  25.960  26.590  1.00  0.00     0.059 A 
ATOM     86  C   UNL A   1      50.940  26.679  24.346  1.00  0.00     0.059 A 
ATOM     87  F   UNL A   1      48.871  27.713  23.962  1.00  0.00    -0.206 F 
ATOM     88  C   UNL A   1      51.841  26.097  25.236  1.00  0.00     0.060 A 
BRANCH  88  89
ATOM     89  S   UNL A   1      53.429  25.474  24.644  1.00  0.00     0.124 S 
ATOM     90  O   UNL A   1      53.312  25.696  23.206  1.00  0.00    -0.237 OA
ATOM     91  O   UNL A   1      54.384  26.331  25.341  1.00  0.00    -0.237 OA
ATOM     92  O   UNL A   1      53.425  24.078  25.067  1.00  0.00    -0.744 OA
ENDBRANCH  88  89
ENDBRANCH  56  81
ENDBRANCH  30  31
ENDBRANCH  23  25
ENDBRANCH  22  23
ENDBRANCH   1  22
TORSDOF 17
ENDMDL
MODEL 3
REMARK VINA RESULT:     -11.4      1.180      2.107
REMARK SMILES COc1cc2c(c(OC)c1)[C@H](C)C[C@H](CC(=O)OCCOC(=O)c1ccc(-c3c4nc(c(-c5c(F)cc(S(=O)(=O)[O-])cc5F)c5ccc([nH]5)c(-c5c(F)cc(S(=O)(=O)[O-])cc5F)c5nc(c(-c6c(F)cc(S(=O)(=O)[O-])cc6F)c6ccc3[nH]6)C=C5)C=C4)cc1)C2
REMARK SMILES IDX 20 1 19 2 18 3 16 4 17 5 15 6 14 7 3 8 4 9 10 10 5 11 7 12
REMARK SMILES IDX 6 13 90 14 11 15 12 16 13 17 2 18 1 19 8 20 9 21 21 22 22 23
REMARK SMILES IDX 23 24 24 25 25 26 89 27 26 28 88 29 27 30 28 31 29 32 82 33
REMARK SMILES IDX 30 34 87 35 81 36 83 37 31 38 86 39 80 40 79 41 32 43 66 44
REMARK SMILES IDX 45 45 65 46 46 47 49 48 64 49 84 50 47 51 48 52 63 54 85 55
REMARK SMILES IDX 50 56 33 57 34 58 43 59 35 60 36 61 42 62 44 63 37 64 38 65
REMARK SMILES IDX 39 66 40 67 41 68 67 69 68 70 77 71 69 72 70 73 76 74 78 75
REMARK SMILES IDX 71 76 72 77 73 78 74 79 75 80 51 81 52 82 61 83 53 84 54 85
REMARK SMILES IDX 60 86 62 87 55 88 56 89 57 90 58 91 59 92
REMARK H PARENT 83 42 49 53
REMARK Flexibility Score: inf
ROOT
ATOM      1  C   UNL A   1      39.016  22.825  26.168  1.00  0.00     0.275 C 
ENDROOT
BRANCH   1   2
ATOM      2  C   UNL A   1      37.550  22.605  25.792  1.00  0.00     0.274 C 
BRANCH   2   3
ATOM      3  O   UNL A   1      37.431  22.125  24.439  1.00  0.00    -0.462 OA
BRANCH   3   4
ATOM      4  C   UNL A   1      36.465  22.690  23.672  1.00  0.00     0.306 C 
ATOM      5  O   UNL A   1      36.588  22.962  22.484  1.00  0.00    -0.252 OA
BRANCH   4   6
ATOM      6  C   UNL A   1      35.209  23.026  24.451  1.00  0.00     0.126 C 
BRANCH   6   7
ATOM      7  C   UNL A   1      34.390  24.223  23.937  1.00  0.00     0.005 C 
ATOM      8  C   UNL A   1      32.877  28.823  25.028  1.00  0.00     0.122 A 
ATOM      9  C   UNL A   1      33.700  27.726  25.270  1.00  0.00     0.050 A 
ATOM     10  C   UNL A   1      31.869  28.716  24.079  1.00  0.00     0.093 A 
ATOM     11  C   UNL A   1      33.477  26.492  24.631  1.00  0.00    -0.037 A 
ATOM     12  C   UNL A   1      31.654  27.501  23.417  1.00  0.00     0.126 A 
ATOM     13  C   UNL A   1      32.396  26.343  23.737  1.00  0.00     0.000 A 
ATOM     14  C   UNL A   1      34.398  25.348  24.982  1.00  0.00     0.040 C 
ATOM     15  C   UNL A   1      32.093  24.987  23.116  1.00  0.00     0.020 C 
ATOM     16  C   UNL A   1      30.623  24.562  23.268  1.00  0.00     0.013 C 
ATOM     17  C   UNL A   1      32.936  23.829  23.685  1.00  0.00     0.012 C 
BRANCH   8  18
ATOM     18  O   UNL A   1      33.173  29.955  25.736  1.00  0.00    -0.497 OA
ATOM     19  C   UNL A   1      32.589  30.023  27.033  1.00  0.00     0.278 C 
ENDBRANCH   8  18
BRANCH  12  20
ATOM     20  O   UNL A   1      30.635  27.518  22.497  1.00  0.00    -0.496 OA
ATOM     21  C   UNL A   1      29.389  27.912  23.074  1.00  0.00     0.278 C 
ENDBRANCH  12  20
ENDBRANCH   6   7
ENDBRANCH   4   6
ENDBRANCH   3   4
ENDBRANCH   2   3
ENDBRANCH   1   2
BRANCH   1  22
ATOM     22  O   UNL A   1      39.260  24.204  26.494  1.00  0.00    -0.458 OA
BRANCH  22  23
ATOM     23  C   UNL A   1      40.548  24.520  26.755  1.00  0.00     0.338 C 
ATOM     24  O   UNL A   1      41.542  24.135  26.154  1.00  0.00    -0.246 OA
BRANCH  23  25
ATOM     25  C   UNL A   1      40.587  25.531  27.819  1.00  0.00     0.060 A 
ATOM     26  C   UNL A   1      39.490  25.631  28.680  1.00  0.00     0.016 A 
ATOM     27  C   UNL A   1      41.671  26.401  27.941  1.00  0.00     0.016 A 
ATOM     28  C   UNL A   1      39.476  26.602  29.677  1.00  0.00     0.010 A 
ATOM     29  C   UNL A   1      41.653  27.376  28.941  1.00  0.00     0.010 A 
ATOM     30  C   UNL A   1      40.554  27.487  29.810  1.00  0.00    -0.014 A 
BRANCH  30  31
ATOM     31  C   UNL A   1      40.514  28.554  30.837  1.00  0.00     0.031 A 
ATOM     32  C   UNL A   1      41.439  28.484  32.019  1.00  0.00     0.074 A 
ATOM     33  C   UNL A   1      39.645  29.573  30.710  1.00  0.00     0.049 A 
ATOM     34  N   UNL A   1      41.495  29.260  33.070  1.00  0.00    -0.248 NA
ATOM     35  C   UNL A   1      42.427  27.393  32.021  1.00  0.00     0.031 C 
ATOM     36  C   UNL A   1      38.716  29.756  29.593  1.00  0.00     0.029 A 
ATOM     37  N   UNL A   1      39.391  30.642  31.534  1.00  0.00    -0.354 N 
ATOM     38  C   UNL A   1      42.506  28.741  33.870  1.00  0.00     0.074 A 
ATOM     39  C   UNL A   1      43.031  27.578  33.187  1.00  0.00     0.031 C 
ATOM     40  C   UNL A   1      37.983  30.861  29.809  1.00  0.00     0.029 A 
ATOM     41  C   UNL A   1      38.364  31.443  31.094  1.00  0.00     0.049 A 
ATOM     42  H   UNL A   1      39.896  30.817  32.360  1.00  0.00     0.167 HD
ATOM     43  C   UNL A   1      42.953  29.198  35.064  1.00  0.00     0.037 A 
ATOM     44  C   UNL A   1      37.776  32.505  31.678  1.00  0.00     0.037 A 
ATOM     45  C   UNL A   1      42.441  30.371  35.723  1.00  0.00     0.049 A 
ATOM     46  C   UNL A   1      38.277  32.978  33.017  1.00  0.00     0.074 A 
ATOM     47  C   UNL A   1      42.851  30.934  36.918  1.00  0.00     0.029 A 
ATOM     48  N   UNL A   1      41.404  31.160  35.246  1.00  0.00    -0.354 N 
ATOM     49  N   UNL A   1      39.246  32.488  33.753  1.00  0.00    -0.248 NA
ATOM     50  C   UNL A   1      37.607  34.146  33.605  1.00  0.00     0.031 C 
ATOM     51  C   UNL A   1      42.040  32.043  37.182  1.00  0.00     0.029 A 
ATOM     52  C   UNL A   1      41.149  32.194  36.131  1.00  0.00     0.049 A 
ATOM     53  H   UNL A   1      40.921  31.007  34.401  1.00  0.00     0.167 HD
ATOM     54  C   UNL A   1      39.312  33.297  34.882  1.00  0.00     0.074 A 
ATOM     55  C   UNL A   1      38.296  34.318  34.724  1.00  0.00     0.031 C 
ATOM     56  C   UNL A   1      40.138  33.205  35.953  1.00  0.00     0.037 A 
BRANCH  43  57
ATOM     57  C   UNL A   1      44.039  28.419  35.750  1.00  0.00     0.058 A 
ATOM     58  C   UNL A   1      45.396  28.705  35.546  1.00  0.00     0.135 A 
ATOM     59  C   UNL A   1      43.711  27.409  36.669  1.00  0.00     0.135 A 
ATOM     60  F   UNL A   1      45.764  29.649  34.664  1.00  0.00    -0.206 F 
ATOM     61  C   UNL A   1      46.395  28.010  36.222  1.00  0.00     0.059 A 
ATOM     62  C   UNL A   1      44.691  26.714  37.371  1.00  0.00     0.059 A 
ATOM     63  F   UNL A   1      42.427  27.094  36.897  1.00  0.00    -0.206 F 
ATOM     64  C   UNL A   1      46.032  27.017  37.135  1.00  0.00     0.060 A 
BRANCH  64  65
ATOM     65  S   UNL A   1      47.335  26.140  38.024  1.00  0.00     0.124 S 
ATOM     66  O   UNL A   1      47.256  24.813  37.422  1.00  0.00    -0.237 OA
ATOM     67  O   UNL A   1      48.523  26.918  37.687  1.00  0.00    -0.237 OA
ATOM     68  O   UNL A   1      46.910  26.223  39.418  1.00  0.00    -0.744 OA
ENDBRANCH  64  65
ENDBRANCH  43  57
BRANCH  44  69
ATOM     69  C   UNL A   1      36.627  33.176  31.016  1.00  0.00     0.058 A 
ATOM     70  C   UNL A   1      35.320  33.029  31.502  1.00  0.00     0.135 A 
ATOM     71  C   UNL A   1      36.816  33.975  29.877  1.00  0.00     0.135 A 
ATOM     72  F   UNL A   1      35.088  32.268  32.582  1.00  0.00    -0.206 F 
ATOM     73  C   UNL A   1      34.236  33.633  30.872  1.00  0.00     0.059 A 
ATOM     74  C   UNL A   1      35.752  34.609  29.244  1.00  0.00     0.059 A 
ATOM     75  F   UNL A   1      38.048  34.156  29.379  1.00  0.00    -0.206 F 
ATOM     76  C   UNL A   1      34.463  34.421  29.741  1.00  0.00     0.060 A 
BRANCH  76  77
ATOM     77  S   UNL A   1      33.058  35.233  28.948  1.00  0.00     0.124 S 
ATOM     78  O   UNL A   1      32.626  34.209  28.002  1.00  0.00    -0.237 OA
ATOM     79  O   UNL A   1      32.164  35.478  30.075  1.00  0.00    -0.237 OA
ATOM     80  O   UNL A   1      33.653  36.428  28.358  1.00  0.00    -0.744 OA
ENDBRANCH  76  77
ENDBRANCH  44  69
BRANCH  56  81
ATOM     81  C   UNL A   1      39.999  34.249  37.024  1.00  0.00     0.058 A 
ATOM     82  C   UNL A   1      40.602  35.509  36.904  1.00  0.00     0.135 A 
ATOM     83  C   UNL A   1      39.210  34.001  38.159  1.00  0.00     0.135 A 
ATOM     84  F   UNL A   1      41.370  35.793  35.840  1.00  0.00    -0.206 F 
ATOM     85  C   UNL A   1      40.445  36.485  37.884  1.00  0.00     0.059 A 
ATOM     86  C   UNL A   1      39.021  34.969  39.140  1.00  0.00     0.059 A 
ATOM     87  F   UNL A   1      38.605  32.814  38.315  1.00  0.00    -0.206 F 
ATOM     88  C   UNL A   1      39.652  36.205  38.998  1.00  0.00     0.060 A 
BRANCH  88  89
ATOM     89  S   UNL A   1      39.426  37.488  40.248  1.00  0.00     0.124 S 
ATOM     90  O   UNL A   1      38.547  38.423  39.552  1.00  0.00    -0.237 OA
ATOM     91  O   UNL A   1      38.818  36.751  41.351  1.00  0.00    -0.237 OA
ATOM     92  O   UNL A   1      40.783  37.965  40.494  1.00  0.00    -0.744 OA
ENDBRANCH  88  89
ENDBRANCH  56  81
ENDBRANCH  30  31
ENDBRANCH  23  25
ENDBRANCH  22  23
ENDBRANCH   1  22
TORSDOF 17
ENDMDL
