MODEL 1
REMARK VINA RESULT:     -11.9      0.000      0.000
REMARK SMILES CCOc1ccc(C(=O)NNC(=O)[C@H]2CC=CC[C@H]2C(=O)OCCOC(=O)c2ccc(-c3c4nc(c(-c5c(F)cc(S(=O)(=O)[O-])cc5F)c5ccc([nH]5)c(-c5c(F)cc(S(=O)(=O)[O-])cc5F)c5nc(c(-c6c(F)cc(S(=O)(=O)[O-])cc6F)c6ccc3[nH]6)C=C5)C=C4)cc2)cc1
REMARK SMILES IDX 23 1 22 2 20 3 21 4 19 5 14 6 15 7 16 8 18 9 17 10 12 11
REMARK SMILES IDX 11 12 13 14 10 15 8 16 9 17 7 19 4 20 5 21 95 22 6 23 94 24
REMARK SMILES IDX 3 25 2 26 1 27 24 28 25 29 26 30 27 31 28 32 29 33 93 34
REMARK SMILES IDX 30 35 92 36 31 37 32 38 33 39 86 40 34 41 91 42 85 43 87 44
REMARK SMILES IDX 35 45 90 46 84 47 83 48 36 50 70 51 49 52 69 53 50 54 53 55
REMARK SMILES IDX 68 56 88 57 51 58 52 59 67 61 89 62 54 63 37 64 38 65 47 66
REMARK SMILES IDX 39 67 40 68 46 69 48 70 41 71 42 72 43 73 44 74 45 75 71 76
REMARK SMILES IDX 72 77 81 78 73 79 74 80 80 81 82 82 75 83 76 84 77 85 78 86
REMARK SMILES IDX 79 87 55 88 56 89 65 90 57 91 58 92 64 93 66 94 59 95 60 96
REMARK SMILES IDX 61 97 62 98 63 99
REMARK H PARENT 11 13 10 18 87 49 53 60
REMARK Flexibility Score: inf
ROOT
ATOM      1  C   UNL A   1      38.389  21.867  25.751  1.00  0.00     0.274 C 
ENDROOT
BRANCH   1   2
ATOM      2  O   UNL A   1      37.381  22.884  25.585  1.00  0.00    -0.462 OA
BRANCH   2   3
ATOM      3  C   UNL A   1      36.481  22.678  24.591  1.00  0.00     0.310 C 
ATOM      4  O   UNL A   1      36.774  22.576  23.404  1.00  0.00    -0.252 OA
BRANCH   3   5
ATOM      5  C   UNL A   1      35.058  22.486  25.081  1.00  0.00     0.116 C 
ATOM      6  C   UNL A   1      34.309  23.720  25.637  1.00  0.00     0.098 C 
ATOM      7  C   UNL A   1      33.010  23.208  26.301  1.00  0.00     0.041 C 
ATOM      8  C   UNL A   1      32.237  22.253  25.433  1.00  0.00    -0.030 C 
ATOM      9  C   UNL A   1      34.239  21.716  24.030  1.00  0.00     0.043 C 
ATOM     10  C   UNL A   1      32.784  21.608  24.393  1.00  0.00    -0.030 C 
BRANCH   6  11
ATOM     11  C   UNL A   1      33.998  24.741  24.545  1.00  0.00     0.242 C 
ATOM     12  N   UNL A   1      33.237  25.842  24.829  1.00  0.00    -0.267 N 
ATOM     13  H   UNL A   1      32.852  26.322  24.060  1.00  0.00     0.191 HD
ATOM     14  O   UNL A   1      34.407  24.628  23.387  1.00  0.00    -0.273 OA
BRANCH  12  15
ATOM     15  N   UNL A   1      32.950  26.358  26.094  1.00  0.00    -0.263 N 
ATOM     16  C   UNL A   1      31.829  27.134  26.347  1.00  0.00     0.269 C 
ATOM     17  O   UNL A   1      31.437  27.343  27.490  1.00  0.00    -0.267 OA
ATOM     18  H   UNL A   1      33.567  26.164  26.835  1.00  0.00     0.191 HD
BRANCH  16  19
ATOM     19  C   UNL A   1      31.078  27.699  25.199  1.00  0.00     0.041 A 
ATOM     20  C   UNL A   1      29.782  28.701  22.954  1.00  0.00     0.119 A 
ATOM     21  C   UNL A   1      29.524  27.395  23.373  1.00  0.00     0.047 A 
ATOM     22  C   UNL A   1      30.622  29.533  23.692  1.00  0.00     0.047 A 
ATOM     23  C   UNL A   1      30.176  26.890  24.501  1.00  0.00     0.018 A 
ATOM     24  C   UNL A   1      31.271  29.033  24.818  1.00  0.00     0.018 A 
BRANCH  20  25
ATOM     25  O   UNL A   1      29.132  29.209  21.864  1.00  0.00    -0.494 OA
BRANCH  25  26
ATOM     26  C   UNL A   1      28.626  30.528  22.111  1.00  0.00     0.226 C 
ATOM     27  C   UNL A   1      27.994  31.126  20.863  1.00  0.00     0.049 C 
ENDBRANCH  25  26
ENDBRANCH  20  25
ENDBRANCH  16  19
ENDBRANCH  12  15
ENDBRANCH   6  11
ENDBRANCH   3   5
ENDBRANCH   2   3
ENDBRANCH   1   2
BRANCH   1  28
ATOM     28  C   UNL A   1      39.599  22.415  26.512  1.00  0.00     0.275 C 
BRANCH  28  29
ATOM     29  O   UNL A   1      39.629  23.853  26.498  1.00  0.00    -0.458 OA
BRANCH  29  30
ATOM     30  C   UNL A   1      40.820  24.399  26.846  1.00  0.00     0.338 C 
ATOM     31  O   UNL A   1      41.920  24.120  26.400  1.00  0.00    -0.246 OA
BRANCH  30  32
ATOM     32  C   UNL A   1      40.599  25.519  27.773  1.00  0.00     0.060 A 
ATOM     33  C   UNL A   1      41.606  26.481  27.871  1.00  0.00     0.016 A 
ATOM     34  C   UNL A   1      39.477  25.580  28.598  1.00  0.00     0.016 A 
ATOM     35  C   UNL A   1      41.508  27.506  28.804  1.00  0.00     0.010 A 
ATOM     36  C   UNL A   1      39.377  26.612  29.538  1.00  0.00     0.010 A 
ATOM     37  C   UNL A   1      40.399  27.573  29.654  1.00  0.00    -0.014 A 
BRANCH  37  38
ATOM     38  C   UNL A   1      40.349  28.620  30.701  1.00  0.00     0.031 A 
ATOM     39  C   UNL A   1      41.296  28.556  31.865  1.00  0.00     0.074 A 
ATOM     40  C   UNL A   1      39.481  29.641  30.583  1.00  0.00     0.049 A 
ATOM     41  N   UNL A   1      41.362  29.327  32.918  1.00  0.00    -0.248 NA
ATOM     42  C   UNL A   1      42.305  27.484  31.836  1.00  0.00     0.031 C 
ATOM     43  C   UNL A   1      38.550  29.834  29.469  1.00  0.00     0.029 A 
ATOM     44  N   UNL A   1      39.239  30.709  31.408  1.00  0.00    -0.354 N 
ATOM     45  C   UNL A   1      42.400  28.820  33.693  1.00  0.00     0.074 A 
ATOM     46  C   UNL A   1      42.930  27.671  32.990  1.00  0.00     0.031 C 
ATOM     47  C   UNL A   1      37.839  30.953  29.681  1.00  0.00     0.029 A 
ATOM     48  C   UNL A   1      38.230  31.529  30.965  1.00  0.00     0.049 A 
ATOM     49  H   UNL A   1      39.742  30.872  32.239  1.00  0.00     0.167 HD
ATOM     50  C   UNL A   1      42.865  29.275  34.881  1.00  0.00     0.037 A 
ATOM     51  C   UNL A   1      37.665  32.606  31.543  1.00  0.00     0.037 A 
ATOM     52  C   UNL A   1      42.340  30.430  35.562  1.00  0.00     0.049 A 
ATOM     53  C   UNL A   1      38.167  33.064  32.884  1.00  0.00     0.074 A 
ATOM     54  C   UNL A   1      42.743  30.975  36.769  1.00  0.00     0.029 A 
ATOM     55  N   UNL A   1      41.300  31.220  35.094  1.00  0.00    -0.354 N 
ATOM     56  N   UNL A   1      39.133  32.563  33.617  1.00  0.00    -0.248 NA
ATOM     57  C   UNL A   1      37.498  34.228  33.483  1.00  0.00     0.031 C 
ATOM     58  C   UNL A   1      41.925  32.077  37.046  1.00  0.00     0.029 A 
ATOM     59  C   UNL A   1      41.038  32.240  35.994  1.00  0.00     0.049 A 
ATOM     60  H   UNL A   1      40.820  31.077  34.247  1.00  0.00     0.167 HD
ATOM     61  C   UNL A   1      39.198  33.358  34.755  1.00  0.00     0.074 A 
ATOM     62  C   UNL A   1      38.183  34.381  34.609  1.00  0.00     0.031 C 
ATOM     63  C   UNL A   1      40.023  33.250  35.827  1.00  0.00     0.037 A 
BRANCH  50  64
ATOM     64  C   UNL A   1      43.973  28.500  35.533  1.00  0.00     0.058 A 
ATOM     65  C   UNL A   1      43.715  27.458  36.437  1.00  0.00     0.135 A 
ATOM     66  C   UNL A   1      45.314  28.792  35.234  1.00  0.00     0.135 A 
ATOM     67  F   UNL A   1      42.453  27.151  36.773  1.00  0.00    -0.206 F 
ATOM     68  C   UNL A   1      44.749  26.749  37.042  1.00  0.00     0.059 A 
ATOM     69  C   UNL A   1      46.362  28.082  35.810  1.00  0.00     0.059 A 
ATOM     70  F   UNL A   1      45.614  29.782  34.378  1.00  0.00    -0.206 F 
ATOM     71  C   UNL A   1      46.070  27.073  36.725  1.00  0.00     0.060 A 
BRANCH  71  72
ATOM     72  S   UNL A   1      47.404  26.151  37.520  1.00  0.00     0.124 S 
ATOM     73  O   UNL A   1      47.602  25.056  36.576  1.00  0.00    -0.237 OA
ATOM     74  O   UNL A   1      48.478  27.139  37.579  1.00  0.00    -0.237 OA
ATOM     75  O   UNL A   1      46.834  25.773  38.810  1.00  0.00    -0.744 OA
ENDBRANCH  71  72
ENDBRANCH  50  64
BRANCH  51  76
ATOM     76  C   UNL A   1      36.542  33.305  30.866  1.00  0.00     0.058 A 
ATOM     77  C   UNL A   1      35.222  33.162  31.315  1.00  0.00     0.135 A 
ATOM     78  C   UNL A   1      36.772  34.145  29.764  1.00  0.00     0.135 A 
ATOM     79  F   UNL A   1      34.953  32.361  32.358  1.00  0.00    -0.206 F 
ATOM     80  C   UNL A   1      34.166  33.821  30.694  1.00  0.00     0.059 A 
ATOM     81  C   UNL A   1      35.736  34.833  29.141  1.00  0.00     0.059 A 
ATOM     82  F   UNL A   1      38.020  34.324  29.303  1.00  0.00    -0.206 F 
ATOM     83  C   UNL A   1      34.434  34.657  29.609  1.00  0.00     0.060 A 
BRANCH  83  84
ATOM     84  S   UNL A   1      33.068  35.555  28.842  1.00  0.00     0.124 S 
ATOM     85  O   UNL A   1      33.779  36.585  28.092  1.00  0.00    -0.237 OA
ATOM     86  O   UNL A   1      32.423  34.516  28.045  1.00  0.00    -0.237 OA
ATOM     87  O   UNL A   1      32.294  36.026  29.986  1.00  0.00    -0.744 OA
ENDBRANCH  83  84
ENDBRANCH  51  76
BRANCH  63  88
ATOM     88  C   UNL A   1      39.876  34.278  36.911  1.00  0.00     0.058 A 
ATOM     89  C   UNL A   1      40.513  35.526  36.829  1.00  0.00     0.135 A 
ATOM     90  C   UNL A   1      39.053  34.030  38.020  1.00  0.00     0.135 A 
ATOM     91  F   UNL A   1      41.316  35.807  35.791  1.00  0.00    -0.206 F 
ATOM     92  C   UNL A   1      40.353  36.487  37.822  1.00  0.00     0.059 A 
ATOM     93  C   UNL A   1      38.862  34.984  39.014  1.00  0.00     0.059 A 
ATOM     94  F   UNL A   1      38.416  32.854  38.140  1.00  0.00    -0.206 F 
ATOM     95  C   UNL A   1      39.526  36.206  38.911  1.00  0.00     0.060 A 
BRANCH  95  96
ATOM     96  S   UNL A   1      39.297  37.473  40.177  1.00  0.00     0.124 S 
ATOM     97  O   UNL A   1      38.900  36.669  41.328  1.00  0.00    -0.237 OA
ATOM     98  O   UNL A   1      40.620  38.084  40.256  1.00  0.00    -0.237 OA
ATOM     99  O   UNL A   1      38.253  38.326  39.615  1.00  0.00    -0.744 OA
ENDBRANCH  95  96
ENDBRANCH  63  88
ENDBRANCH  37  38
ENDBRANCH  30  32
ENDBRANCH  29  30
ENDBRANCH  28  29
ENDBRANCH   1  28
TORSDOF 19
ENDMDL
MODEL 2
REMARK VINA RESULT:     -11.7      6.539     12.154
REMARK SMILES CCOc1ccc(C(=O)NNC(=O)[C@H]2CC=CC[C@H]2C(=O)OCCOC(=O)c2ccc(-c3c4nc(c(-c5c(F)cc(S(=O)(=O)[O-])cc5F)c5ccc([nH]5)c(-c5c(F)cc(S(=O)(=O)[O-])cc5F)c5nc(c(-c6c(F)cc(S(=O)(=O)[O-])cc6F)c6ccc3[nH]6)C=C5)C=C4)cc2)cc1
REMARK SMILES IDX 23 1 22 2 20 3 21 4 19 5 14 6 15 7 16 8 18 9 17 10 12 11
REMARK SMILES IDX 11 12 13 14 10 15 8 16 9 17 7 19 4 20 5 21 95 22 6 23 94 24
REMARK SMILES IDX 3 25 2 26 1 27 24 28 25 29 26 30 27 31 28 32 29 33 93 34
REMARK SMILES IDX 30 35 92 36 31 37 32 38 33 39 86 40 34 41 91 42 85 43 87 44
REMARK SMILES IDX 35 45 90 46 84 47 83 48 36 50 70 51 49 52 69 53 50 54 53 55
REMARK SMILES IDX 68 56 88 57 51 58 52 59 67 61 89 62 54 63 37 64 38 65 47 66
REMARK SMILES IDX 39 67 40 68 46 69 48 70 41 71 42 72 43 73 44 74 45 75 71 76
REMARK SMILES IDX 72 77 81 78 73 79 74 80 80 81 82 82 75 83 76 84 77 85 78 86
REMARK SMILES IDX 79 87 55 88 56 89 65 90 57 91 58 92 64 93 66 94 59 95 60 96
REMARK SMILES IDX 61 97 62 98 63 99
REMARK H PARENT 11 13 10 18 87 49 53 60
REMARK Flexibility Score: inf
ROOT
ATOM      1  C   UNL A   1      33.185  30.442  27.267  1.00  0.00     0.274 C 
ENDROOT
BRANCH   1   2
ATOM      2  O   UNL A   1      33.287  30.104  25.869  1.00  0.00    -0.462 OA
BRANCH   2   3
ATOM      3  C   UNL A   1      33.360  28.782  25.577  1.00  0.00     0.310 C 
ATOM      4  O   UNL A   1      33.990  27.962  26.237  1.00  0.00    -0.252 OA
BRANCH   3   5
ATOM      5  C   UNL A   1      32.505  28.366  24.394  1.00  0.00     0.116 C 
ATOM      6  C   UNL A   1      32.446  26.863  24.034  1.00  0.00     0.098 C 
ATOM      7  C   UNL A   1      31.741  26.747  22.662  1.00  0.00     0.041 C 
ATOM      8  C   UNL A   1      30.463  27.535  22.585  1.00  0.00    -0.030 C 
ATOM      9  C   UNL A   1      31.110  29.008  24.502  1.00  0.00     0.043 C 
ATOM     10  C   UNL A   1      30.168  28.530  23.432  1.00  0.00    -0.030 C 
BRANCH   6  11
ATOM     11  C   UNL A   1      31.711  26.047  25.096  1.00  0.00     0.242 C 
ATOM     12  N   UNL A   1      32.402  25.188  25.905  1.00  0.00    -0.267 N 
ATOM     13  H   UNL A   1      31.872  24.509  26.381  1.00  0.00     0.191 HD
ATOM     14  O   UNL A   1      30.493  26.124  25.273  1.00  0.00    -0.273 OA
BRANCH  12  15
ATOM     15  N   UNL A   1      33.780  25.173  26.127  1.00  0.00    -0.263 N 
ATOM     16  C   UNL A   1      34.612  24.199  25.596  1.00  0.00     0.269 C 
ATOM     17  O   UNL A   1      35.829  24.344  25.557  1.00  0.00    -0.267 OA
ATOM     18  H   UNL A   1      34.177  25.881  26.682  1.00  0.00     0.191 HD
BRANCH  16  19
ATOM     19  C   UNL A   1      34.002  22.965  25.042  1.00  0.00     0.041 A 
ATOM     20  C   UNL A   1      32.720  20.713  24.037  1.00  0.00     0.119 A 
ATOM     21  C   UNL A   1      32.938  21.811  23.203  1.00  0.00     0.047 A 
ATOM     22  C   UNL A   1      33.206  20.703  25.343  1.00  0.00     0.047 A 
ATOM     23  C   UNL A   1      33.581  22.944  23.708  1.00  0.00     0.018 A 
ATOM     24  C   UNL A   1      33.850  21.829  25.848  1.00  0.00     0.018 A 
BRANCH  20  25
ATOM     25  O   UNL A   1      32.110  19.594  23.545  1.00  0.00    -0.494 OA
BRANCH  25  26
ATOM     26  C   UNL A   1      32.629  18.396  24.142  1.00  0.00     0.226 C 
ATOM     27  C   UNL A   1      33.173  17.440  23.092  1.00  0.00     0.049 C 
ENDBRANCH  25  26
ENDBRANCH  20  25
ENDBRANCH  16  19
ENDBRANCH  12  15
ENDBRANCH   6  11
ENDBRANCH   3   5
ENDBRANCH   2   3
ENDBRANCH   1   2
BRANCH   1  28
ATOM     28  C   UNL A   1      34.470  31.110  27.764  1.00  0.00     0.275 C 
BRANCH  28  29
ATOM     29  O   UNL A   1      35.349  30.165  28.402  1.00  0.00    -0.458 OA
BRANCH  29  30
ATOM     30  C   UNL A   1      36.294  30.719  29.198  1.00  0.00     0.338 C 
ATOM     31  O   UNL A   1      36.123  31.516  30.105  1.00  0.00    -0.246 OA
BRANCH  30  32
ATOM     32  C   UNL A   1      37.601  30.109  28.913  1.00  0.00     0.060 A 
ATOM     33  C   UNL A   1      38.480  29.939  29.984  1.00  0.00     0.016 A 
ATOM     34  C   UNL A   1      37.998  29.797  27.613  1.00  0.00     0.016 A 
ATOM     35  C   UNL A   1      39.769  29.467  29.766  1.00  0.00     0.010 A 
ATOM     36  C   UNL A   1      39.296  29.321  27.393  1.00  0.00     0.010 A 
ATOM     37  C   UNL A   1      40.192  29.167  28.467  1.00  0.00    -0.014 A 
BRANCH  37  38
ATOM     38  C   UNL A   1      41.594  28.747  28.239  1.00  0.00     0.031 A 
ATOM     39  C   UNL A   1      42.698  29.762  28.319  1.00  0.00     0.074 A 
ATOM     40  C   UNL A   1      41.873  27.453  27.999  1.00  0.00     0.049 A 
ATOM     41  N   UNL A   1      43.974  29.615  28.078  1.00  0.00    -0.248 NA
ATOM     42  C   UNL A   1      42.314  31.124  28.727  1.00  0.00     0.031 C 
ATOM     43  C   UNL A   1      40.888  26.371  27.952  1.00  0.00     0.029 A 
ATOM     44  N   UNL A   1      43.068  26.827  27.751  1.00  0.00    -0.354 N 
ATOM     45  C   UNL A   1      44.544  30.867  28.279  1.00  0.00     0.074 A 
ATOM     46  C   UNL A   1      43.472  31.764  28.654  1.00  0.00     0.031 C 
ATOM     47  C   UNL A   1      41.519  25.215  27.690  1.00  0.00     0.029 A 
ATOM     48  C   UNL A   1      42.943  25.481  27.506  1.00  0.00     0.049 A 
ATOM     49  H   UNL A   1      43.933  27.298  27.749  1.00  0.00     0.167 HD
ATOM     50  C   UNL A   1      45.843  31.230  28.160  1.00  0.00     0.037 A 
ATOM     51  C   UNL A   1      43.868  24.572  27.145  1.00  0.00     0.037 A 
ATOM     52  C   UNL A   1      46.904  30.325  27.803  1.00  0.00     0.049 A 
ATOM     53  C   UNL A   1      45.297  25.009  26.974  1.00  0.00     0.074 A 
ATOM     54  C   UNL A   1      48.254  30.593  27.658  1.00  0.00     0.029 A 
ATOM     55  N   UNL A   1      46.735  28.973  27.537  1.00  0.00    -0.354 N 
ATOM     56  N   UNL A   1      45.818  26.200  27.144  1.00  0.00    -0.248 NA
ATOM     57  C   UNL A   1      46.261  23.983  26.554  1.00  0.00     0.031 C 
ATOM     58  C   UNL A   1      48.897  29.410  27.273  1.00  0.00     0.029 A 
ATOM     59  C   UNL A   1      47.953  28.397  27.215  1.00  0.00     0.049 A 
ATOM     60  H   UNL A   1      45.875  28.495  27.572  1.00  0.00     0.167 HD
ATOM     61  C   UNL A   1      47.174  26.065  26.866  1.00  0.00     0.074 A 
ATOM     62  C   UNL A   1      47.394  24.673  26.529  1.00  0.00     0.031 C 
ATOM     63  C   UNL A   1      48.149  27.008  26.885  1.00  0.00     0.037 A 
BRANCH  50  64
ATOM     64  C   UNL A   1      46.181  32.676  28.385  1.00  0.00     0.058 A 
ATOM     65  C   UNL A   1      46.115  33.621  27.350  1.00  0.00     0.135 A 
ATOM     66  C   UNL A   1      46.558  33.126  29.660  1.00  0.00     0.135 A 
ATOM     67  F   UNL A   1      45.778  33.242  26.107  1.00  0.00    -0.206 F 
ATOM     68  C   UNL A   1      46.435  34.959  27.566  1.00  0.00     0.059 A 
ATOM     69  C   UNL A   1      46.862  34.461  29.904  1.00  0.00     0.059 A 
ATOM     70  F   UNL A   1      46.640  32.261  30.684  1.00  0.00    -0.206 F 
ATOM     71  C   UNL A   1      46.813  35.368  28.847  1.00  0.00     0.060 A 
BRANCH  71  72
ATOM     72  S   UNL A   1      47.234  37.103  29.115  1.00  0.00     0.124 S 
ATOM     73  O   UNL A   1      47.645  37.088  30.515  1.00  0.00    -0.237 OA
ATOM     74  O   UNL A   1      48.301  37.322  28.143  1.00  0.00    -0.237 OA
ATOM     75  O   UNL A   1      45.984  37.803  28.835  1.00  0.00    -0.744 OA
ENDBRANCH  71  72
ENDBRANCH  50  64
BRANCH  51  76
ATOM     76  C   UNL A   1      43.463  23.164  26.896  1.00  0.00     0.058 A 
ATOM     77  C   UNL A   1      43.421  22.641  25.596  1.00  0.00     0.135 A 
ATOM     78  C   UNL A   1      43.127  22.309  27.957  1.00  0.00     0.135 A 
ATOM     79  F   UNL A   1      43.724  23.424  24.549  1.00  0.00    -0.206 F 
ATOM     80  C   UNL A   1      43.053  21.322  25.354  1.00  0.00     0.059 A 
ATOM     81  C   UNL A   1      42.779  20.980  27.743  1.00  0.00     0.059 A 
ATOM     82  F   UNL A   1      43.162  22.759  29.221  1.00  0.00    -0.206 F 
ATOM     83  C   UNL A   1      42.737  20.497  26.435  1.00  0.00     0.060 A 
BRANCH  83  84
ATOM     84  S   UNL A   1      42.316  18.769  26.120  1.00  0.00     0.124 S 
ATOM     85  O   UNL A   1      43.246  18.432  25.049  1.00  0.00    -0.237 OA
ATOM     86  O   UNL A   1      42.580  18.146  27.414  1.00  0.00    -0.237 OA
ATOM     87  O   UNL A   1      40.909  18.832  25.740  1.00  0.00    -0.744 OA
ENDBRANCH  83  84
ENDBRANCH  51  76
BRANCH  63  88
ATOM     88  C   UNL A   1      49.543  26.559  26.557  1.00  0.00     0.058 A 
ATOM     89  C   UNL A   1      50.399  26.045  27.543  1.00  0.00     0.135 A 
ATOM     90  C   UNL A   1      50.010  26.600  25.234  1.00  0.00     0.135 A 
ATOM     91  F   UNL A   1      50.000  25.993  28.823  1.00  0.00    -0.206 F 
ATOM     92  C   UNL A   1      51.682  25.604  27.230  1.00  0.00     0.059 A 
ATOM     93  C   UNL A   1      51.281  26.145  24.896  1.00  0.00     0.059 A 
ATOM     94  F   UNL A   1      49.225  27.075  24.254  1.00  0.00    -0.206 F 
ATOM     95  C   UNL A   1      52.113  25.659  25.904  1.00  0.00     0.060 A 
BRANCH  95  96
ATOM     96  S   UNL A   1      53.765  25.052  25.503  1.00  0.00     0.124 S 
ATOM     97  O   UNL A   1      53.505  23.638  25.253  1.00  0.00    -0.237 OA
ATOM     98  O   UNL A   1      54.119  25.847  24.331  1.00  0.00    -0.237 OA
ATOM     99  O   UNL A   1      54.535  25.348  26.708  1.00  0.00    -0.744 OA
ENDBRANCH  95  96
ENDBRANCH  63  88
ENDBRANCH  37  38
ENDBRANCH  30  32
ENDBRANCH  29  30
ENDBRANCH  28  29
ENDBRANCH   1  28
TORSDOF 19
ENDMDL
MODEL 3
REMARK VINA RESULT:     -11.5      1.515      2.143
REMARK SMILES CCOc1ccc(C(=O)NNC(=O)[C@H]2CC=CC[C@H]2C(=O)OCCOC(=O)c2ccc(-c3c4nc(c(-c5c(F)cc(S(=O)(=O)[O-])cc5F)c5ccc([nH]5)c(-c5c(F)cc(S(=O)(=O)[O-])cc5F)c5nc(c(-c6c(F)cc(S(=O)(=O)[O-])cc6F)c6ccc3[nH]6)C=C5)C=C4)cc2)cc1
REMARK SMILES IDX 23 1 22 2 20 3 21 4 19 5 14 6 15 7 16 8 18 9 17 10 12 11
REMARK SMILES IDX 11 12 13 14 10 15 8 16 9 17 7 19 4 20 5 21 95 22 6 23 94 24
REMARK SMILES IDX 3 25 2 26 1 27 24 28 25 29 26 30 27 31 28 32 29 33 93 34
REMARK SMILES IDX 30 35 92 36 31 37 32 38 33 39 86 40 34 41 91 42 85 43 87 44
REMARK SMILES IDX 35 45 90 46 84 47 83 48 36 50 70 51 49 52 69 53 50 54 53 55
REMARK SMILES IDX 68 56 88 57 51 58 52 59 67 61 89 62 54 63 37 64 38 65 47 66
REMARK SMILES IDX 39 67 40 68 46 69 48 70 41 71 42 72 43 73 44 74 45 75 71 76
REMARK SMILES IDX 72 77 81 78 73 79 74 80 80 81 82 82 75 83 76 84 77 85 78 86
REMARK SMILES IDX 79 87 55 88 56 89 65 90 57 91 58 92 64 93 66 94 59 95 60 96
REMARK SMILES IDX 61 97 62 98 63 99
REMARK H PARENT 11 13 10 18 87 49 53 60
REMARK Flexibility Score: inf
ROOT
ATOM      1  C   UNL A   1      37.358  23.131  25.286  1.00  0.00     0.274 C 
ENDROOT
BRANCH   1   2
ATOM      2  O   UNL A   1      36.715  21.849  25.435  1.00  0.00    -0.462 OA
BRANCH   2   3
ATOM      3  C   UNL A   1      35.538  21.845  26.109  1.00  0.00     0.310 C 
ATOM      4  O   UNL A   1      35.110  22.794  26.759  1.00  0.00    -0.252 OA
BRANCH   3   5
ATOM      5  C   UNL A   1      34.725  20.578  25.917  1.00  0.00     0.116 C 
ATOM      6  C   UNL A   1      33.188  20.675  26.059  1.00  0.00     0.098 C 
ATOM      7  C   UNL A   1      32.637  19.229  26.085  1.00  0.00     0.041 C 
ATOM      8  C   UNL A   1      33.185  18.368  24.981  1.00  0.00    -0.030 C 
ATOM      9  C   UNL A   1      35.161  19.863  24.626  1.00  0.00     0.043 C 
ATOM     10  C   UNL A   1      34.303  18.671  24.306  1.00  0.00    -0.030 C 
BRANCH   6  11
ATOM     11  C   UNL A   1      32.557  21.478  24.924  1.00  0.00     0.242 C 
ATOM     12  N   UNL A   1      31.294  21.987  25.059  1.00  0.00    -0.267 N 
ATOM     13  H   UNL A   1      30.840  22.264  24.231  1.00  0.00     0.191 HD
ATOM     14  O   UNL A   1      33.139  21.704  23.860  1.00  0.00    -0.273 OA
BRANCH  12  15
ATOM     15  N   UNL A   1      30.584  22.158  26.248  1.00  0.00    -0.263 N 
ATOM     16  C   UNL A   1      30.192  23.404  26.713  1.00  0.00     0.269 C 
ATOM     17  O   UNL A   1      29.342  23.526  27.589  1.00  0.00    -0.267 OA
ATOM     18  H   UNL A   1      30.351  21.362  26.778  1.00  0.00     0.191 HD
BRANCH  16  19
ATOM     19  C   UNL A   1      30.806  24.614  26.112  1.00  0.00     0.041 A 
ATOM     20  C   UNL A   1      31.918  26.959  25.118  1.00  0.00     0.119 A 
ATOM     21  C   UNL A   1      32.699  26.101  25.894  1.00  0.00     0.047 A 
ATOM     22  C   UNL A   1      30.613  26.616  24.772  1.00  0.00     0.047 A 
ATOM     23  C   UNL A   1      32.140  24.923  26.396  1.00  0.00     0.018 A 
ATOM     24  C   UNL A   1      30.054  25.441  25.268  1.00  0.00     0.018 A 
BRANCH  20  25
ATOM     25  O   UNL A   1      32.464  28.103  24.606  1.00  0.00    -0.494 OA
BRANCH  25  26
ATOM     26  C   UNL A   1      33.796  27.887  24.119  1.00  0.00     0.226 C 
ATOM     27  C   UNL A   1      33.818  27.730  22.605  1.00  0.00     0.049 C 
ENDBRANCH  25  26
ENDBRANCH  20  25
ENDBRANCH  16  19
ENDBRANCH  12  15
ENDBRANCH   6  11
ENDBRANCH   3   5
ENDBRANCH   2   3
ENDBRANCH   1   2
BRANCH   1  28
ATOM     28  C   UNL A   1      38.637  23.202  26.124  1.00  0.00     0.275 C 
BRANCH  28  29
ATOM     29  O   UNL A   1      39.059  24.561  26.339  1.00  0.00    -0.458 OA
BRANCH  29  30
ATOM     30  C   UNL A   1      40.361  24.703  26.684  1.00  0.00     0.338 C 
ATOM     31  O   UNL A   1      41.332  24.229  26.119  1.00  0.00    -0.246 OA
BRANCH  30  32
ATOM     32  C   UNL A   1      40.477  25.657  27.797  1.00  0.00     0.060 A 
ATOM     33  C   UNL A   1      39.432  25.699  28.721  1.00  0.00     0.016 A 
ATOM     34  C   UNL A   1      41.538  26.558  27.884  1.00  0.00     0.016 A 
ATOM     35  C   UNL A   1      39.429  26.649  29.734  1.00  0.00     0.010 A 
ATOM     36  C   UNL A   1      41.537  27.514  28.906  1.00  0.00     0.010 A 
ATOM     37  C   UNL A   1      40.475  27.574  29.827  1.00  0.00    -0.014 A 
BRANCH  37  38
ATOM     38  C   UNL A   1      40.416  28.635  30.859  1.00  0.00     0.031 A 
ATOM     39  C   UNL A   1      41.362  28.595  32.025  1.00  0.00     0.074 A 
ATOM     40  C   UNL A   1      39.541  29.648  30.725  1.00  0.00     0.049 A 
ATOM     41  N   UNL A   1      41.420  29.380  33.068  1.00  0.00    -0.248 NA
ATOM     42  C   UNL A   1      42.377  27.529  32.014  1.00  0.00     0.031 C 
ATOM     43  C   UNL A   1      38.612  29.819  29.606  1.00  0.00     0.029 A 
ATOM     44  N   UNL A   1      39.291  30.727  31.535  1.00  0.00    -0.354 N 
ATOM     45  C   UNL A   1      42.459  28.892  33.852  1.00  0.00     0.074 A 
ATOM     46  C   UNL A   1      42.999  27.737  33.166  1.00  0.00     0.031 C 
ATOM     47  C   UNL A   1      37.893  30.936  29.801  1.00  0.00     0.029 A 
ATOM     48  C   UNL A   1      38.278  31.533  31.078  1.00  0.00     0.049 A 
ATOM     49  H   UNL A   1      39.791  30.905  32.364  1.00  0.00     0.167 HD
ATOM     50  C   UNL A   1      42.919  29.367  35.034  1.00  0.00     0.037 A 
ATOM     51  C   UNL A   1      37.704  32.615  31.639  1.00  0.00     0.037 A 
ATOM     52  C   UNL A   1      42.386  30.528  35.698  1.00  0.00     0.049 A 
ATOM     53  C   UNL A   1      38.200  33.095  32.975  1.00  0.00     0.074 A 
ATOM     54  C   UNL A   1      42.782  31.092  36.897  1.00  0.00     0.029 A 
ATOM     55  N   UNL A   1      41.341  31.304  35.217  1.00  0.00    -0.354 N 
ATOM     56  N   UNL A   1      39.168  32.611  33.716  1.00  0.00    -0.248 NA
ATOM     57  C   UNL A   1      37.522  34.263  33.555  1.00  0.00     0.031 C 
ATOM     58  C   UNL A   1      41.956  32.193  37.158  1.00  0.00     0.029 A 
ATOM     59  C   UNL A   1      41.070  32.335  36.102  1.00  0.00     0.049 A 
ATOM     60  H   UNL A   1      40.864  31.146  34.371  1.00  0.00     0.167 HD
ATOM     61  C   UNL A   1      39.226  33.422  34.843  1.00  0.00     0.074 A 
ATOM     62  C   UNL A   1      38.203  34.437  34.681  1.00  0.00     0.031 C 
ATOM     63  C   UNL A   1      40.049  33.335  35.918  1.00  0.00     0.037 A 
BRANCH  50  64
ATOM     64  C   UNL A   1      44.031  28.608  35.699  1.00  0.00     0.058 A 
ATOM     65  C   UNL A   1      43.778  27.557  36.594  1.00  0.00     0.135 A 
ATOM     66  C   UNL A   1      45.371  28.927  35.423  1.00  0.00     0.135 A 
ATOM     67  F   UNL A   1      42.517  27.224  36.908  1.00  0.00    -0.206 F 
ATOM     68  C   UNL A   1      44.816  26.863  37.211  1.00  0.00     0.059 A 
ATOM     69  C   UNL A   1      46.423  28.233  36.011  1.00  0.00     0.059 A 
ATOM     70  F   UNL A   1      45.666  29.927  34.577  1.00  0.00    -0.206 F 
ATOM     71  C   UNL A   1      46.136  27.213  36.916  1.00  0.00     0.060 A 
BRANCH  71  72
ATOM     72  S   UNL A   1      47.474  26.312  37.727  1.00  0.00     0.124 S 
ATOM     73  O   UNL A   1      48.204  25.783  36.579  1.00  0.00    -0.237 OA
ATOM     74  O   UNL A   1      48.152  27.364  38.478  1.00  0.00    -0.237 OA
ATOM     75  O   UNL A   1      46.773  25.320  38.537  1.00  0.00    -0.744 OA
ENDBRANCH  71  72
ENDBRANCH  50  64
BRANCH  51  76
ATOM     76  C   UNL A   1      36.578  33.296  30.950  1.00  0.00     0.058 A 
ATOM     77  C   UNL A   1      35.262  33.174  31.416  1.00  0.00     0.135 A 
ATOM     78  C   UNL A   1      36.800  34.099  29.820  1.00  0.00     0.135 A 
ATOM     79  F   UNL A   1      34.998  32.409  32.486  1.00  0.00    -0.206 F 
ATOM     80  C   UNL A   1      34.202  33.817  30.783  1.00  0.00     0.059 A 
ATOM     81  C   UNL A   1      35.762  34.771  29.184  1.00  0.00     0.059 A 
ATOM     82  F   UNL A   1      38.045  34.257  29.341  1.00  0.00    -0.206 F 
ATOM     83  C   UNL A   1      34.464  34.616  29.669  1.00  0.00     0.060 A 
BRANCH  83  84
ATOM     84  S   UNL A   1      33.094  35.496  28.886  1.00  0.00     0.124 S 
ATOM     85  O   UNL A   1      32.468  34.431  28.110  1.00  0.00    -0.237 OA
ATOM     86  O   UNL A   1      32.336  35.975  30.038  1.00  0.00    -0.237 OA
ATOM     87  O   UNL A   1      33.764  36.535  28.111  1.00  0.00    -0.744 OA
ENDBRANCH  83  84
ENDBRANCH  51  76
BRANCH  63  88
ATOM     88  C   UNL A   1      39.893  34.378  36.987  1.00  0.00     0.058 A 
ATOM     89  C   UNL A   1      40.519  35.629  36.888  1.00  0.00     0.135 A 
ATOM     90  C   UNL A   1      39.071  34.138  38.100  1.00  0.00     0.135 A 
ATOM     91  F   UNL A   1      41.320  35.902  35.846  1.00  0.00    -0.206 F 
ATOM     92  C   UNL A   1      40.351  36.604  37.866  1.00  0.00     0.059 A 
ATOM     93  C   UNL A   1      38.872  35.105  39.079  1.00  0.00     0.059 A 
ATOM     94  F   UNL A   1      38.444  32.959  38.236  1.00  0.00    -0.206 F 
ATOM     95  C   UNL A   1      39.525  36.332  38.959  1.00  0.00     0.060 A 
BRANCH  95  96
ATOM     96  S   UNL A   1      39.285  37.614  40.206  1.00  0.00     0.124 S 
ATOM     97  O   UNL A   1      40.598  38.250  40.229  1.00  0.00    -0.237 OA
ATOM     98  O   UNL A   1      38.204  38.412  39.635  1.00  0.00    -0.237 OA
ATOM     99  O   UNL A   1      38.930  36.858  41.404  1.00  0.00    -0.744 OA
ENDBRANCH  95  96
ENDBRANCH  63  88
ENDBRANCH  37  38
ENDBRANCH  30  32
ENDBRANCH  29  30
ENDBRANCH  28  29
ENDBRANCH   1  28
TORSDOF 19
ENDMDL
