MODEL 1
REMARK VINA RESULT:     -10.5      0.000      0.000
REMARK SMILES CC(C)[C@@H](Cc1nc2ccccc2n1C)C(=O)OCCOC(=O)c1ccc(-c2c3nc(c(-c4c(F)cc(S(=O)(=O)[O-])cc4F)c4ccc([nH]4)c(-c4c(F)cc(S(=O)(=O)[O-])cc4F)c4nc(c(-c5c(F)cc(S(=O)(=O)[O-])cc5F)c5ccc2[nH]5)C=C4)C=C3)cc1
REMARK SMILES IDX 20 1 19 2 18 3 16 4 17 5 4 6 2 7 1 8 3 9 5 10 6 11 7 12
REMARK SMILES IDX 14 13 8 14 13 15 15 16 9 17 12 18 10 19 11 20 21 21 22 22
REMARK SMILES IDX 23 23 24 24 25 25 89 26 26 27 88 28 27 29 28 30 29 31 82 32
REMARK SMILES IDX 30 33 87 34 81 35 83 36 31 37 86 38 80 39 79 40 32 42 66 43
REMARK SMILES IDX 45 44 65 45 46 46 49 47 64 48 84 49 47 50 48 51 63 53 85 54
REMARK SMILES IDX 50 55 33 56 34 57 43 58 35 59 36 60 42 61 44 62 37 63 38 64
REMARK SMILES IDX 39 65 40 66 41 67 67 68 68 69 77 70 69 71 70 72 76 73 78 74
REMARK SMILES IDX 71 75 72 76 73 77 74 78 75 79 51 80 52 81 61 82 53 83 54 84
REMARK SMILES IDX 60 85 62 86 55 87 56 88 57 89 58 90 59 91
REMARK H PARENT 83 41 49 52
REMARK Flexibility Score: inf
ROOT
ATOM      1  C   UNL A   1      39.771  22.232  26.497  1.00  0.00     0.275 C 
ENDROOT
BRANCH   1   2
ATOM      2  C   UNL A   1      40.451  20.869  26.613  1.00  0.00     0.274 C 
BRANCH   2   3
ATOM      3  O   UNL A   1      41.491  20.734  25.628  1.00  0.00    -0.462 OA
BRANCH   3   4
ATOM      4  C   UNL A   1      42.286  19.644  25.779  1.00  0.00     0.309 C 
ATOM      5  O   UNL A   1      41.886  18.497  25.952  1.00  0.00    -0.252 OA
BRANCH   4   6
ATOM      6  C   UNL A   1      43.774  19.970  25.746  1.00  0.00     0.109 C 
BRANCH   6   7
ATOM      7  C   UNL A   1      44.687  19.032  24.906  1.00  0.00    -0.003 C 
ATOM      8  C   UNL A   1      44.867  19.582  23.481  1.00  0.00     0.008 C 
ATOM      9  C   UNL A   1      46.096  18.860  25.495  1.00  0.00     0.008 C 
ENDBRANCH   6   7
BRANCH   6  10
ATOM     10  C   UNL A   1      43.891  21.471  25.401  1.00  0.00     0.091 C 
BRANCH  10  11
ATOM     11  C   UNL A   1      44.287  22.301  26.584  1.00  0.00     0.110 A 
ATOM     12  N   UNL A   1      43.641  22.289  27.734  1.00  0.00    -0.233 NA
ATOM     13  N   UNL A   1      45.315  23.216  26.618  1.00  0.00    -0.331 N 
ATOM     14  C   UNL A   1      44.190  23.287  28.488  1.00  0.00     0.089 A 
ATOM     15  C   UNL A   1      45.238  23.900  27.812  1.00  0.00     0.068 A 
ATOM     16  C   UNL A   1      46.292  23.470  25.590  1.00  0.00     0.151 C 
ATOM     17  C   UNL A   1      43.825  23.737  29.765  1.00  0.00     0.030 A 
ATOM     18  C   UNL A   1      45.957  24.972  28.355  1.00  0.00     0.028 A 
ATOM     19  C   UNL A   1      44.525  24.811  30.323  1.00  0.00     0.002 A 
ATOM     20  C   UNL A   1      45.573  25.416  29.626  1.00  0.00     0.002 A 
ENDBRANCH  10  11
ENDBRANCH   6  10
ENDBRANCH   4   6
ENDBRANCH   3   4
ENDBRANCH   2   3
ENDBRANCH   1   2
BRANCH   1  21
ATOM     21  O   UNL A   1      40.381  23.157  27.412  1.00  0.00    -0.458 OA
BRANCH  21  22
ATOM     22  C   UNL A   1      40.986  24.231  26.858  1.00  0.00     0.338 C 
ATOM     23  O   UNL A   1      41.563  24.285  25.786  1.00  0.00    -0.246 OA
BRANCH  22  24
ATOM     24  C   UNL A   1      40.858  25.382  27.771  1.00  0.00     0.060 A 
ATOM     25  C   UNL A   1      41.908  26.292  27.910  1.00  0.00     0.016 A 
ATOM     26  C   UNL A   1      39.713  25.505  28.557  1.00  0.00     0.016 A 
ATOM     27  C   UNL A   1      41.835  27.308  28.861  1.00  0.00     0.010 A 
ATOM     28  C   UNL A   1      39.616  26.557  29.472  1.00  0.00     0.010 A 
ATOM     29  C   UNL A   1      40.685  27.453  29.647  1.00  0.00    -0.014 A 
BRANCH  29  30
ATOM     30  C   UNL A   1      40.612  28.518  30.677  1.00  0.00     0.031 A 
ATOM     31  C   UNL A   1      41.544  28.484  31.856  1.00  0.00     0.074 A 
ATOM     32  C   UNL A   1      39.711  29.511  30.554  1.00  0.00     0.049 A 
ATOM     33  N   UNL A   1      41.560  29.246  32.919  1.00  0.00    -0.248 NA
ATOM     34  C   UNL A   1      42.594  27.453  31.839  1.00  0.00     0.031 C 
ATOM     35  C   UNL A   1      38.775  29.671  29.440  1.00  0.00     0.029 A 
ATOM     36  N   UNL A   1      39.432  30.571  31.378  1.00  0.00    -0.354 N 
ATOM     37  C   UNL A   1      42.593  28.766  33.714  1.00  0.00     0.074 A 
ATOM     38  C   UNL A   1      43.180  27.644  33.012  1.00  0.00     0.031 C 
ATOM     39  C   UNL A   1      38.030  30.769  29.646  1.00  0.00     0.029 A 
ATOM     40  C   UNL A   1      38.400  31.360  30.929  1.00  0.00     0.049 A 
ATOM     41  H   UNL A   1      39.924  30.751  32.212  1.00  0.00     0.167 HD
ATOM     42  C   UNL A   1      43.013  29.221  34.919  1.00  0.00     0.037 A 
ATOM     43  C   UNL A   1      37.799  32.421  31.500  1.00  0.00     0.037 A 
ATOM     44  C   UNL A   1      42.444  30.355  35.599  1.00  0.00     0.049 A 
ATOM     45  C   UNL A   1      38.267  32.894  32.847  1.00  0.00     0.074 A 
ATOM     46  C   UNL A   1      42.809  30.904  36.816  1.00  0.00     0.029 A 
ATOM     47  N   UNL A   1      41.392  31.119  35.116  1.00  0.00    -0.354 N 
ATOM     48  N   UNL A   1      39.229  32.414  33.598  1.00  0.00    -0.248 NA
ATOM     49  C   UNL A   1      37.562  34.044  33.429  1.00  0.00     0.031 C 
ATOM     50  C   UNL A   1      41.959  31.985  37.082  1.00  0.00     0.029 A 
ATOM     51  C   UNL A   1      41.086  32.128  36.015  1.00  0.00     0.049 A 
ATOM     52  H   UNL A   1      40.930  30.968  34.260  1.00  0.00     0.167 HD
ATOM     53  C   UNL A   1      39.250  33.207  34.740  1.00  0.00     0.074 A 
ATOM     54  C   UNL A   1      38.216  34.208  34.571  1.00  0.00     0.031 C 
ATOM     55  C   UNL A   1      40.049  33.111  35.831  1.00  0.00     0.037 A 
BRANCH  42  56
ATOM     56  C   UNL A   1      44.127  28.469  35.590  1.00  0.00     0.058 A 
ATOM     57  C   UNL A   1      43.877  27.417  36.482  1.00  0.00     0.135 A 
ATOM     58  C   UNL A   1      45.466  28.799  35.322  1.00  0.00     0.135 A 
ATOM     59  F   UNL A   1      42.614  27.075  36.787  1.00  0.00    -0.206 F 
ATOM     60  C   UNL A   1      44.915  26.730  37.106  1.00  0.00     0.059 A 
ATOM     61  C   UNL A   1      46.520  28.113  35.919  1.00  0.00     0.059 A 
ATOM     62  F   UNL A   1      45.759  29.800  34.478  1.00  0.00    -0.206 F 
ATOM     63  C   UNL A   1      46.234  27.090  36.822  1.00  0.00     0.060 A 
BRANCH  63  64
ATOM     64  S   UNL A   1      47.573  26.198  37.640  1.00  0.00     0.124 S 
ATOM     65  O   UNL A   1      46.831  25.334  38.553  1.00  0.00    -0.237 OA
ATOM     66  O   UNL A   1      48.231  25.524  36.524  1.00  0.00    -0.237 OA
ATOM     67  O   UNL A   1      48.351  27.259  38.272  1.00  0.00    -0.744 OA
ENDBRANCH  63  64
ENDBRANCH  42  56
BRANCH  43  68
ATOM     68  C   UNL A   1      36.671  33.091  30.803  1.00  0.00     0.058 A 
ATOM     69  C   UNL A   1      35.352  32.929  31.246  1.00  0.00     0.135 A 
ATOM     70  C   UNL A   1      36.896  33.929  29.700  1.00  0.00     0.135 A 
ATOM     71  F   UNL A   1      35.087  32.129  32.289  1.00  0.00    -0.206 F 
ATOM     72  C   UNL A   1      34.290  33.577  30.620  1.00  0.00     0.059 A 
ATOM     73  C   UNL A   1      35.855  34.602  29.071  1.00  0.00     0.059 A 
ATOM     74  F   UNL A   1      38.144  34.122  29.246  1.00  0.00    -0.206 F 
ATOM     75  C   UNL A   1      34.554  34.415  29.535  1.00  0.00     0.060 A 
BRANCH  75  76
ATOM     76  S   UNL A   1      33.182  35.308  28.770  1.00  0.00     0.124 S 
ATOM     77  O   UNL A   1      32.456  35.786  29.941  1.00  0.00    -0.237 OA
ATOM     78  O   UNL A   1      33.872  36.329  27.987  1.00  0.00    -0.237 OA
ATOM     79  O   UNL A   1      32.511  34.277  27.985  1.00  0.00    -0.744 OA
ENDBRANCH  75  76
ENDBRANCH  43  68
BRANCH  55  80
ATOM     80  C   UNL A   1      39.840  34.125  36.918  1.00  0.00     0.058 A 
ATOM     81  C   UNL A   1      39.065  33.831  38.051  1.00  0.00     0.135 A 
ATOM     82  C   UNL A   1      40.442  35.390  36.840  1.00  0.00     0.135 A 
ATOM     83  F   UNL A   1      38.465  32.636  38.167  1.00  0.00    -0.206 F 
ATOM     84  C   UNL A   1      38.875  34.768  39.060  1.00  0.00     0.059 A 
ATOM     85  C   UNL A   1      40.279  36.335  37.847  1.00  0.00     0.059 A 
ATOM     86  F   UNL A   1      41.199  35.713  35.780  1.00  0.00    -0.206 F 
ATOM     87  C   UNL A   1      39.482  36.020  38.947  1.00  0.00     0.060 A 
BRANCH  87  88
ATOM     88  S   UNL A   1      39.246  37.227  40.269  1.00  0.00     0.124 S 
ATOM     89  O   UNL A   1      38.492  38.270  39.582  1.00  0.00    -0.237 OA
ATOM     90  O   UNL A   1      38.505  36.462  41.268  1.00  0.00    -0.237 OA
ATOM     91  O   UNL A   1      40.609  37.582  40.650  1.00  0.00    -0.744 OA
ENDBRANCH  87  88
ENDBRANCH  55  80
ENDBRANCH  29  30
ENDBRANCH  22  24
ENDBRANCH  21  22
ENDBRANCH   1  21
TORSDOF 17
ENDMDL
MODEL 2
REMARK VINA RESULT:     -10.5      6.778     13.257
REMARK SMILES CC(C)[C@@H](Cc1nc2ccccc2n1C)C(=O)OCCOC(=O)c1ccc(-c2c3nc(c(-c4c(F)cc(S(=O)(=O)[O-])cc4F)c4ccc([nH]4)c(-c4c(F)cc(S(=O)(=O)[O-])cc4F)c4nc(c(-c5c(F)cc(S(=O)(=O)[O-])cc5F)c5ccc2[nH]5)C=C4)C=C3)cc1
REMARK SMILES IDX 20 1 19 2 18 3 16 4 17 5 4 6 2 7 1 8 3 9 5 10 6 11 7 12
REMARK SMILES IDX 14 13 8 14 13 15 15 16 9 17 12 18 10 19 11 20 21 21 22 22
REMARK SMILES IDX 23 23 24 24 25 25 89 26 26 27 88 28 27 29 28 30 29 31 82 32
REMARK SMILES IDX 30 33 87 34 81 35 83 36 31 37 86 38 80 39 79 40 32 42 66 43
REMARK SMILES IDX 45 44 65 45 46 46 49 47 64 48 84 49 47 50 48 51 63 53 85 54
REMARK SMILES IDX 50 55 33 56 34 57 43 58 35 59 36 60 42 61 44 62 37 63 38 64
REMARK SMILES IDX 39 65 40 66 41 67 67 68 68 69 77 70 69 71 70 72 76 73 78 74
REMARK SMILES IDX 71 75 72 76 73 77 74 78 75 79 51 80 52 81 61 82 53 83 54 84
REMARK SMILES IDX 60 85 62 86 55 87 56 88 57 89 58 90 59 91
REMARK H PARENT 83 41 49 52
REMARK Flexibility Score: inf
ROOT
ATOM      1  C   UNL A   1      34.258  31.095  27.741  1.00  0.00     0.275 C 
ENDROOT
BRANCH   1   2
ATOM      2  C   UNL A   1      33.088  30.352  27.097  1.00  0.00     0.274 C 
BRANCH   2   3
ATOM      3  O   UNL A   1      33.183  28.939  27.348  1.00  0.00    -0.462 OA
BRANCH   3   4
ATOM      4  C   UNL A   1      32.029  28.246  27.168  1.00  0.00     0.309 C 
ATOM      5  O   UNL A   1      31.132  28.140  27.999  1.00  0.00    -0.252 OA
BRANCH   4   6
ATOM      6  C   UNL A   1      31.942  27.557  25.812  1.00  0.00     0.109 C 
BRANCH   6   7
ATOM      7  C   UNL A   1      30.856  28.071  24.824  1.00  0.00    -0.003 C 
ATOM      8  C   UNL A   1      31.498  28.884  23.687  1.00  0.00     0.008 C 
ATOM      9  C   UNL A   1      30.048  26.943  24.161  1.00  0.00     0.008 C 
ENDBRANCH   6   7
BRANCH   6  10
ATOM     10  C   UNL A   1      33.376  27.520  25.241  1.00  0.00     0.091 C 
BRANCH  10  11
ATOM     11  C   UNL A   1      33.887  26.123  25.062  1.00  0.00     0.110 A 
ATOM     12  N   UNL A   1      34.331  25.376  26.054  1.00  0.00    -0.233 NA
ATOM     13  N   UNL A   1      34.018  25.460  23.863  1.00  0.00    -0.331 N 
ATOM     14  C   UNL A   1      34.859  24.255  25.478  1.00  0.00     0.089 A 
ATOM     15  C   UNL A   1      34.691  24.281  24.099  1.00  0.00     0.068 A 
ATOM     16  C   UNL A   1      33.581  25.908  22.565  1.00  0.00     0.151 C 
ATOM     17  C   UNL A   1      35.519  23.175  26.081  1.00  0.00     0.030 A 
ATOM     18  C   UNL A   1      35.164  23.260  23.266  1.00  0.00     0.028 A 
ATOM     19  C   UNL A   1      36.006  22.147  25.266  1.00  0.00     0.002 A 
ATOM     20  C   UNL A   1      35.830  22.193  23.882  1.00  0.00     0.002 A 
ENDBRANCH  10  11
ENDBRANCH   6  10
ENDBRANCH   4   6
ENDBRANCH   3   4
ENDBRANCH   2   3
ENDBRANCH   1   2
BRANCH   1  21
ATOM     21  O   UNL A   1      35.277  30.155  28.122  1.00  0.00    -0.458 OA
BRANCH  21  22
ATOM     22  C   UNL A   1      36.079  30.528  29.143  1.00  0.00     0.338 C 
ATOM     23  O   UNL A   1      35.785  31.219  30.102  1.00  0.00    -0.246 OA
BRANCH  22  24
ATOM     24  C   UNL A   1      37.427  29.970  28.928  1.00  0.00     0.060 A 
ATOM     25  C   UNL A   1      38.260  29.699  30.014  1.00  0.00     0.016 A 
ATOM     26  C   UNL A   1      37.892  29.795  27.625  1.00  0.00     0.016 A 
ATOM     27  C   UNL A   1      39.575  29.287  29.806  1.00  0.00     0.010 A 
ATOM     28  C   UNL A   1      39.193  29.329  27.415  1.00  0.00     0.010 A 
ATOM     29  C   UNL A   1      40.052  29.093  28.503  1.00  0.00    -0.014 A 
BRANCH  29  30
ATOM     30  C   UNL A   1      41.458  28.678  28.274  1.00  0.00     0.031 A 
ATOM     31  C   UNL A   1      42.558  29.699  28.335  1.00  0.00     0.074 A 
ATOM     32  C   UNL A   1      41.744  27.389  28.012  1.00  0.00     0.049 A 
ATOM     33  N   UNL A   1      43.827  29.565  28.048  1.00  0.00    -0.248 NA
ATOM     34  C   UNL A   1      42.181  31.053  28.772  1.00  0.00     0.031 C 
ATOM     35  C   UNL A   1      40.767  26.299  27.959  1.00  0.00     0.029 A 
ATOM     36  N   UNL A   1      42.940  26.777  27.736  1.00  0.00    -0.354 N 
ATOM     37  C   UNL A   1      44.393  30.821  28.233  1.00  0.00     0.074 A 
ATOM     38  C   UNL A   1      43.328  31.706  28.654  1.00  0.00     0.031 C 
ATOM     39  C   UNL A   1      41.404  25.152  27.676  1.00  0.00     0.029 A 
ATOM     40  C   UNL A   1      42.822  25.433  27.478  1.00  0.00     0.049 A 
ATOM     41  H   UNL A   1      43.800  27.255  27.725  1.00  0.00     0.167 HD
ATOM     42  C   UNL A   1      45.683  31.199  28.065  1.00  0.00     0.037 A 
ATOM     43  C   UNL A   1      43.748  24.533  27.093  1.00  0.00     0.037 A 
ATOM     44  C   UNL A   1      46.744  30.307  27.673  1.00  0.00     0.049 A 
ATOM     45  C   UNL A   1      45.168  24.980  26.893  1.00  0.00     0.074 A 
ATOM     46  C   UNL A   1      48.086  30.591  27.490  1.00  0.00     0.029 A 
ATOM     47  N   UNL A   1      46.582  28.956  27.408  1.00  0.00    -0.354 N 
ATOM     48  N   UNL A   1      45.684  26.177  27.047  1.00  0.00    -0.248 NA
ATOM     49  C   UNL A   1      46.131  23.960  26.456  1.00  0.00     0.031 C 
ATOM     50  C   UNL A   1      48.731  29.414  27.089  1.00  0.00     0.029 A 
ATOM     51  C   UNL A   1      47.796  28.392  27.053  1.00  0.00     0.049 A 
ATOM     52  H   UNL A   1      45.729  28.467  27.463  1.00  0.00     0.167 HD
ATOM     53  C   UNL A   1      47.032  26.053  26.732  1.00  0.00     0.074 A 
ATOM     54  C   UNL A   1      47.255  24.661  26.396  1.00  0.00     0.031 C 
ATOM     55  C   UNL A   1      47.996  27.005  26.716  1.00  0.00     0.037 A 
BRANCH  42  56
ATOM     56  C   UNL A   1      46.011  32.649  28.280  1.00  0.00     0.058 A 
ATOM     57  C   UNL A   1      45.942  33.585  27.238  1.00  0.00     0.135 A 
ATOM     58  C   UNL A   1      46.383  33.110  29.554  1.00  0.00     0.135 A 
ATOM     59  F   UNL A   1      45.610  33.193  25.998  1.00  0.00    -0.206 F 
ATOM     60  C   UNL A   1      46.254  34.926  27.444  1.00  0.00     0.059 A 
ATOM     61  C   UNL A   1      46.680  34.449  29.787  1.00  0.00     0.059 A 
ATOM     62  F   UNL A   1      46.467  32.254  30.584  1.00  0.00    -0.206 F 
ATOM     63  C   UNL A   1      46.629  35.347  28.722  1.00  0.00     0.060 A 
BRANCH  63  64
ATOM     64  S   UNL A   1      47.037  37.087  28.978  1.00  0.00     0.124 S 
ATOM     65  O   UNL A   1      47.880  37.014  30.167  1.00  0.00    -0.237 OA
ATOM     66  O   UNL A   1      47.721  37.437  27.737  1.00  0.00    -0.237 OA
ATOM     67  O   UNL A   1      45.734  37.716  29.169  1.00  0.00    -0.744 OA
ENDBRANCH  63  64
ENDBRANCH  42  56
BRANCH  43  68
ATOM     68  C   UNL A   1      43.348  23.123  26.852  1.00  0.00     0.058 A 
ATOM     69  C   UNL A   1      43.353  22.583  25.560  1.00  0.00     0.135 A 
ATOM     70  C   UNL A   1      42.983  22.282  27.915  1.00  0.00     0.135 A 
ATOM     71  F   UNL A   1      43.685  23.352  24.512  1.00  0.00    -0.206 F 
ATOM     72  C   UNL A   1      43.011  21.254  25.325  1.00  0.00     0.059 A 
ATOM     73  C   UNL A   1      42.657  20.946  27.708  1.00  0.00     0.059 A 
ATOM     74  F   UNL A   1      42.973  22.752  29.171  1.00  0.00    -0.206 F 
ATOM     75  C   UNL A   1      42.667  20.443  26.408  1.00  0.00     0.060 A 
BRANCH  75  76
ATOM     76  S   UNL A   1      42.292  18.701  26.108  1.00  0.00     0.124 S 
ATOM     77  O   UNL A   1      43.214  18.387  25.022  1.00  0.00    -0.237 OA
ATOM     78  O   UNL A   1      42.594  18.089  27.398  1.00  0.00    -0.237 OA
ATOM     79  O   UNL A   1      40.877  18.723  25.751  1.00  0.00    -0.744 OA
ENDBRANCH  75  76
ENDBRANCH  43  68
BRANCH  55  80
ATOM     80  C   UNL A   1      49.380  26.567  26.335  1.00  0.00     0.058 A 
ATOM     81  C   UNL A   1      50.229  25.942  27.262  1.00  0.00     0.135 A 
ATOM     82  C   UNL A   1      49.850  26.747  25.025  1.00  0.00     0.135 A 
ATOM     83  F   UNL A   1      49.825  25.754  28.527  1.00  0.00    -0.206 F 
ATOM     84  C   UNL A   1      51.510  25.533  26.908  1.00  0.00     0.059 A 
ATOM     85  C   UNL A   1      51.121  26.329  24.646  1.00  0.00     0.059 A 
ATOM     86  F   UNL A   1      49.071  27.332  24.102  1.00  0.00    -0.206 F 
ATOM     87  C   UNL A   1      51.949  25.735  25.597  1.00  0.00     0.060 A 
BRANCH  87  88
ATOM     88  S   UNL A   1      53.607  25.186  25.139  1.00  0.00     0.124 S 
ATOM     89  O   UNL A   1      53.517  23.750  25.379  1.00  0.00    -0.237 OA
ATOM     90  O   UNL A   1      53.700  25.590  23.739  1.00  0.00    -0.237 OA
ATOM     91  O   UNL A   1      54.472  25.924  26.054  1.00  0.00    -0.744 OA
ENDBRANCH  87  88
ENDBRANCH  55  80
ENDBRANCH  29  30
ENDBRANCH  22  24
ENDBRANCH  21  22
ENDBRANCH   1  21
TORSDOF 17
ENDMDL
MODEL 3
REMARK VINA RESULT:     -10.3      6.400     12.468
REMARK SMILES CC(C)[C@@H](Cc1nc2ccccc2n1C)C(=O)OCCOC(=O)c1ccc(-c2c3nc(c(-c4c(F)cc(S(=O)(=O)[O-])cc4F)c4ccc([nH]4)c(-c4c(F)cc(S(=O)(=O)[O-])cc4F)c4nc(c(-c5c(F)cc(S(=O)(=O)[O-])cc5F)c5ccc2[nH]5)C=C4)C=C3)cc1
REMARK SMILES IDX 20 1 19 2 18 3 16 4 17 5 4 6 2 7 1 8 3 9 5 10 6 11 7 12
REMARK SMILES IDX 14 13 8 14 13 15 15 16 9 17 12 18 10 19 11 20 21 21 22 22
REMARK SMILES IDX 23 23 24 24 25 25 89 26 26 27 88 28 27 29 28 30 29 31 82 32
REMARK SMILES IDX 30 33 87 34 81 35 83 36 31 37 86 38 80 39 79 40 32 42 66 43
REMARK SMILES IDX 45 44 65 45 46 46 49 47 64 48 84 49 47 50 48 51 63 53 85 54
REMARK SMILES IDX 50 55 33 56 34 57 43 58 35 59 36 60 42 61 44 62 37 63 38 64
REMARK SMILES IDX 39 65 40 66 41 67 67 68 68 69 77 70 69 71 70 72 76 73 78 74
REMARK SMILES IDX 71 75 72 76 73 77 74 78 75 79 51 80 52 81 61 82 53 83 54 84
REMARK SMILES IDX 60 85 62 86 55 87 56 88 57 89 58 90 59 91
REMARK H PARENT 83 41 49 52
REMARK Flexibility Score: inf
ROOT
ATOM      1  C   UNL A   1      33.627  28.395  26.310  1.00  0.00     0.275 C 
ENDROOT
BRANCH   1   2
ATOM      2  C   UNL A   1      32.135  28.169  26.067  1.00  0.00     0.274 C 
BRANCH   2   3
ATOM      3  O   UNL A   1      31.645  27.090  26.882  1.00  0.00    -0.462 OA
BRANCH   3   4
ATOM      4  C   UNL A   1      31.080  26.063  26.196  1.00  0.00     0.309 C 
ATOM      5  O   UNL A   1      30.134  25.388  26.589  1.00  0.00    -0.252 OA
BRANCH   4   6
ATOM      6  C   UNL A   1      31.756  25.783  24.860  1.00  0.00     0.109 C 
BRANCH   6   7
ATOM      7  C   UNL A   1      32.921  24.753  24.856  1.00  0.00    -0.003 C 
ATOM      8  C   UNL A   1      34.126  25.298  24.069  1.00  0.00     0.008 C 
ATOM      9  C   UNL A   1      33.433  24.402  26.262  1.00  0.00     0.008 C 
ENDBRANCH   6   7
BRANCH   6  10
ATOM     10  C   UNL A   1      30.628  25.493  23.845  1.00  0.00     0.091 C 
BRANCH  10  11
ATOM     11  C   UNL A   1      29.996  26.745  23.317  1.00  0.00     0.110 A 
ATOM     12  N   UNL A   1      30.646  27.649  22.611  1.00  0.00    -0.233 NA
ATOM     13  N   UNL A   1      28.699  27.148  23.539  1.00  0.00    -0.331 N 
ATOM     14  C   UNL A   1      29.791  28.704  22.465  1.00  0.00     0.089 A 
ATOM     15  C   UNL A   1      28.560  28.428  23.049  1.00  0.00     0.068 A 
ATOM     16  C   UNL A   1      27.655  26.407  24.202  1.00  0.00     0.151 C 
ATOM     17  C   UNL A   1      30.010  29.947  21.854  1.00  0.00     0.030 A 
ATOM     18  C   UNL A   1      27.510  29.355  23.061  1.00  0.00     0.028 A 
ATOM     19  C   UNL A   1      28.977  30.889  21.861  1.00  0.00     0.002 A 
ATOM     20  C   UNL A   1      27.749  30.595  22.456  1.00  0.00     0.002 A 
ENDBRANCH  10  11
ENDBRANCH   6  10
ENDBRANCH   4   6
ENDBRANCH   3   4
ENDBRANCH   2   3
ENDBRANCH   1   2
BRANCH   1  21
ATOM     21  O   UNL A   1      33.842  28.766  27.681  1.00  0.00    -0.458 OA
BRANCH  21  22
ATOM     22  C   UNL A   1      34.394  29.982  27.889  1.00  0.00     0.338 C 
ATOM     23  O   UNL A   1      33.840  31.065  27.836  1.00  0.00    -0.246 OA
BRANCH  22  24
ATOM     24  C   UNL A   1      35.828  29.817  28.191  1.00  0.00     0.060 A 
ATOM     25  C   UNL A   1      36.787  30.030  27.199  1.00  0.00     0.016 A 
ATOM     26  C   UNL A   1      36.211  29.364  29.453  1.00  0.00     0.016 A 
ATOM     27  C   UNL A   1      38.130  29.756  27.451  1.00  0.00     0.010 A 
ATOM     28  C   UNL A   1      37.564  29.142  29.723  1.00  0.00     0.010 A 
ATOM     29  C   UNL A   1      38.531  29.315  28.718  1.00  0.00    -0.014 A 
BRANCH  29  30
ATOM     30  C   UNL A   1      39.956  28.999  28.984  1.00  0.00     0.031 A 
ATOM     31  C   UNL A   1      40.856  30.046  29.578  1.00  0.00     0.074 A 
ATOM     32  C   UNL A   1      40.441  27.777  28.692  1.00  0.00     0.049 A 
ATOM     33  N   UNL A   1      42.149  30.012  29.774  1.00  0.00    -0.248 NA
ATOM     34  C   UNL A   1      40.217  31.302  30.005  1.00  0.00     0.031 C 
ATOM     35  C   UNL A   1      39.660  26.667  28.143  1.00  0.00     0.029 A 
ATOM     36  N   UNL A   1      41.707  27.266  28.812  1.00  0.00    -0.354 N 
ATOM     37  C   UNL A   1      42.485  31.248  30.310  1.00  0.00     0.074 A 
ATOM     38  C   UNL A   1      41.260  32.014  30.406  1.00  0.00     0.031 C 
ATOM     39  C   UNL A   1      40.462  25.603  27.981  1.00  0.00     0.029 A 
ATOM     40  C   UNL A   1      41.821  25.972  28.365  1.00  0.00     0.049 A 
ATOM     41  H   UNL A   1      42.462  27.777  29.183  1.00  0.00     0.167 HD
ATOM     42  C   UNL A   1      43.705  31.702  30.686  1.00  0.00     0.037 A 
ATOM     43  C   UNL A   1      42.905  25.180  28.249  1.00  0.00     0.037 A 
ATOM     44  C   UNL A   1      44.915  30.926  30.614  1.00  0.00     0.049 A 
ATOM     45  C   UNL A   1      44.251  25.713  28.652  1.00  0.00     0.074 A 
ATOM     46  C   UNL A   1      46.198  31.291  30.984  1.00  0.00     0.029 A 
ATOM     47  N   UNL A   1      44.991  29.623  30.143  1.00  0.00    -0.354 N 
ATOM     48  N   UNL A   1      44.557  26.894  29.134  1.00  0.00    -0.248 NA
ATOM     49  C   UNL A   1      45.399  24.812  28.486  1.00  0.00     0.031 C 
ATOM     50  C   UNL A   1      47.055  30.217  30.714  1.00  0.00     0.029 A 
ATOM     51  C   UNL A   1      46.299  29.173  30.203  1.00  0.00     0.049 A 
ATOM     52  H   UNL A   1      44.228  29.096  29.815  1.00  0.00     0.167 HD
ATOM     53  C   UNL A   1      45.932  26.876  29.335  1.00  0.00     0.074 A 
ATOM     54  C   UNL A   1      46.395  25.561  28.939  1.00  0.00     0.031 C 
ATOM     55  C   UNL A   1      46.740  27.861  29.799  1.00  0.00     0.037 A 
BRANCH  42  56
ATOM     56  C   UNL A   1      43.791  33.116  31.185  1.00  0.00     0.058 A 
ATOM     57  C   UNL A   1      43.681  33.428  32.548  1.00  0.00     0.135 A 
ATOM     58  C   UNL A   1      44.004  34.174  30.285  1.00  0.00     0.135 A 
ATOM     59  F   UNL A   1      43.458  32.456  33.447  1.00  0.00    -0.206 F 
ATOM     60  C   UNL A   1      43.754  34.742  33.001  1.00  0.00     0.059 A 
ATOM     61  C   UNL A   1      44.100  35.493  30.718  1.00  0.00     0.059 A 
ATOM     62  F   UNL A   1      44.113  33.929  28.970  1.00  0.00    -0.206 F 
ATOM     63  C   UNL A   1      43.958  35.769  32.077  1.00  0.00     0.060 A 
BRANCH  63  64
ATOM     64  S   UNL A   1      44.047  37.470  32.674  1.00  0.00     0.124 S 
ATOM     65  O   UNL A   1      43.792  38.221  31.448  1.00  0.00    -0.237 OA
ATOM     66  O   UNL A   1      42.984  37.510  33.674  1.00  0.00    -0.237 OA
ATOM     67  O   UNL A   1      45.403  37.573  33.204  1.00  0.00    -0.744 OA
ENDBRANCH  63  64
ENDBRANCH  42  56
BRANCH  43  68
ATOM     68  C   UNL A   1      42.757  23.806  27.704  1.00  0.00     0.058 A 
ATOM     69  C   UNL A   1      42.580  22.709  28.556  1.00  0.00     0.135 A 
ATOM     70  C   UNL A   1      42.760  23.571  26.320  1.00  0.00     0.135 A 
ATOM     71  F   UNL A   1      42.581  22.884  29.886  1.00  0.00    -0.206 F 
ATOM     72  C   UNL A   1      42.409  21.420  28.057  1.00  0.00     0.059 A 
ATOM     73  C   UNL A   1      42.571  22.296  25.797  1.00  0.00     0.059 A 
ATOM     74  F   UNL A   1      42.917  24.592  25.465  1.00  0.00    -0.206 F 
ATOM     75  C   UNL A   1      42.402  21.226  26.674  1.00  0.00     0.060 A 
BRANCH  75  76
ATOM     76  S   UNL A   1      42.108  19.564  26.029  1.00  0.00     0.124 S 
ATOM     77  O   UNL A   1      40.675  19.603  25.762  1.00  0.00    -0.237 OA
ATOM     78  O   UNL A   1      42.976  19.526  24.856  1.00  0.00    -0.237 OA
ATOM     79  O   UNL A   1      42.524  18.702  27.132  1.00  0.00    -0.744 OA
ENDBRANCH  75  76
ENDBRANCH  43  68
BRANCH  55  80
ATOM     80  C   UNL A   1      48.203  27.545  29.914  1.00  0.00     0.058 A 
ATOM     81  C   UNL A   1      48.738  26.977  31.081  1.00  0.00     0.135 A 
ATOM     82  C   UNL A   1      49.072  27.785  28.838  1.00  0.00     0.135 A 
ATOM     83  F   UNL A   1      47.947  26.735  32.138  1.00  0.00    -0.206 F 
ATOM     84  C   UNL A   1      50.092  26.680  31.186  1.00  0.00     0.059 A 
ATOM     85  C   UNL A   1      50.426  27.478  28.916  1.00  0.00     0.059 A 
ATOM     86  F   UNL A   1      48.604  28.318  27.699  1.00  0.00    -0.206 F 
ATOM     87  C   UNL A   1      50.930  26.939  30.099  1.00  0.00     0.060 A 
BRANCH  87  88
ATOM     88  S   UNL A   1      52.684  26.536  30.236  1.00  0.00     0.124 S 
ATOM     89  O   UNL A   1      52.666  25.484  31.246  1.00  0.00    -0.237 OA
ATOM     90  O   UNL A   1      53.018  26.108  28.880  1.00  0.00    -0.237 OA
ATOM     91  O   UNL A   1      53.289  27.798  30.651  1.00  0.00    -0.744 OA
ENDBRANCH  87  88
ENDBRANCH  55  80
ENDBRANCH  29  30
ENDBRANCH  22  24
ENDBRANCH  21  22
ENDBRANCH   1  21
TORSDOF 17
ENDMDL
