MODEL 1
REMARK VINA RESULT:     -10.2      0.000      0.000
REMARK SMILES COCCS(=O)(=O)Cc1ccc(C(=O)OCCOC(=O)c2ccc(-c3c4nc(c(-c5c(F)cc(S(=O)(=O)[O-])cc5F)c5ccc([nH]5)c(-c5c(F)cc(S(=O)(=O)[O-])cc5F)c5nc(c(-c6c(F)cc(S(=O)(=O)[O-])cc6F)c6ccc3[nH]6)C=C5)C=C4)cc2)cn1
REMARK SMILES IDX 16 1 15 2 13 3 14 4 12 5 9 6 10 7 88 8 11 9 87 10 8 11 5 12
REMARK SMILES IDX 6 13 7 14 4 15 3 16 2 17 1 18 17 19 18 20 19 21 20 22 21 23
REMARK SMILES IDX 22 24 86 25 23 26 85 27 24 28 25 29 26 30 79 31 27 32 84 33
REMARK SMILES IDX 78 34 80 35 28 36 83 37 77 38 76 39 29 41 63 42 42 43 62 44
REMARK SMILES IDX 43 45 46 46 61 47 81 48 44 49 45 50 60 52 82 53 47 54 30 55
REMARK SMILES IDX 31 56 40 57 32 58 33 59 39 60 41 61 34 62 35 63 36 64 37 65
REMARK SMILES IDX 38 66 64 67 65 68 74 69 66 70 67 71 73 72 75 73 68 74 69 75
REMARK SMILES IDX 70 76 71 77 72 78 48 79 49 80 58 81 50 82 51 83 57 84 59 85
REMARK SMILES IDX 52 86 53 87 54 88 55 89 56 90
REMARK H PARENT 80 40 46 51
REMARK Flexibility Score: inf
ROOT
ATOM      1  C   UNL A   1      39.508  21.647  26.179  1.00  0.00     0.275 C 
ENDROOT
BRANCH   1   2
ATOM      2  O   UNL A   1      38.267  22.103  25.599  1.00  0.00    -0.458 OA
BRANCH   2   3
ATOM      3  C   UNL A   1      37.563  21.174  24.910  1.00  0.00     0.339 C 
ATOM      4  O   UNL A   1      37.855  19.993  24.787  1.00  0.00    -0.246 OA
BRANCH   3   5
ATOM      5  C   UNL A   1      36.330  21.741  24.331  1.00  0.00     0.078 A 
ATOM      6  C   UNL A   1      34.145  23.046  23.230  1.00  0.00     0.055 A 
ATOM      7  C   UNL A   1      33.949  22.104  24.242  1.00  0.00     0.026 A 
ATOM      8  N   UNL A   1      35.384  23.346  22.781  1.00  0.00    -0.259 NA
ATOM      9  C   UNL A   1      35.052  21.426  24.781  1.00  0.00     0.019 A 
ATOM     10  C   UNL A   1      36.437  22.716  23.351  1.00  0.00     0.127 A 
BRANCH   6  11
ATOM     11  C   UNL A   1      33.050  23.880  22.645  1.00  0.00     0.193 C 
BRANCH  11  12
ATOM     12  S   UNL A   1      33.228  25.603  23.038  1.00  0.00     0.158 S 
ATOM     13  O   UNL A   1      31.889  26.144  23.198  1.00  0.00    -0.228 OA
ATOM     14  O   UNL A   1      34.086  26.183  22.013  1.00  0.00    -0.228 OA
BRANCH  12  15
ATOM     15  C   UNL A   1      34.103  25.749  24.594  1.00  0.00     0.165 C 
BRANCH  15  16
ATOM     16  C   UNL A   1      33.257  25.492  25.827  1.00  0.00     0.176 C 
BRANCH  16  17
ATOM     17  O   UNL A   1      32.519  26.642  26.232  1.00  0.00    -0.384 OA
ATOM     18  C   UNL A   1      33.322  27.767  26.557  1.00  0.00     0.194 C 
ENDBRANCH  16  17
ENDBRANCH  15  16
ENDBRANCH  12  15
ENDBRANCH  11  12
ENDBRANCH   6  11
ENDBRANCH   3   5
ENDBRANCH   2   3
ENDBRANCH   1   2
BRANCH   1  19
ATOM     19  C   UNL A   1      40.389  22.803  26.662  1.00  0.00     0.275 C 
BRANCH  19  20
ATOM     20  O   UNL A   1      39.720  24.072  26.540  1.00  0.00    -0.458 OA
BRANCH  20  21
ATOM     21  C   UNL A   1      40.532  25.112  26.243  1.00  0.00     0.338 C 
ATOM     22  O   UNL A   1      40.967  25.414  25.144  1.00  0.00    -0.246 OA
BRANCH  21  23
ATOM     23  C   UNL A   1      40.734  25.959  27.426  1.00  0.00     0.060 A 
ATOM     24  C   UNL A   1      39.793  25.851  28.442  1.00  0.00     0.016 A 
ATOM     25  C   UNL A   1      41.695  26.963  27.469  1.00  0.00     0.016 A 
ATOM     26  C   UNL A   1      39.726  26.802  29.450  1.00  0.00     0.010 A 
ATOM     27  C   UNL A   1      41.695  27.862  28.547  1.00  0.00     0.010 A 
ATOM     28  C   UNL A   1      40.688  27.815  29.531  1.00  0.00    -0.014 A 
BRANCH  28  29
ATOM     29  C   UNL A   1      40.610  28.822  30.629  1.00  0.00     0.031 A 
ATOM     30  C   UNL A   1      41.562  28.751  31.796  1.00  0.00     0.074 A 
ATOM     31  C   UNL A   1      39.702  29.819  30.567  1.00  0.00     0.049 A 
ATOM     32  N   UNL A   1      41.555  29.436  32.912  1.00  0.00    -0.248 NA
ATOM     33  C   UNL A   1      42.659  27.775  31.703  1.00  0.00     0.031 C 
ATOM     34  C   UNL A   1      38.753  30.036  29.472  1.00  0.00     0.029 A 
ATOM     35  N   UNL A   1      39.427  30.842  31.443  1.00  0.00    -0.354 N 
ATOM     36  C   UNL A   1      42.607  28.938  33.673  1.00  0.00     0.074 A 
ATOM     37  C   UNL A   1      43.224  27.885  32.896  1.00  0.00     0.031 C 
ATOM     38  C   UNL A   1      38.031  31.138  29.721  1.00  0.00     0.029 A 
ATOM     39  C   UNL A   1      38.389  31.649  31.037  1.00  0.00     0.049 A 
ATOM     40  H   UNL A   1      39.926  30.984  32.279  1.00  0.00     0.167 HD
ATOM     41  C   UNL A   1      43.021  29.328  34.904  1.00  0.00     0.037 A 
ATOM     42  C   UNL A   1      37.756  32.656  31.669  1.00  0.00     0.037 A 
ATOM     43  C   UNL A   1      42.425  30.411  35.647  1.00  0.00     0.049 A 
ATOM     44  C   UNL A   1      38.196  33.035  33.055  1.00  0.00     0.074 A 
ATOM     45  C   UNL A   1      42.781  30.897  36.892  1.00  0.00     0.029 A 
ATOM     46  N   UNL A   1      41.353  31.178  35.212  1.00  0.00    -0.354 N 
ATOM     47  N   UNL A   1      39.170  32.532  33.775  1.00  0.00    -0.248 NA
ATOM     48  C   UNL A   1      37.445  34.106  33.720  1.00  0.00     0.031 C 
ATOM     49  C   UNL A   1      41.892  31.923  37.234  1.00  0.00     0.029 A 
ATOM     50  C   UNL A   1      41.020  32.118  36.175  1.00  0.00     0.049 A 
ATOM     51  H   UNL A   1      40.896  31.071  34.346  1.00  0.00     0.167 HD
ATOM     52  C   UNL A   1      39.161  33.239  34.971  1.00  0.00     0.074 A 
ATOM     53  C   UNL A   1      38.097  34.217  34.869  1.00  0.00     0.031 C 
ATOM     54  C   UNL A   1      39.960  33.089  36.057  1.00  0.00     0.037 A 
BRANCH  41  55
ATOM     55  C   UNL A   1      44.146  28.558  35.547  1.00  0.00     0.058 A 
ATOM     56  C   UNL A   1      43.919  27.444  36.370  1.00  0.00     0.135 A 
ATOM     57  C   UNL A   1      45.481  28.926  35.303  1.00  0.00     0.135 A 
ATOM     58  F   UNL A   1      42.666  27.053  36.649  1.00  0.00    -0.206 F 
ATOM     59  C   UNL A   1      44.972  26.742  36.953  1.00  0.00     0.059 A 
ATOM     60  C   UNL A   1      46.549  28.221  35.850  1.00  0.00     0.059 A 
ATOM     61  F   UNL A   1      45.759  29.982  34.523  1.00  0.00    -0.206 F 
ATOM     62  C   UNL A   1      46.284  27.138  36.687  1.00  0.00     0.060 A 
BRANCH  62  63
ATOM     63  S   UNL A   1      47.638  26.219  37.451  1.00  0.00     0.124 S 
ATOM     64  O   UNL A   1      47.379  24.865  36.971  1.00  0.00    -0.237 OA
ATOM     65  O   UNL A   1      48.814  26.875  36.890  1.00  0.00    -0.237 OA
ATOM     66  O   UNL A   1      47.429  26.428  38.880  1.00  0.00    -0.744 OA
ENDBRANCH  62  63
ENDBRANCH  41  55
BRANCH  42  67
ATOM     67  C   UNL A   1      36.608  33.341  31.011  1.00  0.00     0.058 A 
ATOM     68  C   UNL A   1      35.292  33.137  31.452  1.00  0.00     0.135 A 
ATOM     69  C   UNL A   1      36.806  34.230  29.942  1.00  0.00     0.135 A 
ATOM     70  F   UNL A   1      35.047  32.290  32.462  1.00  0.00    -0.206 F 
ATOM     71  C   UNL A   1      34.214  33.782  30.851  1.00  0.00     0.059 A 
ATOM     72  C   UNL A   1      35.750  34.911  29.347  1.00  0.00     0.059 A 
ATOM     73  F   UNL A   1      38.048  34.471  29.488  1.00  0.00    -0.206 F 
ATOM     74  C   UNL A   1      34.455  34.673  29.803  1.00  0.00     0.060 A 
BRANCH  74  75
ATOM     75  S   UNL A   1      33.055  35.542  29.066  1.00  0.00     0.124 S 
ATOM     76  O   UNL A   1      32.474  34.504  28.224  1.00  0.00    -0.237 OA
ATOM     77  O   UNL A   1      32.277  35.920  30.242  1.00  0.00    -0.237 OA
ATOM     78  O   UNL A   1      33.685  36.653  28.357  1.00  0.00    -0.744 OA
ENDBRANCH  74  75
ENDBRANCH  42  67
BRANCH  54  79
ATOM     79  C   UNL A   1      39.739  34.032  37.209  1.00  0.00     0.058 A 
ATOM     80  C   UNL A   1      40.234  35.346  37.196  1.00  0.00     0.135 A 
ATOM     81  C   UNL A   1      38.987  33.625  38.323  1.00  0.00     0.135 A 
ATOM     82  F   UNL A   1      40.968  35.782  36.160  1.00  0.00    -0.206 F 
ATOM     83  C   UNL A   1      40.011  36.215  38.258  1.00  0.00     0.059 A 
ATOM     84  C   UNL A   1      38.725  34.489  39.381  1.00  0.00     0.059 A 
ATOM     85  F   UNL A   1      38.485  32.382  38.383  1.00  0.00    -0.206 F 
ATOM     86  C   UNL A   1      39.251  35.778  39.346  1.00  0.00     0.060 A 
BRANCH  86  87
ATOM     87  S   UNL A   1      38.943  36.928  40.702  1.00  0.00     0.124 S 
ATOM     88  O   UNL A   1      38.105  36.124  41.586  1.00  0.00    -0.237 OA
ATOM     89  O   UNL A   1      40.292  37.206  41.187  1.00  0.00    -0.237 OA
ATOM     90  O   UNL A   1      38.274  38.050  40.051  1.00  0.00    -0.744 OA
ENDBRANCH  86  87
ENDBRANCH  54  79
ENDBRANCH  28  29
ENDBRANCH  21  23
ENDBRANCH  20  21
ENDBRANCH  19  20
ENDBRANCH   1  19
TORSDOF 19
ENDMDL
MODEL 2
REMARK VINA RESULT:     -10.1      6.930     12.426
REMARK SMILES COCCS(=O)(=O)Cc1ccc(C(=O)OCCOC(=O)c2ccc(-c3c4nc(c(-c5c(F)cc(S(=O)(=O)[O-])cc5F)c5ccc([nH]5)c(-c5c(F)cc(S(=O)(=O)[O-])cc5F)c5nc(c(-c6c(F)cc(S(=O)(=O)[O-])cc6F)c6ccc3[nH]6)C=C5)C=C4)cc2)cn1
REMARK SMILES IDX 16 1 15 2 13 3 14 4 12 5 9 6 10 7 88 8 11 9 87 10 8 11 5 12
REMARK SMILES IDX 6 13 7 14 4 15 3 16 2 17 1 18 17 19 18 20 19 21 20 22 21 23
REMARK SMILES IDX 22 24 86 25 23 26 85 27 24 28 25 29 26 30 79 31 27 32 84 33
REMARK SMILES IDX 78 34 80 35 28 36 83 37 77 38 76 39 29 41 63 42 42 43 62 44
REMARK SMILES IDX 43 45 46 46 61 47 81 48 44 49 45 50 60 52 82 53 47 54 30 55
REMARK SMILES IDX 31 56 40 57 32 58 33 59 39 60 41 61 34 62 35 63 36 64 37 65
REMARK SMILES IDX 38 66 64 67 65 68 74 69 66 70 67 71 73 72 75 73 68 74 69 75
REMARK SMILES IDX 70 76 71 77 72 78 48 79 49 80 58 81 50 82 51 83 57 84 59 85
REMARK SMILES IDX 52 86 53 87 54 88 55 89 56 90
REMARK H PARENT 80 40 46 51
REMARK Flexibility Score: inf
ROOT
ATOM      1  C   UNL A   1      32.934  30.512  27.302  1.00  0.00     0.275 C 
ENDROOT
BRANCH   1   2
ATOM      2  O   UNL A   1      33.062  30.136  25.913  1.00  0.00    -0.458 OA
BRANCH   2   3
ATOM      3  C   UNL A   1      32.023  29.438  25.396  1.00  0.00     0.339 C 
ATOM      4  O   UNL A   1      31.062  29.908  24.803  1.00  0.00    -0.246 OA
BRANCH   3   5
ATOM      5  C   UNL A   1      32.191  27.985  25.587  1.00  0.00     0.078 A 
ATOM      6  C   UNL A   1      32.383  25.286  26.190  1.00  0.00     0.055 A 
ATOM      7  C   UNL A   1      33.453  25.931  25.568  1.00  0.00     0.026 A 
ATOM      8  N   UNL A   1      31.254  25.952  26.517  1.00  0.00    -0.259 NA
ATOM      9  C   UNL A   1      33.346  27.291  25.242  1.00  0.00     0.019 A 
ATOM     10  C   UNL A   1      31.193  27.275  26.238  1.00  0.00     0.127 A 
BRANCH   6  11
ATOM     11  C   UNL A   1      32.424  23.863  26.653  1.00  0.00     0.193 C 
BRANCH  11  12
ATOM     12  S   UNL A   1      31.582  22.765  25.539  1.00  0.00     0.158 S 
ATOM     13  O   UNL A   1      31.574  23.405  24.235  1.00  0.00    -0.228 OA
ATOM     14  O   UNL A   1      30.302  22.440  26.154  1.00  0.00    -0.228 OA
BRANCH  12  15
ATOM     15  C   UNL A   1      32.511  21.237  25.429  1.00  0.00     0.165 C 
BRANCH  15  16
ATOM     16  C   UNL A   1      33.727  21.295  24.523  1.00  0.00     0.176 C 
BRANCH  16  17
ATOM     17  O   UNL A   1      34.578  20.163  24.680  1.00  0.00    -0.384 OA
ATOM     18  C   UNL A   1      35.906  20.479  25.069  1.00  0.00     0.194 C 
ENDBRANCH  16  17
ENDBRANCH  15  16
ENDBRANCH  12  15
ENDBRANCH  11  12
ENDBRANCH   6  11
ENDBRANCH   3   5
ENDBRANCH   2   3
ENDBRANCH   1   2
BRANCH   1  19
ATOM     19  C   UNL A   1      34.189  31.209  27.837  1.00  0.00     0.275 C 
BRANCH  19  20
ATOM     20  O   UNL A   1      35.206  30.263  28.215  1.00  0.00    -0.458 OA
BRANCH  20  21
ATOM     21  C   UNL A   1      36.199  30.776  28.977  1.00  0.00     0.338 C 
ATOM     22  O   UNL A   1      36.094  31.628  29.845  1.00  0.00    -0.246 OA
BRANCH  21  23
ATOM     23  C   UNL A   1      37.458  30.064  28.726  1.00  0.00     0.060 A 
ATOM     24  C   UNL A   1      38.286  29.849  29.821  1.00  0.00     0.016 A 
ATOM     25  C   UNL A   1      37.914  29.783  27.442  1.00  0.00     0.016 A 
ATOM     26  C   UNL A   1      39.607  29.459  29.646  1.00  0.00     0.010 A 
ATOM     27  C   UNL A   1      39.215  29.286  27.272  1.00  0.00     0.010 A 
ATOM     28  C   UNL A   1      40.090  29.153  28.369  1.00  0.00    -0.014 A 
BRANCH  28  29
ATOM     29  C   UNL A   1      41.508  28.723  28.200  1.00  0.00     0.031 A 
ATOM     30  C   UNL A   1      42.627  29.727  28.307  1.00  0.00     0.074 A 
ATOM     31  C   UNL A   1      41.797  27.423  27.976  1.00  0.00     0.049 A 
ATOM     32  N   UNL A   1      43.900  29.579  28.044  1.00  0.00    -0.248 NA
ATOM     33  C   UNL A   1      42.265  31.080  28.759  1.00  0.00     0.031 C 
ATOM     34  C   UNL A   1      40.816  26.337  27.898  1.00  0.00     0.029 A 
ATOM     35  N   UNL A   1      43.000  26.790  27.776  1.00  0.00    -0.354 N 
ATOM     36  C   UNL A   1      44.480  30.827  28.245  1.00  0.00     0.074 A 
ATOM     37  C   UNL A   1      43.417  31.725  28.641  1.00  0.00     0.031 C 
ATOM     38  C   UNL A   1      41.455  25.174  27.705  1.00  0.00     0.029 A 
ATOM     39  C   UNL A   1      42.879  25.439  27.543  1.00  0.00     0.049 A 
ATOM     40  H   UNL A   1      43.865  27.257  27.798  1.00  0.00     0.167 HD
ATOM     41  C   UNL A   1      45.781  31.187  28.114  1.00  0.00     0.037 A 
ATOM     42  C   UNL A   1      43.796  24.519  27.186  1.00  0.00     0.037 A 
ATOM     43  C   UNL A   1      46.838  30.270  27.763  1.00  0.00     0.049 A 
ATOM     44  C   UNL A   1      45.222  24.953  26.994  1.00  0.00     0.074 A 
ATOM     45  C   UNL A   1      48.190  30.530  27.624  1.00  0.00     0.029 A 
ATOM     46  N   UNL A   1      46.664  28.919  27.502  1.00  0.00    -0.354 N 
ATOM     47  N   UNL A   1      45.749  26.143  27.153  1.00  0.00    -0.248 NA
ATOM     48  C   UNL A   1      46.175  23.924  26.560  1.00  0.00     0.031 C 
ATOM     49  C   UNL A   1      48.826  29.349  27.226  1.00  0.00     0.029 A 
ATOM     50  C   UNL A   1      47.879  28.337  27.178  1.00  0.00     0.049 A 
ATOM     51  H   UNL A   1      45.803  28.442  27.541  1.00  0.00     0.167 HD
ATOM     52  C   UNL A   1      47.099  26.003  26.858  1.00  0.00     0.074 A 
ATOM     53  C   UNL A   1      47.311  24.607  26.529  1.00  0.00     0.031 C 
ATOM     54  C   UNL A   1      48.076  26.944  26.857  1.00  0.00     0.037 A 
BRANCH  41  55
ATOM     55  C   UNL A   1      46.134  32.639  28.311  1.00  0.00     0.058 A 
ATOM     56  C   UNL A   1      46.061  33.578  27.270  1.00  0.00     0.135 A 
ATOM     57  C   UNL A   1      46.521  33.105  29.580  1.00  0.00     0.135 A 
ATOM     58  F   UNL A   1      45.710  33.191  26.033  1.00  0.00    -0.206 F 
ATOM     59  C   UNL A   1      46.388  34.917  27.472  1.00  0.00     0.059 A 
ATOM     60  C   UNL A   1      46.822  34.443  29.812  1.00  0.00     0.059 A 
ATOM     61  F   UNL A   1      46.609  32.253  30.614  1.00  0.00    -0.206 F 
ATOM     62  C   UNL A   1      46.767  35.340  28.747  1.00  0.00     0.060 A 
BRANCH  62  63
ATOM     63  S   UNL A   1      47.189  37.079  28.992  1.00  0.00     0.124 S 
ATOM     64  O   UNL A   1      45.989  37.744  28.494  1.00  0.00    -0.237 OA
ATOM     65  O   UNL A   1      47.400  37.148  30.434  1.00  0.00    -0.237 OA
ATOM     66  O   UNL A   1      48.388  37.258  28.177  1.00  0.00    -0.744 OA
ENDBRANCH  62  63
ENDBRANCH  41  55
BRANCH  42  67
ATOM     67  C   UNL A   1      43.380  23.110  26.942  1.00  0.00     0.058 A 
ATOM     68  C   UNL A   1      43.321  22.585  25.643  1.00  0.00     0.135 A 
ATOM     69  C   UNL A   1      43.053  22.253  28.006  1.00  0.00     0.135 A 
ATOM     70  F   UNL A   1      43.613  23.364  24.591  1.00  0.00    -0.206 F 
ATOM     71  C   UNL A   1      42.944  21.266  25.407  1.00  0.00     0.059 A 
ATOM     72  C   UNL A   1      42.706  20.923  27.799  1.00  0.00     0.059 A 
ATOM     73  F   UNL A   1      43.104  22.702  29.272  1.00  0.00    -0.206 F 
ATOM     74  C   UNL A   1      42.645  20.441  26.493  1.00  0.00     0.060 A 
BRANCH  74  75
ATOM     75  S   UNL A   1      42.208  18.718  26.177  1.00  0.00     0.124 S 
ATOM     76  O   UNL A   1      42.475  18.105  27.473  1.00  0.00    -0.237 OA
ATOM     77  O   UNL A   1      40.803  18.823  25.797  1.00  0.00    -0.237 OA
ATOM     78  O   UNL A   1      43.114  18.334  25.098  1.00  0.00    -0.744 OA
ENDBRANCH  74  75
ENDBRANCH  42  67
BRANCH  54  79
ATOM     79  C   UNL A   1      49.471  26.489  26.526  1.00  0.00     0.058 A 
ATOM     80  C   UNL A   1      50.001  26.609  25.231  1.00  0.00     0.135 A 
ATOM     81  C   UNL A   1      50.302  25.965  27.529  1.00  0.00     0.135 A 
ATOM     82  F   UNL A   1      49.246  27.095  24.233  1.00  0.00    -0.206 F 
ATOM     83  C   UNL A   1      51.298  26.201  24.938  1.00  0.00     0.059 A 
ATOM     84  C   UNL A   1      51.612  25.580  27.265  1.00  0.00     0.059 A 
ATOM     85  F   UNL A   1      49.847  25.836  28.785  1.00  0.00    -0.206 F 
ATOM     86  C   UNL A   1      52.098  25.691  25.963  1.00  0.00     0.060 A 
BRANCH  86  87
ATOM     87  S   UNL A   1      53.789  25.196  25.575  1.00  0.00     0.124 S 
ATOM     88  O   UNL A   1      54.028  25.916  24.328  1.00  0.00    -0.237 OA
ATOM     89  O   UNL A   1      54.529  25.679  26.738  1.00  0.00    -0.237 OA
ATOM     90  O   UNL A   1      53.700  23.744  25.455  1.00  0.00    -0.744 OA
ENDBRANCH  86  87
ENDBRANCH  54  79
ENDBRANCH  28  29
ENDBRANCH  21  23
ENDBRANCH  20  21
ENDBRANCH  19  20
ENDBRANCH   1  19
TORSDOF 19
ENDMDL
MODEL 3
REMARK VINA RESULT:     -10.0      4.941     11.972
REMARK SMILES COCCS(=O)(=O)Cc1ccc(C(=O)OCCOC(=O)c2ccc(-c3c4nc(c(-c5c(F)cc(S(=O)(=O)[O-])cc5F)c5ccc([nH]5)c(-c5c(F)cc(S(=O)(=O)[O-])cc5F)c5nc(c(-c6c(F)cc(S(=O)(=O)[O-])cc6F)c6ccc3[nH]6)C=C5)C=C4)cc2)cn1
REMARK SMILES IDX 16 1 15 2 13 3 14 4 12 5 9 6 10 7 88 8 11 9 87 10 8 11 5 12
REMARK SMILES IDX 6 13 7 14 4 15 3 16 2 17 1 18 17 19 18 20 19 21 20 22 21 23
REMARK SMILES IDX 22 24 86 25 23 26 85 27 24 28 25 29 26 30 79 31 27 32 84 33
REMARK SMILES IDX 78 34 80 35 28 36 83 37 77 38 76 39 29 41 63 42 42 43 62 44
REMARK SMILES IDX 43 45 46 46 61 47 81 48 44 49 45 50 60 52 82 53 47 54 30 55
REMARK SMILES IDX 31 56 40 57 32 58 33 59 39 60 41 61 34 62 35 63 36 64 37 65
REMARK SMILES IDX 38 66 64 67 65 68 74 69 66 70 67 71 73 72 75 73 68 74 69 75
REMARK SMILES IDX 70 76 71 77 72 78 48 79 49 80 58 81 50 82 51 83 57 84 59 85
REMARK SMILES IDX 52 86 53 87 54 88 55 89 56 90
REMARK H PARENT 80 40 46 51
REMARK Flexibility Score: inf
ROOT
ATOM      1  C   UNL A   1      33.873  34.099  28.925  1.00  0.00     0.275 C 
ENDROOT
BRANCH   1   2
ATOM      2  O   UNL A   1      34.561  33.829  30.167  1.00  0.00    -0.458 OA
BRANCH   2   3
ATOM      3  C   UNL A   1      35.913  33.885  30.113  1.00  0.00     0.339 C 
ATOM      4  O   UNL A   1      36.582  34.296  29.176  1.00  0.00    -0.246 OA
BRANCH   3   5
ATOM      5  C   UNL A   1      36.529  33.421  31.371  1.00  0.00     0.078 A 
ATOM      6  C   UNL A   1      37.440  32.577  33.850  1.00  0.00     0.055 A 
ATOM      7  C   UNL A   1      38.239  33.415  33.070  1.00  0.00     0.026 A 
ATOM      8  N   UNL A   1      36.221  32.175  33.427  1.00  0.00    -0.259 NA
ATOM      9  C   UNL A   1      37.789  33.821  31.806  1.00  0.00     0.019 A 
ATOM     10  C   UNL A   1      35.786  32.621  32.226  1.00  0.00     0.127 A 
BRANCH   6  11
ATOM     11  C   UNL A   1      37.789  32.151  35.241  1.00  0.00     0.193 C 
BRANCH  11  12
ATOM     12  S   UNL A   1      39.145  31.004  35.278  1.00  0.00     0.158 S 
ATOM     13  O   UNL A   1      38.885  30.073  36.362  1.00  0.00    -0.228 OA
ATOM     14  O   UNL A   1      40.367  31.795  35.328  1.00  0.00    -0.228 OA
BRANCH  12  15
ATOM     15  C   UNL A   1      39.171  30.099  33.732  1.00  0.00     0.165 C 
BRANCH  15  16
ATOM     16  C   UNL A   1      40.391  29.220  33.529  1.00  0.00     0.176 C 
BRANCH  16  17
ATOM     17  O   UNL A   1      40.047  27.881  33.181  1.00  0.00    -0.384 OA
ATOM     18  C   UNL A   1      38.831  27.760  32.459  1.00  0.00     0.194 C 
ENDBRANCH  16  17
ENDBRANCH  15  16
ENDBRANCH  12  15
ENDBRANCH  11  12
ENDBRANCH   6  11
ENDBRANCH   3   5
ENDBRANCH   2   3
ENDBRANCH   1   2
BRANCH   1  19
ATOM     19  C   UNL A   1      33.817  32.872  28.009  1.00  0.00     0.275 C 
BRANCH  19  20
ATOM     20  O   UNL A   1      34.217  31.672  28.697  1.00  0.00    -0.458 OA
BRANCH  20  21
ATOM     21  C   UNL A   1      34.349  30.585  27.904  1.00  0.00     0.338 C 
ATOM     22  O   UNL A   1      33.553  30.182  27.071  1.00  0.00    -0.246 OA
BRANCH  21  23
ATOM     23  C   UNL A   1      35.681  29.989  28.069  1.00  0.00     0.060 A 
ATOM     24  C   UNL A   1      36.032  29.581  29.350  1.00  0.00     0.016 A 
ATOM     25  C   UNL A   1      36.634  29.998  27.055  1.00  0.00     0.016 A 
ATOM     26  C   UNL A   1      37.351  29.287  29.664  1.00  0.00     0.010 A 
ATOM     27  C   UNL A   1      37.946  29.596  27.348  1.00  0.00     0.010 A 
ATOM     28  C   UNL A   1      38.329  29.271  28.664  1.00  0.00    -0.014 A 
BRANCH  28  29
ATOM     29  C   UNL A   1      39.740  28.939  29.016  1.00  0.00     0.031 A 
ATOM     30  C   UNL A   1      40.611  29.955  29.710  1.00  0.00     0.074 A 
ATOM     31  C   UNL A   1      40.235  27.714  28.737  1.00  0.00     0.049 A 
ATOM     32  N   UNL A   1      41.895  29.912  29.960  1.00  0.00    -0.248 NA
ATOM     33  C   UNL A   1      39.955  31.189  30.173  1.00  0.00     0.031 C 
ATOM     34  C   UNL A   1      39.488  26.619  28.114  1.00  0.00     0.029 A 
ATOM     35  N   UNL A   1      41.484  27.180  28.946  1.00  0.00    -0.354 N 
ATOM     36  C   UNL A   1      42.210  31.127  30.559  1.00  0.00     0.074 A 
ATOM     37  C   UNL A   1      40.984  31.893  30.623  1.00  0.00     0.031 C 
ATOM     38  C   UNL A   1      40.276  25.538  28.024  1.00  0.00     0.029 A 
ATOM     39  C   UNL A   1      41.612  25.888  28.487  1.00  0.00     0.049 A 
ATOM     40  H   UNL A   1      42.215  27.672  29.381  1.00  0.00     0.167 HD
ATOM     41  C   UNL A   1      43.412  31.560  31.015  1.00  0.00     0.037 A 
ATOM     42  C   UNL A   1      42.691  25.088  28.396  1.00  0.00     0.037 A 
ATOM     43  C   UNL A   1      44.616  30.767  30.986  1.00  0.00     0.049 A 
ATOM     44  C   UNL A   1      44.023  25.609  28.858  1.00  0.00     0.074 A 
ATOM     45  C   UNL A   1      45.879  31.105  31.440  1.00  0.00     0.029 A 
ATOM     46  N   UNL A   1      44.707  29.478  30.481  1.00  0.00    -0.354 N 
ATOM     47  N   UNL A   1      44.312  26.773  29.390  1.00  0.00    -0.248 NA
ATOM     48  C   UNL A   1      45.177  24.716  28.696  1.00  0.00     0.031 C 
ATOM     49  C   UNL A   1      46.745  30.042  31.162  1.00  0.00     0.029 A 
ATOM     50  C   UNL A   1      46.010  29.015  30.590  1.00  0.00     0.049 A 
ATOM     51  H   UNL A   1      43.957  28.965  30.101  1.00  0.00     0.167 HD
ATOM     52  C   UNL A   1      45.678  26.745  29.643  1.00  0.00     0.074 A 
ATOM     53  C   UNL A   1      46.153  25.442  29.225  1.00  0.00     0.031 C 
ATOM     54  C   UNL A   1      46.468  27.713  30.172  1.00  0.00     0.037 A 
BRANCH  41  55
ATOM     55  C   UNL A   1      43.498  32.966  31.549  1.00  0.00     0.058 A 
ATOM     56  C   UNL A   1      43.660  34.079  30.710  1.00  0.00     0.135 A 
ATOM     57  C   UNL A   1      43.380  33.205  32.929  1.00  0.00     0.135 A 
ATOM     58  F   UNL A   1      43.791  33.914  29.384  1.00  0.00    -0.206 F 
ATOM     59  C   UNL A   1      43.735  35.374  31.221  1.00  0.00     0.059 A 
ATOM     60  C   UNL A   1      43.420  34.491  33.460  1.00  0.00     0.059 A 
ATOM     61  F   UNL A   1      43.222  32.179  33.781  1.00  0.00    -0.206 F 
ATOM     62  C   UNL A   1      43.613  35.569  32.597  1.00  0.00     0.060 A 
BRANCH  62  63
ATOM     63  S   UNL A   1      43.713  37.252  33.245  1.00  0.00     0.124 S 
ATOM     64  O   UNL A   1      44.943  37.193  34.027  1.00  0.00    -0.237 OA
ATOM     65  O   UNL A   1      43.775  38.051  32.025  1.00  0.00    -0.237 OA
ATOM     66  O   UNL A   1      42.484  37.393  34.020  1.00  0.00    -0.744 OA
ENDBRANCH  62  63
ENDBRANCH  41  55
BRANCH  42  67
ATOM     67  C   UNL A   1      42.561  23.728  27.801  1.00  0.00     0.058 A 
ATOM     68  C   UNL A   1      42.605  23.536  26.413  1.00  0.00     0.135 A 
ATOM     69  C   UNL A   1      42.410  22.591  28.612  1.00  0.00     0.135 A 
ATOM     70  F   UNL A   1      42.736  24.590  25.594  1.00  0.00    -0.206 F 
ATOM     71  C   UNL A   1      42.495  22.268  25.849  1.00  0.00     0.059 A 
ATOM     72  C   UNL A   1      42.332  21.311  28.074  1.00  0.00     0.059 A 
ATOM     73  F   UNL A   1      42.374  22.716  29.949  1.00  0.00    -0.206 F 
ATOM     74  C   UNL A   1      42.365  21.161  26.689  1.00  0.00     0.060 A 
BRANCH  74  75
ATOM     75  S   UNL A   1      42.277  19.517  25.948  1.00  0.00     0.124 S 
ATOM     76  O   UNL A   1      42.751  18.676  27.041  1.00  0.00    -0.237 OA
ATOM     77  O   UNL A   1      40.858  19.404  25.625  1.00  0.00    -0.237 OA
ATOM     78  O   UNL A   1      43.168  19.619  24.796  1.00  0.00    -0.744 OA
ENDBRANCH  74  75
ENDBRANCH  42  67
BRANCH  54  79
ATOM     79  C   UNL A   1      47.923  27.385  30.365  1.00  0.00     0.058 A 
ATOM     80  C   UNL A   1      48.884  27.674  29.383  1.00  0.00     0.135 A 
ATOM     81  C   UNL A   1      48.367  26.811  31.567  1.00  0.00     0.135 A 
ATOM     82  F   UNL A   1      48.512  28.214  28.212  1.00  0.00    -0.206 F 
ATOM     83  C   UNL A   1      50.230  27.382  29.577  1.00  0.00     0.059 A 
ATOM     84  C   UNL A   1      49.712  26.540  31.795  1.00  0.00     0.059 A 
ATOM     85  F   UNL A   1      47.491  26.521  32.543  1.00  0.00    -0.206 F 
ATOM     86  C   UNL A   1      50.635  26.818  30.789  1.00  0.00     0.060 A 
BRANCH  86  87
ATOM     87  S   UNL A   1      52.389  26.475  31.039  1.00  0.00     0.124 S 
ATOM     88  O   UNL A   1      52.829  27.681  31.734  1.00  0.00    -0.237 OA
ATOM     89  O   UNL A   1      52.356  25.256  31.842  1.00  0.00    -0.237 OA
ATOM     90  O   UNL A   1      52.900  26.310  29.681  1.00  0.00    -0.744 OA
ENDBRANCH  86  87
ENDBRANCH  54  79
ENDBRANCH  28  29
ENDBRANCH  21  23
ENDBRANCH  20  21
ENDBRANCH  19  20
ENDBRANCH   1  19
TORSDOF 19
ENDMDL
