MODEL 1
REMARK VINA RESULT:     -12.3      0.000      0.000
REMARK SMILES CCn1c(N2CCC[C@H](C(=O)OCCOC(=O)c3ccc(-c4c5nc(c(-c6c(F)cc(S(=O)(=O)[O-])cc6F)c6ccc([nH]6)c(-c6c(F)cc(S(=O)(=O)[O-])cc6F)c6nc(c(-c7c(F)cc(S(=O)(=O)[O-])cc7F)c7ccc4[nH]7)C=C6)C=C5)cc3)C2)nc2cc(C)ccc21
REMARK SMILES IDX 14 1 13 2 12 3 10 4 11 5 9 6 5 7 6 8 84 9 7 10 8 11 4 12
REMARK SMILES IDX 3 13 92 14 85 15 86 16 91 17 87 18 90 19 88 20 89 21 2 22
REMARK SMILES IDX 1 23 15 24 16 25 17 26 18 27 19 28 83 29 20 30 82 31 21 32
REMARK SMILES IDX 22 33 23 34 76 35 24 36 81 37 75 38 77 39 25 40 80 41 74 42
REMARK SMILES IDX 73 43 26 45 60 46 39 47 59 48 40 49 43 50 58 51 78 52 41 53
REMARK SMILES IDX 42 54 57 56 79 57 44 58 27 59 28 60 37 61 29 62 30 63 36 64
REMARK SMILES IDX 38 65 31 66 32 67 33 68 34 69 35 70 61 71 62 72 71 73 63 74
REMARK SMILES IDX 64 75 70 76 72 77 65 78 66 79 67 80 68 81 69 82 45 83 46 84
REMARK SMILES IDX 55 85 47 86 48 87 54 88 56 89 49 90 50 91 51 92 52 93 53 94
REMARK H PARENT 77 44 43 55
REMARK Flexibility Score: inf
ROOT
ATOM      1  C   UNL A   1      37.188  21.840  25.004  1.00  0.00     0.275 C 
ENDROOT
BRANCH   1   2
ATOM      2  C   UNL A   1      36.396  22.713  24.025  1.00  0.00     0.274 C 
BRANCH   2   3
ATOM      3  O   UNL A   1      35.042  22.225  23.934  1.00  0.00    -0.462 OA
BRANCH   3   4
ATOM      4  C   UNL A   1      34.144  22.995  23.261  1.00  0.00     0.310 C 
ATOM      5  O   UNL A   1      34.398  24.089  22.774  1.00  0.00    -0.252 OA
BRANCH   4   6
ATOM      6  C   UNL A   1      32.793  22.308  23.103  1.00  0.00     0.119 C 
ATOM      7  N   UNL A   1      31.363  23.836  24.365  1.00  0.00    -0.341 N 
ATOM      8  C   UNL A   1      31.037  22.835  25.373  1.00  0.00     0.119 C 
ATOM      9  C   UNL A   1      31.678  23.337  23.032  1.00  0.00     0.135 C 
ATOM     10  C   UNL A   1      32.106  21.749  25.470  1.00  0.00     0.022 C 
ATOM     11  C   UNL A   1      32.480  21.193  24.101  1.00  0.00     0.019 C 
BRANCH   7  12
ATOM     12  C   UNL A   1      31.886  25.031  24.738  1.00  0.00     0.206 A 
ATOM     13  N   UNL A   1      31.424  26.219  24.205  1.00  0.00    -0.310 N 
ATOM     14  C   UNL A   1      32.112  27.248  24.806  1.00  0.00     0.070 A 
ATOM     15  N   UNL A   1      32.829  25.244  25.628  1.00  0.00    -0.213 NA
ATOM     16  C   UNL A   1      33.005  26.607  25.658  1.00  0.00     0.091 A 
ATOM     17  C   UNL A   1      32.040  28.641  24.698  1.00  0.00     0.029 A 
ATOM     18  C   UNL A   1      33.892  27.384  26.423  1.00  0.00     0.034 A 
ATOM     19  C   UNL A   1      32.919  29.396  25.472  1.00  0.00     0.006 A 
ATOM     20  C   UNL A   1      33.836  28.788  26.333  1.00  0.00    -0.049 A 
ATOM     21  C   UNL A   1      34.737  29.631  27.182  1.00  0.00     0.044 C 
BRANCH  13  22
ATOM     22  C   UNL A   1      30.325  26.384  23.273  1.00  0.00     0.122 C 
ATOM     23  C   UNL A   1      28.979  26.556  23.947  1.00  0.00     0.028 C 
ENDBRANCH  13  22
ENDBRANCH   7  12
ENDBRANCH   4   6
ENDBRANCH   3   4
ENDBRANCH   2   3
ENDBRANCH   1   2
BRANCH   1  24
ATOM     24  O   UNL A   1      37.783  22.682  26.005  1.00  0.00    -0.458 OA
BRANCH  24  25
ATOM     25  C   UNL A   1      39.064  22.390  26.324  1.00  0.00     0.338 C 
ATOM     26  O   UNL A   1      39.667  21.356  26.060  1.00  0.00    -0.246 OA
BRANCH  25  27
ATOM     27  C   UNL A   1      39.713  23.660  26.712  1.00  0.00     0.060 A 
ATOM     28  C   UNL A   1      40.961  23.694  27.350  1.00  0.00     0.016 A 
ATOM     29  C   UNL A   1      38.914  24.800  26.665  1.00  0.00     0.016 A 
ATOM     30  C   UNL A   1      41.337  24.826  28.075  1.00  0.00     0.010 A 
ATOM     31  C   UNL A   1      39.285  25.911  27.409  1.00  0.00     0.010 A 
ATOM     32  C   UNL A   1      40.460  25.909  28.170  1.00  0.00    -0.014 A 
BRANCH  32  33
ATOM     33  C   UNL A   1      40.874  27.158  28.813  1.00  0.00     0.031 A 
ATOM     34  C   UNL A   1      42.093  27.698  28.183  1.00  0.00     0.074 A 
ATOM     35  C   UNL A   1      40.262  27.856  29.795  1.00  0.00     0.049 A 
ATOM     36  N   UNL A   1      43.287  27.618  28.669  1.00  0.00    -0.248 NA
ATOM     37  C   UNL A   1      42.032  28.182  26.796  1.00  0.00     0.031 C 
ATOM     38  C   UNL A   1      39.004  27.545  30.464  1.00  0.00     0.029 A 
ATOM     39  N   UNL A   1      40.632  29.047  30.383  1.00  0.00    -0.354 N 
ATOM     40  C   UNL A   1      44.082  28.274  27.747  1.00  0.00     0.074 A 
ATOM     41  C   UNL A   1      43.327  28.340  26.525  1.00  0.00     0.031 C 
ATOM     42  C   UNL A   1      38.638  28.602  31.222  1.00  0.00     0.029 A 
ATOM     43  C   UNL A   1      39.640  29.638  31.160  1.00  0.00     0.049 A 
ATOM     44  H   UNL A   1      41.524  29.447  30.262  1.00  0.00     0.167 HD
ATOM     45  C   UNL A   1      45.141  29.020  28.152  1.00  0.00     0.037 A 
ATOM     46  C   UNL A   1      39.628  30.833  31.810  1.00  0.00     0.037 A 
ATOM     47  C   UNL A   1      45.531  28.703  29.500  1.00  0.00     0.049 A 
ATOM     48  C   UNL A   1      41.037  31.155  32.099  1.00  0.00     0.074 A 
ATOM     49  C   UNL A   1      45.940  27.558  30.154  1.00  0.00     0.029 A 
ATOM     50  N   UNL A   1      45.151  29.594  30.471  1.00  0.00    -0.354 N 
ATOM     51  N   UNL A   1      41.762  30.499  32.960  1.00  0.00    -0.248 NA
ATOM     52  C   UNL A   1      41.766  31.979  31.152  1.00  0.00     0.031 C 
ATOM     53  C   UNL A   1      45.446  27.676  31.484  1.00  0.00     0.029 A 
ATOM     54  C   UNL A   1      44.801  28.907  31.604  1.00  0.00     0.049 A 
ATOM     55  H   UNL A   1      45.132  30.573  30.370  1.00  0.00     0.167 HD
ATOM     56  C   UNL A   1      43.013  30.454  32.373  1.00  0.00     0.074 A 
ATOM     57  C   UNL A   1      42.993  31.495  31.352  1.00  0.00     0.031 C 
ATOM     58  C   UNL A   1      43.831  29.384  32.570  1.00  0.00     0.037 A 
BRANCH  45  59
ATOM     59  C   UNL A   1      45.532  30.298  27.461  1.00  0.00     0.058 A 
ATOM     60  C   UNL A   1      46.868  30.495  27.074  1.00  0.00     0.135 A 
ATOM     61  C   UNL A   1      44.693  31.435  27.369  1.00  0.00     0.135 A 
ATOM     62  F   UNL A   1      47.763  29.501  27.188  1.00  0.00    -0.206 F 
ATOM     63  C   UNL A   1      47.334  31.729  26.622  1.00  0.00     0.059 A 
ATOM     64  C   UNL A   1      45.115  32.649  26.852  1.00  0.00     0.059 A 
ATOM     65  F   UNL A   1      43.451  31.453  27.866  1.00  0.00    -0.206 F 
ATOM     66  C   UNL A   1      46.445  32.796  26.506  1.00  0.00     0.060 A 
BRANCH  66  67
ATOM     67  S   UNL A   1      47.045  34.396  25.946  1.00  0.00     0.124 S 
ATOM     68  O   UNL A   1      47.031  35.161  27.188  1.00  0.00    -0.237 OA
ATOM     69  O   UNL A   1      48.361  34.055  25.416  1.00  0.00    -0.237 OA
ATOM     70  O   UNL A   1      46.058  34.794  24.947  1.00  0.00    -0.744 OA
ENDBRANCH  66  67
ENDBRANCH  45  59
BRANCH  46  71
ATOM     71  C   UNL A   1      38.536  31.846  31.968  1.00  0.00     0.058 A 
ATOM     72  C   UNL A   1      38.088  32.610  30.866  1.00  0.00     0.135 A 
ATOM     73  C   UNL A   1      37.697  31.861  33.098  1.00  0.00     0.135 A 
ATOM     74  F   UNL A   1      38.818  32.671  29.742  1.00  0.00    -0.206 F 
ATOM     75  C   UNL A   1      36.847  33.261  30.852  1.00  0.00     0.059 A 
ATOM     76  C   UNL A   1      36.455  32.508  33.108  1.00  0.00     0.059 A 
ATOM     77  F   UNL A   1      38.019  31.170  34.201  1.00  0.00    -0.206 F 
ATOM     78  C   UNL A   1      36.019  33.176  31.968  1.00  0.00     0.060 A 
BRANCH  78  79
ATOM     79  S   UNL A   1      34.331  33.829  31.871  1.00  0.00     0.124 S 
ATOM     80  O   UNL A   1      33.599  32.906  32.733  1.00  0.00    -0.237 OA
ATOM     81  O   UNL A   1      34.495  35.185  32.383  1.00  0.00    -0.237 OA
ATOM     82  O   UNL A   1      34.014  33.737  30.448  1.00  0.00    -0.744 OA
ENDBRANCH  78  79
ENDBRANCH  46  71
BRANCH  58  83
ATOM     83  C   UNL A   1      43.595  28.508  33.773  1.00  0.00     0.058 A 
ATOM     84  C   UNL A   1      44.030  28.785  35.081  1.00  0.00     0.135 A 
ATOM     85  C   UNL A   1      42.719  27.423  33.603  1.00  0.00     0.135 A 
ATOM     86  F   UNL A   1      44.822  29.836  35.339  1.00  0.00    -0.206 F 
ATOM     87  C   UNL A   1      43.599  28.021  36.171  1.00  0.00     0.059 A 
ATOM     88  C   UNL A   1      42.254  26.670  34.675  1.00  0.00     0.059 A 
ATOM     89  F   UNL A   1      42.246  27.129  32.380  1.00  0.00    -0.206 F 
ATOM     90  C   UNL A   1      42.693  26.979  35.960  1.00  0.00     0.060 A 
BRANCH  90  91
ATOM     91  S   UNL A   1      42.014  26.090  37.379  1.00  0.00     0.124 S 
ATOM     92  O   UNL A   1      42.999  26.369  38.420  1.00  0.00    -0.237 OA
ATOM     93  O   UNL A   1      40.710  26.723  37.553  1.00  0.00    -0.237 OA
ATOM     94  O   UNL A   1      41.965  24.703  36.924  1.00  0.00    -0.744 OA
ENDBRANCH  90  91
ENDBRANCH  58  83
ENDBRANCH  32  33
ENDBRANCH  25  27
ENDBRANCH  24  25
ENDBRANCH   1  24
TORSDOF 16
ENDMDL
MODEL 2
REMARK VINA RESULT:     -12.2      2.787      9.189
REMARK SMILES CCn1c(N2CCC[C@H](C(=O)OCCOC(=O)c3ccc(-c4c5nc(c(-c6c(F)cc(S(=O)(=O)[O-])cc6F)c6ccc([nH]6)c(-c6c(F)cc(S(=O)(=O)[O-])cc6F)c6nc(c(-c7c(F)cc(S(=O)(=O)[O-])cc7F)c7ccc4[nH]7)C=C6)C=C5)cc3)C2)nc2cc(C)ccc21
REMARK SMILES IDX 14 1 13 2 12 3 10 4 11 5 9 6 5 7 6 8 84 9 7 10 8 11 4 12
REMARK SMILES IDX 3 13 92 14 85 15 86 16 91 17 87 18 90 19 88 20 89 21 2 22
REMARK SMILES IDX 1 23 15 24 16 25 17 26 18 27 19 28 83 29 20 30 82 31 21 32
REMARK SMILES IDX 22 33 23 34 76 35 24 36 81 37 75 38 77 39 25 40 80 41 74 42
REMARK SMILES IDX 73 43 26 45 60 46 39 47 59 48 40 49 43 50 58 51 78 52 41 53
REMARK SMILES IDX 42 54 57 56 79 57 44 58 27 59 28 60 37 61 29 62 30 63 36 64
REMARK SMILES IDX 38 65 31 66 32 67 33 68 34 69 35 70 61 71 62 72 71 73 63 74
REMARK SMILES IDX 64 75 70 76 72 77 65 78 66 79 67 80 68 81 69 82 45 83 46 84
REMARK SMILES IDX 55 85 47 86 48 87 54 88 56 89 49 90 50 91 51 92 52 93 53 94
REMARK H PARENT 77 44 43 55
REMARK Flexibility Score: inf
ROOT
ATOM      1  C   UNL A   1      32.763  30.262  27.165  1.00  0.00     0.275 C 
ENDROOT
BRANCH   1   2
ATOM      2  C   UNL A   1      32.635  28.735  27.194  1.00  0.00     0.274 C 
BRANCH   2   3
ATOM      3  O   UNL A   1      31.880  28.296  26.047  1.00  0.00    -0.462 OA
BRANCH   3   4
ATOM      4  C   UNL A   1      31.358  27.040  26.086  1.00  0.00     0.310 C 
ATOM      5  O   UNL A   1      31.619  26.208  26.946  1.00  0.00    -0.252 OA
BRANCH   4   6
ATOM      6  C   UNL A   1      30.338  26.799  24.980  1.00  0.00     0.119 C 
ATOM      7  N   UNL A   1      31.553  25.197  23.590  1.00  0.00    -0.341 N 
ATOM      8  C   UNL A   1      31.623  26.106  22.453  1.00  0.00     0.119 C 
ATOM      9  C   UNL A   1      30.417  25.365  24.487  1.00  0.00     0.135 C 
ATOM     10  C   UNL A   1      31.516  27.568  22.880  1.00  0.00     0.022 C 
ATOM     11  C   UNL A   1      30.343  27.802  23.825  1.00  0.00     0.019 C 
BRANCH   7  12
ATOM     12  C   UNL A   1      32.688  24.653  24.095  1.00  0.00     0.206 A 
ATOM     13  N   UNL A   1      32.824  23.287  24.257  1.00  0.00    -0.310 N 
ATOM     14  C   UNL A   1      34.088  23.043  24.743  1.00  0.00     0.070 A 
ATOM     15  N   UNL A   1      33.781  25.285  24.460  1.00  0.00    -0.213 NA
ATOM     16  C   UNL A   1      34.644  24.307  24.895  1.00  0.00     0.091 A 
ATOM     17  C   UNL A   1      34.785  21.870  25.051  1.00  0.00     0.029 A 
ATOM     18  C   UNL A   1      35.949  24.420  25.404  1.00  0.00     0.034 A 
ATOM     19  C   UNL A   1      36.082  21.999  25.545  1.00  0.00     0.006 A 
ATOM     20  C   UNL A   1      36.672  23.254  25.719  1.00  0.00    -0.049 A 
ATOM     21  C   UNL A   1      38.084  23.355  26.210  1.00  0.00     0.044 C 
BRANCH  13  22
ATOM     22  C   UNL A   1      31.867  22.267  23.870  1.00  0.00     0.122 C 
ATOM     23  C   UNL A   1      32.158  21.644  22.520  1.00  0.00     0.028 C 
ENDBRANCH  13  22
ENDBRANCH   7  12
ENDBRANCH   4   6
ENDBRANCH   3   4
ENDBRANCH   2   3
ENDBRANCH   1   2
BRANCH   1  24
ATOM     24  O   UNL A   1      34.151  30.613  27.041  1.00  0.00    -0.458 OA
BRANCH  24  25
ATOM     25  C   UNL A   1      34.627  31.451  27.990  1.00  0.00     0.338 C 
ATOM     26  O   UNL A   1      34.008  32.349  28.550  1.00  0.00    -0.246 OA
BRANCH  25  27
ATOM     27  C   UNL A   1      35.887  30.865  28.492  1.00  0.00     0.060 A 
ATOM     28  C   UNL A   1      36.943  31.658  28.961  1.00  0.00     0.016 A 
ATOM     29  C   UNL A   1      36.086  29.511  28.226  1.00  0.00     0.016 A 
ATOM     30  C   UNL A   1      38.234  31.132  29.013  1.00  0.00     0.010 A 
ATOM     31  C   UNL A   1      37.377  29.005  28.257  1.00  0.00     0.010 A 
ATOM     32  C   UNL A   1      38.465  29.823  28.585  1.00  0.00    -0.014 A 
BRANCH  32  33
ATOM     33  C   UNL A   1      39.781  29.199  28.746  1.00  0.00     0.031 A 
ATOM     34  C   UNL A   1      40.150  29.105  30.170  1.00  0.00     0.074 A 
ATOM     35  C   UNL A   1      40.596  28.670  27.806  1.00  0.00     0.049 A 
ATOM     36  N   UNL A   1      40.980  29.882  30.784  1.00  0.00    -0.248 NA
ATOM     37  C   UNL A   1      39.382  28.217  31.056  1.00  0.00     0.031 C 
ATOM     38  C   UNL A   1      40.361  28.571  26.371  1.00  0.00     0.029 A 
ATOM     39  N   UNL A   1      41.821  28.056  27.957  1.00  0.00    -0.354 N 
ATOM     40  C   UNL A   1      41.015  29.400  32.079  1.00  0.00     0.074 A 
ATOM     41  C   UNL A   1      39.839  28.592  32.250  1.00  0.00     0.031 C 
ATOM     42  C   UNL A   1      41.314  27.785  25.824  1.00  0.00     0.029 A 
ATOM     43  C   UNL A   1      42.265  27.373  26.828  1.00  0.00     0.049 A 
ATOM     44  H   UNL A   1      42.338  28.097  28.793  1.00  0.00     0.167 HD
ATOM     45  C   UNL A   1      42.171  29.409  32.790  1.00  0.00     0.037 A 
ATOM     46  C   UNL A   1      43.369  26.600  26.646  1.00  0.00     0.037 A 
ATOM     47  C   UNL A   1      43.145  30.298  32.213  1.00  0.00     0.049 A 
ATOM     48  C   UNL A   1      44.367  27.079  27.619  1.00  0.00     0.074 A 
ATOM     49  C   UNL A   1      43.181  31.646  31.920  1.00  0.00     0.029 A 
ATOM     50  N   UNL A   1      44.157  29.713  31.496  1.00  0.00    -0.354 N 
ATOM     51  N   UNL A   1      44.954  28.239  27.535  1.00  0.00    -0.248 NA
ATOM     52  C   UNL A   1      44.445  26.420  28.910  1.00  0.00     0.031 C 
ATOM     53  C   UNL A   1      43.988  31.765  30.752  1.00  0.00     0.029 A 
ATOM     54  C   UNL A   1      44.452  30.495  30.410  1.00  0.00     0.049 A 
ATOM     55  H   UNL A   1      44.601  28.864  31.724  1.00  0.00     0.167 HD
ATOM     56  C   UNL A   1      45.054  28.656  28.849  1.00  0.00     0.074 A 
ATOM     57  C   UNL A   1      44.867  27.449  29.647  1.00  0.00     0.031 C 
ATOM     58  C   UNL A   1      44.980  29.979  29.163  1.00  0.00     0.037 A 
BRANCH  45  59
ATOM     59  C   UNL A   1      42.530  28.306  33.749  1.00  0.00     0.058 A 
ATOM     60  C   UNL A   1      42.607  28.582  35.124  1.00  0.00     0.135 A 
ATOM     61  C   UNL A   1      43.025  27.041  33.349  1.00  0.00     0.135 A 
ATOM     62  F   UNL A   1      42.229  29.779  35.600  1.00  0.00    -0.206 F 
ATOM     63  C   UNL A   1      43.132  27.667  36.035  1.00  0.00     0.059 A 
ATOM     64  C   UNL A   1      43.481  26.087  34.244  1.00  0.00     0.059 A 
ATOM     65  F   UNL A   1      43.184  26.706  32.063  1.00  0.00    -0.206 F 
ATOM     66  C   UNL A   1      43.556  26.418  35.585  1.00  0.00     0.060 A 
BRANCH  66  67
ATOM     67  S   UNL A   1      44.255  25.242  36.751  1.00  0.00     0.124 S 
ATOM     68  O   UNL A   1      43.851  23.972  36.160  1.00  0.00    -0.237 OA
ATOM     69  O   UNL A   1      45.677  25.560  36.682  1.00  0.00    -0.237 OA
ATOM     70  O   UNL A   1      43.602  25.590  38.010  1.00  0.00    -0.744 OA
ENDBRANCH  66  67
ENDBRANCH  45  59
BRANCH  46  71
ATOM     71  C   UNL A   1      43.548  25.316  25.895  1.00  0.00     0.058 A 
ATOM     72  C   UNL A   1      44.753  25.034  25.213  1.00  0.00     0.135 A 
ATOM     73  C   UNL A   1      42.691  24.217  26.092  1.00  0.00     0.135 A 
ATOM     74  F   UNL A   1      45.636  26.014  24.965  1.00  0.00    -0.206 F 
ATOM     75  C   UNL A   1      45.126  23.736  24.841  1.00  0.00     0.059 A 
ATOM     76  C   UNL A   1      43.040  22.911  25.725  1.00  0.00     0.059 A 
ATOM     77  F   UNL A   1      41.520  24.365  26.730  1.00  0.00    -0.206 F 
ATOM     78  C   UNL A   1      44.277  22.673  25.133  1.00  0.00     0.060 A 
BRANCH  78  79
ATOM     79  S   UNL A   1      44.851  20.976  24.853  1.00  0.00     0.124 S 
ATOM     80  O   UNL A   1      46.227  21.037  25.335  1.00  0.00    -0.237 OA
ATOM     81  O   UNL A   1      43.924  20.198  25.668  1.00  0.00    -0.237 OA
ATOM     82  O   UNL A   1      44.703  20.804  23.410  1.00  0.00    -0.744 OA
ENDBRANCH  78  79
ENDBRANCH  46  71
BRANCH  58  83
ATOM     83  C   UNL A   1      45.274  30.992  28.087  1.00  0.00     0.058 A 
ATOM     84  C   UNL A   1      44.371  31.411  27.094  1.00  0.00     0.135 A 
ATOM     85  C   UNL A   1      46.482  31.699  28.197  1.00  0.00     0.135 A 
ATOM     86  F   UNL A   1      43.171  30.827  26.957  1.00  0.00    -0.206 F 
ATOM     87  C   UNL A   1      44.657  32.497  26.259  1.00  0.00     0.059 A 
ATOM     88  C   UNL A   1      46.773  32.799  27.399  1.00  0.00     0.059 A 
ATOM     89  F   UNL A   1      47.371  31.362  29.148  1.00  0.00    -0.206 F 
ATOM     90  C   UNL A   1      45.852  33.198  26.434  1.00  0.00     0.060 A 
BRANCH  90  91
ATOM     91  S   UNL A   1      46.157  34.692  25.464  1.00  0.00     0.124 S 
ATOM     92  O   UNL A   1      45.723  35.746  26.375  1.00  0.00    -0.237 OA
ATOM     93  O   UNL A   1      47.594  34.619  25.216  1.00  0.00    -0.237 OA
ATOM     94  O   UNL A   1      45.321  34.509  24.280  1.00  0.00    -0.744 OA
ENDBRANCH  90  91
ENDBRANCH  58  83
ENDBRANCH  32  33
ENDBRANCH  25  27
ENDBRANCH  24  25
ENDBRANCH   1  24
TORSDOF 16
ENDMDL
MODEL 3
REMARK VINA RESULT:     -11.9      3.027      8.509
REMARK SMILES CCn1c(N2CCC[C@H](C(=O)OCCOC(=O)c3ccc(-c4c5nc(c(-c6c(F)cc(S(=O)(=O)[O-])cc6F)c6ccc([nH]6)c(-c6c(F)cc(S(=O)(=O)[O-])cc6F)c6nc(c(-c7c(F)cc(S(=O)(=O)[O-])cc7F)c7ccc4[nH]7)C=C6)C=C5)cc3)C2)nc2cc(C)ccc21
REMARK SMILES IDX 14 1 13 2 12 3 10 4 11 5 9 6 5 7 6 8 84 9 7 10 8 11 4 12
REMARK SMILES IDX 3 13 92 14 85 15 86 16 91 17 87 18 90 19 88 20 89 21 2 22
REMARK SMILES IDX 1 23 15 24 16 25 17 26 18 27 19 28 83 29 20 30 82 31 21 32
REMARK SMILES IDX 22 33 23 34 76 35 24 36 81 37 75 38 77 39 25 40 80 41 74 42
REMARK SMILES IDX 73 43 26 45 60 46 39 47 59 48 40 49 43 50 58 51 78 52 41 53
REMARK SMILES IDX 42 54 57 56 79 57 44 58 27 59 28 60 37 61 29 62 30 63 36 64
REMARK SMILES IDX 38 65 31 66 32 67 33 68 34 69 35 70 61 71 62 72 71 73 63 74
REMARK SMILES IDX 64 75 70 76 72 77 65 78 66 79 67 80 68 81 69 82 45 83 46 84
REMARK SMILES IDX 55 85 47 86 48 87 54 88 56 89 49 90 50 91 51 92 52 93 53 94
REMARK H PARENT 77 44 43 55
REMARK Flexibility Score: inf
ROOT
ATOM      1  C   UNL A   1      35.809  22.221  24.045  1.00  0.00     0.275 C 
ENDROOT
BRANCH   1   2
ATOM      2  C   UNL A   1      35.419  23.418  23.171  1.00  0.00     0.274 C 
BRANCH   2   3
ATOM      3  O   UNL A   1      34.890  24.468  24.005  1.00  0.00    -0.462 OA
BRANCH   3   4
ATOM      4  C   UNL A   1      34.043  25.361  23.422  1.00  0.00     0.310 C 
ATOM      5  O   UNL A   1      33.864  25.460  22.215  1.00  0.00    -0.252 OA
BRANCH   4   6
ATOM      6  C   UNL A   1      33.268  26.180  24.447  1.00  0.00     0.119 C 
ATOM      7  N   UNL A   1      31.756  24.477  25.334  1.00  0.00    -0.341 N 
ATOM      8  C   UNL A   1      30.565  25.153  24.836  1.00  0.00     0.119 C 
ATOM      9  C   UNL A   1      32.900  25.324  25.646  1.00  0.00     0.135 C 
ATOM     10  C   UNL A   1      30.873  26.060  23.647  1.00  0.00     0.022 C 
ATOM     11  C   UNL A   1      32.068  26.967  23.916  1.00  0.00     0.019 C 
BRANCH   7  12
ATOM     12  C   UNL A   1      31.992  23.184  25.000  1.00  0.00     0.206 A 
ATOM     13  N   UNL A   1      32.440  22.268  25.932  1.00  0.00    -0.310 N 
ATOM     14  C   UNL A   1      32.543  21.046  25.308  1.00  0.00     0.070 A 
ATOM     15  N   UNL A   1      31.819  22.620  23.825  1.00  0.00    -0.213 NA
ATOM     16  C   UNL A   1      32.187  21.306  23.991  1.00  0.00     0.091 A 
ATOM     17  C   UNL A   1      32.896  19.768  25.757  1.00  0.00     0.029 A 
ATOM     18  C   UNL A   1      32.208  20.253  23.060  1.00  0.00     0.034 A 
ATOM     19  C   UNL A   1      32.902  18.734  24.823  1.00  0.00     0.006 A 
ATOM     20  C   UNL A   1      32.558  18.958  23.487  1.00  0.00    -0.049 A 
ATOM     21  C   UNL A   1      32.532  17.815  22.520  1.00  0.00     0.044 C 
BRANCH  13  22
ATOM     22  C   UNL A   1      32.647  22.501  27.349  1.00  0.00     0.122 C 
ATOM     23  C   UNL A   1      34.108  22.527  27.752  1.00  0.00     0.028 C 
ENDBRANCH  13  22
ENDBRANCH   7  12
ENDBRANCH   4   6
ENDBRANCH   3   4
ENDBRANCH   2   3
ENDBRANCH   1   2
BRANCH   1  24
ATOM     24  O   UNL A   1      37.214  21.965  23.887  1.00  0.00    -0.458 OA
BRANCH  24  25
ATOM     25  C   UNL A   1      37.755  21.116  24.791  1.00  0.00     0.338 C 
ATOM     26  O   UNL A   1      37.998  19.926  24.624  1.00  0.00    -0.246 OA
BRANCH  25  27
ATOM     27  C   UNL A   1      38.335  21.945  25.868  1.00  0.00     0.060 A 
ATOM     28  C   UNL A   1      37.937  23.271  26.084  1.00  0.00     0.016 A 
ATOM     29  C   UNL A   1      39.483  21.445  26.479  1.00  0.00     0.016 A 
ATOM     30  C   UNL A   1      38.773  24.140  26.787  1.00  0.00     0.010 A 
ATOM     31  C   UNL A   1      40.320  22.323  27.154  1.00  0.00     0.010 A 
ATOM     32  C   UNL A   1      40.006  23.683  27.256  1.00  0.00    -0.014 A 
BRANCH  32  33
ATOM     33  C   UNL A   1      40.849  24.529  28.105  1.00  0.00     0.031 A 
ATOM     34  C   UNL A   1      40.219  25.842  28.334  1.00  0.00     0.074 A 
ATOM     35  C   UNL A   1      42.015  24.230  28.718  1.00  0.00     0.049 A 
ATOM     36  N   UNL A   1      40.545  26.945  27.744  1.00  0.00    -0.248 NA
ATOM     37  C   UNL A   1      38.978  25.918  29.120  1.00  0.00     0.031 C 
ATOM     38  C   UNL A   1      42.736  22.962  28.702  1.00  0.00     0.029 A 
ATOM     39  N   UNL A   1      42.796  25.013  29.542  1.00  0.00    -0.354 N 
ATOM     40  C   UNL A   1      39.701  27.894  28.290  1.00  0.00     0.074 A 
ATOM     41  C   UNL A   1      38.609  27.178  28.891  1.00  0.00     0.031 C 
ATOM     42  C   UNL A   1      43.733  23.014  29.612  1.00  0.00     0.029 A 
ATOM     43  C   UNL A   1      43.783  24.315  30.233  1.00  0.00     0.049 A 
ATOM     44  H   UNL A   1      42.667  25.984  29.634  1.00  0.00     0.167 HD
ATOM     45  C   UNL A   1      40.137  29.159  28.518  1.00  0.00     0.037 A 
ATOM     46  C   UNL A   1      44.666  24.744  31.175  1.00  0.00     0.037 A 
ATOM     47  C   UNL A   1      41.339  29.449  27.781  1.00  0.00     0.049 A 
ATOM     48  C   UNL A   1      44.863  26.183  30.925  1.00  0.00     0.074 A 
ATOM     49  C   UNL A   1      41.690  29.445  26.446  1.00  0.00     0.029 A 
ATOM     50  N   UNL A   1      42.510  29.434  28.495  1.00  0.00    -0.354 N 
ATOM     51  N   UNL A   1      45.484  26.653  29.881  1.00  0.00    -0.248 NA
ATOM     52  C   UNL A   1      44.037  27.129  31.652  1.00  0.00     0.031 C 
ATOM     53  C   UNL A   1      43.061  29.061  26.410  1.00  0.00     0.029 A 
ATOM     54  C   UNL A   1      43.505  28.895  27.722  1.00  0.00     0.049 A 
ATOM     55  H   UNL A   1      42.619  29.759  29.418  1.00  0.00     0.167 HD
ATOM     56  C   UNL A   1      44.770  27.791  29.555  1.00  0.00     0.074 A 
ATOM     57  C   UNL A   1      43.997  28.111  30.751  1.00  0.00     0.031 C 
ATOM     58  C   UNL A   1      44.648  28.183  28.257  1.00  0.00     0.037 A 
BRANCH  45  59
ATOM     59  C   UNL A   1      39.692  29.957  29.713  1.00  0.00     0.058 A 
ATOM     60  C   UNL A   1      40.045  29.527  31.003  1.00  0.00     0.135 A 
ATOM     61  C   UNL A   1      38.739  31.002  29.656  1.00  0.00     0.135 A 
ATOM     62  F   UNL A   1      40.889  28.495  31.169  1.00  0.00    -0.206 F 
ATOM     63  C   UNL A   1      39.497  30.098  32.150  1.00  0.00     0.059 A 
ATOM     64  C   UNL A   1      38.237  31.635  30.781  1.00  0.00     0.059 A 
ATOM     65  F   UNL A   1      38.172  31.395  28.508  1.00  0.00    -0.206 F 
ATOM     66  C   UNL A   1      38.601  31.159  32.027  1.00  0.00     0.060 A 
BRANCH  66  67
ATOM     67  S   UNL A   1      37.872  31.883  33.502  1.00  0.00     0.124 S 
ATOM     68  O   UNL A   1      38.556  33.170  33.561  1.00  0.00    -0.237 OA
ATOM     69  O   UNL A   1      36.458  31.923  33.149  1.00  0.00    -0.237 OA
ATOM     70  O   UNL A   1      38.223  30.931  34.552  1.00  0.00    -0.744 OA
ENDBRANCH  66  67
ENDBRANCH  45  59
BRANCH  46  71
ATOM     71  C   UNL A   1      45.149  24.084  32.430  1.00  0.00     0.058 A 
ATOM     72  C   UNL A   1      46.323  24.528  33.080  1.00  0.00     0.135 A 
ATOM     73  C   UNL A   1      44.319  23.238  33.188  1.00  0.00     0.135 A 
ATOM     74  F   UNL A   1      47.188  25.331  32.441  1.00  0.00    -0.206 F 
ATOM     75  C   UNL A   1      46.603  24.234  34.421  1.00  0.00     0.059 A 
ATOM     76  C   UNL A   1      44.581  22.926  34.529  1.00  0.00     0.059 A 
ATOM     77  F   UNL A   1      43.177  22.757  32.676  1.00  0.00    -0.206 F 
ATOM     78  C   UNL A   1      45.706  23.459  35.150  1.00  0.00     0.060 A 
BRANCH  78  79
ATOM     79  S   UNL A   1      45.953  23.260  36.935  1.00  0.00     0.124 S 
ATOM     80  O   UNL A   1      45.782  21.821  37.107  1.00  0.00    -0.237 OA
ATOM     81  O   UNL A   1      47.308  23.767  37.117  1.00  0.00    -0.237 OA
ATOM     82  O   UNL A   1      44.898  24.087  37.515  1.00  0.00    -0.744 OA
ENDBRANCH  78  79
ENDBRANCH  46  71
BRANCH  58  83
ATOM     83  C   UNL A   1      45.659  27.686  27.256  1.00  0.00     0.058 A 
ATOM     84  C   UNL A   1      45.534  26.517  26.484  1.00  0.00     0.135 A 
ATOM     85  C   UNL A   1      46.720  28.551  26.945  1.00  0.00     0.135 A 
ATOM     86  F   UNL A   1      44.517  25.664  26.679  1.00  0.00    -0.206 F 
ATOM     87  C   UNL A   1      46.421  26.234  25.440  1.00  0.00     0.059 A 
ATOM     88  C   UNL A   1      47.594  28.305  25.893  1.00  0.00     0.059 A 
ATOM     89  F   UNL A   1      46.871  29.699  27.629  1.00  0.00    -0.206 F 
ATOM     90  C   UNL A   1      47.435  27.146  25.138  1.00  0.00     0.060 A 
BRANCH  90  91
ATOM     91  S   UNL A   1      48.485  26.862  23.695  1.00  0.00     0.124 S 
ATOM     92  O   UNL A   1      48.213  25.463  23.384  1.00  0.00    -0.237 OA
ATOM     93  O   UNL A   1      47.975  27.838  22.736  1.00  0.00    -0.237 OA
ATOM     94  O   UNL A   1      49.832  27.139  24.191  1.00  0.00    -0.744 OA
ENDBRANCH  90  91
ENDBRANCH  58  83
ENDBRANCH  32  33
ENDBRANCH  25  27
ENDBRANCH  24  25
ENDBRANCH   1  24
TORSDOF 16
ENDMDL
