MODEL 1
REMARK VINA RESULT:     -12.1      0.000      0.000
REMARK SMILES N#C/C(=C\c1ccc(-c2ccc(C(=O)OCCOC(=O)c3ccc(-c4c5nc(c(-c6c(F)cc(S(=O)(=O)[O-])cc6F)c6ccc([nH]6)c(-c6c(F)cc(S(=O)(=O)[O-])cc6F)c6nc(c(-c7c(F)cc(S(=O)(=O)[O-])cc7F)c7ccc4[nH]7)C=C6)C=C5)cc3)cc2)o1)[C@@H]1N=c2cc(Br)cnc2=N1
REMARK SMILES IDX 16 1 15 2 13 3 14 4 12 5 9 6 10 7 88 8 11 9 87 10 8 11 5 12
REMARK SMILES IDX 6 13 89 14 7 15 4 16 3 17 2 18 1 19 90 20 91 21 99 22 92 23
REMARK SMILES IDX 98 24 93 25 97 26 94 27 96 28 95 29 17 30 18 31 19 32 20 33
REMARK SMILES IDX 21 34 22 35 86 36 23 37 85 38 24 39 25 40 26 41 79 42 27 43
REMARK SMILES IDX 84 44 78 45 80 46 28 47 83 48 77 49 76 50 29 52 63 53 42 54
REMARK SMILES IDX 62 55 43 56 46 57 61 58 81 59 44 60 45 61 60 63 82 64 47 65
REMARK SMILES IDX 30 66 31 67 40 68 32 69 33 70 39 71 41 72 34 73 35 74 36 75
REMARK SMILES IDX 37 76 38 77 64 78 65 79 74 80 66 81 67 82 73 83 75 84 68 85
REMARK SMILES IDX 69 86 70 87 71 88 72 89 48 90 49 91 58 92 50 93 51 94 57 95
REMARK SMILES IDX 59 96 52 97 53 98 54 99 55 100 56 101
REMARK H PARENT 80 51 46 62
REMARK Flexibility Score: inf
ROOT
ATOM      1  C   UNL A   1      35.520  33.370  31.388  1.00  0.00     0.275 C 
ENDROOT
BRANCH   1   2
ATOM      2  O   UNL A   1      34.800  33.176  30.153  1.00  0.00    -0.458 OA
BRANCH   2   3
ATOM      3  C   UNL A   1      35.569  32.939  29.062  1.00  0.00     0.338 C 
ATOM      4  O   UNL A   1      36.571  33.557  28.740  1.00  0.00    -0.246 OA
BRANCH   3   5
ATOM      5  C   UNL A   1      35.068  31.781  28.284  1.00  0.00     0.060 A 
ATOM      6  C   UNL A   1      33.945  29.470  27.148  1.00  0.00     0.017 A 
ATOM      7  C   UNL A   1      33.168  30.615  27.307  1.00  0.00     0.013 A 
ATOM      8  C   UNL A   1      35.306  29.512  27.495  1.00  0.00     0.013 A 
ATOM      9  C   UNL A   1      33.720  31.746  27.902  1.00  0.00     0.016 A 
ATOM     10  C   UNL A   1      35.874  30.669  28.046  1.00  0.00     0.016 A 
BRANCH   6  11
ATOM     11  C   UNL A   1      33.303  28.214  26.816  1.00  0.00     0.134 A 
ATOM     12  C   UNL A   1      33.185  26.245  25.792  1.00  0.00     0.128 A 
ATOM     13  C   UNL A   1      31.953  26.502  26.388  1.00  0.00     0.051 A 
ATOM     14  O   UNL A   1      34.014  27.311  26.085  1.00  0.00    -0.457 OA
ATOM     15  C   UNL A   1      32.028  27.753  27.031  1.00  0.00     0.051 A 
BRANCH  12  16
ATOM     16  C   UNL A   1      33.618  25.109  25.050  1.00  0.00     0.066 C 
ATOM     17  C   UNL A   1      33.595  25.026  23.702  1.00  0.00     0.080 C 
BRANCH  17  18
ATOM     18  C   UNL A   1      33.241  26.139  22.875  1.00  0.00     0.099 C 
ATOM     19  N   UNL A   1      32.937  27.034  22.205  1.00  0.00    -0.193 NA
ENDBRANCH  17  18
BRANCH  17  20
ATOM     20  C   UNL A   1      33.963  23.738  23.000  1.00  0.00     0.265 C 
ATOM     21  N   UNL A   1      32.801  22.811  23.000  1.00  0.00    -0.249 NA
ATOM     22  N   UNL A   1      35.143  23.102  23.653  1.00  0.00    -0.232 NA
ATOM     23  C   UNL A   1      33.264  21.786  23.620  1.00  0.00     0.106 A 
ATOM     24  C   UNL A   1      34.676  21.961  24.030  1.00  0.00     0.175 A 
ATOM     25  C   UNL A   1      32.609  20.526  23.962  1.00  0.00     0.049 A 
ATOM     26  N   UNL A   1      35.403  21.042  24.728  1.00  0.00    -0.234 NA
ATOM     27  C   UNL A   1      33.329  19.637  24.658  1.00  0.00     0.038 A 
ATOM     28  C   UNL A   1      34.745  19.965  25.029  1.00  0.00     0.129 A 
ATOM     29  Br  UNL A   1      32.660  17.985  25.188  1.00  0.00    -0.049 Br
ENDBRANCH  17  20
ENDBRANCH  12  16
ENDBRANCH   6  11
ENDBRANCH   3   5
ENDBRANCH   2   3
ENDBRANCH   1   2
BRANCH   1  30
ATOM     30  C   UNL A   1      35.610  32.077  32.203  1.00  0.00     0.275 C 
BRANCH  30  31
ATOM     31  O   UNL A   1      36.969  31.620  32.315  1.00  0.00    -0.458 OA
BRANCH  31  32
ATOM     32  C   UNL A   1      37.209  30.432  31.717  1.00  0.00     0.338 C 
ATOM     33  O   UNL A   1      36.441  29.492  31.601  1.00  0.00    -0.246 OA
BRANCH  32  34
ATOM     34  C   UNL A   1      38.550  30.420  31.123  1.00  0.00     0.060 A 
ATOM     35  C   UNL A   1      38.676  30.764  29.783  1.00  0.00     0.016 A 
ATOM     36  C   UNL A   1      39.627  29.870  31.809  1.00  0.00     0.016 A 
ATOM     37  C   UNL A   1      39.812  30.406  29.070  1.00  0.00     0.010 A 
ATOM     38  C   UNL A   1      40.829  29.657  31.126  1.00  0.00     0.010 A 
ATOM     39  C   UNL A   1      40.921  29.875  29.738  1.00  0.00    -0.014 A 
BRANCH  39  40
ATOM     40  C   UNL A   1      42.172  29.553  28.997  1.00  0.00     0.031 A 
ATOM     41  C   UNL A   1      42.379  28.168  28.442  1.00  0.00     0.074 A 
ATOM     42  C   UNL A   1      43.135  30.486  28.856  1.00  0.00     0.049 A 
ATOM     43  N   UNL A   1      43.477  27.608  28.005  1.00  0.00    -0.248 NA
ATOM     44  C   UNL A   1      41.198  27.290  28.392  1.00  0.00     0.031 C 
ATOM     45  C   UNL A   1      43.041  31.882  29.292  1.00  0.00     0.029 A 
ATOM     46  N   UNL A   1      44.399  30.399  28.323  1.00  0.00    -0.354 N 
ATOM     47  C   UNL A   1      43.135  26.296  27.690  1.00  0.00     0.074 A 
ATOM     48  C   UNL A   1      41.730  26.142  27.995  1.00  0.00     0.031 C 
ATOM     49  C   UNL A   1      44.181  32.521  28.997  1.00  0.00     0.029 A 
ATOM     50  C   UNL A   1      45.129  31.557  28.457  1.00  0.00     0.049 A 
ATOM     51  H   UNL A   1      44.746  29.588  27.887  1.00  0.00     0.167 HD
ATOM     52  C   UNL A   1      43.929  25.316  27.197  1.00  0.00     0.037 A 
ATOM     53  C   UNL A   1      46.435  31.808  28.243  1.00  0.00     0.037 A 
ATOM     54  C   UNL A   1      45.319  25.506  26.867  1.00  0.00     0.049 A 
ATOM     55  C   UNL A   1      47.314  30.690  27.760  1.00  0.00     0.074 A 
ATOM     56  C   UNL A   1      46.213  24.591  26.341  1.00  0.00     0.029 A 
ATOM     57  N   UNL A   1      46.018  26.696  27.032  1.00  0.00    -0.354 N 
ATOM     58  N   UNL A   1      46.991  29.446  27.501  1.00  0.00    -0.248 NA
ATOM     59  C   UNL A   1      48.733  31.002  27.551  1.00  0.00     0.031 C 
ATOM     60  C   UNL A   1      47.464  25.205  26.249  1.00  0.00     0.029 A 
ATOM     61  C   UNL A   1      47.336  26.528  26.642  1.00  0.00     0.049 A 
ATOM     62  H   UNL A   1      45.632  27.534  27.376  1.00  0.00     0.167 HD
ATOM     63  C   UNL A   1      48.159  28.835  27.060  1.00  0.00     0.074 A 
ATOM     64  C   UNL A   1      49.196  29.846  27.093  1.00  0.00     0.031 C 
ATOM     65  C   UNL A   1      48.350  27.556  26.658  1.00  0.00     0.037 A 
BRANCH  52  66
ATOM     66  C   UNL A   1      43.335  23.941  27.027  1.00  0.00     0.058 A 
ATOM     67  C   UNL A   1      43.122  23.073  28.111  1.00  0.00     0.135 A 
ATOM     68  C   UNL A   1      42.942  23.496  25.752  1.00  0.00     0.135 A 
ATOM     69  F   UNL A   1      43.488  23.437  29.351  1.00  0.00    -0.206 F 
ATOM     70  C   UNL A   1      42.576  21.805  27.932  1.00  0.00     0.059 A 
ATOM     71  C   UNL A   1      42.361  22.246  25.556  1.00  0.00     0.059 A 
ATOM     72  F   UNL A   1      43.118  24.282  24.678  1.00  0.00    -0.206 F 
ATOM     73  C   UNL A   1      42.199  21.399  26.651  1.00  0.00     0.060 A 
BRANCH  73  74
ATOM     74  S   UNL A   1      41.496  19.751  26.439  1.00  0.00     0.124 S 
ATOM     75  O   UNL A   1      42.262  19.251  25.301  1.00  0.00    -0.237 OA
ATOM     76  O   UNL A   1      41.786  19.121  27.723  1.00  0.00    -0.237 OA
ATOM     77  O   UNL A   1      40.084  20.012  26.177  1.00  0.00    -0.744 OA
ENDBRANCH  73  74
ENDBRANCH  52  66
BRANCH  53  78
ATOM     78  C   UNL A   1      46.983  33.162  28.526  1.00  0.00     0.058 A 
ATOM     79  C   UNL A   1      47.540  33.469  29.775  1.00  0.00     0.135 A 
ATOM     80  C   UNL A   1      47.001  34.163  27.539  1.00  0.00     0.135 A 
ATOM     81  F   UNL A   1      47.541  32.551  30.753  1.00  0.00    -0.206 F 
ATOM     82  C   UNL A   1      48.087  34.720  30.040  1.00  0.00     0.059 A 
ATOM     83  C   UNL A   1      47.573  35.411  27.770  1.00  0.00     0.059 A 
ATOM     84  F   UNL A   1      46.497  33.917  26.320  1.00  0.00    -0.206 F 
ATOM     85  C   UNL A   1      48.106  35.682  29.028  1.00  0.00     0.060 A 
BRANCH  85  86
ATOM     86  S   UNL A   1      48.866  37.283  29.372  1.00  0.00     0.124 S 
ATOM     87  O   UNL A   1      49.444  37.057  30.691  1.00  0.00    -0.237 OA
ATOM     88  O   UNL A   1      49.817  37.411  28.272  1.00  0.00    -0.237 OA
ATOM     89  O   UNL A   1      47.738  38.209  29.328  1.00  0.00    -0.744 OA
ENDBRANCH  85  86
ENDBRANCH  53  78
BRANCH  65  90
ATOM     90  C   UNL A   1      49.712  27.180  26.145  1.00  0.00     0.058 A 
ATOM     91  C   UNL A   1      50.704  26.648  26.981  1.00  0.00     0.135 A 
ATOM     92  C   UNL A   1      49.987  27.266  24.770  1.00  0.00     0.135 A 
ATOM     93  F   UNL A   1      50.497  26.558  28.304  1.00  0.00    -0.206 F 
ATOM     94  C   UNL A   1      51.923  26.214  26.471  1.00  0.00     0.059 A 
ATOM     95  C   UNL A   1      51.185  26.809  24.235  1.00  0.00     0.059 A 
ATOM     96  F   UNL A   1      49.069  27.765  23.926  1.00  0.00    -0.206 F 
ATOM     97  C   UNL A   1      52.148  26.285  25.094  1.00  0.00     0.060 A 
BRANCH  97  98
ATOM     98  S   UNL A   1      53.701  25.639  24.438  1.00  0.00     0.124 S 
ATOM     99  O   UNL A   1      53.628  24.236  24.834  1.00  0.00    -0.237 OA
ATOM    100  O   UNL A   1      53.566  25.903  23.009  1.00  0.00    -0.237 OA
ATOM    101  O   UNL A   1      54.717  26.432  25.124  1.00  0.00    -0.744 OA
ENDBRANCH  97  98
ENDBRANCH  65  90
ENDBRANCH  39  40
ENDBRANCH  32  34
ENDBRANCH  31  32
ENDBRANCH  30  31
ENDBRANCH   1  30
TORSDOF 18
ENDMDL
MODEL 2
REMARK VINA RESULT:     -12.0      6.442     12.257
REMARK SMILES N#C/C(=C\c1ccc(-c2ccc(C(=O)OCCOC(=O)c3ccc(-c4c5nc(c(-c6c(F)cc(S(=O)(=O)[O-])cc6F)c6ccc([nH]6)c(-c6c(F)cc(S(=O)(=O)[O-])cc6F)c6nc(c(-c7c(F)cc(S(=O)(=O)[O-])cc7F)c7ccc4[nH]7)C=C6)C=C5)cc3)cc2)o1)[C@@H]1N=c2cc(Br)cnc2=N1
REMARK SMILES IDX 16 1 15 2 13 3 14 4 12 5 9 6 10 7 88 8 11 9 87 10 8 11 5 12
REMARK SMILES IDX 6 13 89 14 7 15 4 16 3 17 2 18 1 19 90 20 91 21 99 22 92 23
REMARK SMILES IDX 98 24 93 25 97 26 94 27 96 28 95 29 17 30 18 31 19 32 20 33
REMARK SMILES IDX 21 34 22 35 86 36 23 37 85 38 24 39 25 40 26 41 79 42 27 43
REMARK SMILES IDX 84 44 78 45 80 46 28 47 83 48 77 49 76 50 29 52 63 53 42 54
REMARK SMILES IDX 62 55 43 56 46 57 61 58 81 59 44 60 45 61 60 63 82 64 47 65
REMARK SMILES IDX 30 66 31 67 40 68 32 69 33 70 39 71 41 72 34 73 35 74 36 75
REMARK SMILES IDX 37 76 38 77 64 78 65 79 74 80 66 81 67 82 73 83 75 84 68 85
REMARK SMILES IDX 69 86 70 87 71 88 72 89 48 90 49 91 58 92 50 93 51 94 57 95
REMARK SMILES IDX 59 96 52 97 53 98 54 99 55 100 56 101
REMARK H PARENT 80 51 46 62
REMARK Flexibility Score: inf
ROOT
ATOM      1  C   UNL A   1      42.667  22.205  26.712  1.00  0.00     0.275 C 
ENDROOT
BRANCH   1   2
ATOM      2  O   UNL A   1      41.343  21.769  27.086  1.00  0.00    -0.458 OA
BRANCH   2   3
ATOM      3  C   UNL A   1      40.909  20.637  26.478  1.00  0.00     0.338 C 
ATOM      4  O   UNL A   1      41.502  19.571  26.436  1.00  0.00    -0.246 OA
BRANCH   3   5
ATOM      5  C   UNL A   1      39.568  20.823  25.876  1.00  0.00     0.060 A 
ATOM      6  C   UNL A   1      36.886  21.142  25.104  1.00  0.00     0.017 A 
ATOM      7  C   UNL A   1      37.596  22.226  25.616  1.00  0.00     0.013 A 
ATOM      8  C   UNL A   1      37.548  19.918  24.913  1.00  0.00     0.013 A 
ATOM      9  C   UNL A   1      38.914  22.053  26.029  1.00  0.00     0.016 A 
ATOM     10  C   UNL A   1      38.891  19.759  25.281  1.00  0.00     0.016 A 
BRANCH   6  11
ATOM     11  C   UNL A   1      35.447  21.237  24.959  1.00  0.00     0.134 A 
ATOM     12  C   UNL A   1      33.510  22.325  24.970  1.00  0.00     0.128 A 
ATOM     13  C   UNL A   1      33.245  20.964  24.849  1.00  0.00     0.051 A 
ATOM     14  O   UNL A   1      34.883  22.475  25.019  1.00  0.00    -0.457 OA
ATOM     15  C   UNL A   1      34.474  20.276  24.849  1.00  0.00     0.051 A 
BRANCH  12  16
ATOM     16  C   UNL A   1      32.610  23.429  24.994  1.00  0.00     0.066 C 
ATOM     17  C   UNL A   1      32.408  24.270  23.956  1.00  0.00     0.080 C 
BRANCH  17  18
ATOM     18  C   UNL A   1      33.002  24.054  22.672  1.00  0.00     0.099 C 
ATOM     19  N   UNL A   1      33.498  23.886  21.638  1.00  0.00    -0.193 NA
ENDBRANCH  17  18
BRANCH  17  20
ATOM     20  C   UNL A   1      31.522  25.487  24.107  1.00  0.00     0.265 C 
ATOM     21  N   UNL A   1      32.306  26.721  23.837  1.00  0.00    -0.249 NA
ATOM     22  N   UNL A   1      30.922  25.533  25.470  1.00  0.00    -0.232 NA
ATOM     23  C   UNL A   1      32.192  27.368  24.941  1.00  0.00     0.106 A 
ATOM     24  C   UNL A   1      31.367  26.649  25.938  1.00  0.00     0.175 A 
ATOM     25  C   UNL A   1      32.747  28.663  25.326  1.00  0.00     0.049 A 
ATOM     26  N   UNL A   1      31.109  27.094  27.201  1.00  0.00    -0.234 NA
ATOM     27  C   UNL A   1      32.497  29.084  26.573  1.00  0.00     0.038 A 
ATOM     28  C   UNL A   1      31.665  28.232  27.485  1.00  0.00     0.129 A 
ATOM     29  Br  UNL A   1      33.126  30.700  27.241  1.00  0.00    -0.049 Br
ENDBRANCH  17  20
ENDBRANCH  12  16
ENDBRANCH   6  11
ENDBRANCH   3   5
ENDBRANCH   2   3
ENDBRANCH   1   2
BRANCH   1  30
ATOM     30  C   UNL A   1      42.635  23.550  25.980  1.00  0.00     0.275 C 
BRANCH  30  31
ATOM     31  O   UNL A   1      41.547  24.372  26.436  1.00  0.00    -0.458 OA
BRANCH  31  32
ATOM     32  C   UNL A   1      41.654  25.676  26.101  1.00  0.00     0.338 C 
ATOM     33  O   UNL A   1      42.054  26.139  25.046  1.00  0.00    -0.246 OA
BRANCH  32  34
ATOM     34  C   UNL A   1      41.141  26.526  27.180  1.00  0.00     0.060 A 
ATOM     35  C   UNL A   1      41.759  27.752  27.397  1.00  0.00     0.016 A 
ATOM     36  C   UNL A   1      40.219  26.035  28.096  1.00  0.00     0.016 A 
ATOM     37  C   UNL A   1      41.597  28.415  28.606  1.00  0.00     0.010 A 
ATOM     38  C   UNL A   1      39.935  26.785  29.242  1.00  0.00     0.010 A 
ATOM     39  C   UNL A   1      40.657  27.959  29.536  1.00  0.00    -0.014 A 
BRANCH  39  40
ATOM     40  C   UNL A   1      40.422  28.700  30.805  1.00  0.00     0.031 A 
ATOM     41  C   UNL A   1      39.347  29.753  30.871  1.00  0.00     0.074 A 
ATOM     42  C   UNL A   1      41.194  28.458  31.885  1.00  0.00     0.049 A 
ATOM     43  N   UNL A   1      39.151  30.681  31.772  1.00  0.00    -0.248 NA
ATOM     44  C   UNL A   1      38.376  29.780  29.764  1.00  0.00     0.031 C 
ATOM     45  C   UNL A   1      42.230  27.425  31.977  1.00  0.00     0.029 A 
ATOM     46  N   UNL A   1      41.245  29.077  33.110  1.00  0.00    -0.354 N 
ATOM     47  C   UNL A   1      38.080  31.438  31.311  1.00  0.00     0.074 A 
ATOM     48  C   UNL A   1      37.674  30.869  30.046  1.00  0.00     0.031 C 
ATOM     49  C   UNL A   1      42.798  27.470  33.190  1.00  0.00     0.029 A 
ATOM     50  C   UNL A   1      42.251  28.605  33.920  1.00  0.00     0.049 A 
ATOM     51  H   UNL A   1      40.620  29.788  33.382  1.00  0.00     0.167 HD
ATOM     52  C   UNL A   1      37.498  32.514  31.895  1.00  0.00     0.037 A 
ATOM     53  C   UNL A   1      42.737  29.068  35.087  1.00  0.00     0.037 A 
ATOM     54  C   UNL A   1      37.899  33.040  33.175  1.00  0.00     0.049 A 
ATOM     55  C   UNL A   1      42.123  30.301  35.685  1.00  0.00     0.074 A 
ATOM     56  C   UNL A   1      37.366  34.110  33.871  1.00  0.00     0.029 A 
ATOM     57  N   UNL A   1      38.933  32.534  33.953  1.00  0.00    -0.354 N 
ATOM     58  N   UNL A   1      41.137  31.032  35.224  1.00  0.00    -0.248 NA
ATOM     59  C   UNL A   1      42.691  30.781  36.951  1.00  0.00     0.031 C 
ATOM     60  C   UNL A   1      38.117  34.292  35.035  1.00  0.00     0.029 A 
ATOM     61  C   UNL A   1      39.069  33.286  35.107  1.00  0.00     0.049 A 
ATOM     62  H   UNL A   1      39.487  31.755  33.716  1.00  0.00     0.167 HD
ATOM     63  C   UNL A   1      40.939  32.037  36.164  1.00  0.00     0.074 A 
ATOM     64  C   UNL A   1      41.911  31.821  37.216  1.00  0.00     0.031 C 
ATOM     65  C   UNL A   1      40.028  33.039  36.157  1.00  0.00     0.037 A 
BRANCH  52  66
ATOM     66  C   UNL A   1      36.402  33.223  31.141  1.00  0.00     0.058 A 
ATOM     67  C   UNL A   1      35.056  33.168  31.539  1.00  0.00     0.135 A 
ATOM     68  C   UNL A   1      36.713  34.001  30.011  1.00  0.00     0.135 A 
ATOM     69  F   UNL A   1      34.695  32.432  32.603  1.00  0.00    -0.206 F 
ATOM     70  C   UNL A   1      34.058  33.827  30.826  1.00  0.00     0.059 A 
ATOM     71  C   UNL A   1      35.736  34.697  29.305  1.00  0.00     0.059 A 
ATOM     72  F   UNL A   1      37.982  34.094  29.584  1.00  0.00    -0.206 F 
ATOM     73  C   UNL A   1      34.407  34.589  29.710  1.00  0.00     0.060 A 
BRANCH  73  74
ATOM     74  S   UNL A   1      33.099  35.433  28.797  1.00  0.00     0.124 S 
ATOM     75  O   UNL A   1      32.291  35.979  29.883  1.00  0.00    -0.237 OA
ATOM     76  O   UNL A   1      33.848  36.409  28.012  1.00  0.00    -0.237 OA
ATOM     77  O   UNL A   1      32.472  34.362  28.028  1.00  0.00    -0.744 OA
ENDBRANCH  73  74
ENDBRANCH  52  66
BRANCH  53  78
ATOM     78  C   UNL A   1      43.889  28.381  35.732  1.00  0.00     0.058 A 
ATOM     79  C   UNL A   1      43.687  27.357  36.667  1.00  0.00     0.135 A 
ATOM     80  C   UNL A   1      45.215  28.706  35.396  1.00  0.00     0.135 A 
ATOM     81  F   UNL A   1      42.442  27.015  37.028  1.00  0.00    -0.206 F 
ATOM     82  C   UNL A   1      44.755  26.684  37.252  1.00  0.00     0.059 A 
ATOM     83  C   UNL A   1      46.298  28.024  35.941  1.00  0.00     0.059 A 
ATOM     84  F   UNL A   1      45.465  29.667  34.493  1.00  0.00    -0.206 F 
ATOM     85  C   UNL A   1      46.058  27.019  36.876  1.00  0.00     0.060 A 
BRANCH  85  86
ATOM     86  S   UNL A   1      47.430  26.101  37.605  1.00  0.00     0.124 S 
ATOM     87  O   UNL A   1      46.788  24.840  37.953  1.00  0.00    -0.237 OA
ATOM     88  O   UNL A   1      48.382  26.049  36.500  1.00  0.00    -0.237 OA
ATOM     89  O   UNL A   1      47.835  26.936  38.732  1.00  0.00    -0.744 OA
ENDBRANCH  85  86
ENDBRANCH  53  78
BRANCH  65  90
ATOM     90  C   UNL A   1      39.978  33.947  37.355  1.00  0.00     0.058 A 
ATOM     91  C   UNL A   1      40.681  35.160  37.403  1.00  0.00     0.135 A 
ATOM     92  C   UNL A   1      39.131  33.634  38.432  1.00  0.00     0.135 A 
ATOM     93  F   UNL A   1      41.514  35.499  36.407  1.00  0.00    -0.206 F 
ATOM     94  C   UNL A   1      40.544  36.032  38.477  1.00  0.00     0.059 A 
ATOM     95  C   UNL A   1      38.955  34.505  39.500  1.00  0.00     0.059 A 
ATOM     96  F   UNL A   1      38.434  32.485  38.432  1.00  0.00    -0.206 F 
ATOM     97  C   UNL A   1      39.667  35.702  39.514  1.00  0.00     0.060 A 
BRANCH  97  98
ATOM     98  S   UNL A   1      39.436  36.884  40.859  1.00  0.00     0.124 S 
ATOM     99  O   UNL A   1      38.677  37.940  40.198  1.00  0.00    -0.237 OA
ATOM    100  O   UNL A   1      38.700  36.094  41.842  1.00  0.00    -0.237 OA
ATOM    101  O   UNL A   1      40.799  37.237  41.241  1.00  0.00    -0.744 OA
ENDBRANCH  97  98
ENDBRANCH  65  90
ENDBRANCH  39  40
ENDBRANCH  32  34
ENDBRANCH  31  32
ENDBRANCH  30  31
ENDBRANCH   1  30
TORSDOF 18
ENDMDL
MODEL 3
REMARK VINA RESULT:     -12.0      6.302     12.087
REMARK SMILES N#C/C(=C\c1ccc(-c2ccc(C(=O)OCCOC(=O)c3ccc(-c4c5nc(c(-c6c(F)cc(S(=O)(=O)[O-])cc6F)c6ccc([nH]6)c(-c6c(F)cc(S(=O)(=O)[O-])cc6F)c6nc(c(-c7c(F)cc(S(=O)(=O)[O-])cc7F)c7ccc4[nH]7)C=C6)C=C5)cc3)cc2)o1)[C@@H]1N=c2cc(Br)cnc2=N1
REMARK SMILES IDX 16 1 15 2 13 3 14 4 12 5 9 6 10 7 88 8 11 9 87 10 8 11 5 12
REMARK SMILES IDX 6 13 89 14 7 15 4 16 3 17 2 18 1 19 90 20 91 21 99 22 92 23
REMARK SMILES IDX 98 24 93 25 97 26 94 27 96 28 95 29 17 30 18 31 19 32 20 33
REMARK SMILES IDX 21 34 22 35 86 36 23 37 85 38 24 39 25 40 26 41 79 42 27 43
REMARK SMILES IDX 84 44 78 45 80 46 28 47 83 48 77 49 76 50 29 52 63 53 42 54
REMARK SMILES IDX 62 55 43 56 46 57 61 58 81 59 44 60 45 61 60 63 82 64 47 65
REMARK SMILES IDX 30 66 31 67 40 68 32 69 33 70 39 71 41 72 34 73 35 74 36 75
REMARK SMILES IDX 37 76 38 77 64 78 65 79 74 80 66 81 67 82 73 83 75 84 68 85
REMARK SMILES IDX 69 86 70 87 71 88 72 89 48 90 49 91 58 92 50 93 51 94 57 95
REMARK SMILES IDX 59 96 52 97 53 98 54 99 55 100 56 101
REMARK H PARENT 80 51 46 62
REMARK Flexibility Score: inf
ROOT
ATOM      1  C   UNL A   1      42.739  22.743  26.455  1.00  0.00     0.275 C 
ENDROOT
BRANCH   1   2
ATOM      2  O   UNL A   1      41.644  22.899  27.383  1.00  0.00    -0.458 OA
BRANCH   2   3
ATOM      3  C   UNL A   1      40.722  21.906  27.369  1.00  0.00     0.338 C 
ATOM      4  O   UNL A   1      40.772  20.870  28.013  1.00  0.00    -0.246 OA
BRANCH   3   5
ATOM      5  C   UNL A   1      39.582  22.233  26.482  1.00  0.00     0.060 A 
ATOM      6  C   UNL A   1      37.190  22.805  25.124  1.00  0.00     0.017 A 
ATOM      7  C   UNL A   1      37.808  23.792  25.888  1.00  0.00     0.013 A 
ATOM      8  C   UNL A   1      37.814  21.554  24.985  1.00  0.00     0.013 A 
ATOM      9  C   UNL A   1      38.975  23.492  26.586  1.00  0.00     0.016 A 
ATOM     10  C   UNL A   1      39.016  21.270  25.648  1.00  0.00     0.016 A 
BRANCH   6  11
ATOM     11  C   UNL A   1      35.837  23.014  24.648  1.00  0.00     0.134 A 
ATOM     12  C   UNL A   1      33.859  24.027  24.646  1.00  0.00     0.128 A 
ATOM     13  C   UNL A   1      33.783  22.918  23.809  1.00  0.00     0.051 A 
ATOM     14  O   UNL A   1      35.147  24.079  25.143  1.00  0.00    -0.457 OA
ATOM     15  C   UNL A   1      35.035  22.274  23.816  1.00  0.00     0.051 A 
BRANCH  12  16
ATOM     16  C   UNL A   1      32.871  25.006  24.953  1.00  0.00     0.066 C 
ATOM     17  C   UNL A   1      31.932  24.865  25.913  1.00  0.00     0.080 C 
BRANCH  17  18
ATOM     18  C   UNL A   1      31.917  23.749  26.809  1.00  0.00     0.099 C 
ATOM     19  N   UNL A   1      31.910  22.856  27.546  1.00  0.00    -0.193 NA
ENDBRANCH  17  18
BRANCH  17  20
ATOM     20  C   UNL A   1      30.847  25.904  26.093  1.00  0.00     0.265 C 
ATOM     21  N   UNL A   1      29.999  25.969  24.874  1.00  0.00    -0.249 NA
ATOM     22  N   UNL A   1      31.442  27.238  26.390  1.00  0.00    -0.232 NA
ATOM     23  C   UNL A   1      30.137  27.192  24.505  1.00  0.00     0.106 A 
ATOM     24  C   UNL A   1      31.019  27.962  25.410  1.00  0.00     0.175 A 
ATOM     25  C   UNL A   1      29.563  27.891  23.359  1.00  0.00     0.049 A 
ATOM     26  N   UNL A   1      31.359  29.271  25.237  1.00  0.00    -0.234 NA
ATOM     27  C   UNL A   1      29.915  29.173  23.193  1.00  0.00     0.038 A 
ATOM     28  C   UNL A   1      30.844  29.816  24.179  1.00  0.00     0.129 A 
ATOM     29  Br  UNL A   1      29.291  30.219  21.788  1.00  0.00    -0.049 Br
ENDBRANCH  17  20
ENDBRANCH  12  16
ENDBRANCH   6  11
ENDBRANCH   3   5
ENDBRANCH   2   3
ENDBRANCH   1   2
BRANCH   1  30
ATOM     30  C   UNL A   1      42.987  24.021  25.650  1.00  0.00     0.275 C 
BRANCH  30  31
ATOM     31  O   UNL A   1      41.870  24.923  25.736  1.00  0.00    -0.458 OA
BRANCH  31  32
ATOM     32  C   UNL A   1      42.209  26.230  25.764  1.00  0.00     0.338 C 
ATOM     33  O   UNL A   1      42.479  26.946  24.814  1.00  0.00    -0.246 OA
BRANCH  32  34
ATOM     34  C   UNL A   1      42.145  26.747  27.135  1.00  0.00     0.060 A 
ATOM     35  C   UNL A   1      41.232  26.171  28.010  1.00  0.00     0.016 A 
ATOM     36  C   UNL A   1      42.811  27.915  27.487  1.00  0.00     0.016 A 
ATOM     37  C   UNL A   1      40.846  26.841  29.162  1.00  0.00     0.010 A 
ATOM     38  C   UNL A   1      42.538  28.505  28.725  1.00  0.00     0.010 A 
ATOM     39  C   UNL A   1      41.516  28.004  29.555  1.00  0.00    -0.014 A 
BRANCH  39  40
ATOM     40  C   UNL A   1      41.161  28.694  30.826  1.00  0.00     0.031 A 
ATOM     41  C   UNL A   1      40.006  29.661  30.857  1.00  0.00     0.074 A 
ATOM     42  C   UNL A   1      41.894  28.486  31.938  1.00  0.00     0.049 A 
ATOM     43  N   UNL A   1      39.693  30.549  31.764  1.00  0.00    -0.248 NA
ATOM     44  C   UNL A   1      39.093  29.641  29.701  1.00  0.00     0.031 C 
ATOM     45  C   UNL A   1      43.000  27.533  32.064  1.00  0.00     0.029 A 
ATOM     46  N   UNL A   1      41.834  29.078  33.177  1.00  0.00    -0.354 N 
ATOM     47  C   UNL A   1      38.591  31.234  31.263  1.00  0.00     0.074 A 
ATOM     48  C   UNL A   1      38.295  30.666  29.967  1.00  0.00     0.031 C 
ATOM     49  C   UNL A   1      43.501  27.592  33.305  1.00  0.00     0.029 A 
ATOM     50  C   UNL A   1      42.832  28.664  34.029  1.00  0.00     0.049 A 
ATOM     51  H   UNL A   1      41.144  29.733  33.431  1.00  0.00     0.167 HD
ATOM     52  C   UNL A   1      37.899  32.248  31.837  1.00  0.00     0.037 A 
ATOM     53  C   UNL A   1      43.222  29.135  35.228  1.00  0.00     0.037 A 
ATOM     54  C   UNL A   1      38.194  32.772  33.147  1.00  0.00     0.049 A 
ATOM     55  C   UNL A   1      42.485  30.303  35.818  1.00  0.00     0.074 A 
ATOM     56  C   UNL A   1      37.545  33.782  33.836  1.00  0.00     0.029 A 
ATOM     57  N   UNL A   1      39.223  32.328  33.967  1.00  0.00    -0.354 N 
ATOM     58  N   UNL A   1      41.470  30.968  35.321  1.00  0.00    -0.248 NA
ATOM     59  C   UNL A   1      42.949  30.794  37.122  1.00  0.00     0.031 C 
ATOM     60  C   UNL A   1      38.220  33.991  35.040  1.00  0.00     0.029 A 
ATOM     61  C   UNL A   1      39.242  33.060  35.142  1.00  0.00     0.049 A 
ATOM     62  H   UNL A   1      39.847  31.599  33.744  1.00  0.00     0.167 HD
ATOM     63  C   UNL A   1      41.147  31.931  36.270  1.00  0.00     0.074 A 
ATOM     64  C   UNL A   1      42.079  31.765  37.366  1.00  0.00     0.031 C 
ATOM     65  C   UNL A   1      40.164  32.862  36.236  1.00  0.00     0.037 A 
BRANCH  52  66
ATOM     66  C   UNL A   1      36.791  32.890  31.041  1.00  0.00     0.058 A 
ATOM     67  C   UNL A   1      35.435  32.614  31.281  1.00  0.00     0.135 A 
ATOM     68  C   UNL A   1      37.096  33.826  30.037  1.00  0.00     0.135 A 
ATOM     69  F   UNL A   1      35.082  31.720  32.219  1.00  0.00    -0.206 F 
ATOM     70  C   UNL A   1      34.426  33.214  30.532  1.00  0.00     0.059 A 
ATOM     71  C   UNL A   1      36.102  34.464  29.300  1.00  0.00     0.059 A 
ATOM     72  F   UNL A   1      38.374  34.132  29.764  1.00  0.00    -0.206 F 
ATOM     73  C   UNL A   1      34.769  34.137  29.543  1.00  0.00     0.060 A 
BRANCH  73  74
ATOM     74  S   UNL A   1      33.449  34.902  28.580  1.00  0.00     0.124 S 
ATOM     75  O   UNL A   1      32.988  33.778  27.772  1.00  0.00    -0.237 OA
ATOM     76  O   UNL A   1      32.529  35.355  29.619  1.00  0.00    -0.237 OA
ATOM     77  O   UNL A   1      34.131  35.963  27.845  1.00  0.00    -0.744 OA
ENDBRANCH  73  74
ENDBRANCH  52  66
BRANCH  53  78
ATOM     78  C   UNL A   1      44.389  28.522  35.919  1.00  0.00     0.058 A 
ATOM     79  C   UNL A   1      45.688  28.999  35.702  1.00  0.00     0.135 A 
ATOM     80  C   UNL A   1      44.223  27.476  36.844  1.00  0.00     0.135 A 
ATOM     81  F   UNL A   1      45.901  29.991  34.825  1.00  0.00    -0.206 F 
ATOM     82  C   UNL A   1      46.783  28.458  36.368  1.00  0.00     0.059 A 
ATOM     83  C   UNL A   1      45.298  26.941  37.547  1.00  0.00     0.059 A 
ATOM     84  F   UNL A   1      42.998  26.993  37.103  1.00  0.00    -0.206 F 
ATOM     85  C   UNL A   1      46.577  27.434  37.295  1.00  0.00     0.060 A 
BRANCH  85  86
ATOM     86  S   UNL A   1      48.002  26.778  38.189  1.00  0.00     0.124 S 
ATOM     87  O   UNL A   1      48.819  27.974  38.358  1.00  0.00    -0.237 OA
ATOM     88  O   UNL A   1      47.383  26.251  39.402  1.00  0.00    -0.237 OA
ATOM     89  O   UNL A   1      48.537  25.771  37.278  1.00  0.00    -0.744 OA
ENDBRANCH  85  86
ENDBRANCH  53  78
BRANCH  65  90
ATOM     90  C   UNL A   1      39.983  33.734  37.447  1.00  0.00     0.058 A 
ATOM     91  C   UNL A   1      40.674  34.944  37.606  1.00  0.00     0.135 A 
ATOM     92  C   UNL A   1      39.026  33.390  38.417  1.00  0.00     0.135 A 
ATOM     93  F   UNL A   1      41.609  35.312  36.716  1.00  0.00    -0.206 F 
ATOM     94  C   UNL A   1      40.420  35.785  38.684  1.00  0.00     0.059 A 
ATOM     95  C   UNL A   1      38.735  34.230  39.485  1.00  0.00     0.059 A 
ATOM     96  F   UNL A   1      38.336  32.243  38.308  1.00  0.00    -0.206 F 
ATOM     97  C   UNL A   1      39.438  35.425  39.611  1.00  0.00     0.060 A 
BRANCH  97  98
ATOM     98  S   UNL A   1      39.061  36.567  40.957  1.00  0.00     0.124 S 
ATOM     99  O   UNL A   1      38.556  37.726  40.229  1.00  0.00    -0.237 OA
ATOM    100  O   UNL A   1      38.072  35.821  41.728  1.00  0.00    -0.237 OA
ATOM    101  O   UNL A   1      40.350  36.754  41.616  1.00  0.00    -0.744 OA
ENDBRANCH  97  98
ENDBRANCH  65  90
ENDBRANCH  39  40
ENDBRANCH  32  34
ENDBRANCH  31  32
ENDBRANCH  30  31
ENDBRANCH   1  30
TORSDOF 18
ENDMDL
