MODEL 1
REMARK VINA RESULT:      -9.6      0.000      0.000
REMARK SMILES C[C@@H]1[C@@H](C(=O)OCCOC(=O)c2ccc(-c3c4nc(c(-c5c(F)cc(S(=O)(=O)[O-])cc5F)c5ccc([nH]5)c(-c5c(F)cc(S(=O)(=O)[O-])cc5F)c5nc(c(-c6c(F)cc(S(=O)(=O)[O-])cc6F)c6ccc3[nH]6)C=C5)C=C4)cc2)CC[N@H+]1CCCOCC(F)(F)F
REMARK SMILES IDX 6 1 4 2 5 3 3 4 1 5 2 6 80 7 78 8 79 9 81 11 82 12 83 13
REMARK SMILES IDX 84 14 85 15 86 16 87 17 88 18 89 19 7 20 8 21 9 22 10 23
REMARK SMILES IDX 11 24 12 25 13 26 77 27 14 28 76 29 15 30 16 31 17 32 70 33
REMARK SMILES IDX 18 34 75 35 69 36 71 37 19 38 74 39 68 40 67 41 20 43 54 44
REMARK SMILES IDX 33 45 53 46 34 47 37 48 52 49 72 50 35 51 36 52 51 54 73 55
REMARK SMILES IDX 38 56 21 57 22 58 31 59 23 60 24 61 30 62 32 63 25 64 26 65
REMARK SMILES IDX 27 66 28 67 29 68 55 69 56 70 65 71 57 72 58 73 64 74 66 75
REMARK SMILES IDX 59 76 60 77 61 78 62 79 63 80 39 81 40 82 49 83 41 84 42 85
REMARK SMILES IDX 48 86 50 87 43 88 44 89 45 90 46 91 47 92
REMARK H PARENT 80 10 71 42 37 53
REMARK Flexibility Score: inf
ROOT
ATOM      1  O   UNL A   1      32.436  27.912  26.682  1.00  0.00    -0.462 OA
ENDROOT
BRANCH   1   2
ATOM      2  C   UNL A   1      31.747  27.100  25.830  1.00  0.00     0.315 C 
ATOM      3  O   UNL A   1      30.662  26.589  26.072  1.00  0.00    -0.252 OA
BRANCH   2   4
ATOM      4  C   UNL A   1      32.574  26.855  24.580  1.00  0.00     0.162 C 
ATOM      5  C   UNL A   1      32.038  25.845  22.293  1.00  0.00     0.076 C 
ATOM      6  C   UNL A   1      32.181  25.574  23.793  1.00  0.00     0.195 C 
ATOM      7  N   UNL A   1      33.346  24.697  23.987  1.00  0.00    -0.332 N 
ATOM      8  C   UNL A   1      33.976  26.549  25.090  1.00  0.00     0.083 C 
ATOM      9  C   UNL A   1      33.886  25.052  25.286  1.00  0.00     0.263 C 
ATOM     10  H   UNL A   1      34.030  24.866  23.249  1.00  0.00     0.348 HD
BRANCH   7  11
ATOM     11  C   UNL A   1      33.160  23.279  23.732  1.00  0.00     0.264 C 
BRANCH  11  12
ATOM     12  C   UNL A   1      33.653  22.477  24.951  1.00  0.00     0.090 C 
BRANCH  12  13
ATOM     13  C   UNL A   1      34.113  21.029  24.719  1.00  0.00     0.166 C 
BRANCH  13  14
ATOM     14  O   UNL A   1      35.449  20.760  25.155  1.00  0.00    -0.372 OA
BRANCH  14  15
ATOM     15  C   UNL A   1      36.150  21.849  25.765  1.00  0.00     0.275 C 
BRANCH  15  16
ATOM     16  C   UNL A   1      37.302  22.473  24.968  1.00  0.00     0.411 C 
ATOM     17  F   UNL A   1      37.472  23.791  25.208  1.00  0.00    -0.168 F 
ATOM     18  F   UNL A   1      38.471  21.859  25.288  1.00  0.00    -0.168 F 
ATOM     19  F   UNL A   1      37.129  22.324  23.636  1.00  0.00    -0.168 F 
ENDBRANCH  15  16
ENDBRANCH  14  15
ENDBRANCH  13  14
ENDBRANCH  12  13
ENDBRANCH  11  12
ENDBRANCH   7  11
ENDBRANCH   2   4
ENDBRANCH   1   2
BRANCH   1  20
ATOM     20  C   UNL A   1      31.699  29.010  27.244  1.00  0.00     0.274 C 
BRANCH  20  21
ATOM     21  C   UNL A   1      32.426  30.326  26.988  1.00  0.00     0.275 C 
BRANCH  21  22
ATOM     22  O   UNL A   1      33.850  30.120  26.999  1.00  0.00    -0.458 OA
BRANCH  22  23
ATOM     23  C   UNL A   1      34.521  30.749  27.995  1.00  0.00     0.338 C 
ATOM     24  O   UNL A   1      34.098  31.606  28.751  1.00  0.00    -0.246 OA
BRANCH  23  25
ATOM     25  C   UNL A   1      35.859  30.154  28.130  1.00  0.00     0.060 A 
ATOM     26  C   UNL A   1      36.260  29.716  29.388  1.00  0.00     0.016 A 
ATOM     27  C   UNL A   1      36.760  30.151  27.070  1.00  0.00     0.016 A 
ATOM     28  C   UNL A   1      37.564  29.303  29.620  1.00  0.00     0.010 A 
ATOM     29  C   UNL A   1      38.062  29.683  27.286  1.00  0.00     0.010 A 
ATOM     30  C   UNL A   1      38.480  29.273  28.569  1.00  0.00    -0.014 A 
BRANCH  30  31
ATOM     31  C   UNL A   1      39.895  28.906  28.839  1.00  0.00     0.031 A 
ATOM     32  C   UNL A   1      40.807  29.922  29.466  1.00  0.00     0.074 A 
ATOM     33  C   UNL A   1      40.352  27.666  28.578  1.00  0.00     0.049 A 
ATOM     34  N   UNL A   1      42.109  29.909  29.577  1.00  0.00    -0.248 NA
ATOM     35  C   UNL A   1      40.166  31.118  30.038  1.00  0.00     0.031 C 
ATOM     36  C   UNL A   1      39.548  26.549  28.073  1.00  0.00     0.029 A 
ATOM     37  N   UNL A   1      41.609  27.131  28.710  1.00  0.00    -0.354 N 
ATOM     38  C   UNL A   1      42.449  31.118  30.171  1.00  0.00     0.074 A 
ATOM     39  C   UNL A   1      41.216  31.837  30.407  1.00  0.00     0.031 C 
ATOM     40  C   UNL A   1      40.327  25.460  27.960  1.00  0.00     0.029 A 
ATOM     41  C   UNL A   1      41.700  25.824  28.292  1.00  0.00     0.049 A 
ATOM     42  H   UNL A   1      42.375  27.636  29.069  1.00  0.00     0.167 HD
ATOM     43  C   UNL A   1      43.682  31.582  30.483  1.00  0.00     0.037 A 
ATOM     44  C   UNL A   1      42.776  25.027  28.137  1.00  0.00     0.037 A 
ATOM     45  C   UNL A   1      44.894  30.831  30.291  1.00  0.00     0.049 A 
ATOM     46  C   UNL A   1      44.142  25.586  28.428  1.00  0.00     0.074 A 
ATOM     47  C   UNL A   1      46.198  31.219  30.540  1.00  0.00     0.029 A 
ATOM     48  N   UNL A   1      44.947  29.527  29.823  1.00  0.00    -0.354 N 
ATOM     49  N   UNL A   1      44.468  26.773  28.880  1.00  0.00    -0.248 NA
ATOM     50  C   UNL A   1      45.290  24.709  28.158  1.00  0.00     0.031 C 
ATOM     51  C   UNL A   1      47.043  30.154  30.201  1.00  0.00     0.029 A 
ATOM     52  C   UNL A   1      46.260  29.093  29.776  1.00  0.00     0.049 A 
ATOM     53  H   UNL A   1      44.164  28.988  29.563  1.00  0.00     0.167 HD
ATOM     54  C   UNL A   1      45.855  26.782  28.962  1.00  0.00     0.074 A 
ATOM     55  C   UNL A   1      46.307  25.475  28.528  1.00  0.00     0.031 C 
ATOM     56  C   UNL A   1      46.682  27.781  29.354  1.00  0.00     0.037 A 
BRANCH  43  57
ATOM     57  C   UNL A   1      43.781  32.983  31.017  1.00  0.00     0.058 A 
ATOM     58  C   UNL A   1      43.748  34.105  30.175  1.00  0.00     0.135 A 
ATOM     59  C   UNL A   1      43.898  33.203  32.399  1.00  0.00     0.135 A 
ATOM     60  F   UNL A   1      43.663  33.951  28.846  1.00  0.00    -0.206 F 
ATOM     61  C   UNL A   1      43.851  35.397  30.685  1.00  0.00     0.059 A 
ATOM     62  C   UNL A   1      43.978  34.486  32.933  1.00  0.00     0.059 A 
ATOM     63  F   UNL A   1      43.940  32.164  33.247  1.00  0.00    -0.206 F 
ATOM     64  C   UNL A   1      43.968  35.577  32.065  1.00  0.00     0.060 A 
BRANCH  64  65
ATOM     65  S   UNL A   1      44.102  37.256  32.712  1.00  0.00     0.124 S 
ATOM     66  O   UNL A   1      45.408  37.214  33.362  1.00  0.00    -0.237 OA
ATOM     67  O   UNL A   1      44.024  38.067  31.501  1.00  0.00    -0.237 OA
ATOM     68  O   UNL A   1      42.957  37.366  33.612  1.00  0.00    -0.744 OA
ENDBRANCH  64  65
ENDBRANCH  43  57
BRANCH  44  69
ATOM     69  C   UNL A   1      42.615  23.640  27.622  1.00  0.00     0.058 A 
ATOM     70  C   UNL A   1      42.555  22.545  28.495  1.00  0.00     0.135 A 
ATOM     71  C   UNL A   1      42.526  23.382  26.243  1.00  0.00     0.135 A 
ATOM     72  F   UNL A   1      42.649  22.738  29.819  1.00  0.00    -0.206 F 
ATOM     73  C   UNL A   1      42.427  21.242  28.023  1.00  0.00     0.059 A 
ATOM     74  C   UNL A   1      42.369  22.092  25.749  1.00  0.00     0.059 A 
ATOM     75  F   UNL A   1      42.569  24.395  25.365  1.00  0.00    -0.206 F 
ATOM     76  C   UNL A   1      42.333  21.026  26.647  1.00  0.00     0.060 A 
BRANCH  76  77
ATOM     77  S   UNL A   1      42.127  19.337  26.042  1.00  0.00     0.124 S 
ATOM     78  O   UNL A   1      43.030  19.324  24.897  1.00  0.00    -0.237 OA
ATOM     79  O   UNL A   1      42.543  18.542  27.193  1.00  0.00    -0.237 OA
ATOM     80  O   UNL A   1      40.703  19.269  25.725  1.00  0.00    -0.744 OA
ENDBRANCH  76  77
ENDBRANCH  44  69
BRANCH  56  81
ATOM     81  C   UNL A   1      48.155  27.486  29.370  1.00  0.00     0.058 A 
ATOM     82  C   UNL A   1      48.957  27.680  28.236  1.00  0.00     0.135 A 
ATOM     83  C   UNL A   1      48.776  27.052  30.552  1.00  0.00     0.135 A 
ATOM     84  F   UNL A   1      48.406  28.086  27.081  1.00  0.00    -0.206 F 
ATOM     85  C   UNL A   1      50.325  27.437  28.267  1.00  0.00     0.059 A 
ATOM     86  C   UNL A   1      50.147  26.825  30.612  1.00  0.00     0.059 A 
ATOM     87  F   UNL A   1      48.053  26.860  31.666  1.00  0.00    -0.206 F 
ATOM     88  C   UNL A   1      50.911  27.009  29.460  1.00  0.00     0.060 A 
BRANCH  88  89
ATOM     89  S   UNL A   1      52.695  26.734  29.500  1.00  0.00     0.124 S 
ATOM     90  O   UNL A   1      52.824  25.809  30.622  1.00  0.00    -0.237 OA
ATOM     91  O   UNL A   1      52.956  26.170  28.180  1.00  0.00    -0.237 OA
ATOM     92  O   UNL A   1      53.239  28.070  29.721  1.00  0.00    -0.744 OA
ENDBRANCH  88  89
ENDBRANCH  56  81
ENDBRANCH  30  31
ENDBRANCH  23  25
ENDBRANCH  22  23
ENDBRANCH  21  22
ENDBRANCH  20  21
ENDBRANCH   1  20
TORSDOF 20
ENDMDL
MODEL 2
REMARK VINA RESULT:      -9.3      3.587      9.757
REMARK SMILES C[C@@H]1[C@@H](C(=O)OCCOC(=O)c2ccc(-c3c4nc(c(-c5c(F)cc(S(=O)(=O)[O-])cc5F)c5ccc([nH]5)c(-c5c(F)cc(S(=O)(=O)[O-])cc5F)c5nc(c(-c6c(F)cc(S(=O)(=O)[O-])cc6F)c6ccc3[nH]6)C=C5)C=C4)cc2)CC[N@H+]1CCCOCC(F)(F)F
REMARK SMILES IDX 6 1 4 2 5 3 3 4 1 5 2 6 80 7 78 8 79 9 81 11 82 12 83 13
REMARK SMILES IDX 84 14 85 15 86 16 87 17 88 18 89 19 7 20 8 21 9 22 10 23
REMARK SMILES IDX 11 24 12 25 13 26 77 27 14 28 76 29 15 30 16 31 17 32 70 33
REMARK SMILES IDX 18 34 75 35 69 36 71 37 19 38 74 39 68 40 67 41 20 43 54 44
REMARK SMILES IDX 33 45 53 46 34 47 37 48 52 49 72 50 35 51 36 52 51 54 73 55
REMARK SMILES IDX 38 56 21 57 22 58 31 59 23 60 24 61 30 62 32 63 25 64 26 65
REMARK SMILES IDX 27 66 28 67 29 68 55 69 56 70 65 71 57 72 58 73 64 74 66 75
REMARK SMILES IDX 59 76 60 77 61 78 62 79 63 80 39 81 40 82 49 83 41 84 42 85
REMARK SMILES IDX 48 86 50 87 43 88 44 89 45 90 46 91 47 92
REMARK H PARENT 80 10 71 42 37 53
REMARK Flexibility Score: inf
ROOT
ATOM      1  O   UNL A   1      36.174  22.401  23.688  1.00  0.00    -0.462 OA
ENDROOT
BRANCH   1   2
ATOM      2  C   UNL A   1      34.948  22.993  23.611  1.00  0.00     0.315 C 
ATOM      3  O   UNL A   1      34.500  23.551  22.619  1.00  0.00    -0.252 OA
BRANCH   2   4
ATOM      4  C   UNL A   1      34.269  22.935  24.968  1.00  0.00     0.162 C 
ATOM      5  C   UNL A   1      32.037  21.981  25.773  1.00  0.00     0.076 C 
ATOM      6  C   UNL A   1      32.720  23.049  24.915  1.00  0.00     0.195 C 
ATOM      7  N   UNL A   1      32.463  24.360  25.532  1.00  0.00    -0.332 N 
ATOM      8  C   UNL A   1      34.700  24.211  25.678  1.00  0.00     0.083 C 
ATOM      9  C   UNL A   1      33.625  25.171  25.216  1.00  0.00     0.263 C 
ATOM     10  H   UNL A   1      32.359  24.250  26.541  1.00  0.00     0.348 HD
BRANCH   7  11
ATOM     11  C   UNL A   1      31.167  24.968  25.286  1.00  0.00     0.264 C 
BRANCH  11  12
ATOM     12  C   UNL A   1      31.264  26.484  25.537  1.00  0.00     0.090 C 
BRANCH  12  13
ATOM     13  C   UNL A   1      30.817  27.429  24.411  1.00  0.00     0.166 C 
BRANCH  13  14
ATOM     14  O   UNL A   1      31.709  28.520  24.169  1.00  0.00    -0.372 OA
BRANCH  14  15
ATOM     15  C   UNL A   1      32.287  28.592  22.861  1.00  0.00     0.275 C 
BRANCH  15  16
ATOM     16  C   UNL A   1      33.662  27.942  22.668  1.00  0.00     0.411 C 
ATOM     17  F   UNL A   1      34.396  28.514  21.689  1.00  0.00    -0.168 F 
ATOM     18  F   UNL A   1      34.385  28.041  23.813  1.00  0.00    -0.168 F 
ATOM     19  F   UNL A   1      33.559  26.626  22.379  1.00  0.00    -0.168 F 
ENDBRANCH  15  16
ENDBRANCH  14  15
ENDBRANCH  13  14
ENDBRANCH  12  13
ENDBRANCH  11  12
ENDBRANCH   7  11
ENDBRANCH   2   4
ENDBRANCH   1   2
BRANCH   1  20
ATOM     20  C   UNL A   1      36.312  21.353  24.661  1.00  0.00     0.274 C 
BRANCH  20  21
ATOM     21  C   UNL A   1      37.715  21.361  25.258  1.00  0.00     0.275 C 
BRANCH  21  22
ATOM     22  O   UNL A   1      38.088  22.699  25.638  1.00  0.00    -0.458 OA
BRANCH  22  23
ATOM     23  C   UNL A   1      39.367  22.848  26.061  1.00  0.00     0.338 C 
ATOM     24  O   UNL A   1      40.323  22.137  25.805  1.00  0.00    -0.246 OA
BRANCH  23  25
ATOM     25  C   UNL A   1      39.486  24.104  26.815  1.00  0.00     0.060 A 
ATOM     26  C   UNL A   1      40.425  25.040  26.390  1.00  0.00     0.016 A 
ATOM     27  C   UNL A   1      38.786  24.307  28.000  1.00  0.00     0.016 A 
ATOM     28  C   UNL A   1      40.706  26.166  27.149  1.00  0.00     0.010 A 
ATOM     29  C   UNL A   1      39.027  25.470  28.742  1.00  0.00     0.010 A 
ATOM     30  C   UNL A   1      40.004  26.401  28.332  1.00  0.00    -0.014 A 
BRANCH  30  31
ATOM     31  C   UNL A   1      40.364  27.566  29.180  1.00  0.00     0.031 A 
ATOM     32  C   UNL A   1      41.669  27.553  29.924  1.00  0.00     0.074 A 
ATOM     33  C   UNL A   1      39.564  28.648  29.249  1.00  0.00     0.049 A 
ATOM     34  N   UNL A   1      42.081  28.334  30.887  1.00  0.00    -0.248 NA
ATOM     35  C   UNL A   1      42.639  26.514  29.536  1.00  0.00     0.031 C 
ATOM     36  C   UNL A   1      38.323  28.842  28.494  1.00  0.00     0.029 A 
ATOM     37  N   UNL A   1      39.681  29.799  29.988  1.00  0.00    -0.354 N 
ATOM     38  C   UNL A   1      43.326  27.845  31.263  1.00  0.00     0.074 A 
ATOM     39  C   UNL A   1      43.608  26.704  30.419  1.00  0.00     0.031 C 
ATOM     40  C   UNL A   1      37.808  30.046  28.792  1.00  0.00     0.029 A 
ATOM     41  C   UNL A   1      38.627  30.668  29.826  1.00  0.00     0.049 A 
ATOM     42  H   UNL A   1      40.447  29.985  30.579  1.00  0.00     0.167 HD
ATOM     43  C   UNL A   1      44.151  28.306  32.233  1.00  0.00     0.037 A 
ATOM     44  C   UNL A   1      38.323  31.807  30.479  1.00  0.00     0.037 A 
ATOM     45  C   UNL A   1      43.880  29.474  33.028  1.00  0.00     0.049 A 
ATOM     46  C   UNL A   1      39.220  32.265  31.596  1.00  0.00     0.074 A 
ATOM     47  C   UNL A   1      44.630  30.010  34.059  1.00  0.00     0.029 A 
ATOM     48  N   UNL A   1      42.779  30.301  32.863  1.00  0.00    -0.354 N 
ATOM     49  N   UNL A   1      40.339  31.732  32.027  1.00  0.00    -0.248 NA
ATOM     50  C   UNL A   1      38.800  33.462  32.338  1.00  0.00     0.031 C 
ATOM     51  C   UNL A   1      43.970  31.150  34.533  1.00  0.00     0.029 A 
ATOM     52  C   UNL A   1      42.828  31.343  33.772  1.00  0.00     0.049 A 
ATOM     53  H   UNL A   1      42.066  30.167  32.196  1.00  0.00     0.167 HD
ATOM     54  C   UNL A   1      40.762  32.534  33.080  1.00  0.00     0.074 A 
ATOM     55  C   UNL A   1      39.789  33.600  33.211  1.00  0.00     0.031 C 
ATOM     56  C   UNL A   1      41.853  32.400  33.872  1.00  0.00     0.037 A 
BRANCH  43  57
ATOM     57  C   UNL A   1      45.398  27.517  32.516  1.00  0.00     0.058 A 
ATOM     58  C   UNL A   1      45.421  26.471  33.451  1.00  0.00     0.135 A 
ATOM     59  C   UNL A   1      46.587  27.807  31.828  1.00  0.00     0.135 A 
ATOM     60  F   UNL A   1      44.320  26.168  34.155  1.00  0.00    -0.206 F 
ATOM     61  C   UNL A   1      46.587  25.755  33.710  1.00  0.00     0.059 A 
ATOM     62  C   UNL A   1      47.757  27.090  32.052  1.00  0.00     0.059 A 
ATOM     63  F   UNL A   1      46.620  28.802  30.927  1.00  0.00    -0.206 F 
ATOM     64  C   UNL A   1      47.751  26.074  33.007  1.00  0.00     0.060 A 
BRANCH  64  65
ATOM     65  S   UNL A   1      49.256  25.140  33.353  1.00  0.00     0.124 S 
ATOM     66  O   UNL A   1      48.715  23.939  33.980  1.00  0.00    -0.237 OA
ATOM     67  O   UNL A   1      49.825  24.957  32.022  1.00  0.00    -0.237 OA
ATOM     68  O   UNL A   1      50.008  26.025  34.237  1.00  0.00    -0.744 OA
ENDBRANCH  64  65
ENDBRANCH  43  57
BRANCH  44  69
ATOM     69  C   UNL A   1      37.083  32.558  30.142  1.00  0.00     0.058 A 
ATOM     70  C   UNL A   1      37.099  33.598  29.203  1.00  0.00     0.135 A 
ATOM     71  C   UNL A   1      35.858  32.254  30.760  1.00  0.00     0.135 A 
ATOM     72  F   UNL A   1      38.247  33.936  28.596  1.00  0.00    -0.206 F 
ATOM     73  C   UNL A   1      35.950  34.322  28.897  1.00  0.00     0.059 A 
ATOM     74  C   UNL A   1      34.691  32.943  30.450  1.00  0.00     0.059 A 
ATOM     75  F   UNL A   1      35.786  31.262  31.660  1.00  0.00    -0.206 F 
ATOM     76  C   UNL A   1      34.750  33.985  29.525  1.00  0.00     0.060 A 
BRANCH  76  77
ATOM     77  S   UNL A   1      33.253  34.901  29.095  1.00  0.00     0.124 S 
ATOM     78  O   UNL A   1      32.674  34.046  28.065  1.00  0.00    -0.237 OA
ATOM     79  O   UNL A   1      32.539  34.942  30.367  1.00  0.00    -0.237 OA
ATOM     80  O   UNL A   1      33.771  36.186  28.633  1.00  0.00    -0.744 OA
ENDBRANCH  76  77
ENDBRANCH  44  69
BRANCH  56  81
ATOM     81  C   UNL A   1      42.074  33.452  34.922  1.00  0.00     0.058 A 
ATOM     82  C   UNL A   1      42.676  34.681  34.616  1.00  0.00     0.135 A 
ATOM     83  C   UNL A   1      41.630  33.243  36.237  1.00  0.00     0.135 A 
ATOM     84  F   UNL A   1      43.124  34.923  33.374  1.00  0.00    -0.206 F 
ATOM     85  C   UNL A   1      42.848  35.664  35.584  1.00  0.00     0.059 A 
ATOM     86  C   UNL A   1      41.771  34.221  37.216  1.00  0.00     0.059 A 
ATOM     87  F   UNL A   1      41.040  32.087  36.576  1.00  0.00    -0.206 F 
ATOM     88  C   UNL A   1      42.392  35.424  36.882  1.00  0.00     0.060 A 
BRANCH  88  89
ATOM     89  S   UNL A   1      42.584  36.722  38.122  1.00  0.00     0.124 S 
ATOM     90  O   UNL A   1      41.202  37.148  38.318  1.00  0.00    -0.237 OA
ATOM     91  O   UNL A   1      43.191  36.004  39.238  1.00  0.00    -0.237 OA
ATOM     92  O   UNL A   1      43.454  37.692  37.464  1.00  0.00    -0.744 OA
ENDBRANCH  88  89
ENDBRANCH  56  81
ENDBRANCH  30  31
ENDBRANCH  23  25
ENDBRANCH  22  23
ENDBRANCH  21  22
ENDBRANCH  20  21
ENDBRANCH   1  20
TORSDOF 20
ENDMDL
MODEL 3
REMARK VINA RESULT:      -9.2      3.590      9.594
REMARK SMILES C[C@@H]1[C@@H](C(=O)OCCOC(=O)c2ccc(-c3c4nc(c(-c5c(F)cc(S(=O)(=O)[O-])cc5F)c5ccc([nH]5)c(-c5c(F)cc(S(=O)(=O)[O-])cc5F)c5nc(c(-c6c(F)cc(S(=O)(=O)[O-])cc6F)c6ccc3[nH]6)C=C5)C=C4)cc2)CC[N@H+]1CCCOCC(F)(F)F
REMARK SMILES IDX 6 1 4 2 5 3 3 4 1 5 2 6 80 7 78 8 79 9 81 11 82 12 83 13
REMARK SMILES IDX 84 14 85 15 86 16 87 17 88 18 89 19 7 20 8 21 9 22 10 23
REMARK SMILES IDX 11 24 12 25 13 26 77 27 14 28 76 29 15 30 16 31 17 32 70 33
REMARK SMILES IDX 18 34 75 35 69 36 71 37 19 38 74 39 68 40 67 41 20 43 54 44
REMARK SMILES IDX 33 45 53 46 34 47 37 48 52 49 72 50 35 51 36 52 51 54 73 55
REMARK SMILES IDX 38 56 21 57 22 58 31 59 23 60 24 61 30 62 32 63 25 64 26 65
REMARK SMILES IDX 27 66 28 67 29 68 55 69 56 70 65 71 57 72 58 73 64 74 66 75
REMARK SMILES IDX 59 76 60 77 61 78 62 79 63 80 39 81 40 82 49 83 41 84 42 85
REMARK SMILES IDX 48 86 50 87 43 88 44 89 45 90 46 91 47 92
REMARK H PARENT 80 10 71 42 37 53
REMARK Flexibility Score: inf
ROOT
ATOM      1  O   UNL A   1      34.689  23.221  25.611  1.00  0.00    -0.462 OA
ENDROOT
BRANCH   1   2
ATOM      2  C   UNL A   1      33.543  22.730  26.162  1.00  0.00     0.315 C 
ATOM      3  O   UNL A   1      33.421  22.374  27.326  1.00  0.00    -0.252 OA
BRANCH   2   4
ATOM      4  C   UNL A   1      32.474  22.606  25.090  1.00  0.00     0.162 C 
ATOM      5  C   UNL A   1      32.046  23.837  22.890  1.00  0.00     0.076 C 
ATOM      6  C   UNL A   1      32.084  23.951  24.416  1.00  0.00     0.195 C 
ATOM      7  N   UNL A   1      30.708  24.171  24.889  1.00  0.00    -0.332 N 
ATOM      8  C   UNL A   1      31.212  22.199  25.839  1.00  0.00     0.083 C 
ATOM      9  C   UNL A   1      30.647  23.555  26.202  1.00  0.00     0.263 C 
ATOM     10  H   UNL A   1      30.049  23.730  24.248  1.00  0.00     0.348 HD
BRANCH   7  11
ATOM     11  C   UNL A   1      30.178  25.520  24.786  1.00  0.00     0.264 C 
BRANCH  11  12
ATOM     12  C   UNL A   1      30.820  26.401  25.873  1.00  0.00     0.090 C 
BRANCH  12  13
ATOM     13  C   UNL A   1      31.652  27.611  25.417  1.00  0.00     0.166 C 
BRANCH  13  14
ATOM     14  O   UNL A   1      33.066  27.413  25.490  1.00  0.00    -0.372 OA
BRANCH  14  15
ATOM     15  C   UNL A   1      33.877  28.592  25.448  1.00  0.00     0.275 C 
BRANCH  15  16
ATOM     16  C   UNL A   1      34.081  29.347  26.767  1.00  0.00     0.411 C 
ATOM     17  F   UNL A   1      35.323  29.859  26.909  1.00  0.00    -0.168 F 
ATOM     18  F   UNL A   1      33.213  30.389  26.842  1.00  0.00    -0.168 F 
ATOM     19  F   UNL A   1      33.844  28.559  27.839  1.00  0.00    -0.168 F 
ENDBRANCH  15  16
ENDBRANCH  14  15
ENDBRANCH  13  14
ENDBRANCH  12  13
ENDBRANCH  11  12
ENDBRANCH   7  11
ENDBRANCH   2   4
ENDBRANCH   1   2
BRANCH   1  20
ATOM     20  C   UNL A   1      35.399  22.334  24.731  1.00  0.00     0.274 C 
BRANCH  20  21
ATOM     21  C   UNL A   1      36.732  22.949  24.316  1.00  0.00     0.275 C 
BRANCH  21  22
ATOM     22  O   UNL A   1      37.293  23.705  25.405  1.00  0.00    -0.458 OA
BRANCH  22  23
ATOM     23  C   UNL A   1      38.464  23.233  25.897  1.00  0.00     0.338 C 
ATOM     24  O   UNL A   1      38.995  22.163  25.658  1.00  0.00    -0.246 OA
BRANCH  23  25
ATOM     25  C   UNL A   1      39.104  24.278  26.711  1.00  0.00     0.060 A 
ATOM     26  C   UNL A   1      38.750  24.375  28.053  1.00  0.00     0.016 A 
ATOM     27  C   UNL A   1      39.937  25.234  26.138  1.00  0.00     0.016 A 
ATOM     28  C   UNL A   1      39.184  25.437  28.833  1.00  0.00     0.010 A 
ATOM     29  C   UNL A   1      40.422  26.278  26.936  1.00  0.00     0.010 A 
ATOM     30  C   UNL A   1      40.035  26.398  28.285  1.00  0.00    -0.014 A 
BRANCH  30  31
ATOM     31  C   UNL A   1      40.433  27.575  29.101  1.00  0.00     0.031 A 
ATOM     32  C   UNL A   1      41.772  27.572  29.783  1.00  0.00     0.074 A 
ATOM     33  C   UNL A   1      39.636  28.658  29.194  1.00  0.00     0.049 A 
ATOM     34  N   UNL A   1      42.228  28.366  30.716  1.00  0.00    -0.248 NA
ATOM     35  C   UNL A   1      42.723  26.528  29.363  1.00  0.00     0.031 C 
ATOM     36  C   UNL A   1      38.361  28.841  28.494  1.00  0.00     0.029 A 
ATOM     37  N   UNL A   1      39.786  29.818  29.911  1.00  0.00    -0.354 N 
ATOM     38  C   UNL A   1      43.489  27.882  31.039  1.00  0.00     0.074 A 
ATOM     39  C   UNL A   1      43.732  26.730  30.197  1.00  0.00     0.031 C 
ATOM     40  C   UNL A   1      37.860  30.048  28.801  1.00  0.00     0.029 A 
ATOM     41  C   UNL A   1      38.725  30.684  29.788  1.00  0.00     0.049 A 
ATOM     42  H   UNL A   1      40.579  30.012  30.463  1.00  0.00     0.167 HD
ATOM     43  C   UNL A   1      44.359  28.356  31.963  1.00  0.00     0.037 A 
ATOM     44  C   UNL A   1      38.452  31.831  30.440  1.00  0.00     0.037 A 
ATOM     45  C   UNL A   1      44.124  29.533  32.755  1.00  0.00     0.049 A 
ATOM     46  C   UNL A   1      39.399  32.304  31.508  1.00  0.00     0.074 A 
ATOM     47  C   UNL A   1      44.921  30.083  33.743  1.00  0.00     0.029 A 
ATOM     48  N   UNL A   1      43.015  30.358  32.631  1.00  0.00    -0.354 N 
ATOM     49  N   UNL A   1      40.538  31.777  31.892  1.00  0.00    -0.248 NA
ATOM     50  C   UNL A   1      39.013  33.511  32.252  1.00  0.00     0.031 C 
ATOM     51  C   UNL A   1      44.283  31.229  34.233  1.00  0.00     0.029 A 
ATOM     52  C   UNL A   1      43.106  31.412  33.523  1.00  0.00     0.049 A 
ATOM     53  H   UNL A   1      42.273  30.215  32.000  1.00  0.00     0.167 HD
ATOM     54  C   UNL A   1      41.009  32.593  32.914  1.00  0.00     0.074 A 
ATOM     55  C   UNL A   1      40.042  33.660  33.076  1.00  0.00     0.031 C 
ATOM     56  C   UNL A   1      42.136  32.470  33.655  1.00  0.00     0.037 A 
BRANCH  43  57
ATOM     57  C   UNL A   1      45.618  27.571  32.198  1.00  0.00     0.058 A 
ATOM     58  C   UNL A   1      46.824  27.886  31.554  1.00  0.00     0.135 A 
ATOM     59  C   UNL A   1      45.617  26.491  33.096  1.00  0.00     0.135 A 
ATOM     60  F   UNL A   1      46.874  28.891  30.667  1.00  0.00    -0.206 F 
ATOM     61  C   UNL A   1      47.981  27.142  31.776  1.00  0.00     0.059 A 
ATOM     62  C   UNL A   1      46.766  25.750  33.352  1.00  0.00     0.059 A 
ATOM     63  F   UNL A   1      44.488  26.144  33.735  1.00  0.00    -0.206 F 
ATOM     64  C   UNL A   1      47.941  26.075  32.675  1.00  0.00     0.060 A 
BRANCH  64  65
ATOM     65  S   UNL A   1      49.446  25.118  32.952  1.00  0.00     0.124 S 
ATOM     66  O   UNL A   1      50.261  26.069  33.699  1.00  0.00    -0.237 OA
ATOM     67  O   UNL A   1      48.954  23.972  33.710  1.00  0.00    -0.237 OA
ATOM     68  O   UNL A   1      49.911  24.819  31.601  1.00  0.00    -0.744 OA
ENDBRANCH  64  65
ENDBRANCH  43  57
BRANCH  44  69
ATOM     69  C   UNL A   1      37.196  32.577  30.152  1.00  0.00     0.058 A 
ATOM     70  C   UNL A   1      37.179  33.641  29.238  1.00  0.00     0.135 A 
ATOM     71  C   UNL A   1      35.990  32.246  30.792  1.00  0.00     0.135 A 
ATOM     72  F   UNL A   1      38.308  34.004  28.611  1.00  0.00    -0.206 F 
ATOM     73  C   UNL A   1      36.016  34.359  28.978  1.00  0.00     0.059 A 
ATOM     74  C   UNL A   1      34.809  32.931  30.527  1.00  0.00     0.059 A 
ATOM     75  F   UNL A   1      35.950  31.232  31.669  1.00  0.00    -0.206 F 
ATOM     76  C   UNL A   1      34.835  33.995  29.627  1.00  0.00     0.060 A 
BRANCH  76  77
ATOM     77  S   UNL A   1      33.319  34.906  29.255  1.00  0.00     0.124 S 
ATOM     78  O   UNL A   1      32.673  34.943  30.562  1.00  0.00    -0.237 OA
ATOM     79  O   UNL A   1      33.836  36.178  28.761  1.00  0.00    -0.237 OA
ATOM     80  O   UNL A   1      32.668  34.071  28.251  1.00  0.00    -0.744 OA
ENDBRANCH  76  77
ENDBRANCH  44  69
BRANCH  56  81
ATOM     81  C   UNL A   1      42.405  33.535  34.680  1.00  0.00     0.058 A 
ATOM     82  C   UNL A   1      43.211  34.645  34.392  1.00  0.00     0.135 A 
ATOM     83  C   UNL A   1      41.806  33.465  35.947  1.00  0.00     0.135 A 
ATOM     84  F   UNL A   1      43.812  34.752  33.196  1.00  0.00    -0.206 F 
ATOM     85  C   UNL A   1      43.429  35.645  35.333  1.00  0.00     0.059 A 
ATOM     86  C   UNL A   1      41.991  34.465  36.896  1.00  0.00     0.059 A 
ATOM     87  F   UNL A   1      41.018  32.426  36.267  1.00  0.00    -0.206 F 
ATOM     88  C   UNL A   1      42.815  35.546  36.583  1.00  0.00     0.060 A 
BRANCH  88  89
ATOM     89  S   UNL A   1      43.073  36.869  37.784  1.00  0.00     0.124 S 
ATOM     90  O   UNL A   1      43.599  37.935  36.937  1.00  0.00    -0.237 OA
ATOM     91  O   UNL A   1      41.730  37.082  38.312  1.00  0.00    -0.237 OA
ATOM     92  O   UNL A   1      44.024  36.289  38.727  1.00  0.00    -0.744 OA
ENDBRANCH  88  89
ENDBRANCH  56  81
ENDBRANCH  30  31
ENDBRANCH  23  25
ENDBRANCH  22  23
ENDBRANCH  21  22
ENDBRANCH  20  21
ENDBRANCH   1  20
TORSDOF 20
ENDMDL
