MODEL 1
REMARK VINA RESULT:     -12.0      0.000      0.000
REMARK SMILES CC1(C)S[C@H](c2ccc(Cl)cc2Cl)[NH2+][C@H]1C(=O)OCCOC(=O)c1ccc(-c2c3nc(c(-c4c(F)cc(S(=O)(=O)[O-])cc4F)c4ccc([nH]4)c(-c4c(F)cc(S(=O)(=O)[O-])cc4F)c4nc(c(-c5c(F)cc(S(=O)(=O)[O-])cc5F)c5ccc2[nH]5)C=C4)C=C3)cc1
REMARK SMILES IDX 20 1 19 2 18 3 16 4 17 5 15 6 1 7 2 8 3 9 4 10 5 11 14 12
REMARK SMILES IDX 6 15 7 16 12 17 8 18 11 19 13 20 9 21 10 22 21 23 22 24
REMARK SMILES IDX 23 25 24 26 25 27 89 28 26 29 88 30 27 31 28 32 29 33 82 34
REMARK SMILES IDX 30 35 87 36 81 37 83 38 31 39 86 40 80 41 79 42 32 44 66 45
REMARK SMILES IDX 45 46 65 47 46 48 49 49 64 50 84 51 47 52 48 53 63 55 85 56
REMARK SMILES IDX 50 57 33 58 34 59 43 60 35 61 36 62 42 63 44 64 37 65 38 66
REMARK SMILES IDX 39 67 40 68 41 69 67 70 68 71 77 72 69 73 70 74 76 75 78 76
REMARK SMILES IDX 71 77 72 78 73 79 74 80 75 81 51 82 52 83 61 84 53 85 54 86
REMARK SMILES IDX 60 87 62 88 55 89 56 90 57 91 58 92 59 93
REMARK H PARENT 14 13 14 14 83 43 49 54
REMARK Flexibility Score: inf
ROOT
ATOM      1  C   UNL A   1      34.176  30.943  27.784  1.00  0.00     0.275 C 
ENDROOT
BRANCH   1   2
ATOM      2  C   UNL A   1      32.964  30.186  27.230  1.00  0.00     0.274 C 
BRANCH   2   3
ATOM      3  O   UNL A   1      33.107  28.752  27.320  1.00  0.00    -0.458 OA
BRANCH   3   4
ATOM      4  C   UNL A   1      31.987  28.041  27.040  1.00  0.00     0.366 C 
ATOM      5  O   UNL A   1      31.216  27.629  27.903  1.00  0.00    -0.245 OA
BRANCH   4   6
ATOM      6  C   UNL A   1      31.789  27.713  25.549  1.00  0.00     0.310 C 
ATOM      7  C   UNL A   1      33.751  25.986  25.328  1.00  0.00     0.030 C 
ATOM      8  C   UNL A   1      32.934  27.117  24.702  1.00  0.00     0.079 C 
ATOM      9  C   UNL A   1      33.857  28.199  24.136  1.00  0.00     0.030 C 
ATOM     10  S   UNL A   1      32.012  26.370  23.283  1.00  0.00    -0.081 SA
ATOM     11  C   UNL A   1      30.339  26.730  23.961  1.00  0.00     0.276 C 
ATOM     12  N   UNL A   1      30.586  26.848  25.396  1.00  0.00    -0.319 N 
ATOM     13  H   UNL A   1      30.760  25.927  25.801  1.00  0.00     0.348 HD
ATOM     14  H   UNL A   1      29.781  27.248  25.877  1.00  0.00     0.348 HD
BRANCH  11  15
ATOM     15  C   UNL A   1      29.645  27.899  23.245  1.00  0.00     0.039 A 
ATOM     16  C   UNL A   1      30.459  28.746  22.448  1.00  0.00     0.014 A 
ATOM     17  C   UNL A   1      28.259  28.169  23.222  1.00  0.00     0.052 A 
ATOM     18  C   UNL A   1      29.942  29.837  21.744  1.00  0.00     0.021 A 
ATOM     19  C   UNL A   1      27.744  29.282  22.533  1.00  0.00     0.041 A 
ATOM     20  Cl  UNL A   1      27.055  27.165  23.952  1.00  0.00    -0.084 Cl
ATOM     21  C   UNL A   1      28.585  30.110  21.802  1.00  0.00     0.042 A 
ATOM     22  Cl  UNL A   1      27.943  31.447  20.935  1.00  0.00    -0.084 Cl
ENDBRANCH  11  15
ENDBRANCH   4   6
ENDBRANCH   3   4
ENDBRANCH   2   3
ENDBRANCH   1   2
BRANCH   1  23
ATOM     23  O   UNL A   1      35.260  30.061  28.126  1.00  0.00    -0.458 OA
BRANCH  23  24
ATOM     24  C   UNL A   1      36.117  30.542  29.056  1.00  0.00     0.338 C 
ATOM     25  O   UNL A   1      35.845  31.269  29.996  1.00  0.00    -0.246 OA
BRANCH  24  26
ATOM     26  C   UNL A   1      37.460  29.977  28.845  1.00  0.00     0.060 A 
ATOM     27  C   UNL A   1      38.272  29.741  29.957  1.00  0.00     0.016 A 
ATOM     28  C   UNL A   1      37.955  29.786  27.557  1.00  0.00     0.016 A 
ATOM     29  C   UNL A   1      39.587  29.318  29.791  1.00  0.00     0.010 A 
ATOM     30  C   UNL A   1      39.273  29.346  27.389  1.00  0.00     0.010 A 
ATOM     31  C   UNL A   1      40.100  29.120  28.504  1.00  0.00    -0.014 A 
BRANCH  31  32
ATOM     32  C   UNL A   1      41.511  28.704  28.326  1.00  0.00     0.031 A 
ATOM     33  C   UNL A   1      42.610  29.725  28.408  1.00  0.00     0.074 A 
ATOM     34  C   UNL A   1      41.803  27.410  28.093  1.00  0.00     0.049 A 
ATOM     35  N   UNL A   1      43.884  29.588  28.152  1.00  0.00    -0.248 NA
ATOM     36  C   UNL A   1      42.220  31.079  28.831  1.00  0.00     0.031 C 
ATOM     37  C   UNL A   1      40.828  26.320  28.044  1.00  0.00     0.029 A 
ATOM     38  N   UNL A   1      43.004  26.796  27.844  1.00  0.00    -0.354 N 
ATOM     39  C   UNL A   1      44.449  30.841  28.357  1.00  0.00     0.074 A 
ATOM     40  C   UNL A   1      43.374  31.728  28.753  1.00  0.00     0.031 C 
ATOM     41  C   UNL A   1      41.468  25.172  27.771  1.00  0.00     0.029 A 
ATOM     42  C   UNL A   1      42.888  25.453  27.579  1.00  0.00     0.049 A 
ATOM     43  H   UNL A   1      43.866  27.272  27.855  1.00  0.00     0.167 HD
ATOM     44  C   UNL A   1      45.743  31.215  28.222  1.00  0.00     0.037 A 
ATOM     45  C   UNL A   1      43.815  24.557  27.189  1.00  0.00     0.037 A 
ATOM     46  C   UNL A   1      46.808  30.324  27.844  1.00  0.00     0.049 A 
ATOM     47  C   UNL A   1      45.237  25.007  26.997  1.00  0.00     0.074 A 
ATOM     48  C   UNL A   1      48.154  30.605  27.687  1.00  0.00     0.029 A 
ATOM     49  N   UNL A   1      46.649  28.974  27.566  1.00  0.00    -0.354 N 
ATOM     50  N   UNL A   1      45.753  26.201  27.168  1.00  0.00    -0.248 NA
ATOM     51  C   UNL A   1      46.201  23.993  26.549  1.00  0.00     0.031 C 
ATOM     52  C   UNL A   1      48.803  29.432  27.284  1.00  0.00     0.029 A 
ATOM     53  C   UNL A   1      47.867  28.412  27.224  1.00  0.00     0.049 A 
ATOM     54  H   UNL A   1      45.794  28.486  27.606  1.00  0.00     0.167 HD
ATOM     55  C   UNL A   1      47.104  26.078  26.862  1.00  0.00     0.074 A 
ATOM     56  C   UNL A   1      47.327  24.691  26.506  1.00  0.00     0.031 C 
ATOM     57  C   UNL A   1      48.070  27.028  26.875  1.00  0.00     0.037 A 
BRANCH  44  58
ATOM     58  C   UNL A   1      46.073  32.662  28.455  1.00  0.00     0.058 A 
ATOM     59  C   UNL A   1      46.425  33.145  29.724  1.00  0.00     0.135 A 
ATOM     60  C   UNL A   1      46.059  33.572  27.386  1.00  0.00     0.135 A 
ATOM     61  F   UNL A   1      46.437  32.320  30.782  1.00  0.00    -0.206 F 
ATOM     62  C   UNL A   1      46.729  34.488  29.931  1.00  0.00     0.059 A 
ATOM     63  C   UNL A   1      46.378  34.915  27.566  1.00  0.00     0.059 A 
ATOM     64  F   UNL A   1      45.726  33.161  26.152  1.00  0.00    -0.206 F 
ATOM     65  C   UNL A   1      46.698  35.366  28.845  1.00  0.00     0.060 A 
BRANCH  65  66
ATOM     66  S   UNL A   1      47.086  37.107  29.126  1.00  0.00     0.124 S 
ATOM     67  O   UNL A   1      47.705  37.056  30.447  1.00  0.00    -0.237 OA
ATOM     68  O   UNL A   1      47.985  37.413  28.018  1.00  0.00    -0.237 OA
ATOM     69  O   UNL A   1      45.781  37.759  29.069  1.00  0.00    -0.744 OA
ENDBRANCH  65  66
ENDBRANCH  44  58
BRANCH  45  70
ATOM     70  C   UNL A   1      43.415  23.152  26.920  1.00  0.00     0.058 A 
ATOM     71  C   UNL A   1      43.379  22.649  25.613  1.00  0.00     0.135 A 
ATOM     72  C   UNL A   1      43.083  22.281  27.969  1.00  0.00     0.135 A 
ATOM     73  F   UNL A   1      43.679  23.448  24.577  1.00  0.00    -0.206 F 
ATOM     74  C   UNL A   1      43.020  21.330  25.351  1.00  0.00     0.059 A 
ATOM     75  C   UNL A   1      42.742  20.953  27.735  1.00  0.00     0.059 A 
ATOM     76  F   UNL A   1      43.113  22.714  29.239  1.00  0.00    -0.206 F 
ATOM     77  C   UNL A   1      42.704  20.489  26.420  1.00  0.00     0.060 A 
BRANCH  77  78
ATOM     78  S   UNL A   1      42.294  18.763  26.081  1.00  0.00     0.124 S 
ATOM     79  O   UNL A   1      43.206  18.457  24.985  1.00  0.00    -0.237 OA
ATOM     80  O   UNL A   1      42.588  18.117  27.356  1.00  0.00    -0.237 OA
ATOM     81  O   UNL A   1      40.878  18.819  25.728  1.00  0.00    -0.744 OA
ENDBRANCH  77  78
ENDBRANCH  45  70
BRANCH  57  82
ATOM     82  C   UNL A   1      49.463  26.596  26.515  1.00  0.00     0.058 A 
ATOM     83  C   UNL A   1      50.307  25.986  27.455  1.00  0.00     0.135 A 
ATOM     84  C   UNL A   1      49.937  26.748  25.203  1.00  0.00     0.135 A 
ATOM     85  F   UNL A   1      49.902  25.825  28.724  1.00  0.00    -0.206 F 
ATOM     86  C   UNL A   1      51.584  25.555  27.109  1.00  0.00     0.059 A 
ATOM     87  C   UNL A   1      51.204  26.307  24.831  1.00  0.00     0.059 A 
ATOM     88  F   UNL A   1      49.164  27.317  24.266  1.00  0.00    -0.206 F 
ATOM     89  C   UNL A   1      52.023  25.720  25.794  1.00  0.00     0.060 A 
BRANCH  89  90
ATOM     90  S   UNL A   1      53.667  25.123  25.344  1.00  0.00     0.124 S 
ATOM     91  O   UNL A   1      53.464  23.677  25.344  1.00  0.00    -0.237 OA
ATOM     92  O   UNL A   1      53.877  25.733  24.035  1.00  0.00    -0.237 OA
ATOM     93  O   UNL A   1      54.518  25.639  26.412  1.00  0.00    -0.744 OA
ENDBRANCH  89  90
ENDBRANCH  57  82
ENDBRANCH  31  32
ENDBRANCH  24  26
ENDBRANCH  23  24
ENDBRANCH   1  23
TORSDOF 15
ENDMDL
MODEL 2
REMARK VINA RESULT:     -11.7      7.340     12.608
REMARK SMILES CC1(C)S[C@H](c2ccc(Cl)cc2Cl)[NH2+][C@H]1C(=O)OCCOC(=O)c1ccc(-c2c3nc(c(-c4c(F)cc(S(=O)(=O)[O-])cc4F)c4ccc([nH]4)c(-c4c(F)cc(S(=O)(=O)[O-])cc4F)c4nc(c(-c5c(F)cc(S(=O)(=O)[O-])cc5F)c5ccc2[nH]5)C=C4)C=C3)cc1
REMARK SMILES IDX 20 1 19 2 18 3 16 4 17 5 15 6 1 7 2 8 3 9 4 10 5 11 14 12
REMARK SMILES IDX 6 15 7 16 12 17 8 18 11 19 13 20 9 21 10 22 21 23 22 24
REMARK SMILES IDX 23 25 24 26 25 27 89 28 26 29 88 30 27 31 28 32 29 33 82 34
REMARK SMILES IDX 30 35 87 36 81 37 83 38 31 39 86 40 80 41 79 42 32 44 66 45
REMARK SMILES IDX 45 46 65 47 46 48 49 49 64 50 84 51 47 52 48 53 63 55 85 56
REMARK SMILES IDX 50 57 33 58 34 59 43 60 35 61 36 62 42 63 44 64 37 65 38 66
REMARK SMILES IDX 39 67 40 68 41 69 67 70 68 71 77 72 69 73 70 74 76 75 78 76
REMARK SMILES IDX 71 77 72 78 73 79 74 80 75 81 51 82 52 83 61 84 53 85 54 86
REMARK SMILES IDX 60 87 62 88 55 89 56 90 57 91 58 92 59 93
REMARK H PARENT 14 13 14 14 83 43 49 54
REMARK Flexibility Score: inf
ROOT
ATOM      1  C   UNL A   1      39.231  22.427  26.418  1.00  0.00     0.275 C 
ENDROOT
BRANCH   1   2
ATOM      2  C   UNL A   1      38.140  21.928  25.465  1.00  0.00     0.274 C 
BRANCH   2   3
ATOM      3  O   UNL A   1      36.807  22.219  25.935  1.00  0.00    -0.458 OA
BRANCH   3   4
ATOM      4  C   UNL A   1      35.918  22.568  24.971  1.00  0.00     0.366 C 
ATOM      5  O   UNL A   1      36.190  23.334  24.050  1.00  0.00    -0.245 OA
BRANCH   4   6
ATOM      6  C   UNL A   1      34.503  21.993  25.161  1.00  0.00     0.310 C 
ATOM      7  C   UNL A   1      33.372  24.185  26.052  1.00  0.00     0.030 C 
ATOM      8  C   UNL A   1      33.489  22.662  26.113  1.00  0.00     0.079 C 
ATOM      9  C   UNL A   1      33.658  22.192  27.560  1.00  0.00     0.030 C 
ATOM     10  S   UNL A   1      31.881  21.991  25.492  1.00  0.00    -0.081 SA
ATOM     11  C   UNL A   1      32.613  21.103  24.055  1.00  0.00     0.276 C 
ATOM     12  N   UNL A   1      33.863  21.824  23.827  1.00  0.00    -0.319 N 
ATOM     13  H   UNL A   1      33.673  22.736  23.410  1.00  0.00     0.348 HD
ATOM     14  H   UNL A   1      34.472  21.314  23.187  1.00  0.00     0.348 HD
BRANCH  11  15
ATOM     15  C   UNL A   1      32.679  19.583  24.265  1.00  0.00     0.039 A 
ATOM     16  C   UNL A   1      32.754  19.116  25.604  1.00  0.00     0.014 A 
ATOM     17  C   UNL A   1      32.582  18.590  23.265  1.00  0.00     0.052 A 
ATOM     18  C   UNL A   1      32.812  17.756  25.921  1.00  0.00     0.021 A 
ATOM     19  C   UNL A   1      32.666  17.222  23.585  1.00  0.00     0.041 A 
ATOM     20  Cl  UNL A   1      32.288  18.912  21.592  1.00  0.00    -0.084 Cl
ATOM     21  C   UNL A   1      32.783  16.813  24.907  1.00  0.00     0.042 A 
ATOM     22  Cl  UNL A   1      32.850  15.139  25.291  1.00  0.00    -0.084 Cl
ENDBRANCH  11  15
ENDBRANCH   4   6
ENDBRANCH   3   4
ENDBRANCH   2   3
ENDBRANCH   1   2
BRANCH   1  23
ATOM     23  O   UNL A   1      39.299  23.863  26.466  1.00  0.00    -0.458 OA
BRANCH  23  24
ATOM     24  C   UNL A   1      40.523  24.370  26.741  1.00  0.00     0.338 C 
ATOM     25  O   UNL A   1      41.584  24.028  26.248  1.00  0.00    -0.246 OA
BRANCH  24  26
ATOM     26  C   UNL A   1      40.403  25.502  27.674  1.00  0.00     0.060 A 
ATOM     27  C   UNL A   1      41.407  26.473  27.684  1.00  0.00     0.016 A 
ATOM     28  C   UNL A   1      39.368  25.547  28.606  1.00  0.00     0.016 A 
ATOM     29  C   UNL A   1      41.389  27.494  28.630  1.00  0.00     0.010 A 
ATOM     30  C   UNL A   1      39.341  26.582  29.548  1.00  0.00     0.010 A 
ATOM     31  C   UNL A   1      40.356  27.556  29.572  1.00  0.00    -0.014 A 
BRANCH  31  32
ATOM     32  C   UNL A   1      40.356  28.621  30.601  1.00  0.00     0.031 A 
ATOM     33  C   UNL A   1      41.308  28.545  31.760  1.00  0.00     0.074 A 
ATOM     34  C   UNL A   1      39.502  29.657  30.492  1.00  0.00     0.049 A 
ATOM     35  N   UNL A   1      41.374  29.300  32.825  1.00  0.00    -0.248 NA
ATOM     36  C   UNL A   1      42.318  27.476  31.714  1.00  0.00     0.031 C 
ATOM     37  C   UNL A   1      38.567  29.867  29.385  1.00  0.00     0.029 A 
ATOM     38  N   UNL A   1      39.275  30.720  31.328  1.00  0.00    -0.354 N 
ATOM     39  C   UNL A   1      42.413  28.785  33.591  1.00  0.00     0.074 A 
ATOM     40  C   UNL A   1      42.945  27.647  32.869  1.00  0.00     0.031 C 
ATOM     41  C   UNL A   1      37.860  30.986  29.616  1.00  0.00     0.029 A 
ATOM     42  C   UNL A   1      38.258  31.542  30.906  1.00  0.00     0.049 A 
ATOM     43  H   UNL A   1      39.792  30.880  32.150  1.00  0.00     0.167 HD
ATOM     44  C   UNL A   1      42.875  29.220  34.787  1.00  0.00     0.037 A 
ATOM     45  C   UNL A   1      37.686  32.602  31.508  1.00  0.00     0.037 A 
ATOM     46  C   UNL A   1      42.351  30.362  35.490  1.00  0.00     0.049 A 
ATOM     47  C   UNL A   1      38.182  33.036  32.860  1.00  0.00     0.074 A 
ATOM     48  C   UNL A   1      42.756  30.888  36.705  1.00  0.00     0.029 A 
ATOM     49  N   UNL A   1      41.309  31.159  35.039  1.00  0.00    -0.354 N 
ATOM     50  N   UNL A   1      39.147  32.524  33.586  1.00  0.00    -0.248 NA
ATOM     51  C   UNL A   1      37.506  34.184  33.479  1.00  0.00     0.031 C 
ATOM     52  C   UNL A   1      41.937  31.983  37.003  1.00  0.00     0.029 A 
ATOM     53  C   UNL A   1      41.046  32.161  35.957  1.00  0.00     0.049 A 
ATOM     54  H   UNL A   1      40.825  31.030  34.190  1.00  0.00     0.167 HD
ATOM     55  C   UNL A   1      39.203  33.295  34.741  1.00  0.00     0.074 A 
ATOM     56  C   UNL A   1      38.182  34.315  34.612  1.00  0.00     0.031 C 
ATOM     57  C   UNL A   1      40.026  33.170  35.810  1.00  0.00     0.037 A 
BRANCH  44  58
ATOM     58  C   UNL A   1      43.985  28.436  35.427  1.00  0.00     0.058 A 
ATOM     59  C   UNL A   1      43.728  27.393  36.328  1.00  0.00     0.135 A 
ATOM     60  C   UNL A   1      45.323  28.720  35.114  1.00  0.00     0.135 A 
ATOM     61  F   UNL A   1      42.466  27.093  36.674  1.00  0.00    -0.206 F 
ATOM     62  C   UNL A   1      44.763  26.671  36.917  1.00  0.00     0.059 A 
ATOM     63  C   UNL A   1      46.373  27.998  35.676  1.00  0.00     0.059 A 
ATOM     64  F   UNL A   1      45.623  29.710  34.258  1.00  0.00    -0.206 F 
ATOM     65  C   UNL A   1      46.083  26.985  36.587  1.00  0.00     0.060 A 
BRANCH  65  66
ATOM     66  S   UNL A   1      47.417  26.048  37.363  1.00  0.00     0.124 S 
ATOM     67  O   UNL A   1      47.009  26.068  38.764  1.00  0.00    -0.237 OA
ATOM     68  O   UNL A   1      47.324  24.753  36.696  1.00  0.00    -0.237 OA
ATOM     69  O   UNL A   1      48.609  26.829  37.045  1.00  0.00    -0.744 OA
ENDBRANCH  65  66
ENDBRANCH  44  58
BRANCH  45  70
ATOM     70  C   UNL A   1      36.554  33.302  30.849  1.00  0.00     0.058 A 
ATOM     71  C   UNL A   1      35.240  33.150  31.315  1.00  0.00     0.135 A 
ATOM     72  C   UNL A   1      36.767  34.152  29.753  1.00  0.00     0.135 A 
ATOM     73  F   UNL A   1      34.986  32.340  32.354  1.00  0.00    -0.206 F 
ATOM     74  C   UNL A   1      34.174  33.813  30.714  1.00  0.00     0.059 A 
ATOM     75  C   UNL A   1      35.722  34.842  29.149  1.00  0.00     0.059 A 
ATOM     76  F   UNL A   1      38.009  34.337  29.277  1.00  0.00    -0.206 F 
ATOM     77  C   UNL A   1      34.426  34.658  29.632  1.00  0.00     0.060 A 
BRANCH  77  78
ATOM     78  S   UNL A   1      33.048  35.560  28.890  1.00  0.00     0.124 S 
ATOM     79  O   UNL A   1      33.748  36.585  28.125  1.00  0.00    -0.237 OA
ATOM     80  O   UNL A   1      32.382  34.523  28.108  1.00  0.00    -0.237 OA
ATOM     81  O   UNL A   1      32.299  36.036  30.050  1.00  0.00    -0.744 OA
ENDBRANCH  77  78
ENDBRANCH  45  70
BRANCH  57  82
ATOM     82  C   UNL A   1      39.872  34.174  36.917  1.00  0.00     0.058 A 
ATOM     83  C   UNL A   1      39.087  33.903  38.048  1.00  0.00     0.135 A 
ATOM     84  C   UNL A   1      40.557  35.398  36.867  1.00  0.00     0.135 A 
ATOM     85  F   UNL A   1      38.407  32.749  38.139  1.00  0.00    -0.206 F 
ATOM     86  C   UNL A   1      38.974  34.821  39.088  1.00  0.00     0.059 A 
ATOM     87  C   UNL A   1      40.473  36.321  37.905  1.00  0.00     0.059 A 
ATOM     88  F   UNL A   1      41.327  35.699  35.811  1.00  0.00    -0.206 F 
ATOM     89  C   UNL A   1      39.671  36.027  39.006  1.00  0.00     0.060 A 
BRANCH  89  90
ATOM     90  S   UNL A   1      39.549  37.197  40.378  1.00  0.00     0.124 S 
ATOM     91  O   UNL A   1      39.584  36.302  41.530  1.00  0.00    -0.237 OA
ATOM     92  O   UNL A   1      40.732  38.030  40.187  1.00  0.00    -0.237 OA
ATOM     93  O   UNL A   1      38.274  37.866  40.139  1.00  0.00    -0.744 OA
ENDBRANCH  89  90
ENDBRANCH  57  82
ENDBRANCH  31  32
ENDBRANCH  24  26
ENDBRANCH  23  24
ENDBRANCH   1  23
TORSDOF 15
ENDMDL
MODEL 3
REMARK VINA RESULT:     -11.7      4.112      6.262
REMARK SMILES CC1(C)S[C@H](c2ccc(Cl)cc2Cl)[NH2+][C@H]1C(=O)OCCOC(=O)c1ccc(-c2c3nc(c(-c4c(F)cc(S(=O)(=O)[O-])cc4F)c4ccc([nH]4)c(-c4c(F)cc(S(=O)(=O)[O-])cc4F)c4nc(c(-c5c(F)cc(S(=O)(=O)[O-])cc5F)c5ccc2[nH]5)C=C4)C=C3)cc1
REMARK SMILES IDX 20 1 19 2 18 3 16 4 17 5 15 6 1 7 2 8 3 9 4 10 5 11 14 12
REMARK SMILES IDX 6 15 7 16 12 17 8 18 11 19 13 20 9 21 10 22 21 23 22 24
REMARK SMILES IDX 23 25 24 26 25 27 89 28 26 29 88 30 27 31 28 32 29 33 82 34
REMARK SMILES IDX 30 35 87 36 81 37 83 38 31 39 86 40 80 41 79 42 32 44 66 45
REMARK SMILES IDX 45 46 65 47 46 48 49 49 64 50 84 51 47 52 48 53 63 55 85 56
REMARK SMILES IDX 50 57 33 58 34 59 43 60 35 61 36 62 42 63 44 64 37 65 38 66
REMARK SMILES IDX 39 67 40 68 41 69 67 70 68 71 77 72 69 73 70 74 76 75 78 76
REMARK SMILES IDX 71 77 72 78 73 79 74 80 75 81 51 82 52 83 61 84 53 85 54 86
REMARK SMILES IDX 60 87 62 88 55 89 56 90 57 91 58 92 59 93
REMARK H PARENT 14 13 14 14 83 43 49 54
REMARK Flexibility Score: inf
ROOT
ATOM      1  C   UNL A   1      33.493  32.136  27.768  1.00  0.00     0.275 C 
ENDROOT
BRANCH   1   2
ATOM      2  C   UNL A   1      33.686  33.648  27.928  1.00  0.00     0.274 C 
BRANCH   2   3
ATOM      3  O   UNL A   1      32.898  34.205  29.001  1.00  0.00    -0.458 OA
BRANCH   3   4
ATOM      4  C   UNL A   1      33.368  35.366  29.521  1.00  0.00     0.366 C 
ATOM      5  O   UNL A   1      33.337  36.436  28.918  1.00  0.00    -0.245 OA
BRANCH   4   6
ATOM      6  C   UNL A   1      34.026  35.232  30.906  1.00  0.00     0.310 C 
ATOM      7  C   UNL A   1      31.896  35.776  32.338  1.00  0.00     0.030 C 
ATOM      8  C   UNL A   1      33.409  35.901  32.153  1.00  0.00     0.079 C 
ATOM      9  C   UNL A   1      33.852  37.358  32.305  1.00  0.00     0.030 C 
ATOM     10  S   UNL A   1      34.183  34.935  33.528  1.00  0.00    -0.081 SA
ATOM     11  C   UNL A   1      35.041  33.734  32.428  1.00  0.00     0.276 C 
ATOM     12  N   UNL A   1      34.248  33.789  31.202  1.00  0.00    -0.319 N 
ATOM     13  H   UNL A   1      33.354  33.316  31.339  1.00  0.00     0.348 HD
ATOM     14  H   UNL A   1      34.728  33.324  30.431  1.00  0.00     0.348 HD
BRANCH  11  15
ATOM     15  C   UNL A   1      36.552  33.992  32.328  1.00  0.00     0.039 A 
ATOM     16  C   UNL A   1      37.233  34.328  33.528  1.00  0.00     0.014 A 
ATOM     17  C   UNL A   1      37.358  33.841  31.178  1.00  0.00     0.052 A 
ATOM     18  C   UNL A   1      38.608  34.579  33.564  1.00  0.00     0.021 A 
ATOM     19  C   UNL A   1      38.737  34.118  31.212  1.00  0.00     0.041 A 
ATOM     20  Cl  UNL A   1      36.788  33.251  29.655  1.00  0.00    -0.084 Cl
ATOM     21  C   UNL A   1      39.353  34.487  32.400  1.00  0.00     0.042 A 
ATOM     22  Cl  UNL A   1      41.044  34.790  32.440  1.00  0.00    -0.084 Cl
ENDBRANCH  11  15
ENDBRANCH   4   6
ENDBRANCH   3   4
ENDBRANCH   2   3
ENDBRANCH   1   2
BRANCH   1  23
ATOM     23  O   UNL A   1      34.267  31.384  28.719  1.00  0.00    -0.458 OA
BRANCH  23  24
ATOM     24  C   UNL A   1      34.648  30.154  28.302  1.00  0.00     0.338 C 
ATOM     25  O   UNL A   1      33.955  29.326  27.737  1.00  0.00    -0.246 OA
BRANCH  24  26
ATOM     26  C   UNL A   1      36.090  29.968  28.534  1.00  0.00     0.060 A 
ATOM     27  C   UNL A   1      36.967  30.107  27.455  1.00  0.00     0.016 A 
ATOM     28  C   UNL A   1      36.561  29.551  29.777  1.00  0.00     0.016 A 
ATOM     29  C   UNL A   1      38.321  29.825  27.608  1.00  0.00     0.010 A 
ATOM     30  C   UNL A   1      37.926  29.282  29.935  1.00  0.00     0.010 A 
ATOM     31  C   UNL A   1      38.812  29.407  28.850  1.00  0.00    -0.014 A 
BRANCH  31  32
ATOM     32  C   UNL A   1      40.247  29.073  29.004  1.00  0.00     0.031 A 
ATOM     33  C   UNL A   1      41.216  30.122  29.468  1.00  0.00     0.074 A 
ATOM     34  C   UNL A   1      40.677  27.826  28.729  1.00  0.00     0.049 A 
ATOM     35  N   UNL A   1      42.520  30.068  29.541  1.00  0.00    -0.248 NA
ATOM     36  C   UNL A   1      40.639  31.403  29.907  1.00  0.00     0.031 C 
ATOM     37  C   UNL A   1      39.823  26.710  28.321  1.00  0.00     0.029 A 
ATOM     38  N   UNL A   1      41.941  27.294  28.742  1.00  0.00    -0.354 N 
ATOM     39  C   UNL A   1      42.926  31.312  30.007  1.00  0.00     0.074 A 
ATOM     40  C   UNL A   1      41.727  32.103  30.195  1.00  0.00     0.031 C 
ATOM     41  C   UNL A   1      40.589  25.627  28.112  1.00  0.00     0.029 A 
ATOM     42  C   UNL A   1      41.989  25.986  28.324  1.00  0.00     0.049 A 
ATOM     43  H   UNL A   1      42.737  27.801  29.023  1.00  0.00     0.167 HD
ATOM     44  C   UNL A   1      44.183  31.752  30.251  1.00  0.00     0.037 A 
ATOM     45  C   UNL A   1      43.043  25.179  28.103  1.00  0.00     0.037 A 
ATOM     46  C   UNL A   1      45.368  30.953  30.077  1.00  0.00     0.049 A 
ATOM     47  C   UNL A   1      44.433  25.706  28.331  1.00  0.00     0.074 A 
ATOM     48  C   UNL A   1      46.687  31.306  30.303  1.00  0.00     0.029 A 
ATOM     49  N   UNL A   1      45.378  29.638  29.635  1.00  0.00    -0.354 N 
ATOM     50  N   UNL A   1      44.806  26.893  28.747  1.00  0.00    -0.248 NA
ATOM     51  C   UNL A   1      45.547  24.789  28.052  1.00  0.00     0.031 C 
ATOM     52  C   UNL A   1      47.496  30.213  29.968  1.00  0.00     0.029 A 
ATOM     53  C   UNL A   1      46.679  29.169  29.568  1.00  0.00     0.049 A 
ATOM     54  H   UNL A   1      44.576  29.114  29.403  1.00  0.00     0.167 HD
ATOM     55  C   UNL A   1      46.195  26.861  28.792  1.00  0.00     0.074 A 
ATOM     56  C   UNL A   1      46.596  25.534  28.372  1.00  0.00     0.031 C 
ATOM     57  C   UNL A   1      47.059  27.843  29.149  1.00  0.00     0.037 A 
BRANCH  44  58
ATOM     58  C   UNL A   1      44.343  33.175  30.702  1.00  0.00     0.058 A 
ATOM     59  C   UNL A   1      44.428  33.515  32.060  1.00  0.00     0.135 A 
ATOM     60  C   UNL A   1      44.435  34.211  29.759  1.00  0.00     0.135 A 
ATOM     61  F   UNL A   1      44.327  32.564  33.003  1.00  0.00    -0.206 F 
ATOM     62  C   UNL A   1      44.575  34.837  32.470  1.00  0.00     0.059 A 
ATOM     63  C   UNL A   1      44.603  35.538  30.145  1.00  0.00     0.059 A 
ATOM     64  F   UNL A   1      44.357  33.939  28.446  1.00  0.00    -0.206 F 
ATOM     65  C   UNL A   1      44.657  35.843  31.504  1.00  0.00     0.060 A 
BRANCH  65  66
ATOM     66  S   UNL A   1      44.841  37.554  32.047  1.00  0.00     0.124 S 
ATOM     67  O   UNL A   1      43.641  37.731  32.860  1.00  0.00    -0.237 OA
ATOM     68  O   UNL A   1      46.102  37.521  32.779  1.00  0.00    -0.237 OA
ATOM     69  O   UNL A   1      44.866  38.306  30.795  1.00  0.00    -0.744 OA
ENDBRANCH  65  66
ENDBRANCH  44  58
BRANCH  45  70
ATOM     70  C   UNL A   1      42.823  23.798  27.602  1.00  0.00     0.058 A 
ATOM     71  C   UNL A   1      42.675  22.723  28.490  1.00  0.00     0.135 A 
ATOM     72  C   UNL A   1      42.736  23.531  26.227  1.00  0.00     0.135 A 
ATOM     73  F   UNL A   1      42.761  22.929  29.813  1.00  0.00    -0.206 F 
ATOM     74  C   UNL A   1      42.454  21.428  28.032  1.00  0.00     0.059 A 
ATOM     75  C   UNL A   1      42.494  22.249  25.746  1.00  0.00     0.059 A 
ATOM     76  F   UNL A   1      42.861  24.530  25.339  1.00  0.00    -0.206 F 
ATOM     77  C   UNL A   1      42.364  21.201  26.657  1.00  0.00     0.060 A 
BRANCH  77  78
ATOM     78  S   UNL A   1      42.020  19.528  26.069  1.00  0.00     0.124 S 
ATOM     79  O   UNL A   1      42.449  18.725  27.209  1.00  0.00    -0.237 OA
ATOM     80  O   UNL A   1      40.582  19.573  25.826  1.00  0.00    -0.237 OA
ATOM     81  O   UNL A   1      42.846  19.419  24.871  1.00  0.00    -0.744 OA
ENDBRANCH  77  78
ENDBRANCH  45  70
BRANCH  57  82
ATOM     82  C   UNL A   1      48.523  27.511  29.123  1.00  0.00     0.058 A 
ATOM     83  C   UNL A   1      49.310  27.757  27.988  1.00  0.00     0.135 A 
ATOM     84  C   UNL A   1      49.154  26.989  30.263  1.00  0.00     0.135 A 
ATOM     85  F   UNL A   1      48.751  28.248  26.871  1.00  0.00    -0.206 F 
ATOM     86  C   UNL A   1      50.674  27.481  27.978  1.00  0.00     0.059 A 
ATOM     87  C   UNL A   1      50.520  26.724  30.281  1.00  0.00     0.059 A 
ATOM     88  F   UNL A   1      48.446  26.746  31.376  1.00  0.00    -0.206 F 
ATOM     89  C   UNL A   1      51.270  26.965  29.130  1.00  0.00     0.060 A 
BRANCH  89  90
ATOM     90  S   UNL A   1      53.048  26.645  29.122  1.00  0.00     0.124 S 
ATOM     91  O   UNL A   1      53.225  25.942  30.388  1.00  0.00    -0.237 OA
ATOM     92  O   UNL A   1      53.217  25.836  27.919  1.00  0.00    -0.237 OA
ATOM     93  O   UNL A   1      53.631  27.982  29.057  1.00  0.00    -0.744 OA
ENDBRANCH  89  90
ENDBRANCH  57  82
ENDBRANCH  31  32
ENDBRANCH  24  26
ENDBRANCH  23  24
ENDBRANCH   1  23
TORSDOF 15
ENDMDL
