MODEL 1
REMARK VINA RESULT:     -11.6      0.000      0.000
REMARK SMILES CC(C)(CC(=O)OCCOC(=O)c1ccc(-c2c3nc(c(-c4c(F)cc(S(=O)(=O)[O-])cc4F)c4ccc([nH]4)c(-c4c(F)cc(S(=O)(=O)[O-])cc4F)c4nc(c(-c5c(F)cc(S(=O)(=O)[O-])cc5F)c5ccc2[nH]5)C=C4)C=C3)cc1)Cc1nc([C@@]2(C)CCCO2)no1
REMARK SMILES IDX 8 1 7 2 5 3 6 4 4 5 2 6 1 7 3 8 79 9 80 10 81 11 90 12 82 13
REMARK SMILES IDX 89 14 83 15 84 16 85 17 88 18 86 19 87 20 9 21 10 22 11 23
REMARK SMILES IDX 12 24 13 25 14 26 78 27 15 28 77 29 16 30 17 31 18 32 71 33
REMARK SMILES IDX 19 34 76 35 70 36 72 37 20 38 75 39 69 40 68 41 21 43 55 44
REMARK SMILES IDX 34 45 54 46 35 47 38 48 53 49 73 50 36 51 37 52 52 54 74 55
REMARK SMILES IDX 39 56 22 57 23 58 32 59 24 60 25 61 31 62 33 63 26 64 27 65
REMARK SMILES IDX 28 66 29 67 30 68 56 69 57 70 66 71 58 72 59 73 65 74 67 75
REMARK SMILES IDX 60 76 61 77 62 78 63 79 64 80 40 81 41 82 50 83 42 84 43 85
REMARK SMILES IDX 49 86 51 87 44 88 45 89 46 90 47 91 48 92
REMARK H PARENT 72 42 38 53
REMARK Flexibility Score: inf
ROOT
ATOM      1  C   UNL A   1      33.207  30.619  27.234  1.00  0.00     0.274 C 
ENDROOT
BRANCH   1   2
ATOM      2  O   UNL A   1      32.831  29.237  27.426  1.00  0.00    -0.462 OA
BRANCH   2   3
ATOM      3  C   UNL A   1      32.482  28.567  26.304  1.00  0.00     0.306 C 
ATOM      4  O   UNL A   1      32.580  29.033  25.170  1.00  0.00    -0.252 OA
BRANCH   3   5
ATOM      5  C   UNL A   1      32.030  27.131  26.512  1.00  0.00     0.129 C 
BRANCH   5   6
ATOM      6  C   UNL A   1      32.334  25.932  25.563  1.00  0.00    -0.016 C 
ATOM      7  C   UNL A   1      33.795  25.942  25.099  1.00  0.00     0.012 C 
ATOM      8  C   UNL A   1      32.173  24.682  26.493  1.00  0.00     0.012 C 
BRANCH   6   9
ATOM      9  C   UNL A   1      31.308  25.677  24.406  1.00  0.00     0.107 C 
BRANCH   9  10
ATOM     10  C   UNL A   1      30.714  26.807  23.626  1.00  0.00     0.227 A 
ATOM     11  N   UNL A   1      29.550  27.398  23.804  1.00  0.00    -0.193 NA
ATOM     12  O   UNL A   1      31.335  27.212  22.481  1.00  0.00    -0.339 OA
ATOM     13  C   UNL A   1      29.497  28.300  22.767  1.00  0.00     0.203 A 
ATOM     14  N   UNL A   1      30.542  28.222  21.926  1.00  0.00    -0.059 NA
BRANCH  13  15
ATOM     15  C   UNL A   1      28.411  29.349  22.652  1.00  0.00     0.128 C 
ATOM     16  C   UNL A   1      27.045  28.801  23.104  1.00  0.00     0.051 C 
ATOM     17  C   UNL A   1      28.753  30.614  23.456  1.00  0.00     0.046 C 
ATOM     18  O   UNL A   1      28.227  29.813  21.288  1.00  0.00    -0.367 OA
ATOM     19  C   UNL A   1      28.022  31.705  22.718  1.00  0.00     0.032 C 
ATOM     20  C   UNL A   1      28.118  31.241  21.282  1.00  0.00     0.161 C 
ENDBRANCH  13  15
ENDBRANCH   9  10
ENDBRANCH   6   9
ENDBRANCH   5   6
ENDBRANCH   3   5
ENDBRANCH   2   3
ENDBRANCH   1   2
BRANCH   1  21
ATOM     21  C   UNL A   1      34.674  30.853  27.631  1.00  0.00     0.275 C 
BRANCH  21  22
ATOM     22  O   UNL A   1      35.335  29.734  28.265  1.00  0.00    -0.458 OA
BRANCH  22  23
ATOM     23  C   UNL A   1      36.225  30.079  29.210  1.00  0.00     0.338 C 
ATOM     24  O   UNL A   1      36.010  30.749  30.210  1.00  0.00    -0.246 OA
BRANCH  23  25
ATOM     25  C   UNL A   1      37.580  29.603  29.035  1.00  0.00     0.060 A 
ATOM     26  C   UNL A   1      38.374  29.529  30.187  1.00  0.00     0.016 A 
ATOM     27  C   UNL A   1      38.137  29.574  27.758  1.00  0.00     0.016 A 
ATOM     28  C   UNL A   1      39.748  29.406  30.059  1.00  0.00     0.010 A 
ATOM     29  C   UNL A   1      39.514  29.445  27.632  1.00  0.00     0.010 A 
ATOM     30  C   UNL A   1      40.317  29.349  28.780  1.00  0.00    -0.014 A 
BRANCH  30  31
ATOM     31  C   UNL A   1      41.733  28.980  28.617  1.00  0.00     0.031 A 
ATOM     32  C   UNL A   1      42.817  30.007  28.620  1.00  0.00     0.074 A 
ATOM     33  C   UNL A   1      41.975  27.685  28.354  1.00  0.00     0.049 A 
ATOM     34  N   UNL A   1      44.079  29.857  28.319  1.00  0.00    -0.248 NA
ATOM     35  C   UNL A   1      42.442  31.378  28.998  1.00  0.00     0.031 C 
ATOM     36  C   UNL A   1      40.952  26.633  28.319  1.00  0.00     0.029 A 
ATOM     37  N   UNL A   1      43.132  27.037  28.027  1.00  0.00    -0.354 N 
ATOM     38  C   UNL A   1      44.653  31.113  28.455  1.00  0.00     0.074 A 
ATOM     39  C   UNL A   1      43.598  32.018  28.864  1.00  0.00     0.031 C 
ATOM     40  C   UNL A   1      41.523  25.477  27.959  1.00  0.00     0.029 A 
ATOM     41  C   UNL A   1      42.937  25.718  27.704  1.00  0.00     0.049 A 
ATOM     42  H   UNL A   1      44.016  27.472  28.023  1.00  0.00     0.167 HD
ATOM     43  C   UNL A   1      45.945  31.462  28.247  1.00  0.00     0.037 A 
ATOM     44  C   UNL A   1      43.798  24.810  27.217  1.00  0.00     0.037 A 
ATOM     45  C   UNL A   1      46.966  30.533  27.833  1.00  0.00     0.049 A 
ATOM     46  C   UNL A   1      45.217  25.223  26.993  1.00  0.00     0.074 A 
ATOM     47  C   UNL A   1      48.312  30.768  27.617  1.00  0.00     0.029 A 
ATOM     48  N   UNL A   1      46.747  29.187  27.567  1.00  0.00    -0.354 N 
ATOM     49  N   UNL A   1      45.756  26.408  27.150  1.00  0.00    -0.248 NA
ATOM     50  C   UNL A   1      46.147  24.185  26.538  1.00  0.00     0.031 C 
ATOM     51  C   UNL A   1      48.903  29.569  27.198  1.00  0.00     0.029 A 
ATOM     52  C   UNL A   1      47.931  28.580  27.181  1.00  0.00     0.049 A 
ATOM     53  H   UNL A   1      45.878  28.731  27.643  1.00  0.00     0.167 HD
ATOM     54  C   UNL A   1      47.096  26.258  26.830  1.00  0.00     0.074 A 
ATOM     55  C   UNL A   1      47.284  24.865  26.471  1.00  0.00     0.031 C 
ATOM     56  C   UNL A   1      48.081  27.188  26.837  1.00  0.00     0.037 A 
BRANCH  43  57
ATOM     57  C   UNL A   1      46.326  32.902  28.448  1.00  0.00     0.058 A 
ATOM     58  C   UNL A   1      46.787  33.373  29.686  1.00  0.00     0.135 A 
ATOM     59  C   UNL A   1      46.283  33.809  27.376  1.00  0.00     0.135 A 
ATOM     60  F   UNL A   1      46.837  32.551  30.746  1.00  0.00    -0.206 F 
ATOM     61  C   UNL A   1      47.178  34.698  29.861  1.00  0.00     0.059 A 
ATOM     62  C   UNL A   1      46.685  35.134  27.524  1.00  0.00     0.059 A 
ATOM     63  F   UNL A   1      45.851  33.409  26.171  1.00  0.00    -0.206 F 
ATOM     64  C   UNL A   1      47.121  35.573  28.774  1.00  0.00     0.060 A 
BRANCH  64  65
ATOM     65  S   UNL A   1      47.642  37.287  29.006  1.00  0.00     0.124 S 
ATOM     66  O   UNL A   1      48.971  37.270  28.404  1.00  0.00    -0.237 OA
ATOM     67  O   UNL A   1      46.624  38.030  28.270  1.00  0.00    -0.237 OA
ATOM     68  O   UNL A   1      47.609  37.456  30.455  1.00  0.00    -0.744 OA
ENDBRANCH  64  65
ENDBRANCH  43  57
BRANCH  44  69
ATOM     69  C   UNL A   1      43.309  23.442  26.927  1.00  0.00     0.058 A 
ATOM     70  C   UNL A   1      43.174  22.997  25.606  1.00  0.00     0.135 A 
ATOM     71  C   UNL A   1      43.084  22.520  27.962  1.00  0.00     0.135 A 
ATOM     72  F   UNL A   1      43.393  23.845  24.588  1.00  0.00    -0.206 F 
ATOM     73  C   UNL A   1      42.836  21.681  25.317  1.00  0.00     0.059 A 
ATOM     74  C   UNL A   1      42.761  21.194  27.696  1.00  0.00     0.059 A 
ATOM     75  F   UNL A   1      43.236  22.896  29.242  1.00  0.00    -0.206 F 
ATOM     76  C   UNL A   1      42.637  20.785  26.369  1.00  0.00     0.060 A 
BRANCH  76  77
ATOM     77  S   UNL A   1      42.291  19.055  25.986  1.00  0.00     0.124 S 
ATOM     78  O   UNL A   1      40.849  19.086  25.770  1.00  0.00    -0.237 OA
ATOM     79  O   UNL A   1      43.110  18.827  24.800  1.00  0.00    -0.237 OA
ATOM     80  O   UNL A   1      42.737  18.353  27.187  1.00  0.00    -0.744 OA
ENDBRANCH  76  77
ENDBRANCH  44  69
BRANCH  56  81
ATOM     81  C   UNL A   1      49.454  26.714  26.472  1.00  0.00     0.058 A 
ATOM     82  C   UNL A   1      50.251  26.015  27.390  1.00  0.00     0.135 A 
ATOM     83  C   UNL A   1      49.951  26.914  25.176  1.00  0.00     0.135 A 
ATOM     84  F   UNL A   1      49.817  25.811  28.644  1.00  0.00    -0.206 F 
ATOM     85  C   UNL A   1      51.505  25.533  27.034  1.00  0.00     0.059 A 
ATOM     86  C   UNL A   1      51.196  26.429  24.794  1.00  0.00     0.059 A 
ATOM     87  F   UNL A   1      49.219  27.578  24.266  1.00  0.00    -0.206 F 
ATOM     88  C   UNL A   1      51.968  25.744  25.734  1.00  0.00     0.060 A 
BRANCH  88  89
ATOM     89  S   UNL A   1      53.575  25.073  25.263  1.00  0.00     0.124 S 
ATOM     90  O   UNL A   1      53.336  23.639  25.367  1.00  0.00    -0.237 OA
ATOM     91  O   UNL A   1      53.749  25.591  23.909  1.00  0.00    -0.237 OA
ATOM     92  O   UNL A   1      54.481  25.636  26.261  1.00  0.00    -0.744 OA
ENDBRANCH  88  89
ENDBRANCH  56  81
ENDBRANCH  30  31
ENDBRANCH  23  25
ENDBRANCH  22  23
ENDBRANCH  21  22
ENDBRANCH   1  21
TORSDOF 18
ENDMDL
MODEL 2
REMARK VINA RESULT:     -11.2      7.288     12.587
REMARK SMILES CC(C)(CC(=O)OCCOC(=O)c1ccc(-c2c3nc(c(-c4c(F)cc(S(=O)(=O)[O-])cc4F)c4ccc([nH]4)c(-c4c(F)cc(S(=O)(=O)[O-])cc4F)c4nc(c(-c5c(F)cc(S(=O)(=O)[O-])cc5F)c5ccc2[nH]5)C=C4)C=C3)cc1)Cc1nc([C@@]2(C)CCCO2)no1
REMARK SMILES IDX 8 1 7 2 5 3 6 4 4 5 2 6 1 7 3 8 79 9 80 10 81 11 90 12 82 13
REMARK SMILES IDX 89 14 83 15 84 16 85 17 88 18 86 19 87 20 9 21 10 22 11 23
REMARK SMILES IDX 12 24 13 25 14 26 78 27 15 28 77 29 16 30 17 31 18 32 71 33
REMARK SMILES IDX 19 34 76 35 70 36 72 37 20 38 75 39 69 40 68 41 21 43 55 44
REMARK SMILES IDX 34 45 54 46 35 47 38 48 53 49 73 50 36 51 37 52 52 54 74 55
REMARK SMILES IDX 39 56 22 57 23 58 32 59 24 60 25 61 31 62 33 63 26 64 27 65
REMARK SMILES IDX 28 66 29 67 30 68 56 69 57 70 66 71 58 72 59 73 65 74 67 75
REMARK SMILES IDX 60 76 61 77 62 78 63 79 64 80 40 81 41 82 50 83 42 84 43 85
REMARK SMILES IDX 49 86 51 87 44 88 45 89 46 90 47 91 48 92
REMARK H PARENT 72 42 38 53
REMARK Flexibility Score: inf
ROOT
ATOM      1  C   UNL A   1      38.946  21.650  25.943  1.00  0.00     0.274 C 
ENDROOT
BRANCH   1   2
ATOM      2  O   UNL A   1      38.126  22.355  24.985  1.00  0.00    -0.462 OA
BRANCH   2   3
ATOM      3  C   UNL A   1      36.791  22.217  25.147  1.00  0.00     0.306 C 
ATOM      4  O   UNL A   1      36.269  21.298  25.776  1.00  0.00    -0.252 OA
BRANCH   3   5
ATOM      5  C   UNL A   1      35.941  23.336  24.569  1.00  0.00     0.129 C 
BRANCH   5   6
ATOM      6  C   UNL A   1      34.523  23.753  25.064  1.00  0.00    -0.016 C 
ATOM      7  C   UNL A   1      34.422  23.692  26.591  1.00  0.00     0.012 C 
ATOM      8  C   UNL A   1      34.433  25.269  24.675  1.00  0.00     0.012 C 
BRANCH   6   9
ATOM      9  C   UNL A   1      33.304  23.101  24.325  1.00  0.00     0.107 C 
BRANCH   9  10
ATOM     10  C   UNL A   1      32.977  21.652  24.489  1.00  0.00     0.227 A 
ATOM     11  N   UNL A   1      33.513  20.618  23.873  1.00  0.00    -0.193 NA
ATOM     12  O   UNL A   1      31.890  21.305  25.237  1.00  0.00    -0.339 OA
ATOM     13  C   UNL A   1      32.784  19.555  24.351  1.00  0.00     0.203 A 
ATOM     14  N   UNL A   1      31.779  19.912  25.169  1.00  0.00    -0.059 NA
BRANCH  13  15
ATOM     15  C   UNL A   1      33.153  18.115  24.062  1.00  0.00     0.128 C 
ATOM     16  C   UNL A   1      32.745  17.703  22.637  1.00  0.00     0.051 C 
ATOM     17  C   UNL A   1      34.656  17.860  24.266  1.00  0.00     0.046 C 
ATOM     18  O   UNL A   1      32.491  17.181  24.957  1.00  0.00    -0.367 OA
ATOM     19  C   UNL A   1      34.715  16.398  24.625  1.00  0.00     0.032 C 
ATOM     20  C   UNL A   1      33.438  16.209  25.414  1.00  0.00     0.161 C 
ENDBRANCH  13  15
ENDBRANCH   9  10
ENDBRANCH   6   9
ENDBRANCH   5   6
ENDBRANCH   3   5
ENDBRANCH   2   3
ENDBRANCH   1   2
BRANCH   1  21
ATOM     21  C   UNL A   1      39.749  22.631  26.813  1.00  0.00     0.275 C 
BRANCH  21  22
ATOM     22  O   UNL A   1      39.534  24.034  26.532  1.00  0.00    -0.458 OA
BRANCH  22  23
ATOM     23  C   UNL A   1      40.632  24.797  26.649  1.00  0.00     0.338 C 
ATOM     24  O   UNL A   1      41.684  24.666  26.040  1.00  0.00    -0.246 OA
BRANCH  23  25
ATOM     25  C   UNL A   1      40.566  25.897  27.588  1.00  0.00     0.060 A 
ATOM     26  C   UNL A   1      41.701  26.713  27.680  1.00  0.00     0.016 A 
ATOM     27  C   UNL A   1      39.578  25.901  28.569  1.00  0.00     0.016 A 
ATOM     28  C   UNL A   1      41.841  27.562  28.767  1.00  0.00     0.010 A 
ATOM     29  C   UNL A   1      39.716  26.757  29.654  1.00  0.00     0.010 A 
ATOM     30  C   UNL A   1      40.840  27.594  29.747  1.00  0.00    -0.014 A 
BRANCH  30  31
ATOM     31  C   UNL A   1      40.847  28.649  30.774  1.00  0.00     0.031 A 
ATOM     32  C   UNL A   1      41.710  28.556  31.989  1.00  0.00     0.074 A 
ATOM     33  C   UNL A   1      39.950  29.636  30.607  1.00  0.00     0.049 A 
ATOM     34  N   UNL A   1      41.699  29.312  33.054  1.00  0.00    -0.248 NA
ATOM     35  C   UNL A   1      42.708  27.475  32.022  1.00  0.00     0.031 C 
ATOM     36  C   UNL A   1      39.062  29.772  29.447  1.00  0.00     0.029 A 
ATOM     37  N   UNL A   1      39.604  30.680  31.418  1.00  0.00    -0.354 N 
ATOM     38  C   UNL A   1      42.674  28.796  33.895  1.00  0.00     0.074 A 
ATOM     39  C   UNL A   1      43.258  27.657  33.218  1.00  0.00     0.031 C 
ATOM     40  C   UNL A   1      38.251  30.821  29.635  1.00  0.00     0.029 A 
ATOM     41  C   UNL A   1      38.540  31.402  30.939  1.00  0.00     0.049 A 
ATOM     42  H   UNL A   1      40.070  30.892  32.259  1.00  0.00     0.167 HD
ATOM     43  C   UNL A   1      43.032  29.243  35.123  1.00  0.00     0.037 A 
ATOM     44  C   UNL A   1      37.846  32.400  31.509  1.00  0.00     0.037 A 
ATOM     45  C   UNL A   1      42.422  30.378  35.769  1.00  0.00     0.049 A 
ATOM     46  C   UNL A   1      38.260  32.871  32.866  1.00  0.00     0.074 A 
ATOM     47  C   UNL A   1      42.720  30.936  36.998  1.00  0.00     0.029 A 
ATOM     48  N   UNL A   1      41.380  31.126  35.232  1.00  0.00    -0.354 N 
ATOM     49  N   UNL A   1      39.202  32.393  33.643  1.00  0.00    -0.248 NA
ATOM     50  C   UNL A   1      37.532  34.016  33.422  1.00  0.00     0.031 C 
ATOM     51  C   UNL A   1      41.844  32.007  37.215  1.00  0.00     0.029 A 
ATOM     52  C   UNL A   1      41.019  32.135  36.108  1.00  0.00     0.049 A 
ATOM     53  H   UNL A   1      40.962  30.962  34.356  1.00  0.00     0.167 HD
ATOM     54  C   UNL A   1      39.195  33.188  34.777  1.00  0.00     0.074 A 
ATOM     55  C   UNL A   1      38.154  34.180  34.583  1.00  0.00     0.031 C 
ATOM     56  C   UNL A   1      39.981  33.108  35.878  1.00  0.00     0.037 A 
BRANCH  43  57
ATOM     57  C   UNL A   1      44.116  28.502  35.853  1.00  0.00     0.058 A 
ATOM     58  C   UNL A   1      43.826  27.419  36.697  1.00  0.00     0.135 A 
ATOM     59  C   UNL A   1      45.466  28.842  35.665  1.00  0.00     0.135 A 
ATOM     60  F   UNL A   1      42.552  27.061  36.921  1.00  0.00    -0.206 F 
ATOM     61  C   UNL A   1      44.834  26.708  37.341  1.00  0.00     0.059 A 
ATOM     62  C   UNL A   1      46.492  28.133  36.286  1.00  0.00     0.059 A 
ATOM     63  F   UNL A   1      45.799  29.868  34.867  1.00  0.00    -0.206 F 
ATOM     64  C   UNL A   1      46.165  27.074  37.132  1.00  0.00     0.060 A 
BRANCH  64  65
ATOM     65  S   UNL A   1      47.468  26.138  37.962  1.00  0.00     0.124 S 
ATOM     66  O   UNL A   1      48.198  25.585  36.825  1.00  0.00    -0.237 OA
ATOM     67  O   UNL A   1      48.167  27.171  38.720  1.00  0.00    -0.237 OA
ATOM     68  O   UNL A   1      46.728  25.169  38.765  1.00  0.00    -0.744 OA
ENDBRANCH  64  65
ENDBRANCH  43  57
BRANCH  44  69
ATOM     69  C   UNL A   1      36.708  32.994  30.770  1.00  0.00     0.058 A 
ATOM     70  C   UNL A   1      35.390  32.757  31.181  1.00  0.00     0.135 A 
ATOM     71  C   UNL A   1      36.921  33.901  29.720  1.00  0.00     0.135 A 
ATOM     72  F   UNL A   1      35.145  31.907  32.190  1.00  0.00    -0.206 F 
ATOM     73  C   UNL A   1      34.317  33.403  30.577  1.00  0.00     0.059 A 
ATOM     74  C   UNL A   1      35.865  34.571  29.112  1.00  0.00     0.059 A 
ATOM     75  F   UNL A   1      38.171  34.182  29.318  1.00  0.00    -0.206 F 
ATOM     76  C   UNL A   1      34.566  34.312  29.547  1.00  0.00     0.060 A 
BRANCH  76  77
ATOM     77  S   UNL A   1      33.177  35.219  28.832  1.00  0.00     0.124 S 
ATOM     78  O   UNL A   1      32.414  35.571  30.024  1.00  0.00    -0.237 OA
ATOM     79  O   UNL A   1      33.843  36.324  28.149  1.00  0.00    -0.237 OA
ATOM     80  O   UNL A   1      32.556  34.234  27.950  1.00  0.00    -0.744 OA
ENDBRANCH  76  77
ENDBRANCH  44  69
BRANCH  56  81
ATOM     81  C   UNL A   1      39.758  34.142  36.938  1.00  0.00     0.058 A 
ATOM     82  C   UNL A   1      38.989  33.863  38.077  1.00  0.00     0.135 A 
ATOM     83  C   UNL A   1      40.365  35.402  36.837  1.00  0.00     0.135 A 
ATOM     84  F   UNL A   1      38.382  32.673  38.208  1.00  0.00    -0.206 F 
ATOM     85  C   UNL A   1      38.824  34.808  39.083  1.00  0.00     0.059 A 
ATOM     86  C   UNL A   1      40.225  36.357  37.837  1.00  0.00     0.059 A 
ATOM     87  F   UNL A   1      41.111  35.709  35.762  1.00  0.00    -0.206 F 
ATOM     88  C   UNL A   1      39.446  36.051  38.954  1.00  0.00     0.060 A 
BRANCH  88  89
ATOM     89  S   UNL A   1      39.269  37.255  40.286  1.00  0.00     0.124 S 
ATOM     90  O   UNL A   1      40.662  37.547  40.605  1.00  0.00    -0.237 OA
ATOM     91  O   UNL A   1      38.527  38.334  39.640  1.00  0.00    -0.237 OA
ATOM     92  O   UNL A   1      38.529  36.520  41.308  1.00  0.00    -0.744 OA
ENDBRANCH  88  89
ENDBRANCH  56  81
ENDBRANCH  30  31
ENDBRANCH  23  25
ENDBRANCH  22  23
ENDBRANCH  21  22
ENDBRANCH   1  21
TORSDOF 18
ENDMDL
MODEL 3
REMARK VINA RESULT:     -11.0      6.879     12.098
REMARK SMILES CC(C)(CC(=O)OCCOC(=O)c1ccc(-c2c3nc(c(-c4c(F)cc(S(=O)(=O)[O-])cc4F)c4ccc([nH]4)c(-c4c(F)cc(S(=O)(=O)[O-])cc4F)c4nc(c(-c5c(F)cc(S(=O)(=O)[O-])cc5F)c5ccc2[nH]5)C=C4)C=C3)cc1)Cc1nc([C@@]2(C)CCCO2)no1
REMARK SMILES IDX 8 1 7 2 5 3 6 4 4 5 2 6 1 7 3 8 79 9 80 10 81 11 90 12 82 13
REMARK SMILES IDX 89 14 83 15 84 16 85 17 88 18 86 19 87 20 9 21 10 22 11 23
REMARK SMILES IDX 12 24 13 25 14 26 78 27 15 28 77 29 16 30 17 31 18 32 71 33
REMARK SMILES IDX 19 34 76 35 70 36 72 37 20 38 75 39 69 40 68 41 21 43 55 44
REMARK SMILES IDX 34 45 54 46 35 47 38 48 53 49 73 50 36 51 37 52 52 54 74 55
REMARK SMILES IDX 39 56 22 57 23 58 32 59 24 60 25 61 31 62 33 63 26 64 27 65
REMARK SMILES IDX 28 66 29 67 30 68 56 69 57 70 66 71 58 72 59 73 65 74 67 75
REMARK SMILES IDX 60 76 61 77 62 78 63 79 64 80 40 81 41 82 50 83 42 84 43 85
REMARK SMILES IDX 49 86 51 87 44 88 45 89 46 90 47 91 48 92
REMARK H PARENT 72 42 38 53
REMARK Flexibility Score: inf
ROOT
ATOM      1  C   UNL A   1      37.669  22.388  25.357  1.00  0.00     0.274 C 
ENDROOT
BRANCH   1   2
ATOM      2  O   UNL A   1      36.406  22.998  25.705  1.00  0.00    -0.462 OA
BRANCH   2   3
ATOM      3  C   UNL A   1      35.364  22.146  25.835  1.00  0.00     0.306 C 
ATOM      4  O   UNL A   1      35.059  21.590  26.890  1.00  0.00    -0.252 OA
BRANCH   3   5
ATOM      5  C   UNL A   1      34.504  21.968  24.594  1.00  0.00     0.129 C 
BRANCH   5   6
ATOM      6  C   UNL A   1      32.951  22.093  24.535  1.00  0.00    -0.016 C 
ATOM      7  C   UNL A   1      32.491  22.723  23.216  1.00  0.00     0.012 C 
ATOM      8  C   UNL A   1      32.468  20.603  24.506  1.00  0.00     0.012 C 
BRANCH   6   9
ATOM      9  C   UNL A   1      32.248  22.694  25.800  1.00  0.00     0.107 C 
BRANCH   9  10
ATOM     10  C   UNL A   1      32.133  24.171  26.000  1.00  0.00     0.227 A 
ATOM     11  N   UNL A   1      33.002  25.108  25.681  1.00  0.00    -0.193 NA
ATOM     12  O   UNL A   1      31.096  24.654  26.744  1.00  0.00    -0.339 OA
ATOM     13  C   UNL A   1      32.414  26.255  26.160  1.00  0.00     0.203 A 
ATOM     14  N   UNL A   1      31.267  26.040  26.825  1.00  0.00    -0.059 NA
BRANCH  13  15
ATOM     15  C   UNL A   1      32.962  27.637  25.868  1.00  0.00     0.128 C 
ATOM     16  C   UNL A   1      33.485  27.744  24.425  1.00  0.00     0.051 C 
ATOM     17  C   UNL A   1      31.912  28.732  26.122  1.00  0.00     0.046 C 
ATOM     18  O   UNL A   1      34.080  27.985  26.728  1.00  0.00    -0.367 OA
ATOM     19  C   UNL A   1      32.745  29.940  26.467  1.00  0.00     0.032 C 
ATOM     20  C   UNL A   1      33.911  29.325  27.208  1.00  0.00     0.161 C 
ENDBRANCH  13  15
ENDBRANCH   9  10
ENDBRANCH   6   9
ENDBRANCH   5   6
ENDBRANCH   3   5
ENDBRANCH   2   3
ENDBRANCH   1   2
BRANCH   1  21
ATOM     21  C   UNL A   1      38.771  22.790  26.351  1.00  0.00     0.275 C 
BRANCH  21  22
ATOM     22  O   UNL A   1      39.007  24.211  26.479  1.00  0.00    -0.458 OA
BRANCH  22  23
ATOM     23  C   UNL A   1      40.270  24.535  26.799  1.00  0.00     0.338 C 
ATOM     24  O   UNL A   1      41.291  24.113  26.274  1.00  0.00    -0.246 OA
BRANCH  23  25
ATOM     25  C   UNL A   1      40.447  25.492  27.871  1.00  0.00     0.060 A 
ATOM     26  C   UNL A   1      39.393  25.615  28.784  1.00  0.00     0.016 A 
ATOM     27  C   UNL A   1      41.444  26.460  27.767  1.00  0.00     0.016 A 
ATOM     28  C   UNL A   1      39.344  26.718  29.622  1.00  0.00     0.010 A 
ATOM     29  C   UNL A   1      41.397  27.561  28.611  1.00  0.00     0.010 A 
ATOM     30  C   UNL A   1      40.355  27.685  29.545  1.00  0.00    -0.014 A 
BRANCH  30  31
ATOM     31  C   UNL A   1      40.457  28.730  30.577  1.00  0.00     0.031 A 
ATOM     32  C   UNL A   1      41.371  28.589  31.748  1.00  0.00     0.074 A 
ATOM     33  C   UNL A   1      39.598  29.757  30.458  1.00  0.00     0.049 A 
ATOM     34  N   UNL A   1      41.443  29.336  32.817  1.00  0.00    -0.248 NA
ATOM     35  C   UNL A   1      42.320  27.465  31.729  1.00  0.00     0.031 C 
ATOM     36  C   UNL A   1      38.664  29.941  29.341  1.00  0.00     0.029 A 
ATOM     37  N   UNL A   1      39.337  30.808  31.290  1.00  0.00    -0.354 N 
ATOM     38  C   UNL A   1      42.433  28.771  33.609  1.00  0.00     0.074 A 
ATOM     39  C   UNL A   1      42.933  27.613  32.898  1.00  0.00     0.031 C 
ATOM     40  C   UNL A   1      37.910  31.023  29.574  1.00  0.00     0.029 A 
ATOM     41  C   UNL A   1      38.286  31.580  30.866  1.00  0.00     0.049 A 
ATOM     42  H   UNL A   1      39.851  30.993  32.109  1.00  0.00     0.167 HD
ATOM     43  C   UNL A   1      42.867  29.191  34.821  1.00  0.00     0.037 A 
ATOM     44  C   UNL A   1      37.664  32.604  31.474  1.00  0.00     0.037 A 
ATOM     45  C   UNL A   1      42.339  30.347  35.502  1.00  0.00     0.049 A 
ATOM     46  C   UNL A   1      38.161  33.046  32.813  1.00  0.00     0.074 A 
ATOM     47  C   UNL A   1      42.719  30.882  36.719  1.00  0.00     0.029 A 
ATOM     48  N   UNL A   1      41.308  31.145  35.019  1.00  0.00    -0.354 N 
ATOM     49  N   UNL A   1      39.116  32.519  33.542  1.00  0.00    -0.248 NA
ATOM     50  C   UNL A   1      37.511  34.216  33.409  1.00  0.00     0.031 C 
ATOM     51  C   UNL A   1      41.903  31.989  36.984  1.00  0.00     0.029 A 
ATOM     52  C   UNL A   1      41.033  32.161  35.917  1.00  0.00     0.049 A 
ATOM     53  H   UNL A   1      40.842  31.007  34.163  1.00  0.00     0.167 HD
ATOM     54  C   UNL A   1      39.197  33.306  34.680  1.00  0.00     0.074 A 
ATOM     55  C   UNL A   1      38.194  34.344  34.541  1.00  0.00     0.031 C 
ATOM     56  C   UNL A   1      40.030  33.182  35.742  1.00  0.00     0.037 A 
BRANCH  43  57
ATOM     57  C   UNL A   1      43.950  28.398  35.495  1.00  0.00     0.058 A 
ATOM     58  C   UNL A   1      45.307  28.713  35.322  1.00  0.00     0.135 A 
ATOM     59  C   UNL A   1      43.629  27.344  36.367  1.00  0.00     0.135 A 
ATOM     60  F   UNL A   1      45.670  29.702  34.491  1.00  0.00    -0.206 F 
ATOM     61  C   UNL A   1      46.308  28.002  35.978  1.00  0.00     0.059 A 
ATOM     62  C   UNL A   1      44.613  26.631  37.046  1.00  0.00     0.059 A 
ATOM     63  F   UNL A   1      42.346  27.003  36.568  1.00  0.00    -0.206 F 
ATOM     64  C   UNL A   1      45.951  26.960  36.837  1.00  0.00     0.060 A 
BRANCH  64  65
ATOM     65  S   UNL A   1      47.256  26.051  37.694  1.00  0.00     0.124 S 
ATOM     66  O   UNL A   1      48.433  26.847  37.357  1.00  0.00    -0.237 OA
ATOM     67  O   UNL A   1      46.826  26.118  39.087  1.00  0.00    -0.237 OA
ATOM     68  O   UNL A   1      47.199  24.725  37.088  1.00  0.00    -0.744 OA
ENDBRANCH  64  65
ENDBRANCH  43  57
BRANCH  44  69
ATOM     69  C   UNL A   1      36.520  33.253  30.793  1.00  0.00     0.058 A 
ATOM     70  C   UNL A   1      35.220  33.118  31.296  1.00  0.00     0.135 A 
ATOM     71  C   UNL A   1      36.721  34.115  29.703  1.00  0.00     0.135 A 
ATOM     72  F   UNL A   1      34.988  32.315  32.346  1.00  0.00    -0.206 F 
ATOM     73  C   UNL A   1      34.154  33.818  30.744  1.00  0.00     0.059 A 
ATOM     74  C   UNL A   1      35.673  34.838  29.145  1.00  0.00     0.059 A 
ATOM     75  F   UNL A   1      37.956  34.300  29.211  1.00  0.00    -0.206 F 
ATOM     76  C   UNL A   1      34.392  34.680  29.672  1.00  0.00     0.060 A 
BRANCH  76  77
ATOM     77  S   UNL A   1      33.021  35.659  29.021  1.00  0.00     0.124 S 
ATOM     78  O   UNL A   1      32.359  34.692  28.153  1.00  0.00    -0.237 OA
ATOM     79  O   UNL A   1      32.297  36.030  30.233  1.00  0.00    -0.237 OA
ATOM     80  O   UNL A   1      33.694  36.763  28.342  1.00  0.00    -0.744 OA
ENDBRANCH  76  77
ENDBRANCH  44  69
BRANCH  56  81
ATOM     81  C   UNL A   1      39.903  34.216  36.817  1.00  0.00     0.058 A 
ATOM     82  C   UNL A   1      40.595  35.433  36.741  1.00  0.00     0.135 A 
ATOM     83  C   UNL A   1      39.042  34.006  37.904  1.00  0.00     0.135 A 
ATOM     84  F   UNL A   1      41.438  35.670  35.724  1.00  0.00    -0.206 F 
ATOM     85  C   UNL A   1      40.439  36.412  37.716  1.00  0.00     0.059 A 
ATOM     86  C   UNL A   1      38.860  34.976  38.882  1.00  0.00     0.059 A 
ATOM     87  F   UNL A   1      38.361  32.853  38.013  1.00  0.00    -0.206 F 
ATOM     88  C   UNL A   1      39.569  36.174  38.782  1.00  0.00     0.060 A 
BRANCH  88  89
ATOM     89  S   UNL A   1      39.332  37.467  40.018  1.00  0.00     0.124 S 
ATOM     90  O   UNL A   1      38.865  36.696  41.164  1.00  0.00    -0.237 OA
ATOM     91  O   UNL A   1      40.672  38.036  40.139  1.00  0.00    -0.237 OA
ATOM     92  O   UNL A   1      38.341  38.345  39.402  1.00  0.00    -0.744 OA
ENDBRANCH  88  89
ENDBRANCH  56  81
ENDBRANCH  30  31
ENDBRANCH  23  25
ENDBRANCH  22  23
ENDBRANCH  21  22
ENDBRANCH   1  21
TORSDOF 18
ENDMDL
