MODEL 1
REMARK VINA RESULT:     -10.4      0.000      0.000
REMARK SMILES CCCCCCCCNC(=O)Oc1cccc(-c2ccc([C@@H](C)C(=O)OCCOC(=O)c3ccc(-c4c5nc(c(-c6c(F)cc(S(=O)(=O)[O-])cc6F)c6ccc([nH]6)c(-c6c(F)cc(S(=O)(=O)[O-])cc6F)c6nc(c(-c7c(F)cc(S(=O)(=O)[O-])cc7F)c7ccc4[nH]7)C=C6)C=C5)cc3)cc2F)c1
REMARK SMILES IDX 18 1 19 2 20 3 21 4 98 5 99 6 100 7 17 8 13 9 14 10 101 11
REMARK SMILES IDX 15 12 16 13 12 14 10 15 9 16 11 18 8 19 7 20 6 21 5 22 4 23
REMARK SMILES IDX 3 24 2 25 1 26 22 27 23 28 24 29 25 30 26 31 27 32 28 33
REMARK SMILES IDX 29 34 30 35 31 36 32 37 33 38 97 39 34 40 96 41 35 42 36 43
REMARK SMILES IDX 37 44 90 45 38 46 95 47 89 48 91 49 39 50 94 51 88 52 87 53
REMARK SMILES IDX 40 55 74 56 53 57 73 58 54 59 57 60 72 61 92 62 55 63 56 64
REMARK SMILES IDX 71 66 93 67 58 68 41 69 42 70 51 71 43 72 44 73 50 74 52 75
REMARK SMILES IDX 45 76 46 77 47 78 48 79 49 80 75 81 76 82 85 83 77 84 78 85
REMARK SMILES IDX 84 86 86 87 79 88 80 89 81 90 82 91 83 92 59 93 60 94 69 95
REMARK SMILES IDX 61 96 62 97 68 98 70 99 63 100 64 101 65 102 66 103 67 104
REMARK H PARENT 9 17 91 54 57 65
REMARK Flexibility Score: inf
ROOT
ATOM      1  C   UNL A   1      33.937  29.657  26.883  1.00  0.00     0.018 A 
ATOM      2  C   UNL A   1      32.995  30.688  27.022  1.00  0.00     0.012 A 
ATOM      3  C   UNL A   1      33.308  31.873  27.700  1.00  0.00     0.005 A 
ATOM      4  C   UNL A   1      34.573  32.062  28.272  1.00  0.00    -0.031 A 
ATOM      5  C   UNL A   1      35.515  31.031  28.145  1.00  0.00     0.044 A 
ATOM      6  C   UNL A   1      35.197  29.855  27.464  1.00  0.00     0.131 A 
ATOM      7  F   UNL A   1      36.151  28.917  27.351  1.00  0.00    -0.206 F 
ENDROOT
BRANCH   1   8
ATOM      8  C   UNL A   1      33.610  28.429  26.137  1.00  0.00    -0.012 A 
ATOM      9  C   UNL A   1      32.668  26.197  26.025  1.00  0.00     0.133 A 
ATOM     10  C   UNL A   1      33.047  26.069  24.692  1.00  0.00     0.047 A 
ATOM     11  C   UNL A   1      32.951  27.354  26.752  1.00  0.00     0.056 A 
ATOM     12  C   UNL A   1      33.697  27.128  24.066  1.00  0.00     0.004 A 
ATOM     13  C   UNL A   1      33.976  28.295  24.783  1.00  0.00     0.009 A 
BRANCH   9  14
ATOM     14  O   UNL A   1      32.125  25.059  26.643  1.00  0.00    -0.410 OA
BRANCH  14  15
ATOM     15  C   UNL A   1      32.811  23.860  26.526  1.00  0.00     0.412 C 
ATOM     16  N   UNL A   1      32.107  22.910  25.838  1.00  0.00    -0.321 N 
ATOM     17  H   UNL A   1      32.546  22.036  25.720  1.00  0.00     0.167 HD
ATOM     18  O   UNL A   1      33.917  23.613  26.992  1.00  0.00    -0.224 OA
BRANCH  16  19
ATOM     19  C   UNL A   1      30.784  23.057  25.264  1.00  0.00     0.119 C 
BRANCH  19  20
ATOM     20  C   UNL A   1      30.829  23.439  23.786  1.00  0.00     0.021 C 
BRANCH  20  21
ATOM     21  C   UNL A   1      31.676  22.515  22.902  1.00  0.00     0.002 C 
BRANCH  21  22
ATOM     22  C   UNL A   1      33.033  23.081  22.466  1.00  0.00     0.000 C 
BRANCH  22  23
ATOM     23  C   UNL A   1      34.248  22.503  23.200  1.00  0.00    -0.000 C 
BRANCH  23  24
ATOM     24  C   UNL A   1      35.354  23.512  23.525  1.00  0.00    -0.000 C 
BRANCH  24  25
ATOM     25  C   UNL A   1      36.786  22.997  23.345  1.00  0.00    -0.003 C 
ATOM     26  C   UNL A   1      37.310  22.230  24.549  1.00  0.00     0.004 C 
ENDBRANCH  24  25
ENDBRANCH  23  24
ENDBRANCH  22  23
ENDBRANCH  21  22
ENDBRANCH  20  21
ENDBRANCH  19  20
ENDBRANCH  16  19
ENDBRANCH  14  15
ENDBRANCH   9  14
ENDBRANCH   1   8
BRANCH   4  27
ATOM     27  C   UNL A   1      34.943  33.338  29.011  1.00  0.00     0.126 C 
ATOM     28  C   UNL A   1      34.883  34.570  28.111  1.00  0.00     0.025 C 
BRANCH  27  29
ATOM     29  C   UNL A   1      34.186  33.606  30.308  1.00  0.00     0.313 C 
ATOM     30  O   UNL A   1      33.437  34.569  30.437  1.00  0.00    -0.252 OA
BRANCH  29  31
ATOM     31  O   UNL A   1      34.390  32.665  31.266  1.00  0.00    -0.462 OA
BRANCH  31  32
ATOM     32  C   UNL A   1      35.347  32.983  32.296  1.00  0.00     0.274 C 
BRANCH  32  33
ATOM     33  C   UNL A   1      36.776  32.732  31.812  1.00  0.00     0.275 C 
BRANCH  33  34
ATOM     34  O   UNL A   1      37.334  31.558  32.428  1.00  0.00    -0.458 OA
BRANCH  34  35
ATOM     35  C   UNL A   1      37.239  30.422  31.697  1.00  0.00     0.338 C 
ATOM     36  O   UNL A   1      36.248  29.742  31.508  1.00  0.00    -0.246 OA
BRANCH  35  37
ATOM     37  C   UNL A   1      38.530  30.164  31.045  1.00  0.00     0.060 A 
ATOM     38  C   UNL A   1      38.609  30.277  29.656  1.00  0.00     0.016 A 
ATOM     39  C   UNL A   1      39.634  29.757  31.792  1.00  0.00     0.016 A 
ATOM     40  C   UNL A   1      39.799  29.981  28.999  1.00  0.00     0.010 A 
ATOM     41  C   UNL A   1      40.834  29.475  31.133  1.00  0.00     0.010 A 
ATOM     42  C   UNL A   1      40.923  29.582  29.734  1.00  0.00    -0.014 A 
BRANCH  42  43
ATOM     43  C   UNL A   1      42.196  29.274  29.041  1.00  0.00     0.031 A 
ATOM     44  C   UNL A   1      42.449  27.890  28.520  1.00  0.00     0.074 A 
ATOM     45  C   UNL A   1      43.125  30.237  28.901  1.00  0.00     0.049 A 
ATOM     46  N   UNL A   1      43.546  27.384  28.021  1.00  0.00    -0.248 NA
ATOM     47  C   UNL A   1      41.316  26.951  28.568  1.00  0.00     0.031 C 
ATOM     48  C   UNL A   1      42.970  31.630  29.329  1.00  0.00     0.029 A 
ATOM     49  N   UNL A   1      44.391  30.190  28.374  1.00  0.00    -0.354 N 
ATOM     50  C   UNL A   1      43.248  26.061  27.718  1.00  0.00     0.074 A 
ATOM     51  C   UNL A   1      41.868  25.840  28.097  1.00  0.00     0.031 C 
ATOM     52  C   UNL A   1      44.099  32.301  29.056  1.00  0.00     0.029 A 
ATOM     53  C   UNL A   1      45.076  31.376  28.487  1.00  0.00     0.049 A 
ATOM     54  H   UNL A   1      44.772  29.385  27.957  1.00  0.00     0.167 HD
ATOM     55  C   UNL A   1      44.057  25.121  27.173  1.00  0.00     0.037 A 
ATOM     56  C   UNL A   1      46.359  31.673  28.206  1.00  0.00     0.037 A 
ATOM     57  C   UNL A   1      45.424  25.360  26.788  1.00  0.00     0.049 A 
ATOM     58  C   UNL A   1      47.258  30.595  27.670  1.00  0.00     0.074 A 
ATOM     59  C   UNL A   1      46.323  24.480  26.211  1.00  0.00     0.029 A 
ATOM     60  N   UNL A   1      46.092  26.566  26.947  1.00  0.00    -0.354 N 
ATOM     61  N   UNL A   1      46.970  29.344  27.396  1.00  0.00    -0.248 NA
ATOM     62  C   UNL A   1      48.660  30.958  27.421  1.00  0.00     0.031 C 
ATOM     63  C   UNL A   1      47.545  25.142  26.057  1.00  0.00     0.029 A 
ATOM     64  C   UNL A   1      47.398  26.447  26.501  1.00  0.00     0.049 A 
ATOM     65  H   UNL A   1      45.695  27.386  27.321  1.00  0.00     0.167 HD
ATOM     66  C   UNL A   1      48.149  28.775  26.931  1.00  0.00     0.074 A 
ATOM     67  C   UNL A   1      49.152  29.820  26.948  1.00  0.00     0.031 C 
ATOM     68  C   UNL A   1      48.381  27.501  26.528  1.00  0.00     0.037 A 
BRANCH  55  69
ATOM     69  C   UNL A   1      43.493  23.740  26.990  1.00  0.00     0.058 A 
ATOM     70  C   UNL A   1      43.329  22.858  28.069  1.00  0.00     0.135 A 
ATOM     71  C   UNL A   1      43.084  23.303  25.719  1.00  0.00     0.135 A 
ATOM     72  F   UNL A   1      43.718  23.220  29.302  1.00  0.00    -0.206 F 
ATOM     73  C   UNL A   1      42.801  21.583  27.892  1.00  0.00     0.059 A 
ATOM     74  C   UNL A   1      42.533  22.040  25.522  1.00  0.00     0.059 A 
ATOM     75  F   UNL A   1      43.219  24.107  24.653  1.00  0.00    -0.206 F 
ATOM     76  C   UNL A   1      42.410  21.181  26.613  1.00  0.00     0.060 A 
BRANCH  76  77
ATOM     77  S   UNL A   1      41.731  19.522  26.396  1.00  0.00     0.124 S 
ATOM     78  O   UNL A   1      42.391  19.096  25.165  1.00  0.00    -0.237 OA
ATOM     79  O   UNL A   1      42.164  18.843  27.613  1.00  0.00    -0.237 OA
ATOM     80  O   UNL A   1      40.294  19.753  26.290  1.00  0.00    -0.744 OA
ENDBRANCH  76  77
ENDBRANCH  55  69
BRANCH  56  81
ATOM     81  C   UNL A   1      46.874  33.043  28.467  1.00  0.00     0.058 A 
ATOM     82  C   UNL A   1      47.413  33.388  29.714  1.00  0.00     0.135 A 
ATOM     83  C   UNL A   1      46.857  34.027  27.465  1.00  0.00     0.135 A 
ATOM     84  F   UNL A   1      47.440  32.485  30.705  1.00  0.00    -0.206 F 
ATOM     85  C   UNL A   1      47.915  34.661  29.962  1.00  0.00     0.059 A 
ATOM     86  C   UNL A   1      47.375  35.301  27.682  1.00  0.00     0.059 A 
ATOM     87  F   UNL A   1      46.361  33.743  26.251  1.00  0.00    -0.206 F 
ATOM     88  C   UNL A   1      47.894  35.611  28.938  1.00  0.00     0.060 A 
BRANCH  88  89
ATOM     89  S   UNL A   1      48.600  37.243  29.251  1.00  0.00     0.124 S 
ATOM     90  O   UNL A   1      47.458  37.953  29.815  1.00  0.00    -0.237 OA
ATOM     91  O   UNL A   1      49.684  36.939  30.179  1.00  0.00    -0.237 OA
ATOM     92  O   UNL A   1      49.027  37.683  27.926  1.00  0.00    -0.744 OA
ENDBRANCH  88  89
ENDBRANCH  56  81
BRANCH  68  93
ATOM     93  C   UNL A   1      49.768  27.169  26.056  1.00  0.00     0.058 A 
ATOM     94  C   UNL A   1      50.735  26.654  26.933  1.00  0.00     0.135 A 
ATOM     95  C   UNL A   1      50.111  27.303  24.701  1.00  0.00     0.135 A 
ATOM     96  F   UNL A   1      50.458  26.518  28.239  1.00  0.00    -0.206 F 
ATOM     97  C   UNL A   1      51.999  26.289  26.483  1.00  0.00     0.059 A 
ATOM     98  C   UNL A   1      51.362  26.924  24.227  1.00  0.00     0.059 A 
ATOM     99  F   UNL A   1      49.218  27.785  23.822  1.00  0.00    -0.206 F 
ATOM    100  C   UNL A   1      52.302  26.423  25.126  1.00  0.00     0.060 A 
BRANCH 100 101
ATOM    101  S   UNL A   1      53.927  25.893  24.545  1.00  0.00     0.124 S 
ATOM    102  O   UNL A   1      53.853  26.222  23.126  1.00  0.00    -0.237 OA
ATOM    103  O   UNL A   1      54.831  26.716  25.342  1.00  0.00    -0.237 OA
ATOM    104  O   UNL A   1      53.950  24.467  24.858  1.00  0.00    -0.744 OA
ENDBRANCH 100 101
ENDBRANCH  68  93
ENDBRANCH  42  43
ENDBRANCH  35  37
ENDBRANCH  34  35
ENDBRANCH  33  34
ENDBRANCH  32  33
ENDBRANCH  31  32
ENDBRANCH  29  31
ENDBRANCH  27  29
ENDBRANCH   4  27
TORSDOF 25
ENDMDL
MODEL 2
REMARK VINA RESULT:     -10.2      5.944     12.042
REMARK SMILES CCCCCCCCNC(=O)Oc1cccc(-c2ccc([C@@H](C)C(=O)OCCOC(=O)c3ccc(-c4c5nc(c(-c6c(F)cc(S(=O)(=O)[O-])cc6F)c6ccc([nH]6)c(-c6c(F)cc(S(=O)(=O)[O-])cc6F)c6nc(c(-c7c(F)cc(S(=O)(=O)[O-])cc7F)c7ccc4[nH]7)C=C6)C=C5)cc3)cc2F)c1
REMARK SMILES IDX 18 1 19 2 20 3 21 4 98 5 99 6 100 7 17 8 13 9 14 10 101 11
REMARK SMILES IDX 15 12 16 13 12 14 10 15 9 16 11 18 8 19 7 20 6 21 5 22 4 23
REMARK SMILES IDX 3 24 2 25 1 26 22 27 23 28 24 29 25 30 26 31 27 32 28 33
REMARK SMILES IDX 29 34 30 35 31 36 32 37 33 38 97 39 34 40 96 41 35 42 36 43
REMARK SMILES IDX 37 44 90 45 38 46 95 47 89 48 91 49 39 50 94 51 88 52 87 53
REMARK SMILES IDX 40 55 74 56 53 57 73 58 54 59 57 60 72 61 92 62 55 63 56 64
REMARK SMILES IDX 71 66 93 67 58 68 41 69 42 70 51 71 43 72 44 73 50 74 52 75
REMARK SMILES IDX 45 76 46 77 47 78 48 79 49 80 75 81 76 82 85 83 77 84 78 85
REMARK SMILES IDX 84 86 86 87 79 88 80 89 81 90 82 91 83 92 59 93 60 94 69 95
REMARK SMILES IDX 61 96 62 97 68 98 70 99 63 100 64 101 65 102 66 103 67 104
REMARK H PARENT 9 17 91 54 57 65
REMARK Flexibility Score: inf
ROOT
ATOM      1  C   UNL A   1      37.683  22.480  25.466  1.00  0.00     0.018 A 
ATOM      2  C   UNL A   1      38.617  23.274  26.151  1.00  0.00     0.012 A 
ATOM      3  C   UNL A   1      39.825  22.740  26.615  1.00  0.00     0.005 A 
ATOM      4  C   UNL A   1      40.136  21.388  26.421  1.00  0.00    -0.031 A 
ATOM      5  C   UNL A   1      39.203  20.587  25.748  1.00  0.00     0.044 A 
ATOM      6  C   UNL A   1      38.003  21.128  25.284  1.00  0.00     0.131 A 
ATOM      7  F   UNL A   1      37.163  20.317  24.620  1.00  0.00    -0.206 F 
ENDROOT
BRANCH   1   8
ATOM      8  C   UNL A   1      36.432  23.059  24.950  1.00  0.00    -0.012 A 
ATOM      9  C   UNL A   1      34.265  24.094  25.297  1.00  0.00     0.133 A 
ATOM     10  C   UNL A   1      34.019  24.114  23.927  1.00  0.00     0.047 A 
ATOM     11  C   UNL A   1      35.449  23.566  25.813  1.00  0.00     0.056 A 
ATOM     12  C   UNL A   1      34.986  23.620  23.056  1.00  0.00     0.004 A 
ATOM     13  C   UNL A   1      36.178  23.098  23.564  1.00  0.00     0.009 A 
BRANCH   9  14
ATOM     14  O   UNL A   1      33.213  24.492  26.137  1.00  0.00    -0.410 OA
BRANCH  14  15
ATOM     15  C   UNL A   1      31.943  24.596  25.590  1.00  0.00     0.412 C 
ATOM     16  N   UNL A   1      31.261  23.410  25.600  1.00  0.00    -0.321 N 
ATOM     17  H   UNL A   1      30.350  23.422  25.226  1.00  0.00     0.167 HD
ATOM     18  O   UNL A   1      31.445  25.607  25.110  1.00  0.00    -0.224 OA
BRANCH  16  19
ATOM     19  C   UNL A   1      31.741  22.138  26.105  1.00  0.00     0.119 C 
BRANCH  19  20
ATOM     20  C   UNL A   1      32.160  21.187  24.986  1.00  0.00     0.021 C 
BRANCH  20  21
ATOM     21  C   UNL A   1      33.350  20.278  25.318  1.00  0.00     0.002 C 
BRANCH  21  22
ATOM     22  C   UNL A   1      33.073  18.772  25.233  1.00  0.00     0.000 C 
BRANCH  22  23
ATOM     23  C   UNL A   1      34.143  17.952  24.504  1.00  0.00    -0.000 C 
BRANCH  23  24
ATOM     24  C   UNL A   1      33.729  17.412  23.131  1.00  0.00    -0.000 C 
BRANCH  24  25
ATOM     25  C   UNL A   1      32.301  17.756  22.693  1.00  0.00    -0.003 C 
ATOM     26  C   UNL A   1      32.244  18.629  21.449  1.00  0.00     0.004 C 
ENDBRANCH  24  25
ENDBRANCH  23  24
ENDBRANCH  22  23
ENDBRANCH  21  22
ENDBRANCH  20  21
ENDBRANCH  19  20
ENDBRANCH  16  19
ENDBRANCH  14  15
ENDBRANCH   9  14
ENDBRANCH   1   8
BRANCH   4  27
ATOM     27  C   UNL A   1      41.440  20.780  26.912  1.00  0.00     0.126 C 
ATOM     28  C   UNL A   1      41.219  19.698  27.966  1.00  0.00     0.025 C 
BRANCH  27  29
ATOM     29  C   UNL A   1      42.388  20.267  25.834  1.00  0.00     0.313 C 
ATOM     30  O   UNL A   1      42.466  19.076  25.548  1.00  0.00    -0.252 OA
BRANCH  29  31
ATOM     31  O   UNL A   1      43.090  21.248  25.209  1.00  0.00    -0.462 OA
BRANCH  31  32
ATOM     32  C   UNL A   1      43.683  22.258  26.047  1.00  0.00     0.274 C 
BRANCH  32  33
ATOM     33  C   UNL A   1      43.430  23.657  25.483  1.00  0.00     0.275 C 
BRANCH  33  34
ATOM     34  O   UNL A   1      42.996  24.562  26.512  1.00  0.00    -0.458 OA
BRANCH  34  35
ATOM     35  C   UNL A   1      42.069  25.472  26.127  1.00  0.00     0.338 C 
ATOM     36  O   UNL A   1      41.445  25.500  25.082  1.00  0.00    -0.246 OA
BRANCH  35  37
ATOM     37  C   UNL A   1      41.830  26.407  27.234  1.00  0.00     0.060 A 
ATOM     38  C   UNL A   1      42.521  27.620  27.243  1.00  0.00     0.016 A 
ATOM     39  C   UNL A   1      40.978  26.063  28.283  1.00  0.00     0.016 A 
ATOM     40  C   UNL A   1      42.366  28.503  28.307  1.00  0.00     0.010 A 
ATOM     41  C   UNL A   1      40.810  26.957  29.343  1.00  0.00     0.010 A 
ATOM     42  C   UNL A   1      41.504  28.180  29.363  1.00  0.00    -0.014 A 
BRANCH  42  43
ATOM     43  C   UNL A   1      41.327  29.120  30.495  1.00  0.00     0.031 A 
ATOM     44  C   UNL A   1      42.231  29.033  31.689  1.00  0.00     0.074 A 
ATOM     45  C   UNL A   1      40.342  30.036  30.449  1.00  0.00     0.049 A 
ATOM     46  N   UNL A   1      42.148  29.659  32.834  1.00  0.00    -0.248 NA
ATOM     47  C   UNL A   1      43.378  28.118  31.582  1.00  0.00     0.031 C 
ATOM     48  C   UNL A   1      39.433  30.242  29.319  1.00  0.00     0.029 A 
ATOM     49  N   UNL A   1      39.930  30.956  31.380  1.00  0.00    -0.354 N 
ATOM     50  C   UNL A   1      43.216  29.199  33.594  1.00  0.00     0.074 A 
ATOM     51  C   UNL A   1      43.927  28.233  32.784  1.00  0.00     0.031 C 
ATOM     52  C   UNL A   1      38.565  31.218  29.627  1.00  0.00     0.029 A 
ATOM     53  C   UNL A   1      38.820  31.667  30.993  1.00  0.00     0.049 A 
ATOM     54  H   UNL A   1      40.385  31.092  32.241  1.00  0.00     0.167 HD
ATOM     55  C   UNL A   1      43.565  29.553  34.855  1.00  0.00     0.037 A 
ATOM     56  C   UNL A   1      38.066  32.548  31.678  1.00  0.00     0.037 A 
ATOM     57  C   UNL A   1      42.854  30.526  35.644  1.00  0.00     0.049 A 
ATOM     58  C   UNL A   1      38.430  32.871  33.100  1.00  0.00     0.074 A 
ATOM     59  C   UNL A   1      43.137  30.969  36.923  1.00  0.00     0.029 A 
ATOM     60  N   UNL A   1      41.716  31.203  35.229  1.00  0.00    -0.354 N 
ATOM     61  N   UNL A   1      39.436  32.423  33.814  1.00  0.00    -0.248 NA
ATOM     62  C   UNL A   1      37.551  33.805  33.818  1.00  0.00     0.031 C 
ATOM     63  C   UNL A   1      42.147  31.885  37.298  1.00  0.00     0.029 A 
ATOM     64  C   UNL A   1      41.269  32.042  36.236  1.00  0.00     0.049 A 
ATOM     65  H   UNL A   1      41.288  31.101  34.347  1.00  0.00     0.167 HD
ATOM     66  C   UNL A   1      39.318  33.029  35.059  1.00  0.00     0.074 A 
ATOM     67  C   UNL A   1      38.151  33.885  34.998  1.00  0.00     0.031 C 
ATOM     68  C   UNL A   1      40.104  32.887  36.155  1.00  0.00     0.037 A 
BRANCH  55  69
ATOM     69  C   UNL A   1      44.749  28.862  35.468  1.00  0.00     0.058 A 
ATOM     70  C   UNL A   1      46.049  29.378  35.353  1.00  0.00     0.135 A 
ATOM     71  C   UNL A   1      44.576  27.680  36.208  1.00  0.00     0.135 A 
ATOM     72  F   UNL A   1      46.272  30.496  34.645  1.00  0.00    -0.206 F 
ATOM     73  C   UNL A   1      47.140  28.733  35.930  1.00  0.00     0.059 A 
ATOM     74  C   UNL A   1      45.650  27.031  36.812  1.00  0.00     0.059 A 
ATOM     75  F   UNL A   1      43.354  27.144  36.349  1.00  0.00    -0.206 F 
ATOM     76  C   UNL A   1      46.931  27.558  36.653  1.00  0.00     0.060 A 
BRANCH  76  77
ATOM     77  S   UNL A   1      48.355  26.729  37.392  1.00  0.00     0.124 S 
ATOM     78  O   UNL A   1      49.216  27.863  37.716  1.00  0.00    -0.237 OA
ATOM     79  O   UNL A   1      47.762  26.040  38.532  1.00  0.00    -0.237 OA
ATOM     80  O   UNL A   1      48.837  25.862  36.321  1.00  0.00    -0.744 OA
ENDBRANCH  76  77
ENDBRANCH  55  69
BRANCH  56  81
ATOM     81  C   UNL A   1      36.869  33.153  31.035  1.00  0.00     0.058 A 
ATOM     82  C   UNL A   1      35.578  32.865  31.497  1.00  0.00     0.135 A 
ATOM     83  C   UNL A   1      36.997  34.047  29.961  1.00  0.00     0.135 A 
ATOM     84  F   UNL A   1      35.405  32.007  32.514  1.00  0.00    -0.206 F 
ATOM     85  C   UNL A   1      34.453  33.440  30.915  1.00  0.00     0.059 A 
ATOM     86  C   UNL A   1      35.888  34.653  29.378  1.00  0.00     0.059 A 
ATOM     87  F   UNL A   1      38.213  34.363  29.489  1.00  0.00    -0.206 F 
ATOM     88  C   UNL A   1      34.618  34.336  29.857  1.00  0.00     0.060 A 
BRANCH  88  89
ATOM     89  S   UNL A   1      33.156  35.121  29.145  1.00  0.00     0.124 S 
ATOM     90  O   UNL A   1      33.704  36.385  28.670  1.00  0.00    -0.237 OA
ATOM     91  O   UNL A   1      32.764  34.166  28.113  1.00  0.00    -0.237 OA
ATOM     92  O   UNL A   1      32.241  35.215  30.279  1.00  0.00    -0.744 OA
ENDBRANCH  88  89
ENDBRANCH  56  81
BRANCH  68  93
ATOM     93  C   UNL A   1      39.740  33.687  37.373  1.00  0.00     0.058 A 
ATOM     94  C   UNL A   1      38.849  33.187  38.335  1.00  0.00     0.135 A 
ATOM     95  C   UNL A   1      40.340  34.933  37.613  1.00  0.00     0.135 A 
ATOM     96  F   UNL A   1      38.241  32.006  38.146  1.00  0.00    -0.206 F 
ATOM     97  C   UNL A   1      38.560  33.902  39.493  1.00  0.00     0.059 A 
ATOM     98  C   UNL A   1      40.081  35.653  38.774  1.00  0.00     0.059 A 
ATOM     99  F   UNL A   1      41.205  35.449  36.725  1.00  0.00    -0.206 F 
ATOM    100  C   UNL A   1      39.185  35.133  39.706  1.00  0.00     0.060 A 
BRANCH 100 101
ATOM    101  S   UNL A   1      38.844  36.023  41.239  1.00  0.00     0.124 S 
ATOM    102  O   UNL A   1      37.600  35.395  41.673  1.00  0.00    -0.237 OA
ATOM    103  O   UNL A   1      40.022  35.723  42.046  1.00  0.00    -0.237 OA
ATOM    104  O   UNL A   1      38.727  37.413  40.805  1.00  0.00    -0.744 OA
ENDBRANCH 100 101
ENDBRANCH  68  93
ENDBRANCH  42  43
ENDBRANCH  35  37
ENDBRANCH  34  35
ENDBRANCH  33  34
ENDBRANCH  32  33
ENDBRANCH  31  32
ENDBRANCH  29  31
ENDBRANCH  27  29
ENDBRANCH   4  27
TORSDOF 25
ENDMDL
MODEL 3
REMARK VINA RESULT:      -9.9      1.580      2.190
REMARK SMILES CCCCCCCCNC(=O)Oc1cccc(-c2ccc([C@@H](C)C(=O)OCCOC(=O)c3ccc(-c4c5nc(c(-c6c(F)cc(S(=O)(=O)[O-])cc6F)c6ccc([nH]6)c(-c6c(F)cc(S(=O)(=O)[O-])cc6F)c6nc(c(-c7c(F)cc(S(=O)(=O)[O-])cc7F)c7ccc4[nH]7)C=C6)C=C5)cc3)cc2F)c1
REMARK SMILES IDX 18 1 19 2 20 3 21 4 98 5 99 6 100 7 17 8 13 9 14 10 101 11
REMARK SMILES IDX 15 12 16 13 12 14 10 15 9 16 11 18 8 19 7 20 6 21 5 22 4 23
REMARK SMILES IDX 3 24 2 25 1 26 22 27 23 28 24 29 25 30 26 31 27 32 28 33
REMARK SMILES IDX 29 34 30 35 31 36 32 37 33 38 97 39 34 40 96 41 35 42 36 43
REMARK SMILES IDX 37 44 90 45 38 46 95 47 89 48 91 49 39 50 94 51 88 52 87 53
REMARK SMILES IDX 40 55 74 56 53 57 73 58 54 59 57 60 72 61 92 62 55 63 56 64
REMARK SMILES IDX 71 66 93 67 58 68 41 69 42 70 51 71 43 72 44 73 50 74 52 75
REMARK SMILES IDX 45 76 46 77 47 78 48 79 49 80 75 81 76 82 85 83 77 84 78 85
REMARK SMILES IDX 84 86 86 87 79 88 80 89 81 90 82 91 83 92 59 93 60 94 69 95
REMARK SMILES IDX 61 96 62 97 68 98 70 99 63 100 64 101 65 102 66 103 67 104
REMARK H PARENT 9 17 91 54 57 65
REMARK Flexibility Score: inf
ROOT
ATOM      1  C   UNL A   1      33.317  29.680  26.774  1.00  0.00     0.018 A 
ATOM      2  C   UNL A   1      34.604  29.496  27.304  1.00  0.00     0.012 A 
ATOM      3  C   UNL A   1      35.260  30.524  27.994  1.00  0.00     0.005 A 
ATOM      4  C   UNL A   1      34.655  31.775  28.167  1.00  0.00    -0.031 A 
ATOM      5  C   UNL A   1      33.374  31.967  27.631  1.00  0.00     0.044 A 
ATOM      6  C   UNL A   1      32.725  30.937  26.949  1.00  0.00     0.131 A 
ATOM      7  F   UNL A   1      31.487  31.174  26.484  1.00  0.00    -0.206 F 
ENDROOT
BRANCH   1   8
ATOM      8  C   UNL A   1      32.621  28.582  26.082  1.00  0.00    -0.012 A 
ATOM      9  C   UNL A   1      32.286  26.220  25.641  1.00  0.00     0.133 A 
ATOM     10  C   UNL A   1      31.302  26.503  24.698  1.00  0.00     0.047 A 
ATOM     11  C   UNL A   1      32.951  27.240  26.323  1.00  0.00     0.056 A 
ATOM     12  C   UNL A   1      30.959  27.829  24.450  1.00  0.00     0.004 A 
ATOM     13  C   UNL A   1      31.613  28.856  25.136  1.00  0.00     0.009 A 
BRANCH   9  14
ATOM     14  O   UNL A   1      32.678  24.878  25.766  1.00  0.00    -0.410 OA
BRANCH  14  15
ATOM     15  C   UNL A   1      33.470  24.332  24.767  1.00  0.00     0.412 C 
ATOM     16  N   UNL A   1      32.933  23.198  24.223  1.00  0.00    -0.321 N 
ATOM     17  H   UNL A   1      33.450  22.765  23.505  1.00  0.00     0.167 HD
ATOM     18  O   UNL A   1      34.555  24.760  24.391  1.00  0.00    -0.224 OA
BRANCH  16  19
ATOM     19  C   UNL A   1      31.681  22.568  24.594  1.00  0.00     0.119 C 
BRANCH  19  20
ATOM     20  C   UNL A   1      31.889  21.248  25.335  1.00  0.00     0.021 C 
BRANCH  20  21
ATOM     21  C   UNL A   1      32.890  20.287  24.680  1.00  0.00     0.002 C 
BRANCH  21  22
ATOM     22  C   UNL A   1      32.457  19.706  23.328  1.00  0.00     0.000 C 
BRANCH  22  23
ATOM     23  C   UNL A   1      32.479  18.176  23.240  1.00  0.00    -0.000 C 
BRANCH  23  24
ATOM     24  C   UNL A   1      32.677  17.448  24.574  1.00  0.00    -0.000 C 
BRANCH  24  25
ATOM     25  C   UNL A   1      33.380  16.090  24.482  1.00  0.00    -0.003 C 
ATOM     26  C   UNL A   1      32.805  15.045  25.427  1.00  0.00     0.004 C 
ENDBRANCH  24  25
ENDBRANCH  23  24
ENDBRANCH  22  23
ENDBRANCH  21  22
ENDBRANCH  20  21
ENDBRANCH  19  20
ENDBRANCH  16  19
ENDBRANCH  14  15
ENDBRANCH   9  14
ENDBRANCH   1   8
BRANCH   4  27
ATOM     27  C   UNL A   1      35.341  32.908  28.913  1.00  0.00     0.126 C 
ATOM     28  C   UNL A   1      35.239  34.240  28.173  1.00  0.00     0.025 C 
BRANCH  27  29
ATOM     29  C   UNL A   1      34.936  33.093  30.371  1.00  0.00     0.313 C 
ATOM     30  O   UNL A   1      34.157  32.328  30.932  1.00  0.00    -0.252 OA
BRANCH  29  31
ATOM     31  O   UNL A   1      35.545  34.143  30.981  1.00  0.00    -0.462 OA
BRANCH  31  32
ATOM     32  C   UNL A   1      36.370  33.843  32.124  1.00  0.00     0.274 C 
BRANCH  32  33
ATOM     33  C   UNL A   1      37.462  32.837  31.762  1.00  0.00     0.275 C 
BRANCH  33  34
ATOM     34  O   UNL A   1      37.312  31.616  32.507  1.00  0.00    -0.458 OA
BRANCH  34  35
ATOM     35  C   UNL A   1      37.205  30.493  31.758  1.00  0.00     0.338 C 
ATOM     36  O   UNL A   1      36.207  29.824  31.561  1.00  0.00    -0.246 OA
BRANCH  35  37
ATOM     37  C   UNL A   1      38.492  30.234  31.099  1.00  0.00     0.060 A 
ATOM     38  C   UNL A   1      38.565  30.359  29.710  1.00  0.00     0.016 A 
ATOM     39  C   UNL A   1      39.597  29.814  31.838  1.00  0.00     0.016 A 
ATOM     40  C   UNL A   1      39.751  30.062  29.046  1.00  0.00     0.010 A 
ATOM     41  C   UNL A   1      40.793  29.531  31.171  1.00  0.00     0.010 A 
ATOM     42  C   UNL A   1      40.876  29.651  29.772  1.00  0.00    -0.014 A 
BRANCH  42  43
ATOM     43  C   UNL A   1      42.144  29.342  29.072  1.00  0.00     0.031 A 
ATOM     44  C   UNL A   1      42.386  27.962  28.534  1.00  0.00     0.074 A 
ATOM     45  C   UNL A   1      43.079  30.301  28.938  1.00  0.00     0.049 A 
ATOM     46  N   UNL A   1      43.478  27.454  28.026  1.00  0.00    -0.248 NA
ATOM     47  C   UNL A   1      41.248  27.029  28.577  1.00  0.00     0.031 C 
ATOM     48  C   UNL A   1      42.934  31.689  29.381  1.00  0.00     0.029 A 
ATOM     49  N   UNL A   1      44.343  30.251  28.406  1.00  0.00    -0.354 N 
ATOM     50  C   UNL A   1      43.171  26.137  27.709  1.00  0.00     0.074 A 
ATOM     51  C   UNL A   1      41.791  25.921  28.092  1.00  0.00     0.031 C 
ATOM     52  C   UNL A   1      44.067  32.356  29.111  1.00  0.00     0.029 A 
ATOM     53  C   UNL A   1      45.036  31.432  28.529  1.00  0.00     0.049 A 
ATOM     54  H   UNL A   1      44.717  29.448  27.978  1.00  0.00     0.167 HD
ATOM     55  C   UNL A   1      43.972  25.198  27.151  1.00  0.00     0.037 A 
ATOM     56  C   UNL A   1      46.319  31.723  28.247  1.00  0.00     0.037 A 
ATOM     57  C   UNL A   1      45.339  25.432  26.764  1.00  0.00     0.049 A 
ATOM     58  C   UNL A   1      47.210  30.645  27.696  1.00  0.00     0.074 A 
ATOM     59  C   UNL A   1      46.230  24.553  26.174  1.00  0.00     0.029 A 
ATOM     60  N   UNL A   1      46.015  26.632  26.933  1.00  0.00    -0.354 N 
ATOM     61  N   UNL A   1      46.912  29.399  27.409  1.00  0.00    -0.248 NA
ATOM     62  C   UNL A   1      48.613  31.002  27.445  1.00  0.00     0.031 C 
ATOM     63  C   UNL A   1      47.456  25.209  26.022  1.00  0.00     0.029 A 
ATOM     64  C   UNL A   1      47.318  26.510  26.481  1.00  0.00     0.049 A 
ATOM     65  H   UNL A   1      45.625  27.451  27.317  1.00  0.00     0.167 HD
ATOM     66  C   UNL A   1      48.087  28.828  26.933  1.00  0.00     0.074 A 
ATOM     67  C   UNL A   1      49.096  29.867  26.958  1.00  0.00     0.031 C 
ATOM     68  C   UNL A   1      48.308  27.558  26.515  1.00  0.00     0.037 A 
BRANCH  55  69
ATOM     69  C   UNL A   1      43.399  23.822  26.956  1.00  0.00     0.058 A 
ATOM     70  C   UNL A   1      43.022  23.350  25.689  1.00  0.00     0.135 A 
ATOM     71  C   UNL A   1      43.253  22.953  28.049  1.00  0.00     0.135 A 
ATOM     72  F   UNL A   1      43.127  24.146  24.613  1.00  0.00    -0.206 F 
ATOM     73  C   UNL A   1      42.497  22.073  25.516  1.00  0.00     0.059 A 
ATOM     74  C   UNL A   1      42.751  21.663  27.896  1.00  0.00     0.059 A 
ATOM     75  F   UNL A   1      43.598  23.355  29.282  1.00  0.00    -0.206 F 
ATOM     76  C   UNL A   1      42.360  21.238  26.627  1.00  0.00     0.060 A 
BRANCH  76  77
ATOM     77  S   UNL A   1      41.673  19.585  26.390  1.00  0.00     0.124 S 
ATOM     78  O   UNL A   1      42.477  19.093  25.275  1.00  0.00    -0.237 OA
ATOM     79  O   UNL A   1      41.926  18.951  27.679  1.00  0.00    -0.237 OA
ATOM     80  O   UNL A   1      40.269  19.841  26.086  1.00  0.00    -0.744 OA
ENDBRANCH  76  77
ENDBRANCH  55  69
BRANCH  56  81
ATOM     81  C   UNL A   1      46.844  33.087  28.520  1.00  0.00     0.058 A 
ATOM     82  C   UNL A   1      46.825  34.081  27.532  1.00  0.00     0.135 A 
ATOM     83  C   UNL A   1      47.356  33.428  29.783  1.00  0.00     0.135 A 
ATOM     84  F   UNL A   1      46.356  33.800  26.307  1.00  0.00    -0.206 F 
ATOM     85  C   UNL A   1      47.296  35.365  27.783  1.00  0.00     0.059 A 
ATOM     86  C   UNL A   1      47.812  34.712  30.065  1.00  0.00     0.059 A 
ATOM     87  F   UNL A   1      47.387  32.514  30.765  1.00  0.00    -0.206 F 
ATOM     88  C   UNL A   1      47.785  35.673  29.054  1.00  0.00     0.060 A 
BRANCH  88  89
ATOM     89  S   UNL A   1      48.342  37.358  29.389  1.00  0.00     0.124 S 
ATOM     90  O   UNL A   1      47.080  38.086  29.408  1.00  0.00    -0.237 OA
ATOM     91  O   UNL A   1      49.015  37.211  30.676  1.00  0.00    -0.237 OA
ATOM     92  O   UNL A   1      49.224  37.649  28.261  1.00  0.00    -0.744 OA
ENDBRANCH  88  89
ENDBRANCH  56  81
BRANCH  68  93
ATOM     93  C   UNL A   1      49.691  27.222  26.035  1.00  0.00     0.058 A 
ATOM     94  C   UNL A   1      50.657  26.688  26.902  1.00  0.00     0.135 A 
ATOM     95  C   UNL A   1      50.031  27.370  24.681  1.00  0.00     0.135 A 
ATOM     96  F   UNL A   1      50.384  26.537  28.206  1.00  0.00    -0.206 F 
ATOM     97  C   UNL A   1      51.918  26.320  26.443  1.00  0.00     0.059 A 
ATOM     98  C   UNL A   1      51.278  26.989  24.197  1.00  0.00     0.059 A 
ATOM     99  F   UNL A   1      49.138  27.870  23.811  1.00  0.00    -0.206 F 
ATOM    100  C   UNL A   1      52.217  26.470  25.087  1.00  0.00     0.060 A 
BRANCH 100 101
ATOM    101  S   UNL A   1      53.837  25.935  24.494  1.00  0.00     0.124 S 
ATOM    102  O   UNL A   1      54.649  27.120  24.752  1.00  0.00    -0.237 OA
ATOM    103  O   UNL A   1      54.115  24.778  25.338  1.00  0.00    -0.237 OA
ATOM    104  O   UNL A   1      53.598  25.633  23.085  1.00  0.00    -0.744 OA
ENDBRANCH 100 101
ENDBRANCH  68  93
ENDBRANCH  42  43
ENDBRANCH  35  37
ENDBRANCH  34  35
ENDBRANCH  33  34
ENDBRANCH  32  33
ENDBRANCH  31  32
ENDBRANCH  29  31
ENDBRANCH  27  29
ENDBRANCH   4  27
TORSDOF 25
ENDMDL
