MODEL 1
REMARK VINA RESULT:     -13.0      0.000      0.000
REMARK SMILES Cc1c(CC(=O)OCCOC(=O)c2ccc(-c3c4nc(c(-c5c(F)cc(S(=O)(=O)[O-])cc5F)c5ccc([nH]5)c(-c5c(F)cc(S(=O)(=O)[O-])cc5F)c5nc(c(-c6c(F)cc(S(=O)(=O)[O-])cc6F)c6ccc3[nH]6)C=C5)C=C4)cc2)c2cc(O)ccc2n1C(=O)c1ccc(Cl)cc1
REMARK SMILES IDX 8 1 7 2 5 3 6 4 4 5 3 6 1 7 2 8 86 9 79 10 85 11 80 12 84 13
REMARK SMILES IDX 81 14 83 15 87 16 88 17 89 18 90 19 95 20 91 21 94 22 92 23
REMARK SMILES IDX 93 24 82 25 9 27 10 28 11 29 12 30 13 31 14 32 78 33 15 34
REMARK SMILES IDX 77 35 16 36 17 37 18 38 71 39 19 40 76 41 70 42 72 43 20 44
REMARK SMILES IDX 75 45 69 46 68 47 21 49 55 50 34 51 54 52 35 53 38 54 53 55
REMARK SMILES IDX 73 56 36 57 37 58 52 60 74 61 39 62 22 63 23 64 32 65 24 66
REMARK SMILES IDX 25 67 31 68 33 69 26 70 27 71 28 72 29 73 30 74 56 75 57 76
REMARK SMILES IDX 66 77 58 78 59 79 65 80 67 81 60 82 61 83 62 84 63 85 64 86
REMARK SMILES IDX 40 87 41 88 50 89 42 90 43 91 49 92 51 93 44 94 45 95 46 96
REMARK SMILES IDX 47 97 48 98
REMARK H PARENT 82 26 72 48 38 59
REMARK Flexibility Score: inf
ROOT
ATOM      1  C   UNL A   1      36.546  22.250  24.625  1.00  0.00     0.274 C 
ENDROOT
BRANCH   1   2
ATOM      2  O   UNL A   1      36.224  23.649  24.789  1.00  0.00    -0.462 OA
BRANCH   2   3
ATOM      3  C   UNL A   1      34.901  23.923  24.906  1.00  0.00     0.310 C 
ATOM      4  O   UNL A   1      34.127  23.274  25.604  1.00  0.00    -0.252 OA
BRANCH   3   5
ATOM      5  C   UNL A   1      34.395  25.038  24.037  1.00  0.00     0.160 C 
BRANCH   5   6
ATOM      6  C   UNL A   1      33.232  25.903  24.441  1.00  0.00    -0.008 A 
ATOM      7  C   UNL A   1      31.489  24.399  23.264  1.00  0.00     0.065 C 
ATOM      8  C   UNL A   1      31.933  25.595  24.049  1.00  0.00     0.028 A 
ATOM      9  N   UNL A   1      31.079  26.594  24.496  1.00  0.00    -0.280 N 
ATOM     10  C   UNL A   1      33.115  26.962  25.404  1.00  0.00     0.008 A 
ATOM     11  C   UNL A   1      31.756  27.295  25.505  1.00  0.00     0.057 A 
ATOM     12  C   UNL A   1      34.013  27.650  26.252  1.00  0.00     0.056 A 
ATOM     13  C   UNL A   1      31.304  28.215  26.484  1.00  0.00     0.031 A 
ATOM     14  C   UNL A   1      33.556  28.554  27.215  1.00  0.00     0.116 A 
ATOM     15  C   UNL A   1      32.214  28.838  27.335  1.00  0.00     0.048 A 
BRANCH   9  16
ATOM     16  C   UNL A   1      29.772  26.850  24.010  1.00  0.00     0.262 C 
ATOM     17  O   UNL A   1      28.861  26.063  24.261  1.00  0.00    -0.268 OA
BRANCH  16  18
ATOM     18  C   UNL A   1      29.422  27.996  23.167  1.00  0.00     0.040 A 
ATOM     19  C   UNL A   1      30.424  28.688  22.479  1.00  0.00     0.015 A 
ATOM     20  C   UNL A   1      28.092  28.428  23.152  1.00  0.00     0.015 A 
ATOM     21  C   UNL A   1      30.096  29.869  21.817  1.00  0.00     0.021 A 
ATOM     22  C   UNL A   1      27.772  29.608  22.483  1.00  0.00     0.021 A 
ATOM     23  C   UNL A   1      28.777  30.329  21.833  1.00  0.00     0.041 A 
ATOM     24  Cl  UNL A   1      28.390  31.820  21.067  1.00  0.00    -0.084 Cl
ENDBRANCH  16  18
ENDBRANCH   9  16
BRANCH  14  25
ATOM     25  O   UNL A   1      34.471  29.135  28.041  1.00  0.00    -0.508 OA
ATOM     26  H   UNL A   1      35.073  29.768  27.701  1.00  0.00     0.293 HD
ENDBRANCH  14  25
ENDBRANCH   5   6
ENDBRANCH   3   5
ENDBRANCH   2   3
ENDBRANCH   1   2
BRANCH   1  27
ATOM     27  C   UNL A   1      37.469  21.770  25.747  1.00  0.00     0.275 C 
BRANCH  27  28
ATOM     28  O   UNL A   1      38.692  22.516  25.691  1.00  0.00    -0.458 OA
BRANCH  28  29
ATOM     29  C   UNL A   1      39.562  22.368  26.718  1.00  0.00     0.338 C 
ATOM     30  O   UNL A   1      40.088  21.335  27.097  1.00  0.00    -0.246 OA
BRANCH  29  31
ATOM     31  C   UNL A   1      40.004  23.733  27.053  1.00  0.00     0.060 A 
ATOM     32  C   UNL A   1      41.121  23.928  27.867  1.00  0.00     0.016 A 
ATOM     33  C   UNL A   1      39.138  24.792  26.763  1.00  0.00     0.016 A 
ATOM     34  C   UNL A   1      41.277  25.147  28.512  1.00  0.00     0.010 A 
ATOM     35  C   UNL A   1      39.263  25.985  27.452  1.00  0.00     0.010 A 
ATOM     36  C   UNL A   1      40.300  26.141  28.365  1.00  0.00    -0.014 A 
BRANCH  36  37
ATOM     37  C   UNL A   1      40.540  27.455  28.936  1.00  0.00     0.031 A 
ATOM     38  C   UNL A   1      41.674  28.136  28.275  1.00  0.00     0.074 A 
ATOM     39  C   UNL A   1      39.825  28.115  29.865  1.00  0.00     0.049 A 
ATOM     40  N   UNL A   1      42.894  28.167  28.688  1.00  0.00    -0.248 NA
ATOM     41  C   UNL A   1      41.475  28.671  26.922  1.00  0.00     0.031 C 
ATOM     42  C   UNL A   1      38.510  27.814  30.423  1.00  0.00     0.029 A 
ATOM     43  N   UNL A   1      40.163  29.288  30.476  1.00  0.00    -0.354 N 
ATOM     44  C   UNL A   1      43.584  28.916  27.750  1.00  0.00     0.074 A 
ATOM     45  C   UNL A   1      42.723  29.012  26.599  1.00  0.00     0.031 C 
ATOM     46  C   UNL A   1      38.088  28.873  31.161  1.00  0.00     0.029 A 
ATOM     47  C   UNL A   1      39.160  29.856  31.248  1.00  0.00     0.049 A 
ATOM     48  H   UNL A   1      41.051  29.701  30.376  1.00  0.00     0.167 HD
ATOM     49  C   UNL A   1      44.711  29.596  28.087  1.00  0.00     0.037 A 
ATOM     50  C   UNL A   1      39.223  31.055  31.886  1.00  0.00     0.037 A 
ATOM     51  C   UNL A   1      45.217  29.175  29.371  1.00  0.00     0.049 A 
ATOM     52  C   UNL A   1      40.665  31.369  32.088  1.00  0.00     0.074 A 
ATOM     53  C   UNL A   1      45.605  27.959  29.904  1.00  0.00     0.029 A 
ATOM     54  N   UNL A   1      44.999  30.000  30.450  1.00  0.00    -0.354 N 
ATOM     55  N   UNL A   1      41.451  30.714  32.897  1.00  0.00    -0.248 NA
ATOM     56  C   UNL A   1      41.346  32.169  31.079  1.00  0.00     0.031 C 
ATOM     57  C   UNL A   1      45.133  27.975  31.250  1.00  0.00     0.029 A 
ATOM     58  C   UNL A   1      44.536  29.216  31.477  1.00  0.00     0.049 A 
ATOM     59  H   UNL A   1      45.147  30.973  30.480  1.00  0.00     0.167 HD
ATOM     60  C   UNL A   1      42.677  30.669  32.248  1.00  0.00     0.074 A 
ATOM     61  C   UNL A   1      42.580  31.670  31.188  1.00  0.00     0.031 C 
ATOM     62  C   UNL A   1      43.554  29.643  32.452  1.00  0.00     0.037 A 
BRANCH  49  63
ATOM     63  C   UNL A   1      45.142  30.879  27.430  1.00  0.00     0.058 A 
ATOM     64  C   UNL A   1      46.444  30.971  26.901  1.00  0.00     0.135 A 
ATOM     65  C   UNL A   1      44.434  32.098  27.536  1.00  0.00     0.135 A 
ATOM     66  F   UNL A   1      47.207  29.875  26.765  1.00  0.00    -0.206 F 
ATOM     67  C   UNL A   1      47.028  32.195  26.576  1.00  0.00     0.059 A 
ATOM     68  C   UNL A   1      44.974  33.319  27.158  1.00  0.00     0.059 A 
ATOM     69  F   UNL A   1      43.227  32.179  28.108  1.00  0.00    -0.206 F 
ATOM     70  C   UNL A   1      46.287  33.364  26.726  1.00  0.00     0.060 A 
BRANCH  70  71
ATOM     71  S   UNL A   1      47.079  34.953  26.434  1.00  0.00     0.124 S 
ATOM     72  O   UNL A   1      47.942  35.062  27.605  1.00  0.00    -0.237 OA
ATOM     73  O   UNL A   1      47.752  34.726  25.160  1.00  0.00    -0.237 OA
ATOM     74  O   UNL A   1      45.956  35.883  26.387  1.00  0.00    -0.744 OA
ENDBRANCH  70  71
ENDBRANCH  49  63
BRANCH  50  75
ATOM     75  C   UNL A   1      38.154  32.060  32.128  1.00  0.00     0.058 A 
ATOM     76  C   UNL A   1      37.695  32.905  31.098  1.00  0.00     0.135 A 
ATOM     77  C   UNL A   1      37.356  32.015  33.288  1.00  0.00     0.135 A 
ATOM     78  F   UNL A   1      38.377  33.000  29.946  1.00  0.00    -0.206 F 
ATOM     79  C   UNL A   1      36.491  33.614  31.189  1.00  0.00     0.059 A 
ATOM     80  C   UNL A   1      36.157  32.721  33.406  1.00  0.00     0.059 A 
ATOM     81  F   UNL A   1      37.669  31.206  34.310  1.00  0.00    -0.206 F 
ATOM     82  C   UNL A   1      35.715  33.495  32.340  1.00  0.00     0.060 A 
BRANCH  82  83
ATOM     83  S   UNL A   1      34.076  34.261  32.389  1.00  0.00     0.124 S 
ATOM     84  O   UNL A   1      33.717  34.303  30.976  1.00  0.00    -0.237 OA
ATOM     85  O   UNL A   1      33.322  33.320  33.210  1.00  0.00    -0.237 OA
ATOM     86  O   UNL A   1      34.327  35.560  33.008  1.00  0.00    -0.744 OA
ENDBRANCH  82  83
ENDBRANCH  50  75
BRANCH  62  87
ATOM     87  C   UNL A   1      43.345  28.737  33.640  1.00  0.00     0.058 A 
ATOM     88  C   UNL A   1      43.877  28.964  34.921  1.00  0.00     0.135 A 
ATOM     89  C   UNL A   1      42.424  27.684  33.507  1.00  0.00     0.135 A 
ATOM     90  F   UNL A   1      44.687  30.006  35.159  1.00  0.00    -0.206 F 
ATOM     91  C   UNL A   1      43.531  28.162  36.012  1.00  0.00     0.059 A 
ATOM     92  C   UNL A   1      42.040  26.895  34.588  1.00  0.00     0.059 A 
ATOM     93  F   UNL A   1      41.838  27.448  32.322  1.00  0.00    -0.206 F 
ATOM     94  C   UNL A   1      42.603  27.136  35.838  1.00  0.00     0.060 A 
BRANCH  94  95
ATOM     95  S   UNL A   1      42.077  26.172  37.273  1.00  0.00     0.124 S 
ATOM     96  O   UNL A   1      43.113  26.483  38.251  1.00  0.00    -0.237 OA
ATOM     97  O   UNL A   1      40.752  26.719  37.554  1.00  0.00    -0.237 OA
ATOM     98  O   UNL A   1      42.078  24.796  36.780  1.00  0.00    -0.744 OA
ENDBRANCH  94  95
ENDBRANCH  62  87
ENDBRANCH  36  37
ENDBRANCH  29  31
ENDBRANCH  28  29
ENDBRANCH  27  28
ENDBRANCH   1  27
TORSDOF 18
ENDMDL
MODEL 2
REMARK VINA RESULT:     -13.0      1.882      2.835
REMARK SMILES Cc1c(CC(=O)OCCOC(=O)c2ccc(-c3c4nc(c(-c5c(F)cc(S(=O)(=O)[O-])cc5F)c5ccc([nH]5)c(-c5c(F)cc(S(=O)(=O)[O-])cc5F)c5nc(c(-c6c(F)cc(S(=O)(=O)[O-])cc6F)c6ccc3[nH]6)C=C5)C=C4)cc2)c2cc(O)ccc2n1C(=O)c1ccc(Cl)cc1
REMARK SMILES IDX 8 1 7 2 5 3 6 4 4 5 3 6 1 7 2 8 86 9 79 10 85 11 80 12 84 13
REMARK SMILES IDX 81 14 83 15 87 16 88 17 89 18 90 19 95 20 91 21 94 22 92 23
REMARK SMILES IDX 93 24 82 25 9 27 10 28 11 29 12 30 13 31 14 32 78 33 15 34
REMARK SMILES IDX 77 35 16 36 17 37 18 38 71 39 19 40 76 41 70 42 72 43 20 44
REMARK SMILES IDX 75 45 69 46 68 47 21 49 55 50 34 51 54 52 35 53 38 54 53 55
REMARK SMILES IDX 73 56 36 57 37 58 52 60 74 61 39 62 22 63 23 64 32 65 24 66
REMARK SMILES IDX 25 67 31 68 33 69 26 70 27 71 28 72 29 73 30 74 56 75 57 76
REMARK SMILES IDX 66 77 58 78 59 79 65 80 67 81 60 82 61 83 62 84 63 85 64 86
REMARK SMILES IDX 40 87 41 88 50 89 42 90 43 91 49 92 51 93 44 94 45 95 46 96
REMARK SMILES IDX 47 97 48 98
REMARK H PARENT 82 26 72 48 38 59
REMARK Flexibility Score: inf
ROOT
ATOM      1  C   UNL A   1      36.300  21.221  25.790  1.00  0.00     0.274 C 
ENDROOT
BRANCH   1   2
ATOM      2  O   UNL A   1      35.395  21.141  24.666  1.00  0.00    -0.462 OA
BRANCH   2   3
ATOM      3  C   UNL A   1      34.388  20.244  24.804  1.00  0.00     0.310 C 
ATOM      4  O   UNL A   1      34.496  19.049  24.542  1.00  0.00    -0.252 OA
BRANCH   3   5
ATOM      5  C   UNL A   1      33.064  20.820  25.214  1.00  0.00     0.160 C 
BRANCH   5   6
ATOM      6  C   UNL A   1      32.700  22.256  24.949  1.00  0.00    -0.008 A 
ATOM      7  C   UNL A   1      32.742  22.905  27.451  1.00  0.00     0.065 C 
ATOM      8  C   UNL A   1      32.537  23.164  25.990  1.00  0.00     0.028 A 
ATOM      9  N   UNL A   1      32.132  24.384  25.465  1.00  0.00    -0.280 N 
ATOM     10  C   UNL A   1      32.680  23.032  23.740  1.00  0.00     0.008 A 
ATOM     11  C   UNL A   1      32.441  24.367  24.097  1.00  0.00     0.057 A 
ATOM     12  C   UNL A   1      32.896  22.758  22.370  1.00  0.00     0.056 A 
ATOM     13  C   UNL A   1      32.507  25.401  23.129  1.00  0.00     0.031 A 
ATOM     14  C   UNL A   1      32.960  23.786  21.425  1.00  0.00     0.116 A 
ATOM     15  C   UNL A   1      32.769  25.098  21.795  1.00  0.00     0.048 A 
BRANCH   9  16
ATOM     16  C   UNL A   1      31.518  25.438  26.187  1.00  0.00     0.262 C 
ATOM     17  O   UNL A   1      30.380  25.294  26.630  1.00  0.00    -0.268 OA
BRANCH  16  18
ATOM     18  C   UNL A   1      32.139  26.744  26.416  1.00  0.00     0.040 A 
ATOM     19  C   UNL A   1      33.501  26.925  26.150  1.00  0.00     0.015 A 
ATOM     20  C   UNL A   1      31.366  27.757  26.992  1.00  0.00     0.015 A 
ATOM     21  C   UNL A   1      34.110  28.120  26.527  1.00  0.00     0.021 A 
ATOM     22  C   UNL A   1      31.982  28.951  27.361  1.00  0.00     0.021 A 
ATOM     23  C   UNL A   1      33.351  29.121  27.141  1.00  0.00     0.041 A 
ATOM     24  Cl  UNL A   1      34.121  30.569  27.661  1.00  0.00    -0.084 Cl
ENDBRANCH  16  18
ENDBRANCH   9  16
BRANCH  14  25
ATOM     25  O   UNL A   1      33.231  23.456  20.130  1.00  0.00    -0.508 OA
ATOM     26  H   UNL A   1      34.057  23.073  19.908  1.00  0.00     0.293 HD
ENDBRANCH  14  25
ENDBRANCH   5   6
ENDBRANCH   3   5
ENDBRANCH   2   3
ENDBRANCH   1   2
BRANCH   1  27
ATOM     27  C   UNL A   1      37.697  21.648  25.333  1.00  0.00     0.275 C 
BRANCH  27  28
ATOM     28  O   UNL A   1      38.249  22.541  26.309  1.00  0.00    -0.458 OA
BRANCH  28  29
ATOM     29  C   UNL A   1      39.564  22.406  26.606  1.00  0.00     0.338 C 
ATOM     30  O   UNL A   1      40.281  21.449  26.364  1.00  0.00    -0.246 OA
BRANCH  29  31
ATOM     31  C   UNL A   1      40.024  23.761  26.957  1.00  0.00     0.060 A 
ATOM     32  C   UNL A   1      41.102  23.931  27.827  1.00  0.00     0.016 A 
ATOM     33  C   UNL A   1      39.201  24.840  26.620  1.00  0.00     0.016 A 
ATOM     34  C   UNL A   1      41.257  25.149  28.473  1.00  0.00     0.010 A 
ATOM     35  C   UNL A   1      39.323  26.033  27.309  1.00  0.00     0.010 A 
ATOM     36  C   UNL A   1      40.316  26.167  28.273  1.00  0.00    -0.014 A 
BRANCH  36  37
ATOM     37  C   UNL A   1      40.560  27.478  28.850  1.00  0.00     0.031 A 
ATOM     38  C   UNL A   1      41.706  28.151  28.202  1.00  0.00     0.074 A 
ATOM     39  C   UNL A   1      39.842  28.140  29.774  1.00  0.00     0.049 A 
ATOM     40  N   UNL A   1      42.922  28.172  28.626  1.00  0.00    -0.248 NA
ATOM     41  C   UNL A   1      41.524  28.693  26.848  1.00  0.00     0.031 C 
ATOM     42  C   UNL A   1      38.520  27.849  30.319  1.00  0.00     0.029 A 
ATOM     43  N   UNL A   1      40.183  29.309  30.392  1.00  0.00    -0.354 N 
ATOM     44  C   UNL A   1      43.627  28.918  27.696  1.00  0.00     0.074 A 
ATOM     45  C   UNL A   1      42.778  29.024  26.538  1.00  0.00     0.031 C 
ATOM     46  C   UNL A   1      38.100  28.909  31.056  1.00  0.00     0.029 A 
ATOM     47  C   UNL A   1      39.178  29.883  31.156  1.00  0.00     0.049 A 
ATOM     48  H   UNL A   1      41.076  29.715  30.301  1.00  0.00     0.167 HD
ATOM     49  C   UNL A   1      44.756  29.589  28.046  1.00  0.00     0.037 A 
ATOM     50  C   UNL A   1      39.245  31.080  31.798  1.00  0.00     0.037 A 
ATOM     51  C   UNL A   1      45.247  29.159  29.333  1.00  0.00     0.049 A 
ATOM     52  C   UNL A   1      40.687  31.382  32.014  1.00  0.00     0.074 A 
ATOM     53  C   UNL A   1      45.621  27.939  29.867  1.00  0.00     0.029 A 
ATOM     54  N   UNL A   1      45.025  29.984  30.412  1.00  0.00    -0.354 N 
ATOM     55  N   UNL A   1      41.461  30.718  32.829  1.00  0.00    -0.248 NA
ATOM     56  C   UNL A   1      41.383  32.179  31.014  1.00  0.00     0.031 C 
ATOM     57  C   UNL A   1      45.136  27.955  31.208  1.00  0.00     0.029 A 
ATOM     58  C   UNL A   1      44.547  29.200  31.433  1.00  0.00     0.049 A 
ATOM     59  H   UNL A   1      45.180  30.955  30.446  1.00  0.00     0.167 HD
ATOM     60  C   UNL A   1      42.692  30.666  32.190  1.00  0.00     0.074 A 
ATOM     61  C   UNL A   1      42.612  31.670  31.133  1.00  0.00     0.031 C 
ATOM     62  C   UNL A   1      43.559  29.632  32.400  1.00  0.00     0.037 A 
BRANCH  49  63
ATOM     63  C   UNL A   1      45.204  30.870  27.396  1.00  0.00     0.058 A 
ATOM     64  C   UNL A   1      46.498  30.941  26.848  1.00  0.00     0.135 A 
ATOM     65  C   UNL A   1      44.522  32.101  27.528  1.00  0.00     0.135 A 
ATOM     66  F   UNL A   1      47.236  29.832  26.687  1.00  0.00    -0.206 F 
ATOM     67  C   UNL A   1      47.102  32.156  26.527  1.00  0.00     0.059 A 
ATOM     68  C   UNL A   1      45.082  33.316  27.155  1.00  0.00     0.059 A 
ATOM     69  F   UNL A   1      43.327  32.202  28.120  1.00  0.00    -0.206 F 
ATOM     70  C   UNL A   1      46.389  33.339  26.703  1.00  0.00     0.060 A 
BRANCH  70  71
ATOM     71  S   UNL A   1      47.209  34.914  26.416  1.00  0.00     0.124 S 
ATOM     72  O   UNL A   1      46.071  35.782  26.136  1.00  0.00    -0.237 OA
ATOM     73  O   UNL A   1      47.888  35.137  27.687  1.00  0.00    -0.237 OA
ATOM     74  O   UNL A   1      48.084  34.634  25.282  1.00  0.00    -0.744 OA
ENDBRANCH  70  71
ENDBRANCH  49  63
BRANCH  50  75
ATOM     75  C   UNL A   1      38.181  32.093  32.033  1.00  0.00     0.058 A 
ATOM     76  C   UNL A   1      37.715  32.921  30.993  1.00  0.00     0.135 A 
ATOM     77  C   UNL A   1      37.395  32.070  33.202  1.00  0.00     0.135 A 
ATOM     78  F   UNL A   1      38.386  32.994  29.833  1.00  0.00    -0.206 F 
ATOM     79  C   UNL A   1      36.514  33.636  31.083  1.00  0.00     0.059 A 
ATOM     80  C   UNL A   1      36.199  32.782  33.319  1.00  0.00     0.059 A 
ATOM     81  F   UNL A   1      37.715  31.278  34.235  1.00  0.00    -0.206 F 
ATOM     82  C   UNL A   1      35.749  33.539  32.244  1.00  0.00     0.060 A 
BRANCH  82  83
ATOM     83  S   UNL A   1      34.113  34.311  32.296  1.00  0.00     0.124 S 
ATOM     84  O   UNL A   1      34.421  35.643  32.805  1.00  0.00    -0.237 OA
ATOM     85  O   UNL A   1      33.697  34.243  30.900  1.00  0.00    -0.237 OA
ATOM     86  O   UNL A   1      33.362  33.453  33.208  1.00  0.00    -0.744 OA
ENDBRANCH  82  83
ENDBRANCH  50  75
BRANCH  62  87
ATOM     87  C   UNL A   1      43.332  28.725  33.583  1.00  0.00     0.058 A 
ATOM     88  C   UNL A   1      43.871  28.932  34.864  1.00  0.00     0.135 A 
ATOM     89  C   UNL A   1      42.387  27.693  33.447  1.00  0.00     0.135 A 
ATOM     90  F   UNL A   1      44.704  29.955  35.107  1.00  0.00    -0.206 F 
ATOM     91  C   UNL A   1      43.510  28.133  35.952  1.00  0.00     0.059 A 
ATOM     92  C   UNL A   1      41.987  26.906  34.524  1.00  0.00     0.059 A 
ATOM     93  F   UNL A   1      41.794  27.477  32.261  1.00  0.00    -0.206 F 
ATOM     94  C   UNL A   1      42.558  27.128  35.774  1.00  0.00     0.060 A 
BRANCH  94  95
ATOM     95  S   UNL A   1      42.013  26.168  37.205  1.00  0.00     0.124 S 
ATOM     96  O   UNL A   1      41.971  24.812  36.669  1.00  0.00    -0.237 OA
ATOM     97  O   UNL A   1      43.064  26.433  38.183  1.00  0.00    -0.237 OA
ATOM     98  O   UNL A   1      40.712  26.750  37.531  1.00  0.00    -0.744 OA
ENDBRANCH  94  95
ENDBRANCH  62  87
ENDBRANCH  36  37
ENDBRANCH  29  31
ENDBRANCH  28  29
ENDBRANCH  27  28
ENDBRANCH   1  27
TORSDOF 18
ENDMDL
MODEL 3
REMARK VINA RESULT:     -12.7      1.634      2.454
REMARK SMILES Cc1c(CC(=O)OCCOC(=O)c2ccc(-c3c4nc(c(-c5c(F)cc(S(=O)(=O)[O-])cc5F)c5ccc([nH]5)c(-c5c(F)cc(S(=O)(=O)[O-])cc5F)c5nc(c(-c6c(F)cc(S(=O)(=O)[O-])cc6F)c6ccc3[nH]6)C=C5)C=C4)cc2)c2cc(O)ccc2n1C(=O)c1ccc(Cl)cc1
REMARK SMILES IDX 8 1 7 2 5 3 6 4 4 5 3 6 1 7 2 8 86 9 79 10 85 11 80 12 84 13
REMARK SMILES IDX 81 14 83 15 87 16 88 17 89 18 90 19 95 20 91 21 94 22 92 23
REMARK SMILES IDX 93 24 82 25 9 27 10 28 11 29 12 30 13 31 14 32 78 33 15 34
REMARK SMILES IDX 77 35 16 36 17 37 18 38 71 39 19 40 76 41 70 42 72 43 20 44
REMARK SMILES IDX 75 45 69 46 68 47 21 49 55 50 34 51 54 52 35 53 38 54 53 55
REMARK SMILES IDX 73 56 36 57 37 58 52 60 74 61 39 62 22 63 23 64 32 65 24 66
REMARK SMILES IDX 25 67 31 68 33 69 26 70 27 71 28 72 29 73 30 74 56 75 57 76
REMARK SMILES IDX 66 77 58 78 59 79 65 80 67 81 60 82 61 83 62 84 63 85 64 86
REMARK SMILES IDX 40 87 41 88 50 89 42 90 43 91 49 92 51 93 44 94 45 95 46 96
REMARK SMILES IDX 47 97 48 98
REMARK H PARENT 82 26 72 48 38 59
REMARK Flexibility Score: inf
ROOT
ATOM      1  C   UNL A   1      36.966  21.704  24.250  1.00  0.00     0.274 C 
ENDROOT
BRANCH   1   2
ATOM      2  O   UNL A   1      35.561  21.655  24.584  1.00  0.00    -0.462 OA
BRANCH   2   3
ATOM      3  C   UNL A   1      35.044  22.813  25.064  1.00  0.00     0.310 C 
ATOM      4  O   UNL A   1      35.186  23.196  26.222  1.00  0.00    -0.252 OA
BRANCH   3   5
ATOM      5  C   UNL A   1      34.183  23.581  24.103  1.00  0.00     0.160 C 
BRANCH   5   6
ATOM      6  C   UNL A   1      33.121  24.539  24.572  1.00  0.00    -0.008 A 
ATOM      7  C   UNL A   1      33.751  26.348  22.836  1.00  0.00     0.065 C 
ATOM      8  C   UNL A   1      32.975  25.794  23.991  1.00  0.00     0.028 A 
ATOM      9  N   UNL A   1      31.979  26.488  24.664  1.00  0.00    -0.280 N 
ATOM     10  C   UNL A   1      31.981  24.362  25.427  1.00  0.00     0.008 A 
ATOM     11  C   UNL A   1      31.226  25.544  25.377  1.00  0.00     0.057 A 
ATOM     12  C   UNL A   1      31.467  23.300  26.206  1.00  0.00     0.056 A 
ATOM     13  C   UNL A   1      29.960  25.624  26.008  1.00  0.00     0.031 A 
ATOM     14  C   UNL A   1      30.216  23.390  26.822  1.00  0.00     0.116 A 
ATOM     15  C   UNL A   1      29.463  24.539  26.728  1.00  0.00     0.048 A 
BRANCH   9  16
ATOM     16  C   UNL A   1      31.775  27.891  24.632  1.00  0.00     0.262 C 
ATOM     17  O   UNL A   1      31.166  28.400  23.692  1.00  0.00    -0.268 OA
BRANCH  16  18
ATOM     18  C   UNL A   1      32.288  28.816  25.645  1.00  0.00     0.040 A 
ATOM     19  C   UNL A   1      31.721  30.088  25.779  1.00  0.00     0.015 A 
ATOM     20  C   UNL A   1      33.405  28.431  26.392  1.00  0.00     0.015 A 
ATOM     21  C   UNL A   1      32.326  31.011  26.630  1.00  0.00     0.021 A 
ATOM     22  C   UNL A   1      34.000  29.358  27.245  1.00  0.00     0.021 A 
ATOM     23  C   UNL A   1      33.468  30.646  27.349  1.00  0.00     0.041 A 
ATOM     24  Cl  UNL A   1      34.246  31.808  28.350  1.00  0.00    -0.084 Cl
ENDBRANCH  16  18
ENDBRANCH   9  16
BRANCH  14  25
ATOM     25  O   UNL A   1      29.754  22.305  27.508  1.00  0.00    -0.508 OA
ATOM     26  H   UNL A   1      30.353  21.758  27.977  1.00  0.00     0.293 HD
ENDBRANCH  14  25
ENDBRANCH   5   6
ENDBRANCH   3   5
ENDBRANCH   2   3
ENDBRANCH   1   2
BRANCH   1  27
ATOM     27  C   UNL A   1      37.825  21.332  25.460  1.00  0.00     0.275 C 
BRANCH  27  28
ATOM     28  O   UNL A   1      38.462  22.517  25.957  1.00  0.00    -0.458 OA
BRANCH  28  29
ATOM     29  C   UNL A   1      39.566  22.358  26.725  1.00  0.00     0.338 C 
ATOM     30  O   UNL A   1      40.221  21.340  26.874  1.00  0.00    -0.246 OA
BRANCH  29  31
ATOM     31  C   UNL A   1      40.007  23.724  27.059  1.00  0.00     0.060 A 
ATOM     32  C   UNL A   1      41.117  23.920  27.881  1.00  0.00     0.016 A 
ATOM     33  C   UNL A   1      39.144  24.783  26.759  1.00  0.00     0.016 A 
ATOM     34  C   UNL A   1      41.270  25.140  28.524  1.00  0.00     0.010 A 
ATOM     35  C   UNL A   1      39.266  25.977  27.445  1.00  0.00     0.010 A 
ATOM     36  C   UNL A   1      40.296  26.135  28.366  1.00  0.00    -0.014 A 
BRANCH  36  37
ATOM     37  C   UNL A   1      40.532  27.451  28.935  1.00  0.00     0.031 A 
ATOM     38  C   UNL A   1      41.664  28.133  28.272  1.00  0.00     0.074 A 
ATOM     39  C   UNL A   1      39.817  28.110  29.864  1.00  0.00     0.049 A 
ATOM     40  N   UNL A   1      42.884  28.168  28.683  1.00  0.00    -0.248 NA
ATOM     41  C   UNL A   1      41.462  28.667  26.918  1.00  0.00     0.031 C 
ATOM     42  C   UNL A   1      38.503  27.806  30.423  1.00  0.00     0.029 A 
ATOM     43  N   UNL A   1      40.152  29.285  30.472  1.00  0.00    -0.354 N 
ATOM     44  C   UNL A   1      43.572  28.918  27.743  1.00  0.00     0.074 A 
ATOM     45  C   UNL A   1      42.709  29.010  26.593  1.00  0.00     0.031 C 
ATOM     46  C   UNL A   1      38.079  28.865  31.160  1.00  0.00     0.029 A 
ATOM     47  C   UNL A   1      39.148  29.851  31.245  1.00  0.00     0.049 A 
ATOM     48  H   UNL A   1      41.039  29.700  30.371  1.00  0.00     0.167 HD
ATOM     49  C   UNL A   1      44.697  29.602  28.078  1.00  0.00     0.037 A 
ATOM     50  C   UNL A   1      39.209  31.051  31.881  1.00  0.00     0.037 A 
ATOM     51  C   UNL A   1      45.206  29.183  29.362  1.00  0.00     0.049 A 
ATOM     52  C   UNL A   1      40.651  31.370  32.081  1.00  0.00     0.074 A 
ATOM     53  C   UNL A   1      45.598  27.970  29.897  1.00  0.00     0.029 A 
ATOM     54  N   UNL A   1      44.986  30.010  30.440  1.00  0.00    -0.354 N 
ATOM     55  N   UNL A   1      41.440  30.718  32.890  1.00  0.00    -0.248 NA
ATOM     56  C   UNL A   1      41.328  32.170  31.069  1.00  0.00     0.031 C 
ATOM     57  C   UNL A   1      45.127  27.986  31.243  1.00  0.00     0.029 A 
ATOM     58  C   UNL A   1      44.527  29.226  31.469  1.00  0.00     0.049 A 
ATOM     59  H   UNL A   1      45.132  30.983  30.468  1.00  0.00     0.167 HD
ATOM     60  C   UNL A   1      42.664  30.676  32.239  1.00  0.00     0.074 A 
ATOM     61  C   UNL A   1      42.563  31.674  31.179  1.00  0.00     0.031 C 
ATOM     62  C   UNL A   1      43.545  29.652  32.444  1.00  0.00     0.037 A 
BRANCH  49  63
ATOM     63  C   UNL A   1      45.124  30.885  27.418  1.00  0.00     0.058 A 
ATOM     64  C   UNL A   1      46.402  30.958  26.832  1.00  0.00     0.135 A 
ATOM     65  C   UNL A   1      44.446  32.116  27.573  1.00  0.00     0.135 A 
ATOM     66  F   UNL A   1      47.135  29.849  26.646  1.00  0.00    -0.206 F 
ATOM     67  C   UNL A   1      46.995  32.174  26.496  1.00  0.00     0.059 A 
ATOM     68  C   UNL A   1      44.994  33.331  27.187  1.00  0.00     0.059 A 
ATOM     69  F   UNL A   1      43.269  32.214  28.201  1.00  0.00    -0.206 F 
ATOM     70  C   UNL A   1      46.287  33.356  26.695  1.00  0.00     0.060 A 
BRANCH  70  71
ATOM     71  S   UNL A   1      47.097  34.933  26.388  1.00  0.00     0.124 S 
ATOM     72  O   UNL A   1      45.951  35.831  26.299  1.00  0.00    -0.237 OA
ATOM     73  O   UNL A   1      47.936  35.077  27.572  1.00  0.00    -0.237 OA
ATOM     74  O   UNL A   1      47.816  34.701  25.139  1.00  0.00    -0.744 OA
ENDBRANCH  70  71
ENDBRANCH  49  63
BRANCH  50  75
ATOM     75  C   UNL A   1      38.137  32.054  32.122  1.00  0.00     0.058 A 
ATOM     76  C   UNL A   1      37.553  32.772  31.061  1.00  0.00     0.135 A 
ATOM     77  C   UNL A   1      37.460  32.118  33.356  1.00  0.00     0.135 A 
ATOM     78  F   UNL A   1      38.114  32.757  29.842  1.00  0.00    -0.206 F 
ATOM     79  C   UNL A   1      36.341  33.462  31.198  1.00  0.00     0.059 A 
ATOM     80  C   UNL A   1      36.257  32.807  33.519  1.00  0.00     0.059 A 
ATOM     81  F   UNL A   1      37.898  31.431  34.421  1.00  0.00    -0.206 F 
ATOM     82  C   UNL A   1      35.687  33.452  32.428  1.00  0.00     0.060 A 
BRANCH  82  83
ATOM     83  S   UNL A   1      34.038  34.183  32.562  1.00  0.00     0.124 S 
ATOM     84  O   UNL A   1      33.268  33.093  33.150  1.00  0.00    -0.237 OA
ATOM     85  O   UNL A   1      34.280  35.332  33.429  1.00  0.00    -0.237 OA
ATOM     86  O   UNL A   1      33.699  34.512  31.180  1.00  0.00    -0.744 OA
ENDBRANCH  82  83
ENDBRANCH  50  75
BRANCH  62  87
ATOM     87  C   UNL A   1      43.339  28.748  33.633  1.00  0.00     0.058 A 
ATOM     88  C   UNL A   1      43.839  28.997  34.923  1.00  0.00     0.135 A 
ATOM     89  C   UNL A   1      42.452  27.667  33.490  1.00  0.00     0.135 A 
ATOM     90  F   UNL A   1      44.614  30.064  35.170  1.00  0.00    -0.206 F 
ATOM     91  C   UNL A   1      43.497  28.192  36.013  1.00  0.00     0.059 A 
ATOM     92  C   UNL A   1      42.070  26.873  34.568  1.00  0.00     0.059 A 
ATOM     93  F   UNL A   1      41.896  27.407  32.295  1.00  0.00    -0.206 F 
ATOM     94  C   UNL A   1      42.602  27.138  35.827  1.00  0.00     0.060 A 
BRANCH  94  95
ATOM     95  S   UNL A   1      42.077  26.167  37.258  1.00  0.00     0.124 S 
ATOM     96  O   UNL A   1      42.090  24.807  36.731  1.00  0.00    -0.237 OA
ATOM     97  O   UNL A   1      43.106  26.476  38.246  1.00  0.00    -0.237 OA
ATOM     98  O   UNL A   1      40.752  26.702  37.566  1.00  0.00    -0.744 OA
ENDBRANCH  94  95
ENDBRANCH  62  87
ENDBRANCH  36  37
ENDBRANCH  29  31
ENDBRANCH  28  29
ENDBRANCH  27  28
ENDBRANCH   1  27
TORSDOF 18
ENDMDL
