MODEL 1
REMARK VINA RESULT:     -11.8      0.000      0.000
REMARK SMILES CC(C)c1cc(OCC(=O)OCCOC(=O)c2ccc(-c3c4nc(c(-c5c(F)cc(S(=O)(=O)[O-])cc5F)c5ccc([nH]5)c(-c5c(F)cc(S(=O)(=O)[O-])cc5F)c5nc(c(-c6c(F)cc(S(=O)(=O)[O-])cc6F)c6ccc3[nH]6)C=C5)C=C4)cc2)nc(Nc2ccc(F)cc2F)n1
REMARK SMILES IDX 12 1 11 2 9 3 10 4 8 5 7 6 6 7 4 8 5 9 94 10 84 11 83 12
REMARK SMILES IDX 2 13 1 14 3 15 85 16 86 18 87 19 92 20 88 21 91 22 93 23
REMARK SMILES IDX 89 24 90 25 13 26 14 27 15 28 16 29 17 30 18 31 82 32 19 33
REMARK SMILES IDX 81 34 20 35 21 36 22 37 75 38 23 39 80 40 74 41 76 42 24 43
REMARK SMILES IDX 79 44 73 45 72 46 25 48 59 49 38 50 58 51 39 52 42 53 57 54
REMARK SMILES IDX 77 55 40 56 41 57 56 59 78 60 43 61 26 62 27 63 36 64 28 65
REMARK SMILES IDX 29 66 35 67 37 68 30 69 31 70 32 71 33 72 34 73 60 74 61 75
REMARK SMILES IDX 70 76 62 77 63 78 69 79 71 80 64 81 65 82 66 83 67 84 68 85
REMARK SMILES IDX 44 86 45 87 54 88 46 89 47 90 53 91 55 92 48 93 49 94 50 95
REMARK SMILES IDX 51 96 52 97
REMARK H PARENT 85 17 76 47 42 58
REMARK Flexibility Score: inf
ROOT
ATOM      1  C   UNL A   1      40.239  21.056  26.136  1.00  0.00     0.274 C 
ENDROOT
BRANCH   1   2
ATOM      2  O   UNL A   1      38.910  21.582  25.957  1.00  0.00    -0.460 OA
BRANCH   2   3
ATOM      3  C   UNL A   1      38.070  20.813  25.212  1.00  0.00     0.344 C 
ATOM      4  O   UNL A   1      38.258  19.630  24.945  1.00  0.00    -0.248 OA
BRANCH   3   5
ATOM      5  C   UNL A   1      36.842  21.571  24.714  1.00  0.00     0.353 C 
BRANCH   5   6
ATOM      6  O   UNL A   1      35.759  21.761  25.606  1.00  0.00    -0.466 OA
BRANCH   6   7
ATOM      7  C   UNL A   1      34.579  21.128  25.325  1.00  0.00     0.218 A 
ATOM      8  C   UNL A   1      33.218  19.327  24.698  1.00  0.00     0.052 A 
ATOM      9  C   UNL A   1      34.487  19.840  24.840  1.00  0.00     0.092 A 
ATOM     10  N   UNL A   1      32.149  20.059  25.009  1.00  0.00    -0.217 NA
ATOM     11  C   UNL A   1      32.311  21.295  25.493  1.00  0.00     0.230 A 
ATOM     12  N   UNL A   1      33.503  21.877  25.636  1.00  0.00    -0.177 NA
BRANCH   8  13
ATOM     13  C   UNL A   1      32.955  17.921  24.219  1.00  0.00     0.032 C 
ATOM     14  C   UNL A   1      34.139  17.291  23.470  1.00  0.00     0.014 C 
ATOM     15  C   UNL A   1      32.571  17.009  25.371  1.00  0.00     0.014 C 
ENDBRANCH   8  13
BRANCH  11  16
ATOM     16  N   UNL A   1      31.150  22.005  25.799  1.00  0.00    -0.322 N 
ATOM     17  H   UNL A   1      30.434  21.542  26.292  1.00  0.00     0.170 HD
BRANCH  16  18
ATOM     18  C   UNL A   1      30.951  23.348  25.437  1.00  0.00     0.077 A 
ATOM     19  C   UNL A   1      31.024  24.354  26.407  1.00  0.00     0.032 A 
ATOM     20  C   UNL A   1      30.909  23.735  24.079  1.00  0.00     0.149 A 
ATOM     21  C   UNL A   1      31.079  25.699  26.021  1.00  0.00     0.041 A 
ATOM     22  C   UNL A   1      30.954  25.067  23.691  1.00  0.00     0.080 A 
ATOM     23  F   UNL A   1      30.825  22.800  23.117  1.00  0.00    -0.205 F 
ATOM     24  C   UNL A   1      31.049  26.040  24.670  1.00  0.00     0.126 A 
ATOM     25  F   UNL A   1      31.120  27.328  24.312  1.00  0.00    -0.207 F 
ENDBRANCH  16  18
ENDBRANCH  11  16
ENDBRANCH   6   7
ENDBRANCH   5   6
ENDBRANCH   3   5
ENDBRANCH   2   3
ENDBRANCH   1   2
BRANCH   1  26
ATOM     26  C   UNL A   1      41.270  22.164  26.328  1.00  0.00     0.275 C 
BRANCH  26  27
ATOM     27  O   UNL A   1      40.639  23.371  26.799  1.00  0.00    -0.458 OA
BRANCH  27  28
ATOM     28  C   UNL A   1      41.349  24.497  26.581  1.00  0.00     0.338 C 
ATOM     29  O   UNL A   1      42.009  24.757  25.582  1.00  0.00    -0.246 OA
BRANCH  28  30
ATOM     30  C   UNL A   1      41.261  25.442  27.707  1.00  0.00     0.060 A 
ATOM     31  C   UNL A   1      40.081  25.611  28.439  1.00  0.00     0.016 A 
ATOM     32  C   UNL A   1      42.349  26.294  27.924  1.00  0.00     0.016 A 
ATOM     33  C   UNL A   1      39.981  26.667  29.353  1.00  0.00     0.010 A 
ATOM     34  C   UNL A   1      42.263  27.312  28.877  1.00  0.00     0.010 A 
ATOM     35  C   UNL A   1      41.072  27.527  29.583  1.00  0.00    -0.014 A 
BRANCH  35  36
ATOM     36  C   UNL A   1      41.006  28.598  30.616  1.00  0.00     0.031 A 
ATOM     37  C   UNL A   1      41.890  28.591  31.836  1.00  0.00     0.074 A 
ATOM     38  C   UNL A   1      40.091  29.572  30.471  1.00  0.00     0.049 A 
ATOM     39  N   UNL A   1      41.941  29.427  32.842  1.00  0.00    -0.248 NA
ATOM     40  C   UNL A   1      42.858  27.497  31.934  1.00  0.00     0.031 C 
ATOM     41  C   UNL A   1      39.167  29.701  29.343  1.00  0.00     0.029 A 
ATOM     42  N   UNL A   1      39.770  30.621  31.292  1.00  0.00    -0.354 N 
ATOM     43  C   UNL A   1      42.968  28.973  33.668  1.00  0.00     0.074 A 
ATOM     44  C   UNL A   1      43.498  27.774  33.061  1.00  0.00     0.031 C 
ATOM     45  C   UNL A   1      38.370  30.759  29.552  1.00  0.00     0.029 A 
ATOM     46  C   UNL A   1      38.699  31.352  30.846  1.00  0.00     0.049 A 
ATOM     47  H   UNL A   1      40.261  30.829  32.120  1.00  0.00     0.167 HD
ATOM     48  C   UNL A   1      43.424  29.499  34.830  1.00  0.00     0.037 A 
ATOM     49  C   UNL A   1      38.027  32.360  31.429  1.00  0.00     0.037 A 
ATOM     50  C   UNL A   1      42.846  30.647  35.473  1.00  0.00     0.049 A 
ATOM     51  C   UNL A   1      38.463  32.857  32.775  1.00  0.00     0.074 A 
ATOM     52  C   UNL A   1      43.230  31.265  36.650  1.00  0.00     0.029 A 
ATOM     53  N   UNL A   1      41.732  31.327  35.008  1.00  0.00    -0.354 N 
ATOM     54  N   UNL A   1      39.466  32.450  33.515  1.00  0.00    -0.248 NA
ATOM     55  C   UNL A   1      37.672  33.943  33.366  1.00  0.00     0.031 C 
ATOM     56  C   UNL A   1      42.317  32.292  36.922  1.00  0.00     0.029 A 
ATOM     57  C   UNL A   1      41.387  32.333  35.893  1.00  0.00     0.049 A 
ATOM     58  H   UNL A   1      41.255  31.125  34.171  1.00  0.00     0.167 HD
ATOM     59  C   UNL A   1      39.435  33.239  34.660  1.00  0.00     0.074 A 
ATOM     60  C   UNL A   1      38.317  34.149  34.508  1.00  0.00     0.031 C 
ATOM     61  C   UNL A   1      40.260  33.215  35.734  1.00  0.00     0.037 A 
BRANCH  48  62
ATOM     62  C   UNL A   1      44.588  28.818  35.495  1.00  0.00     0.058 A 
ATOM     63  C   UNL A   1      45.911  29.182  35.200  1.00  0.00     0.135 A 
ATOM     64  C   UNL A   1      44.380  27.821  36.460  1.00  0.00     0.135 A 
ATOM     65  F   UNL A   1      46.165  30.120  34.275  1.00  0.00    -0.206 F 
ATOM     66  C   UNL A   1      46.991  28.573  35.834  1.00  0.00     0.059 A 
ATOM     67  C   UNL A   1      45.445  27.206  37.115  1.00  0.00     0.059 A 
ATOM     68  F   UNL A   1      43.135  27.430  36.771  1.00  0.00    -0.206 F 
ATOM     69  C   UNL A   1      46.748  27.583  36.788  1.00  0.00     0.060 A 
BRANCH  69  70
ATOM     70  S   UNL A   1      48.157  26.804  37.609  1.00  0.00     0.124 S 
ATOM     71  O   UNL A   1      47.796  26.960  39.014  1.00  0.00    -0.237 OA
ATOM     72  O   UNL A   1      48.108  25.440  37.090  1.00  0.00    -0.237 OA
ATOM     73  O   UNL A   1      49.294  27.600  37.159  1.00  0.00    -0.744 OA
ENDBRANCH  69  70
ENDBRANCH  48  62
BRANCH  49  74
ATOM     74  C   UNL A   1      36.847  32.926  30.735  1.00  0.00     0.058 A 
ATOM     75  C   UNL A   1      35.547  32.614  31.152  1.00  0.00     0.135 A 
ATOM     76  C   UNL A   1      37.003  33.861  29.700  1.00  0.00     0.135 A 
ATOM     77  F   UNL A   1      35.353  31.723  32.137  1.00  0.00    -0.206 F 
ATOM     78  C   UNL A   1      34.437  33.219  30.574  1.00  0.00     0.059 A 
ATOM     79  C   UNL A   1      35.911  34.493  29.119  1.00  0.00     0.059 A 
ATOM     80  F   UNL A   1      38.233  34.203  29.283  1.00  0.00    -0.206 F 
ATOM     81  C   UNL A   1      34.631  34.165  29.564  1.00  0.00     0.060 A 
BRANCH  81  82
ATOM     82  S   UNL A   1      33.196  35.030  28.890  1.00  0.00     0.124 S 
ATOM     83  O   UNL A   1      33.809  36.234  28.344  1.00  0.00    -0.237 OA
ATOM     84  O   UNL A   1      32.685  34.073  27.912  1.00  0.00    -0.237 OA
ATOM     85  O   UNL A   1      32.348  35.225  30.063  1.00  0.00    -0.744 OA
ENDBRANCH  81  82
ENDBRANCH  49  74
BRANCH  61  86
ATOM     86  C   UNL A   1      39.984  34.204  36.825  1.00  0.00     0.058 A 
ATOM     87  C   UNL A   1      39.261  33.842  37.971  1.00  0.00     0.135 A 
ATOM     88  C   UNL A   1      40.472  35.516  36.738  1.00  0.00     0.135 A 
ATOM     89  F   UNL A   1      38.770  32.599  38.096  1.00  0.00    -0.206 F 
ATOM     90  C   UNL A   1      39.010  34.758  38.987  1.00  0.00     0.059 A 
ATOM     91  C   UNL A   1      40.248  36.444  37.749  1.00  0.00     0.059 A 
ATOM     92  F   UNL A   1      41.178  35.905  35.663  1.00  0.00    -0.206 F 
ATOM     93  C   UNL A   1      39.503  36.059  38.863  1.00  0.00     0.060 A 
BRANCH  93  94
ATOM     94  S   UNL A   1      39.187  37.241  40.190  1.00  0.00     0.124 S 
ATOM     95  O   UNL A   1      38.409  36.432  41.123  1.00  0.00    -0.237 OA
ATOM     96  O   UNL A   1      40.533  37.597  40.629  1.00  0.00    -0.237 OA
ATOM     97  O   UNL A   1      38.452  38.309  39.519  1.00  0.00    -0.744 OA
ENDBRANCH  93  94
ENDBRANCH  61  86
ENDBRANCH  35  36
ENDBRANCH  28  30
ENDBRANCH  27  28
ENDBRANCH  26  27
ENDBRANCH   1  26
TORSDOF 19
ENDMDL
MODEL 2
REMARK VINA RESULT:     -11.6      6.395     12.021
REMARK SMILES CC(C)c1cc(OCC(=O)OCCOC(=O)c2ccc(-c3c4nc(c(-c5c(F)cc(S(=O)(=O)[O-])cc5F)c5ccc([nH]5)c(-c5c(F)cc(S(=O)(=O)[O-])cc5F)c5nc(c(-c6c(F)cc(S(=O)(=O)[O-])cc6F)c6ccc3[nH]6)C=C5)C=C4)cc2)nc(Nc2ccc(F)cc2F)n1
REMARK SMILES IDX 12 1 11 2 9 3 10 4 8 5 7 6 6 7 4 8 5 9 94 10 84 11 83 12
REMARK SMILES IDX 2 13 1 14 3 15 85 16 86 18 87 19 92 20 88 21 91 22 93 23
REMARK SMILES IDX 89 24 90 25 13 26 14 27 15 28 16 29 17 30 18 31 82 32 19 33
REMARK SMILES IDX 81 34 20 35 21 36 22 37 75 38 23 39 80 40 74 41 76 42 24 43
REMARK SMILES IDX 79 44 73 45 72 46 25 48 59 49 38 50 58 51 39 52 42 53 57 54
REMARK SMILES IDX 77 55 40 56 41 57 56 59 78 60 43 61 26 62 27 63 36 64 28 65
REMARK SMILES IDX 29 66 35 67 37 68 30 69 31 70 32 71 33 72 34 73 60 74 61 75
REMARK SMILES IDX 70 76 62 77 63 78 69 79 71 80 64 81 65 82 66 83 67 84 68 85
REMARK SMILES IDX 44 86 45 87 54 88 46 89 47 90 53 91 55 92 48 93 49 94 50 95
REMARK SMILES IDX 51 96 52 97
REMARK H PARENT 85 17 76 47 42 58
REMARK Flexibility Score: inf
ROOT
ATOM      1  C   UNL A   1      34.405  31.209  27.611  1.00  0.00     0.274 C 
ENDROOT
BRANCH   1   2
ATOM      2  O   UNL A   1      34.148  29.829  27.934  1.00  0.00    -0.460 OA
BRANCH   2   3
ATOM      3  C   UNL A   1      33.093  29.261  27.288  1.00  0.00     0.344 C 
ATOM      4  O   UNL A   1      32.560  28.205  27.614  1.00  0.00    -0.248 OA
BRANCH   3   5
ATOM      5  C   UNL A   1      32.621  30.070  26.082  1.00  0.00     0.353 C 
BRANCH   5   6
ATOM      6  O   UNL A   1      32.874  29.558  24.787  1.00  0.00    -0.466 OA
BRANCH   6   7
ATOM      7  C   UNL A   1      31.805  29.146  24.040  1.00  0.00     0.218 A 
ATOM      8  C   UNL A   1      29.658  29.303  23.115  1.00  0.00     0.052 A 
ATOM      9  C   UNL A   1      30.595  29.806  23.987  1.00  0.00     0.092 A 
ATOM     10  N   UNL A   1      29.924  28.225  22.378  1.00  0.00    -0.217 NA
ATOM     11  C   UNL A   1      31.125  27.644  22.464  1.00  0.00     0.230 A 
ATOM     12  N   UNL A   1      32.079  28.052  23.302  1.00  0.00    -0.177 NA
BRANCH   8  13
ATOM     13  C   UNL A   1      28.305  29.938  22.914  1.00  0.00     0.032 C 
ATOM     14  C   UNL A   1      28.145  31.291  23.625  1.00  0.00     0.014 C 
ATOM     15  C   UNL A   1      27.998  30.128  21.440  1.00  0.00     0.014 C 
ENDBRANCH   8  13
BRANCH  11  16
ATOM     16  N   UNL A   1      31.336  26.521  21.663  1.00  0.00    -0.322 N 
ATOM     17  H   UNL A   1      31.167  26.597  20.696  1.00  0.00     0.170 HD
BRANCH  16  18
ATOM     18  C   UNL A   1      31.778  25.287  22.170  1.00  0.00     0.077 A 
ATOM     19  C   UNL A   1      33.102  24.880  21.970  1.00  0.00     0.032 A 
ATOM     20  C   UNL A   1      30.986  24.549  23.076  1.00  0.00     0.149 A 
ATOM     21  C   UNL A   1      33.616  23.786  22.677  1.00  0.00     0.041 A 
ATOM     22  C   UNL A   1      31.486  23.458  23.773  1.00  0.00     0.080 A 
ATOM     23  F   UNL A   1      29.705  24.898  23.286  1.00  0.00    -0.205 F 
ATOM     24  C   UNL A   1      32.805  23.092  23.572  1.00  0.00     0.126 A 
ATOM     25  F   UNL A   1      33.311  22.058  24.257  1.00  0.00    -0.207 F 
ENDBRANCH  16  18
ENDBRANCH  11  16
ENDBRANCH   6   7
ENDBRANCH   5   6
ENDBRANCH   3   5
ENDBRANCH   2   3
ENDBRANCH   1   2
BRANCH   1  26
ATOM     26  C   UNL A   1      34.729  32.035  28.852  1.00  0.00     0.275 C 
BRANCH  26  27
ATOM     27  O   UNL A   1      36.138  31.980  29.147  1.00  0.00    -0.458 OA
BRANCH  27  28
ATOM     28  C   UNL A   1      36.471  31.128  30.138  1.00  0.00     0.338 C 
ATOM     29  O   UNL A   1      35.787  30.847  31.115  1.00  0.00    -0.246 OA
BRANCH  28  30
ATOM     30  C   UNL A   1      37.802  30.530  29.939  1.00  0.00     0.060 A 
ATOM     31  C   UNL A   1      38.695  30.347  31.000  1.00  0.00     0.016 A 
ATOM     32  C   UNL A   1      38.219  30.299  28.624  1.00  0.00     0.016 A 
ATOM     33  C   UNL A   1      40.020  29.979  30.732  1.00  0.00     0.010 A 
ATOM     34  C   UNL A   1      39.526  29.878  28.366  1.00  0.00     0.010 A 
ATOM     35  C   UNL A   1      40.448  29.738  29.413  1.00  0.00    -0.014 A 
BRANCH  35  36
ATOM     36  C   UNL A   1      41.829  29.261  29.124  1.00  0.00     0.031 A 
ATOM     37  C   UNL A   1      43.010  30.195  29.098  1.00  0.00     0.074 A 
ATOM     38  C   UNL A   1      42.008  27.962  28.827  1.00  0.00     0.049 A 
ATOM     39  N   UNL A   1      44.270  29.950  28.835  1.00  0.00    -0.248 NA
ATOM     40  C   UNL A   1      42.742  31.597  29.422  1.00  0.00     0.031 C 
ATOM     41  C   UNL A   1      40.954  26.947  28.809  1.00  0.00     0.029 A 
ATOM     42  N   UNL A   1      43.138  27.282  28.457  1.00  0.00    -0.354 N 
ATOM     43  C   UNL A   1      44.939  31.162  28.998  1.00  0.00     0.074 A 
ATOM     44  C   UNL A   1      43.945  32.147  29.357  1.00  0.00     0.031 C 
ATOM     45  C   UNL A   1      41.485  25.776  28.429  1.00  0.00     0.029 A 
ATOM     46  C   UNL A   1      42.902  25.970  28.135  1.00  0.00     0.049 A 
ATOM     47  H   UNL A   1      44.032  27.695  28.426  1.00  0.00     0.167 HD
ATOM     48  C   UNL A   1      46.258  31.434  28.854  1.00  0.00     0.037 A 
ATOM     49  C   UNL A   1      43.722  25.037  27.620  1.00  0.00     0.037 A 
ATOM     50  C   UNL A   1      47.234  30.472  28.422  1.00  0.00     0.049 A 
ATOM     51  C   UNL A   1      45.155  25.382  27.348  1.00  0.00     0.074 A 
ATOM     52  C   UNL A   1      48.596  30.639  28.245  1.00  0.00     0.029 A 
ATOM     53  N   UNL A   1      46.940  29.165  28.062  1.00  0.00    -0.354 N 
ATOM     54  N   UNL A   1      45.781  26.515  27.556  1.00  0.00    -0.248 NA
ATOM     55  C   UNL A   1      45.990  24.325  26.763  1.00  0.00     0.031 C 
ATOM     56  C   UNL A   1      49.119  29.445  27.730  1.00  0.00     0.029 A 
ATOM     57  C   UNL A   1      48.086  28.526  27.624  1.00  0.00     0.049 A 
ATOM     58  H   UNL A   1      46.048  28.753  28.110  1.00  0.00     0.167 HD
ATOM     59  C   UNL A   1      47.090  26.306  27.137  1.00  0.00     0.074 A 
ATOM     60  C   UNL A   1      47.165  24.936  26.671  1.00  0.00     0.031 C 
ATOM     61  C   UNL A   1      48.136  27.169  27.145  1.00  0.00     0.037 A 
BRANCH  48  62
ATOM     62  C   UNL A   1      46.716  32.837  29.138  1.00  0.00     0.058 A 
ATOM     63  C   UNL A   1      47.182  33.209  30.409  1.00  0.00     0.135 A 
ATOM     64  C   UNL A   1      46.726  33.808  28.125  1.00  0.00     0.135 A 
ATOM     65  F   UNL A   1      47.179  32.323  31.416  1.00  0.00    -0.206 F 
ATOM     66  C   UNL A   1      47.633  34.500  30.669  1.00  0.00     0.059 A 
ATOM     67  C   UNL A   1      47.184  35.103  28.360  1.00  0.00     0.059 A 
ATOM     68  F   UNL A   1      46.284  33.506  26.895  1.00  0.00    -0.206 F 
ATOM     69  C   UNL A   1      47.627  35.442  29.638  1.00  0.00     0.060 A 
BRANCH  69  70
ATOM     70  S   UNL A   1      48.220  37.113  29.985  1.00  0.00     0.124 S 
ATOM     71  O   UNL A   1      49.666  36.918  29.960  1.00  0.00    -0.237 OA
ATOM     72  O   UNL A   1      47.666  37.881  28.874  1.00  0.00    -0.237 OA
ATOM     73  O   UNL A   1      47.648  37.412  31.294  1.00  0.00    -0.744 OA
ENDBRANCH  69  70
ENDBRANCH  48  62
BRANCH  49  74
ATOM     74  C   UNL A   1      43.170  23.699  27.303  1.00  0.00     0.058 A 
ATOM     75  C   UNL A   1      42.808  23.361  25.994  1.00  0.00     0.135 A 
ATOM     76  C   UNL A   1      43.079  22.707  28.292  1.00  0.00     0.135 A 
ATOM     77  F   UNL A   1      42.878  24.280  25.019  1.00  0.00    -0.206 F 
ATOM     78  C   UNL A   1      42.386  22.076  25.669  1.00  0.00     0.059 A 
ATOM     79  C   UNL A   1      42.678  21.412  27.990  1.00  0.00     0.059 A 
ATOM     80  F   UNL A   1      43.433  22.985  29.558  1.00  0.00    -0.206 F 
ATOM     81  C   UNL A   1      42.334  21.106  26.674  1.00  0.00     0.060 A 
BRANCH  81  82
ATOM     82  S   UNL A   1      41.890  19.413  26.231  1.00  0.00     0.124 S 
ATOM     83  O   UNL A   1      40.451  19.530  26.031  1.00  0.00    -0.237 OA
ATOM     84  O   UNL A   1      42.685  19.186  25.027  1.00  0.00    -0.237 OA
ATOM     85  O   UNL A   1      42.309  18.645  27.400  1.00  0.00    -0.744 OA
ENDBRANCH  81  82
ENDBRANCH  49  74
BRANCH  61  86
ATOM     86  C   UNL A   1      49.447  26.652  26.636  1.00  0.00     0.058 A 
ATOM     87  C   UNL A   1      49.829  26.828  25.299  1.00  0.00     0.135 A 
ATOM     88  C   UNL A   1      50.340  26.001  27.501  1.00  0.00     0.135 A 
ATOM     89  F   UNL A   1      49.005  27.439  24.434  1.00  0.00    -0.206 F 
ATOM     90  C   UNL A   1      51.049  26.353  24.828  1.00  0.00     0.059 A 
ATOM     91  C   UNL A   1      51.572  25.534  27.055  1.00  0.00     0.059 A 
ATOM     92  F   UNL A   1      50.019  25.819  28.792  1.00  0.00    -0.206 F 
ATOM     93  C   UNL A   1      51.910  25.703  25.713  1.00  0.00     0.060 A 
BRANCH  93  94
ATOM     94  S   UNL A   1      53.498  25.101  25.101  1.00  0.00     0.124 S 
ATOM     95  O   UNL A   1      53.538  25.689  23.766  1.00  0.00    -0.237 OA
ATOM     96  O   UNL A   1      54.444  25.654  26.066  1.00  0.00    -0.237 OA
ATOM     97  O   UNL A   1      53.346  23.650  25.145  1.00  0.00    -0.744 OA
ENDBRANCH  93  94
ENDBRANCH  61  86
ENDBRANCH  35  36
ENDBRANCH  28  30
ENDBRANCH  27  28
ENDBRANCH  26  27
ENDBRANCH   1  26
TORSDOF 19
ENDMDL
MODEL 3
REMARK VINA RESULT:     -11.5      6.699     12.002
REMARK SMILES CC(C)c1cc(OCC(=O)OCCOC(=O)c2ccc(-c3c4nc(c(-c5c(F)cc(S(=O)(=O)[O-])cc5F)c5ccc([nH]5)c(-c5c(F)cc(S(=O)(=O)[O-])cc5F)c5nc(c(-c6c(F)cc(S(=O)(=O)[O-])cc6F)c6ccc3[nH]6)C=C5)C=C4)cc2)nc(Nc2ccc(F)cc2F)n1
REMARK SMILES IDX 12 1 11 2 9 3 10 4 8 5 7 6 6 7 4 8 5 9 94 10 84 11 83 12
REMARK SMILES IDX 2 13 1 14 3 15 85 16 86 18 87 19 92 20 88 21 91 22 93 23
REMARK SMILES IDX 89 24 90 25 13 26 14 27 15 28 16 29 17 30 18 31 82 32 19 33
REMARK SMILES IDX 81 34 20 35 21 36 22 37 75 38 23 39 80 40 74 41 76 42 24 43
REMARK SMILES IDX 79 44 73 45 72 46 25 48 59 49 38 50 58 51 39 52 42 53 57 54
REMARK SMILES IDX 77 55 40 56 41 57 56 59 78 60 43 61 26 62 27 63 36 64 28 65
REMARK SMILES IDX 29 66 35 67 37 68 30 69 31 70 32 71 33 72 34 73 60 74 61 75
REMARK SMILES IDX 70 76 62 77 63 78 69 79 71 80 64 81 65 82 66 83 67 84 68 85
REMARK SMILES IDX 44 86 45 87 54 88 46 89 47 90 53 91 55 92 48 93 49 94 50 95
REMARK SMILES IDX 51 96 52 97
REMARK H PARENT 85 17 76 47 42 58
REMARK Flexibility Score: inf
ROOT
ATOM      1  C   UNL A   1      33.654  29.864  26.738  1.00  0.00     0.274 C 
ENDROOT
BRANCH   1   2
ATOM      2  O   UNL A   1      33.466  28.823  25.760  1.00  0.00    -0.460 OA
BRANCH   2   3
ATOM      3  C   UNL A   1      32.335  28.921  25.009  1.00  0.00     0.344 C 
ATOM      4  O   UNL A   1      31.669  29.943  24.878  1.00  0.00    -0.248 OA
BRANCH   3   5
ATOM      5  C   UNL A   1      31.947  27.608  24.333  1.00  0.00     0.353 C 
BRANCH   5   6
ATOM      6  O   UNL A   1      32.976  26.796  23.798  1.00  0.00    -0.466 OA
BRANCH   6   7
ATOM      7  C   UNL A   1      33.326  25.668  24.489  1.00  0.00     0.218 A 
ATOM      8  C   UNL A   1      33.051  23.957  26.066  1.00  0.00     0.052 A 
ATOM      9  C   UNL A   1      32.604  25.149  25.543  1.00  0.00     0.092 A 
ATOM     10  N   UNL A   1      34.135  23.360  25.570  1.00  0.00    -0.217 NA
ATOM     11  C   UNL A   1      34.778  23.909  24.534  1.00  0.00     0.230 A 
ATOM     12  N   UNL A   1      34.426  25.074  23.986  1.00  0.00    -0.177 NA
BRANCH   8  13
ATOM     13  C   UNL A   1      32.346  23.243  27.192  1.00  0.00     0.032 C 
ATOM     14  C   UNL A   1      30.887  22.880  26.875  1.00  0.00     0.014 C 
ATOM     15  C   UNL A   1      33.084  21.978  27.591  1.00  0.00     0.014 C 
ENDBRANCH   8  13
BRANCH  11  16
ATOM     16  N   UNL A   1      35.903  23.231  24.065  1.00  0.00    -0.322 N 
ATOM     17  H   UNL A   1      35.872  22.842  23.160  1.00  0.00     0.170 HD
BRANCH  16  18
ATOM     18  C   UNL A   1      37.078  23.075  24.819  1.00  0.00     0.077 A 
ATOM     19  C   UNL A   1      37.486  24.084  25.698  1.00  0.00     0.032 A 
ATOM     20  C   UNL A   1      37.737  21.828  24.886  1.00  0.00     0.149 A 
ATOM     21  C   UNL A   1      38.502  23.837  26.629  1.00  0.00     0.041 A 
ATOM     22  C   UNL A   1      38.751  21.579  25.801  1.00  0.00     0.080 A 
ATOM     23  F   UNL A   1      37.385  20.837  24.050  1.00  0.00    -0.205 F 
ATOM     24  C   UNL A   1      39.119  22.588  26.673  1.00  0.00     0.126 A 
ATOM     25  F   UNL A   1      40.077  22.356  27.579  1.00  0.00    -0.207 F 
ENDBRANCH  16  18
ENDBRANCH  11  16
ENDBRANCH   6   7
ENDBRANCH   5   6
ENDBRANCH   3   5
ENDBRANCH   2   3
ENDBRANCH   1   2
BRANCH   1  26
ATOM     26  C   UNL A   1      34.739  29.507  27.749  1.00  0.00     0.275 C 
BRANCH  26  27
ATOM     27  O   UNL A   1      35.602  30.636  27.989  1.00  0.00    -0.458 OA
BRANCH  27  28
ATOM     28  C   UNL A   1      36.331  30.554  29.121  1.00  0.00     0.338 C 
ATOM     29  O   UNL A   1      35.919  30.716  30.263  1.00  0.00    -0.246 OA
BRANCH  28  30
ATOM     30  C   UNL A   1      37.745  30.236  28.855  1.00  0.00     0.060 A 
ATOM     31  C   UNL A   1      38.187  29.839  27.589  1.00  0.00     0.016 A 
ATOM     32  C   UNL A   1      38.614  30.181  29.950  1.00  0.00     0.016 A 
ATOM     33  C   UNL A   1      39.487  29.341  27.436  1.00  0.00     0.010 A 
ATOM     34  C   UNL A   1      39.927  29.737  29.782  1.00  0.00     0.010 A 
ATOM     35  C   UNL A   1      40.371  29.288  28.530  1.00  0.00    -0.014 A 
BRANCH  35  36
ATOM     36  C   UNL A   1      41.783  28.844  28.362  1.00  0.00     0.031 A 
ATOM     37  C   UNL A   1      42.933  29.816  28.353  1.00  0.00     0.074 A 
ATOM     38  C   UNL A   1      42.023  27.537  28.160  1.00  0.00     0.049 A 
ATOM     39  N   UNL A   1      44.215  29.602  28.188  1.00  0.00    -0.248 NA
ATOM     40  C   UNL A   1      42.600  31.225  28.569  1.00  0.00     0.031 C 
ATOM     41  C   UNL A   1      41.006  26.485  28.139  1.00  0.00     0.029 A 
ATOM     42  N   UNL A   1      43.196  26.876  27.908  1.00  0.00    -0.354 N 
ATOM     43  C   UNL A   1      44.832  30.844  28.316  1.00  0.00     0.074 A 
ATOM     44  C   UNL A   1      43.786  31.813  28.547  1.00  0.00     0.031 C 
ATOM     45  C   UNL A   1      41.597  25.312  27.869  1.00  0.00     0.029 A 
ATOM     46  C   UNL A   1      43.024  25.540  27.656  1.00  0.00     0.049 A 
ATOM     47  H   UNL A   1      44.077  27.318  27.909  1.00  0.00     0.167 HD
ATOM     48  C   UNL A   1      46.149  31.154  28.241  1.00  0.00     0.037 A 
ATOM     49  C   UNL A   1      43.906  24.606  27.256  1.00  0.00     0.037 A 
ATOM     50  C   UNL A   1      47.182  30.203  27.935  1.00  0.00     0.049 A 
ATOM     51  C   UNL A   1      45.342  24.985  27.055  1.00  0.00     0.074 A 
ATOM     52  C   UNL A   1      48.546  30.408  27.836  1.00  0.00     0.029 A 
ATOM     53  N   UNL A   1      46.954  28.868  27.641  1.00  0.00    -0.354 N 
ATOM     54  N   UNL A   1      45.917  26.151  27.230  1.00  0.00    -0.248 NA
ATOM     55  C   UNL A   1      46.247  23.926  26.594  1.00  0.00     0.031 C 
ATOM     56  C   UNL A   1      49.140  29.205  27.433  1.00  0.00     0.029 A 
ATOM     57  C   UNL A   1      48.147  28.244  27.319  1.00  0.00     0.049 A 
ATOM     58  H   UNL A   1      46.075  28.427  27.657  1.00  0.00     0.167 HD
ATOM     59  C   UNL A   1      47.256  25.964  26.911  1.00  0.00     0.074 A 
ATOM     60  C   UNL A   1      47.406  24.571  26.539  1.00  0.00     0.031 C 
ATOM     61  C   UNL A   1      48.271  26.863  26.932  1.00  0.00     0.037 A 
BRANCH  48  62
ATOM     62  C   UNL A   1      46.542  32.588  28.464  1.00  0.00     0.058 A 
ATOM     63  C   UNL A   1      46.597  33.503  27.401  1.00  0.00     0.135 A 
ATOM     64  C   UNL A   1      46.829  33.062  29.753  1.00  0.00     0.135 A 
ATOM     65  F   UNL A   1      46.345  33.098  26.146  1.00  0.00    -0.206 F 
ATOM     66  C   UNL A   1      46.934  34.838  27.607  1.00  0.00     0.059 A 
ATOM     67  C   UNL A   1      47.158  34.396  29.984  1.00  0.00     0.059 A 
ATOM     68  F   UNL A   1      46.799  32.226  30.802  1.00  0.00    -0.206 F 
ATOM     69  C   UNL A   1      47.216  35.274  28.902  1.00  0.00     0.060 A 
BRANCH  69  70
ATOM     70  S   UNL A   1      47.647  37.011  29.160  1.00  0.00     0.124 S 
ATOM     71  O   UNL A   1      47.227  37.604  27.894  1.00  0.00    -0.237 OA
ATOM     72  O   UNL A   1      46.840  37.366  30.323  1.00  0.00    -0.237 OA
ATOM     73  O   UNL A   1      49.088  36.972  29.390  1.00  0.00    -0.744 OA
ENDBRANCH  69  70
ENDBRANCH  48  62
BRANCH  49  74
ATOM     74  C   UNL A   1      43.419  23.233  26.990  1.00  0.00     0.058 A 
ATOM     75  C   UNL A   1      43.236  22.774  25.680  1.00  0.00     0.135 A 
ATOM     76  C   UNL A   1      43.215  22.327  28.042  1.00  0.00     0.135 A 
ATOM     77  F   UNL A   1      43.419  23.609  24.644  1.00  0.00    -0.206 F 
ATOM     78  C   UNL A   1      42.879  21.457  25.417  1.00  0.00     0.059 A 
ATOM     79  C   UNL A   1      42.876  21.001  27.806  1.00  0.00     0.059 A 
ATOM     80  F   UNL A   1      43.398  22.720  29.313  1.00  0.00    -0.206 F 
ATOM     81  C   UNL A   1      42.710  20.575  26.489  1.00  0.00     0.060 A 
BRANCH  81  82
ATOM     82  S   UNL A   1      42.352  18.839  26.143  1.00  0.00     0.124 S 
ATOM     83  O   UNL A   1      40.964  18.908  25.703  1.00  0.00    -0.237 OA
ATOM     84  O   UNL A   1      43.334  18.517  25.112  1.00  0.00    -0.237 OA
ATOM     85  O   UNL A   1      42.578  18.192  27.433  1.00  0.00    -0.744 OA
ENDBRANCH  81  82
ENDBRANCH  49  74
BRANCH  61  86
ATOM     86  C   UNL A   1      49.629  26.363  26.543  1.00  0.00     0.058 A 
ATOM     87  C   UNL A   1      50.075  26.425  25.215  1.00  0.00     0.135 A 
ATOM     88  C   UNL A   1      50.502  25.845  27.511  1.00  0.00     0.135 A 
ATOM     89  F   UNL A   1      49.272  26.907  24.253  1.00  0.00    -0.206 F 
ATOM     90  C   UNL A   1      51.338  25.967  24.854  1.00  0.00     0.059 A 
ATOM     91  C   UNL A   1      51.776  25.398  27.176  1.00  0.00     0.059 A 
ATOM     92  F   UNL A   1      50.121  25.775  28.797  1.00  0.00    -0.206 F 
ATOM     93  C   UNL A   1      52.178  25.450  25.842  1.00  0.00     0.060 A 
BRANCH  93  94
ATOM     94  S   UNL A   1      53.822  24.869  25.372  1.00  0.00     0.124 S 
ATOM     95  O   UNL A   1      54.104  25.702  24.208  1.00  0.00    -0.237 OA
ATOM     96  O   UNL A   1      54.615  25.154  26.564  1.00  0.00    -0.237 OA
ATOM     97  O   UNL A   1      53.609  23.451  25.095  1.00  0.00    -0.744 OA
ENDBRANCH  93  94
ENDBRANCH  61  86
ENDBRANCH  35  36
ENDBRANCH  28  30
ENDBRANCH  27  28
ENDBRANCH  26  27
ENDBRANCH   1  26
TORSDOF 19
ENDMDL
