MODEL 1
REMARK VINA RESULT:     -12.3      0.000      0.000
REMARK SMILES Cc1ccc(C(C)C)c(OCC(=O)Nc2nc(CC(=O)OCCOC(=O)c3ccc(-c4c5nc(c(-c6c(F)cc(S(=O)(=O)[O-])cc6F)c6ccc([nH]6)c(-c6c(F)cc(S(=O)(=O)[O-])cc6F)c6nc(c(-c7c(F)cc(S(=O)(=O)[O-])cc7F)c7ccc4[nH]7)C=C6)C=C5)cc3)cs2)c1
REMARK SMILES IDX 21 1 19 2 20 3 18 4 17 5 15 6 16 7 94 8 93 9 14 10 12 11
REMARK SMILES IDX 13 12 11 14 10 15 9 16 1 17 2 18 3 19 95 20 4 21 5 22 6 23
REMARK SMILES IDX 7 24 8 25 22 26 23 27 24 28 25 29 26 30 27 31 28 32 92 33
REMARK SMILES IDX 29 34 91 35 30 36 31 37 32 38 85 39 33 40 90 41 84 42 86 43
REMARK SMILES IDX 34 44 89 45 83 46 82 47 35 49 69 50 48 51 68 52 49 53 52 54
REMARK SMILES IDX 67 55 87 56 50 57 51 58 66 60 88 61 53 62 36 63 37 64 46 65
REMARK SMILES IDX 38 66 39 67 45 68 47 69 40 70 41 71 42 72 43 73 44 74 70 75
REMARK SMILES IDX 71 76 80 77 72 78 73 79 79 80 81 81 74 82 75 83 76 84 77 85
REMARK SMILES IDX 78 86 54 87 55 88 64 89 56 90 57 91 63 92 65 93 58 94 59 95
REMARK SMILES IDX 60 96 61 97 62 98
REMARK H PARENT 14 13 86 48 52 59
REMARK Flexibility Score: inf
ROOT
ATOM      1  O   UNL A   1      34.283  30.832  27.899  1.00  0.00    -0.462 OA
ENDROOT
BRANCH   1   2
ATOM      2  C   UNL A   1      33.113  30.424  27.161  1.00  0.00     0.312 C 
ATOM      3  O   UNL A   1      32.425  31.481  27.034  1.00  0.00    -0.252 OA
BRANCH   2   4
ATOM      4  C   UNL A   1      32.731  28.401  26.464  1.00  0.00     0.179 C 
BRANCH   4   5
ATOM      5  C   UNL A   1      31.958  27.736  25.053  1.00  0.00     0.065 A 
ATOM      6  C   UNL A   1      32.017  26.955  22.977  1.00  0.00     0.189 A 
ATOM      7  N   UNL A   1      32.772  27.400  23.951  1.00  0.00    -0.224 NA
ATOM      8  S   UNL A   1      30.346  26.866  23.284  1.00  0.00    -0.105 S 
ATOM      9  C   UNL A   1      30.662  27.243  24.926  1.00  0.00     0.093 A 
BRANCH   6  10
ATOM     10  N   UNL A   1      32.355  26.659  21.692  1.00  0.00    -0.299 N 
ATOM     11  C   UNL A   1      32.863  25.484  21.234  1.00  0.00     0.264 C 
ATOM     12  O   UNL A   1      33.050  25.376  20.013  1.00  0.00    -0.271 OA
ATOM     13  H   UNL A   1      32.216  27.370  21.024  1.00  0.00     0.172 HD
BRANCH  11  14
ATOM     14  C   UNL A   1      33.003  24.249  22.139  1.00  0.00     0.329 C 
BRANCH  14  15
ATOM     15  O   UNL A   1      33.940  24.141  23.174  1.00  0.00    -0.483 OA
BRANCH  15  16
ATOM     16  C   UNL A   1      33.523  23.727  24.401  1.00  0.00     0.123 A 
ATOM     17  C   UNL A   1      30.523  23.355  26.711  1.00  0.00     0.044 C 
ATOM     18  C   UNL A   1      31.925  23.361  26.187  1.00  0.00    -0.047 A 
ATOM     19  C   UNL A   1      32.941  22.849  26.996  1.00  0.00     0.004 A 
ATOM     20  C   UNL A   1      32.231  23.851  24.906  1.00  0.00     0.050 A 
ATOM     21  C   UNL A   1      34.238  22.787  26.516  1.00  0.00     0.008 A 
ATOM     22  C   UNL A   1      34.524  23.159  25.194  1.00  0.00    -0.003 A 
BRANCH  22  23
ATOM     23  C   UNL A   1      35.846  22.796  24.565  1.00  0.00     0.017 C 
ATOM     24  C   UNL A   1      37.006  23.663  25.036  1.00  0.00     0.012 C 
ATOM     25  C   UNL A   1      36.047  21.304  24.744  1.00  0.00     0.012 C 
ENDBRANCH  22  23
ENDBRANCH  15  16
ENDBRANCH  14  15
ENDBRANCH  11  14
ENDBRANCH   6  10
ENDBRANCH   4   5
ENDBRANCH   2   4
ENDBRANCH   1   2
BRANCH   1  26
ATOM     26  C   UNL A   1      34.467  32.249  28.065  1.00  0.00     0.274 C 
BRANCH  26  27
ATOM     27  C   UNL A   1      34.804  32.498  29.537  1.00  0.00     0.275 C 
BRANCH  27  28
ATOM     28  O   UNL A   1      35.732  31.536  30.104  1.00  0.00    -0.458 OA
BRANCH  28  29
ATOM     29  C   UNL A   1      37.052  31.604  29.789  1.00  0.00     0.338 C 
ATOM     30  O   UNL A   1      37.700  32.626  29.647  1.00  0.00    -0.246 OA
BRANCH  29  31
ATOM     31  C   UNL A   1      37.642  30.264  29.615  1.00  0.00     0.060 A 
ATOM     32  C   UNL A   1      38.583  29.502  30.958  1.00  0.00     0.016 A 
ATOM     33  C   UNL A   1      37.967  29.792  27.902  1.00  0.00     0.016 A 
ATOM     34  C   UNL A   1      40.014  28.428  30.558  1.00  0.00     0.010 A 
ATOM     35  C   UNL A   1      39.392  28.760  27.521  1.00  0.00     0.010 A 
ATOM     36  C   UNL A   1      40.462  28.153  28.839  1.00  0.00    -0.014 A 
BRANCH  36  37
ATOM     37  C   UNL A   1      41.849  27.982  28.356  1.00  0.00     0.031 A 
ATOM     38  C   UNL A   1      42.398  26.625  28.181  1.00  0.00     0.074 A 
ATOM     39  C   UNL A   1      42.549  29.038  27.895  1.00  0.00     0.049 A 
ATOM     40  N   UNL A   1      42.651  26.017  27.064  1.00  0.00    -0.248 NA
ATOM     41  C   UNL A   1      42.623  25.829  29.389  1.00  0.00     0.031 C 
ATOM     42  C   UNL A   1      43.812  29.011  27.172  1.00  0.00     0.029 A 
ATOM     43  N   UNL A   1      42.398  30.380  28.226  1.00  0.00    -0.354 N 
ATOM     44  C   UNL A   1      43.138  24.755  27.396  1.00  0.00     0.074 A 
ATOM     45  C   UNL A   1      42.938  24.652  28.848  1.00  0.00     0.031 C 
ATOM     46  C   UNL A   1      44.478  30.146  27.454  1.00  0.00     0.029 A 
ATOM     47  C   UNL A   1      43.682  30.882  28.429  1.00  0.00     0.049 A 
ATOM     48  H   UNL A   1      41.552  30.877  28.301  1.00  0.00     0.167 HD
ATOM     49  C   UNL A   1      44.379  24.362  26.992  1.00  0.00     0.037 A 
ATOM     50  C   UNL A   1      44.105  31.260  29.670  1.00  0.00     0.037 A 
ATOM     51  C   UNL A   1      45.399  25.356  27.232  1.00  0.00     0.049 A 
ATOM     52  C   UNL A   1      45.188  30.311  30.149  1.00  0.00     0.074 A 
ATOM     53  C   UNL A   1      46.057  26.275  26.441  1.00  0.00     0.029 A 
ATOM     54  N   UNL A   1      45.733  25.658  28.546  1.00  0.00    -0.354 N 
ATOM     55  N   UNL A   1      45.296  29.055  29.786  1.00  0.00    -0.248 NA
ATOM     56  C   UNL A   1      46.297  30.753  30.985  1.00  0.00     0.031 C 
ATOM     57  C   UNL A   1      46.712  27.196  27.308  1.00  0.00     0.029 A 
ATOM     58  C   UNL A   1      46.480  26.811  28.621  1.00  0.00     0.049 A 
ATOM     59  H   UNL A   1      45.468  25.117  29.325  1.00  0.00     0.167 HD
ATOM     60  C   UNL A   1      46.497  28.556  30.240  1.00  0.00     0.074 A 
ATOM     61  C   UNL A   1      47.069  29.653  30.999  1.00  0.00     0.031 C 
ATOM     62  C   UNL A   1      46.975  27.314  29.902  1.00  0.00     0.037 A 
BRANCH  49  63
ATOM     63  C   UNL A   1      44.471  23.062  26.241  1.00  0.00     0.058 A 
ATOM     64  C   UNL A   1      43.362  22.215  26.074  1.00  0.00     0.135 A 
ATOM     65  C   UNL A   1      45.683  22.600  25.670  1.00  0.00     0.135 A 
ATOM     66  F   UNL A   1      42.159  22.553  26.561  1.00  0.00    -0.206 F 
ATOM     67  C   UNL A   1      43.455  20.979  25.424  1.00  0.00     0.059 A 
ATOM     68  C   UNL A   1      45.799  21.370  25.021  1.00  0.00     0.059 A 
ATOM     69  F   UNL A   1      46.801  23.343  25.726  1.00  0.00    -0.206 F 
ATOM     70  C   UNL A   1      44.681  20.556  24.915  1.00  0.00     0.060 A 
BRANCH  70  71
ATOM     71  S   UNL A   1      44.797  18.928  24.139  1.00  0.00     0.124 S 
ATOM     72  O   UNL A   1      43.739  18.191  24.823  1.00  0.00    -0.237 OA
ATOM     73  O   UNL A   1      44.551  19.236  22.734  1.00  0.00    -0.237 OA
ATOM     74  O   UNL A   1      46.156  18.495  24.453  1.00  0.00    -0.744 OA
ENDBRANCH  70  71
ENDBRANCH  49  63
BRANCH  50  75
ATOM     75  C   UNL A   1      43.087  31.975  30.501  1.00  0.00     0.058 A 
ATOM     76  C   UNL A   1      42.522  31.272  31.590  1.00  0.00     0.135 A 
ATOM     77  C   UNL A   1      42.869  33.358  30.473  1.00  0.00     0.135 A 
ATOM     78  F   UNL A   1      42.639  29.934  31.653  1.00  0.00    -0.206 F 
ATOM     79  C   UNL A   1      41.920  31.915  32.669  1.00  0.00     0.059 A 
ATOM     80  C   UNL A   1      42.239  34.026  31.537  1.00  0.00     0.059 A 
ATOM     81  F   UNL A   1      43.379  34.101  29.480  1.00  0.00    -0.206 F 
ATOM     82  C   UNL A   1      41.818  33.301  32.654  1.00  0.00     0.060 A 
BRANCH  82  83
ATOM     83  S   UNL A   1      41.267  34.136  34.168  1.00  0.00     0.124 S 
ATOM     84  O   UNL A   1      42.194  35.259  34.253  1.00  0.00    -0.237 OA
ATOM     85  O   UNL A   1      39.884  34.479  33.854  1.00  0.00    -0.237 OA
ATOM     86  O   UNL A   1      41.423  33.106  35.192  1.00  0.00    -0.744 OA
ENDBRANCH  82  83
ENDBRANCH  50  75
BRANCH  62  87
ATOM     87  C   UNL A   1      48.074  26.535  30.625  1.00  0.00     0.058 A 
ATOM     88  C   UNL A   1      49.362  26.299  30.111  1.00  0.00     0.135 A 
ATOM     89  C   UNL A   1      47.894  26.081  31.961  1.00  0.00     0.135 A 
ATOM     90  F   UNL A   1      49.767  26.824  28.948  1.00  0.00    -0.206 F 
ATOM     91  C   UNL A   1      50.333  25.563  30.796  1.00  0.00     0.059 A 
ATOM     92  C   UNL A   1      48.870  25.403  32.690  1.00  0.00     0.059 A 
ATOM     93  F   UNL A   1      46.765  26.312  32.646  1.00  0.00    -0.206 F 
ATOM     94  C   UNL A   1      50.076  25.110  32.083  1.00  0.00     0.060 A 
BRANCH  94  95
ATOM     95  S   UNL A   1      51.353  24.205  32.968  1.00  0.00     0.124 S 
ATOM     96  O   UNL A   1      52.526  25.033  32.712  1.00  0.00    -0.237 OA
ATOM     97  O   UNL A   1      50.854  24.222  34.340  1.00  0.00    -0.237 OA
ATOM     98  O   UNL A   1      51.350  22.895  32.324  1.00  0.00    -0.744 OA
ENDBRANCH  94  95
ENDBRANCH  62  87
ENDBRANCH  36  37
ENDBRANCH  29  31
ENDBRANCH  28  29
ENDBRANCH  27  28
ENDBRANCH  26  27
ENDBRANCH   1  26
TORSDOF 20
ENDMDL
MODEL 2
REMARK VINA RESULT:     -12.1      4.079     10.850
REMARK SMILES Cc1ccc(C(C)C)c(OCC(=O)Nc2nc(CC(=O)OCCOC(=O)c3ccc(-c4c5nc(c(-c6c(F)cc(S(=O)(=O)[O-])cc6F)c6ccc([nH]6)c(-c6c(F)cc(S(=O)(=O)[O-])cc6F)c6nc(c(-c7c(F)cc(S(=O)(=O)[O-])cc7F)c7ccc4[nH]7)C=C6)C=C5)cc3)cs2)c1
REMARK SMILES IDX 21 1 19 2 20 3 18 4 17 5 15 6 16 7 94 8 93 9 14 10 12 11
REMARK SMILES IDX 13 12 11 14 10 15 9 16 1 17 2 18 3 19 95 20 4 21 5 22 6 23
REMARK SMILES IDX 7 24 8 25 22 26 23 27 24 28 25 29 26 30 27 31 28 32 92 33
REMARK SMILES IDX 29 34 91 35 30 36 31 37 32 38 85 39 33 40 90 41 84 42 86 43
REMARK SMILES IDX 34 44 89 45 83 46 82 47 35 49 69 50 48 51 68 52 49 53 52 54
REMARK SMILES IDX 67 55 87 56 50 57 51 58 66 60 88 61 53 62 36 63 37 64 46 65
REMARK SMILES IDX 38 66 39 67 45 68 47 69 40 70 41 71 42 72 43 73 44 74 70 75
REMARK SMILES IDX 71 76 80 77 72 78 73 79 79 80 81 81 74 82 75 83 76 84 77 85
REMARK SMILES IDX 78 86 54 87 55 88 64 89 56 90 57 91 63 92 65 93 58 94 59 95
REMARK SMILES IDX 60 96 61 97 62 98
REMARK H PARENT 14 13 86 48 52 59
REMARK Flexibility Score: inf
ROOT
ATOM      1  O   UNL A   1      41.067  22.749  26.302  1.00  0.00    -0.462 OA
ENDROOT
BRANCH   1   2
ATOM      2  C   UNL A   1      39.774  22.148  26.515  1.00  0.00     0.312 C 
ATOM      3  O   UNL A   1      40.013  21.084  27.162  1.00  0.00    -0.252 OA
BRANCH   2   4
ATOM      4  C   UNL A   1      37.889  22.987  25.832  1.00  0.00     0.179 C 
BRANCH   4   5
ATOM      5  C   UNL A   1      36.276  22.354  25.661  1.00  0.00     0.065 A 
ATOM      6  C   UNL A   1      34.134  22.280  26.235  1.00  0.00     0.189 A 
ATOM      7  N   UNL A   1      35.262  22.903  26.473  1.00  0.00    -0.224 NA
ATOM      8  S   UNL A   1      34.170  21.062  25.048  1.00  0.00    -0.105 S 
ATOM      9  C   UNL A   1      35.767  21.541  24.652  1.00  0.00     0.093 A 
BRANCH   6  10
ATOM     10  N   UNL A   1      32.943  22.376  26.887  1.00  0.00    -0.299 N 
ATOM     11  C   UNL A   1      32.105  23.448  26.896  1.00  0.00     0.264 C 
ATOM     12  O   UNL A   1      31.027  23.328  27.496  1.00  0.00    -0.271 OA
ATOM     13  H   UNL A   1      32.658  21.588  27.404  1.00  0.00     0.172 HD
BRANCH  11  14
ATOM     14  C   UNL A   1      32.360  24.689  26.026  1.00  0.00     0.329 C 
BRANCH  14  15
ATOM     15  O   UNL A   1      31.402  25.678  25.776  1.00  0.00    -0.483 OA
BRANCH  15  16
ATOM     16  C   UNL A   1      31.794  26.982  25.736  1.00  0.00     0.123 A 
ATOM     17  C   UNL A   1      34.120  29.583  27.250  1.00  0.00     0.044 C 
ATOM     18  C   UNL A   1      33.045  28.937  26.435  1.00  0.00    -0.047 A 
ATOM     19  C   UNL A   1      32.378  29.708  25.481  1.00  0.00     0.004 A 
ATOM     20  C   UNL A   1      32.709  27.582  26.597  1.00  0.00     0.050 A 
ATOM     21  C   UNL A   1      31.419  29.124  24.671  1.00  0.00     0.008 A 
ATOM     22  C   UNL A   1      31.172  27.745  24.745  1.00  0.00    -0.003 A 
BRANCH  22  23
ATOM     23  C   UNL A   1      30.383  27.049  23.665  1.00  0.00     0.017 C 
ATOM     24  C   UNL A   1      29.059  27.729  23.340  1.00  0.00     0.012 C 
ATOM     25  C   UNL A   1      31.305  26.844  22.479  1.00  0.00     0.012 C 
ENDBRANCH  22  23
ENDBRANCH  15  16
ENDBRANCH  14  15
ENDBRANCH  11  14
ENDBRANCH   6  10
ENDBRANCH   4   5
ENDBRANCH   2   4
ENDBRANCH   1   2
BRANCH   1  26
ATOM     26  C   UNL A   1      41.300  24.004  26.963  1.00  0.00     0.274 C 
BRANCH  26  27
ATOM     27  C   UNL A   1      42.808  24.266  26.930  1.00  0.00     0.275 C 
BRANCH  27  28
ATOM     28  O   UNL A   1      43.168  25.672  26.955  1.00  0.00    -0.458 OA
BRANCH  28  29
ATOM     29  C   UNL A   1      42.816  26.477  25.919  1.00  0.00     0.338 C 
ATOM     30  O   UNL A   1      42.919  26.204  24.736  1.00  0.00    -0.246 OA
BRANCH  29  31
ATOM     31  C   UNL A   1      42.290  27.773  26.388  1.00  0.00     0.060 A 
ATOM     32  C   UNL A   1      43.384  28.957  27.209  1.00  0.00     0.016 A 
ATOM     33  C   UNL A   1      40.516  27.795  26.727  1.00  0.00     0.016 A 
ATOM     34  C   UNL A   1      42.718  30.018  28.548  1.00  0.00     0.010 A 
ATOM     35  C   UNL A   1      39.881  28.821  28.063  1.00  0.00     0.010 A 
ATOM     36  C   UNL A   1      40.993  29.863  29.026  1.00  0.00    -0.014 A 
BRANCH  36  37
ATOM     37  C   UNL A   1      40.492  30.032  30.408  1.00  0.00     0.031 A 
ATOM     38  C   UNL A   1      39.678  31.214  30.747  1.00  0.00     0.074 A 
ATOM     39  C   UNL A   1      40.608  29.034  31.305  1.00  0.00     0.049 A 
ATOM     40  N   UNL A   1      38.407  31.245  31.002  1.00  0.00    -0.248 NA
ATOM     41  C   UNL A   1      40.343  32.517  30.731  1.00  0.00     0.031 C 
ATOM     42  C   UNL A   1      39.968  28.943  32.610  1.00  0.00     0.029 A 
ATOM     43  N   UNL A   1      41.552  28.014  31.340  1.00  0.00    -0.354 N 
ATOM     44  C   UNL A   1      38.081  32.577  31.250  1.00  0.00     0.074 A 
ATOM     45  C   UNL A   1      39.297  33.325  30.903  1.00  0.00     0.031 C 
ATOM     46  C   UNL A   1      40.771  28.227  33.418  1.00  0.00     0.029 A 
ATOM     47  C   UNL A   1      41.979  27.917  32.663  1.00  0.00     0.049 A 
ATOM     48  H   UNL A   1      41.859  27.469  30.580  1.00  0.00     0.167 HD
ATOM     49  C   UNL A   1      37.541  32.949  32.444  1.00  0.00     0.037 A 
ATOM     50  C   UNL A   1      43.247  28.266  33.025  1.00  0.00     0.037 A 
ATOM     51  C   UNL A   1      38.238  32.398  33.584  1.00  0.00     0.049 A 
ATOM     52  C   UNL A   1      43.205  29.509  33.894  1.00  0.00     0.074 A 
ATOM     53  C   UNL A   1      38.000  31.351  34.450  1.00  0.00     0.029 A 
ATOM     54  N   UNL A   1      39.534  32.831  33.838  1.00  0.00    -0.354 N 
ATOM     55  N   UNL A   1      42.274  30.432  33.834  1.00  0.00    -0.248 NA
ATOM     56  C   UNL A   1      44.153  29.735  34.976  1.00  0.00     0.031 C 
ATOM     57  C   UNL A   1      39.208  31.098  35.160  1.00  0.00     0.029 A 
ATOM     58  C   UNL A   1      40.165  32.016  34.749  1.00  0.00     0.049 A 
ATOM     59  H   UNL A   1      39.948  33.620  33.419  1.00  0.00     0.167 HD
ATOM     60  C   UNL A   1      42.430  31.299  34.893  1.00  0.00     0.074 A 
ATOM     61  C   UNL A   1      43.631  30.827  35.559  1.00  0.00     0.031 C 
ATOM     62  C   UNL A   1      41.530  32.289  35.196  1.00  0.00     0.037 A 
BRANCH  49  63
ATOM     63  C   UNL A   1      36.250  33.719  32.398  1.00  0.00     0.058 A 
ATOM     64  C   UNL A   1      35.351  33.607  31.324  1.00  0.00     0.135 A 
ATOM     65  C   UNL A   1      35.868  34.621  33.423  1.00  0.00     0.135 A 
ATOM     66  F   UNL A   1      35.601  32.776  30.302  1.00  0.00    -0.206 F 
ATOM     67  C   UNL A   1      34.176  34.363  31.249  1.00  0.00     0.059 A 
ATOM     68  C   UNL A   1      34.702  35.388  33.367  1.00  0.00     0.059 A 
ATOM     69  F   UNL A   1      36.624  34.780  34.522  1.00  0.00    -0.206 F 
ATOM     70  C   UNL A   1      33.867  35.264  32.266  1.00  0.00     0.060 A 
BRANCH  70  71
ATOM     71  S   UNL A   1      32.380  36.281  32.120  1.00  0.00     0.124 S 
ATOM     72  O   UNL A   1      32.685  37.391  33.016  1.00  0.00    -0.237 OA
ATOM     73  O   UNL A   1      32.361  36.599  30.697  1.00  0.00    -0.237 OA
ATOM     74  O   UNL A   1      31.312  35.394  32.574  1.00  0.00    -0.744 OA
ENDBRANCH  70  71
ENDBRANCH  49  63
BRANCH  50  75
ATOM     75  C   UNL A   1      44.319  27.864  32.060  1.00  0.00     0.058 A 
ATOM     76  C   UNL A   1      44.960  28.892  31.330  1.00  0.00     0.135 A 
ATOM     77  C   UNL A   1      44.936  26.608  32.038  1.00  0.00     0.135 A 
ATOM     78  F   UNL A   1      44.395  30.109  31.257  1.00  0.00    -0.206 F 
ATOM     79  C   UNL A   1      46.216  28.731  30.750  1.00  0.00     0.059 A 
ATOM     80  C   UNL A   1      46.191  26.413  31.435  1.00  0.00     0.059 A 
ATOM     81  F   UNL A   1      44.399  25.580  32.712  1.00  0.00    -0.206 F 
ATOM     82  C   UNL A   1      46.846  27.495  30.842  1.00  0.00     0.060 A 
BRANCH  82  83
ATOM     83  S   UNL A   1      48.577  27.374  30.309  1.00  0.00     0.124 S 
ATOM     84  O   UNL A   1      49.235  28.333  31.188  1.00  0.00    -0.237 OA
ATOM     85  O   UNL A   1      48.886  25.971  30.558  1.00  0.00    -0.237 OA
ATOM     86  O   UNL A   1      48.517  27.744  28.898  1.00  0.00    -0.744 OA
ENDBRANCH  82  83
ENDBRANCH  50  75
BRANCH  62  87
ATOM     87  C   UNL A   1      41.784  33.507  36.086  1.00  0.00     0.058 A 
ATOM     88  C   UNL A   1      41.955  34.823  35.616  1.00  0.00     0.135 A 
ATOM     89  C   UNL A   1      41.747  33.401  37.504  1.00  0.00     0.135 A 
ATOM     90  F   UNL A   1      41.824  35.135  34.322  1.00  0.00    -0.206 F 
ATOM     91  C   UNL A   1      42.206  35.906  36.463  1.00  0.00     0.059 A 
ATOM     92  C   UNL A   1      41.927  34.479  38.370  1.00  0.00     0.059 A 
ATOM     93  F   UNL A   1      41.489  32.241  38.124  1.00  0.00    -0.206 F 
ATOM     94  C   UNL A   1      42.200  35.725  37.839  1.00  0.00     0.060 A 
BRANCH  94  95
ATOM     95  S   UNL A   1      42.478  37.139  38.914  1.00  0.00     0.124 S 
ATOM     96  O   UNL A   1      43.344  37.969  38.084  1.00  0.00    -0.237 OA
ATOM     97  O   UNL A   1      41.124  37.646  39.120  1.00  0.00    -0.237 OA
ATOM     98  O   UNL A   1      43.104  36.552  40.094  1.00  0.00    -0.744 OA
ENDBRANCH  94  95
ENDBRANCH  62  87
ENDBRANCH  36  37
ENDBRANCH  29  31
ENDBRANCH  28  29
ENDBRANCH  27  28
ENDBRANCH  26  27
ENDBRANCH   1  26
TORSDOF 20
ENDMDL
MODEL 3
REMARK VINA RESULT:     -12.0      4.220     10.801
REMARK SMILES Cc1ccc(C(C)C)c(OCC(=O)Nc2nc(CC(=O)OCCOC(=O)c3ccc(-c4c5nc(c(-c6c(F)cc(S(=O)(=O)[O-])cc6F)c6ccc([nH]6)c(-c6c(F)cc(S(=O)(=O)[O-])cc6F)c6nc(c(-c7c(F)cc(S(=O)(=O)[O-])cc7F)c7ccc4[nH]7)C=C6)C=C5)cc3)cs2)c1
REMARK SMILES IDX 21 1 19 2 20 3 18 4 17 5 15 6 16 7 94 8 93 9 14 10 12 11
REMARK SMILES IDX 13 12 11 14 10 15 9 16 1 17 2 18 3 19 95 20 4 21 5 22 6 23
REMARK SMILES IDX 7 24 8 25 22 26 23 27 24 28 25 29 26 30 27 31 28 32 92 33
REMARK SMILES IDX 29 34 91 35 30 36 31 37 32 38 85 39 33 40 90 41 84 42 86 43
REMARK SMILES IDX 34 44 89 45 83 46 82 47 35 49 69 50 48 51 68 52 49 53 52 54
REMARK SMILES IDX 67 55 87 56 50 57 51 58 66 60 88 61 53 62 36 63 37 64 46 65
REMARK SMILES IDX 38 66 39 67 45 68 47 69 40 70 41 71 42 72 43 73 44 74 70 75
REMARK SMILES IDX 71 76 80 77 72 78 73 79 79 80 81 81 74 82 75 83 76 84 77 85
REMARK SMILES IDX 78 86 54 87 55 88 64 89 56 90 57 91 63 92 65 93 58 94 59 95
REMARK SMILES IDX 60 96 61 97 62 98
REMARK H PARENT 14 13 86 48 52 59
REMARK Flexibility Score: inf
ROOT
ATOM      1  O   UNL A   1      40.749  23.133  26.244  1.00  0.00    -0.462 OA
ENDROOT
BRANCH   1   2
ATOM      2  C   UNL A   1      39.449  22.567  26.503  1.00  0.00     0.312 C 
ATOM      3  O   UNL A   1      39.685  21.430  27.012  1.00  0.00    -0.252 OA
BRANCH   2   4
ATOM      4  C   UNL A   1      37.560  23.554  26.076  1.00  0.00     0.179 C 
BRANCH   4   5
ATOM      5  C   UNL A   1      35.956  22.985  25.713  1.00  0.00     0.065 A 
ATOM      6  C   UNL A   1      33.835  22.631  26.262  1.00  0.00     0.189 A 
ATOM      7  N   UNL A   1      34.957  23.150  26.695  1.00  0.00    -0.224 NA
ATOM      8  S   UNL A   1      33.856  21.962  24.698  1.00  0.00    -0.105 S 
ATOM      9  C   UNL A   1      35.430  22.605  24.480  1.00  0.00     0.093 A 
BRANCH   6  10
ATOM     10  N   UNL A   1      32.664  22.434  26.927  1.00  0.00    -0.299 N 
ATOM     11  C   UNL A   1      31.641  23.322  27.054  1.00  0.00     0.264 C 
ATOM     12  O   UNL A   1      30.620  22.941  27.645  1.00  0.00    -0.271 OA
ATOM     13  H   UNL A   1      32.545  21.558  27.361  1.00  0.00     0.172 HD
BRANCH  11  14
ATOM     14  C   UNL A   1      31.637  24.671  26.318  1.00  0.00     0.329 C 
BRANCH  14  15
ATOM     15  O   UNL A   1      32.740  25.532  26.258  1.00  0.00    -0.483 OA
BRANCH  15  16
ATOM     16  C   UNL A   1      32.988  26.207  25.102  1.00  0.00     0.123 A 
ATOM     17  C   UNL A   1      32.889  26.023  21.304  1.00  0.00     0.044 C 
ATOM     18  C   UNL A   1      33.135  26.500  22.700  1.00  0.00    -0.047 A 
ATOM     19  C   UNL A   1      33.627  27.794  22.885  1.00  0.00     0.004 A 
ATOM     20  C   UNL A   1      32.868  25.688  23.816  1.00  0.00     0.050 A 
ATOM     21  C   UNL A   1      33.810  28.285  24.167  1.00  0.00     0.008 A 
ATOM     22  C   UNL A   1      33.425  27.522  25.280  1.00  0.00    -0.003 A 
BRANCH  22  23
ATOM     23  C   UNL A   1      33.313  28.158  26.643  1.00  0.00     0.017 C 
ATOM     24  C   UNL A   1      34.521  29.006  27.023  1.00  0.00     0.012 C 
ATOM     25  C   UNL A   1      31.980  28.877  26.708  1.00  0.00     0.012 C 
ENDBRANCH  22  23
ENDBRANCH  15  16
ENDBRANCH  14  15
ENDBRANCH  11  14
ENDBRANCH   6  10
ENDBRANCH   4   5
ENDBRANCH   2   4
ENDBRANCH   1   2
BRANCH   1  26
ATOM     26  C   UNL A   1      41.248  24.055  27.228  1.00  0.00     0.274 C 
BRANCH  26  27
ATOM     27  C   UNL A   1      42.750  24.220  26.981  1.00  0.00     0.275 C 
BRANCH  27  28
ATOM     28  O   UNL A   1      43.239  25.572  27.181  1.00  0.00    -0.458 OA
BRANCH  28  29
ATOM     29  C   UNL A   1      43.180  26.469  26.162  1.00  0.00     0.338 C 
ATOM     30  O   UNL A   1      43.468  26.247  24.999  1.00  0.00    -0.246 OA
BRANCH  29  31
ATOM     31  C   UNL A   1      42.727  27.794  26.626  1.00  0.00     0.060 A 
ATOM     32  C   UNL A   1      43.829  28.840  27.607  1.00  0.00     0.016 A 
ATOM     33  C   UNL A   1      40.937  27.976  26.774  1.00  0.00     0.016 A 
ATOM     34  C   UNL A   1      43.121  29.919  28.910  1.00  0.00     0.010 A 
ATOM     35  C   UNL A   1      40.256  29.017  28.076  1.00  0.00     0.010 A 
ATOM     36  C   UNL A   1      41.346  29.916  29.195  1.00  0.00    -0.014 A 
BRANCH  36  37
ATOM     37  C   UNL A   1      40.715  30.089  30.521  1.00  0.00     0.031 A 
ATOM     38  C   UNL A   1      39.907  31.293  30.791  1.00  0.00     0.074 A 
ATOM     39  C   UNL A   1      40.710  29.081  31.415  1.00  0.00     0.049 A 
ATOM     40  N   UNL A   1      38.619  31.362  30.918  1.00  0.00    -0.248 NA
ATOM     41  C   UNL A   1      40.610  32.575  30.856  1.00  0.00     0.031 C 
ATOM     42  C   UNL A   1      39.939  28.999  32.647  1.00  0.00     0.029 A 
ATOM     43  N   UNL A   1      41.614  28.031  31.532  1.00  0.00    -0.354 N 
ATOM     44  C   UNL A   1      38.310  32.701  31.147  1.00  0.00     0.074 A 
ATOM     45  C   UNL A   1      39.576  33.414  30.932  1.00  0.00     0.031 C 
ATOM     46  C   UNL A   1      40.634  28.251  33.524  1.00  0.00     0.029 A 
ATOM     47  C   UNL A   1      41.902  27.910  32.890  1.00  0.00     0.049 A 
ATOM     48  H   UNL A   1      41.978  27.483  30.801  1.00  0.00     0.167 HD
ATOM     49  C   UNL A   1      37.664  33.080  32.285  1.00  0.00     0.037 A 
ATOM     50  C   UNL A   1      43.138  28.216  33.381  1.00  0.00     0.037 A 
ATOM     51  C   UNL A   1      38.226  32.499  33.482  1.00  0.00     0.049 A 
ATOM     52  C   UNL A   1      43.046  29.452  34.256  1.00  0.00     0.074 A 
ATOM     53  C   UNL A   1      37.870  31.452  34.308  1.00  0.00     0.029 A 
ATOM     54  N   UNL A   1      39.502  32.888  33.870  1.00  0.00    -0.354 N 
ATOM     55  N   UNL A   1      42.155  30.404  34.113  1.00  0.00    -0.248 NA
ATOM     56  C   UNL A   1      43.887  29.639  35.430  1.00  0.00     0.031 C 
ATOM     57  C   UNL A   1      38.992  31.155  35.133  1.00  0.00     0.029 A 
ATOM     58  C   UNL A   1      40.013  32.046  34.830  1.00  0.00     0.049 A 
ATOM     59  H   UNL A   1      39.980  33.667  33.504  1.00  0.00     0.167 HD
ATOM     60  C   UNL A   1      42.230  31.257  35.193  1.00  0.00     0.074 A 
ATOM     61  C   UNL A   1      43.342  30.742  35.971  1.00  0.00     0.031 C 
ATOM     62  C   UNL A   1      41.334  32.273  35.415  1.00  0.00     0.037 A 
BRANCH  49  63
ATOM     63  C   UNL A   1      36.408  33.891  32.118  1.00  0.00     0.058 A 
ATOM     64  C   UNL A   1      35.979  34.811  33.091  1.00  0.00     0.135 A 
ATOM     65  C   UNL A   1      35.569  33.766  30.983  1.00  0.00     0.135 A 
ATOM     66  F   UNL A   1      36.697  35.022  34.202  1.00  0.00    -0.206 F 
ATOM     67  C   UNL A   1      34.783  35.527  32.967  1.00  0.00     0.059 A 
ATOM     68  C   UNL A   1      34.370  34.468  30.841  1.00  0.00     0.059 A 
ATOM     69  F   UNL A   1      35.898  32.951  29.967  1.00  0.00    -0.206 F 
ATOM     70  C   UNL A   1      33.975  35.338  31.847  1.00  0.00     0.060 A 
BRANCH  70  71
ATOM     71  S   UNL A   1      32.403  36.220  31.736  1.00  0.00     0.124 S 
ATOM     72  O   UNL A   1      31.510  35.341  32.484  1.00  0.00    -0.237 OA
ATOM     73  O   UNL A   1      32.717  37.496  32.370  1.00  0.00    -0.237 OA
ATOM     74  O   UNL A   1      32.147  36.285  30.299  1.00  0.00    -0.744 OA
ENDBRANCH  70  71
ENDBRANCH  49  63
BRANCH  50  75
ATOM     75  C   UNL A   1      44.289  27.789  32.525  1.00  0.00     0.058 A 
ATOM     76  C   UNL A   1      44.607  26.411  32.497  1.00  0.00     0.135 A 
ATOM     77  C   UNL A   1      44.879  28.584  31.536  1.00  0.00     0.135 A 
ATOM     78  F   UNL A   1      44.125  25.596  33.451  1.00  0.00    -0.206 F 
ATOM     79  C   UNL A   1      45.331  25.828  31.459  1.00  0.00     0.059 A 
ATOM     80  C   UNL A   1      45.638  28.022  30.494  1.00  0.00     0.059 A 
ATOM     81  F   UNL A   1      44.623  29.900  31.485  1.00  0.00    -0.206 F 
ATOM     82  C   UNL A   1      45.810  26.637  30.436  1.00  0.00     0.060 A 
BRANCH  82  83
ATOM     83  S   UNL A   1      46.525  25.836  28.973  1.00  0.00     0.124 S 
ATOM     84  O   UNL A   1      45.749  24.604  28.890  1.00  0.00    -0.237 OA
ATOM     85  O   UNL A   1      46.274  26.815  27.922  1.00  0.00    -0.237 OA
ATOM     86  O   UNL A   1      47.931  25.677  29.335  1.00  0.00    -0.744 OA
ENDBRANCH  82  83
ENDBRANCH  50  75
BRANCH  62  87
ATOM     87  C   UNL A   1      41.533  33.475  36.340  1.00  0.00     0.058 A 
ATOM     88  C   UNL A   1      42.372  34.571  36.062  1.00  0.00     0.135 A 
ATOM     89  C   UNL A   1      40.768  33.620  37.530  1.00  0.00     0.135 A 
ATOM     90  F   UNL A   1      43.016  34.691  34.896  1.00  0.00    -0.206 F 
ATOM     91  C   UNL A   1      42.542  35.641  36.945  1.00  0.00     0.059 A 
ATOM     92  C   UNL A   1      40.872  34.711  38.393  1.00  0.00     0.059 A 
ATOM     93  F   UNL A   1      39.843  32.722  37.896  1.00  0.00    -0.206 F 
ATOM     94  C   UNL A   1      41.796  35.700  38.113  1.00  0.00     0.060 A 
BRANCH  94  95
ATOM     95  S   UNL A   1      41.994  37.108  39.214  1.00  0.00     0.124 S 
ATOM     96  O   UNL A   1      42.968  37.912  38.485  1.00  0.00    -0.237 OA
ATOM     97  O   UNL A   1      40.640  37.653  39.272  1.00  0.00    -0.237 OA
ATOM     98  O   UNL A   1      42.472  36.505  40.455  1.00  0.00    -0.744 OA
ENDBRANCH  94  95
ENDBRANCH  62  87
ENDBRANCH  36  37
ENDBRANCH  29  31
ENDBRANCH  28  29
ENDBRANCH  27  28
ENDBRANCH  26  27
ENDBRANCH   1  26
TORSDOF 20
ENDMDL
