MODEL 1
REMARK VINA RESULT:     -12.0      0.000      0.000
REMARK SMILES CCCOc1ccc(-c2nc(C#N)c(N3CCC(C(=O)OCCOC(=O)c4ccc(-c5c6nc(c(-c7c(F)cc(S(=O)(=O)[O-])cc7F)c7ccc([nH]7)c(-c7c(F)cc(S(=O)(=O)[O-])cc7F)c7nc(c(-c8c(F)cc(S(=O)(=O)[O-])cc8F)c8ccc5[nH]8)C=C7)C=C6)cc4)CC3)o2)cc1
REMARK SMILES IDX 22 1 21 2 19 3 20 4 18 5 15 6 16 7 94 8 17 9 93 10 14 11
REMARK SMILES IDX 9 12 10 13 95 14 11 15 8 16 5 17 6 18 97 19 7 20 96 21 4 22
REMARK SMILES IDX 3 23 2 24 1 25 12 26 13 27 23 28 24 29 25 30 26 31 27 32
REMARK SMILES IDX 28 33 92 34 29 35 91 36 30 37 31 38 32 39 85 40 33 41 90 42
REMARK SMILES IDX 84 43 86 44 34 45 89 46 83 47 82 48 35 50 69 51 48 52 68 53
REMARK SMILES IDX 49 54 52 55 67 56 87 57 50 58 51 59 66 61 88 62 53 63 36 64
REMARK SMILES IDX 37 65 46 66 38 67 39 68 45 69 47 70 40 71 41 72 42 73 43 74
REMARK SMILES IDX 44 75 70 76 71 77 80 78 72 79 73 80 79 81 81 82 74 83 75 84
REMARK SMILES IDX 76 85 77 86 78 87 54 88 55 89 64 90 56 91 57 92 63 93 65 94
REMARK SMILES IDX 58 95 59 96 60 97 61 98 62 99
REMARK H PARENT 86 49 52 60
REMARK Flexibility Score: inf
ROOT
ATOM      1  C   UNL A   1      40.601  20.380  26.704  1.00  0.00     0.274 C 
ENDROOT
BRANCH   1   2
ATOM      2  O   UNL A   1      39.581  20.654  25.728  1.00  0.00    -0.462 OA
BRANCH   2   3
ATOM      3  C   UNL A   1      38.897  21.816  25.895  1.00  0.00     0.309 C 
ATOM      4  O   UNL A   1      39.187  22.689  26.708  1.00  0.00    -0.252 OA
BRANCH   3   5
ATOM      5  C   UNL A   1      37.656  21.903  25.034  1.00  0.00     0.103 C 
ATOM      6  N   UNL A   1      35.020  22.839  24.602  1.00  0.00    -0.340 N 
ATOM      7  C   UNL A   1      35.177  21.404  24.736  1.00  0.00     0.120 C 
ATOM      8  C   UNL A   1      36.114  23.577  23.997  1.00  0.00     0.120 C 
ATOM      9  C   UNL A   1      36.441  21.095  25.526  1.00  0.00     0.037 C 
ATOM     10  C   UNL A   1      37.334  23.390  24.882  1.00  0.00     0.037 C 
BRANCH   6  11
ATOM     11  C   UNL A   1      33.931  23.497  25.037  1.00  0.00     0.235 A 
ATOM     12  C   UNL A   1      32.403  25.012  24.873  1.00  0.00     0.230 A 
ATOM     13  N   UNL A   1      32.141  24.461  26.042  1.00  0.00    -0.196 NA
ATOM     14  O   UNL A   1      33.496  24.505  24.235  1.00  0.00    -0.419 OA
ATOM     15  C   UNL A   1      33.093  23.461  26.132  1.00  0.00     0.204 A 
BRANCH  12  16
ATOM     16  C   UNL A   1      31.699  26.035  24.124  1.00  0.00     0.037 A 
ATOM     17  C   UNL A   1      30.312  27.906  22.584  1.00  0.00     0.119 A 
ATOM     18  C   UNL A   1      30.057  27.814  23.952  1.00  0.00     0.047 A 
ATOM     19  C   UNL A   1      31.321  27.148  22.004  1.00  0.00     0.047 A 
ATOM     20  C   UNL A   1      30.750  26.871  24.723  1.00  0.00     0.017 A 
ATOM     21  C   UNL A   1      31.986  26.193  22.760  1.00  0.00     0.017 A 
BRANCH  17  22
ATOM     22  O   UNL A   1      29.629  28.801  21.810  1.00  0.00    -0.494 OA
BRANCH  22  23
ATOM     23  C   UNL A   1      29.398  30.044  22.496  1.00  0.00     0.229 C 
BRANCH  23  24
ATOM     24  C   UNL A   1      27.924  30.293  22.855  1.00  0.00     0.038 C 
ATOM     25  C   UNL A   1      27.629  31.733  23.269  1.00  0.00     0.007 C 
ENDBRANCH  23  24
ENDBRANCH  22  23
ENDBRANCH  17  22
ENDBRANCH  12  16
BRANCH  15  26
ATOM     26  C   UNL A   1      33.207  22.628  27.276  1.00  0.00     0.125 C 
ATOM     27  N   UNL A   1      33.292  21.959  28.234  1.00  0.00    -0.190 NA
ENDBRANCH  15  26
ENDBRANCH   6  11
ENDBRANCH   3   5
ENDBRANCH   2   3
ENDBRANCH   1   2
BRANCH   1  28
ATOM     28  C   UNL A   1      41.758  19.589  26.107  1.00  0.00     0.275 C 
BRANCH  28  29
ATOM     29  O   UNL A   1      43.017  20.182  26.428  1.00  0.00    -0.458 OA
BRANCH  29  30
ATOM     30  C   UNL A   1      43.699  20.633  25.353  1.00  0.00     0.338 C 
ATOM     31  O   UNL A   1      44.207  19.954  24.476  1.00  0.00    -0.246 OA
BRANCH  30  32
ATOM     32  C   UNL A   1      43.988  22.057  25.488  1.00  0.00     0.060 A 
ATOM     33  C   UNL A   1      44.844  22.432  26.530  1.00  0.00     0.016 A 
ATOM     34  C   UNL A   1      43.112  22.959  24.878  1.00  0.00     0.016 A 
ATOM     35  C   UNL A   1      44.634  23.655  27.127  1.00  0.00     0.010 A 
ATOM     36  C   UNL A   1      42.900  24.171  25.481  1.00  0.00     0.010 A 
ATOM     37  C   UNL A   1      43.589  24.459  26.655  1.00  0.00    -0.014 A 
BRANCH  37  38
ATOM     38  C   UNL A   1      43.339  25.735  27.294  1.00  0.00     0.031 A 
ATOM     39  C   UNL A   1      44.436  26.675  26.979  1.00  0.00     0.074 A 
ATOM     40  C   UNL A   1      42.198  26.028  27.951  1.00  0.00     0.049 A 
ATOM     41  N   UNL A   1      45.448  26.955  27.731  1.00  0.00    -0.248 NA
ATOM     42  C   UNL A   1      44.603  27.107  25.580  1.00  0.00     0.031 C 
ATOM     43  C   UNL A   1      40.983  25.215  28.080  1.00  0.00     0.029 A 
ATOM     44  N   UNL A   1      41.857  27.177  28.604  1.00  0.00    -0.354 N 
ATOM     45  C   UNL A   1      46.199  27.861  26.992  1.00  0.00     0.074 A 
ATOM     46  C   UNL A   1      45.811  27.671  25.624  1.00  0.00     0.031 C 
ATOM     47  C   UNL A   1      39.974  25.976  28.568  1.00  0.00     0.029 A 
ATOM     48  C   UNL A   1      40.502  27.281  28.929  1.00  0.00     0.049 A 
ATOM     49  H   UNL A   1      42.514  27.876  28.827  1.00  0.00     0.167 HD
ATOM     50  C   UNL A   1      46.766  28.934  27.610  1.00  0.00     0.037 A 
ATOM     51  C   UNL A   1      39.886  28.378  29.449  1.00  0.00     0.037 A 
ATOM     52  C   UNL A   1      46.740  28.746  29.041  1.00  0.00     0.049 A 
ATOM     53  C   UNL A   1      40.951  29.187  30.089  1.00  0.00     0.074 A 
ATOM     54  C   UNL A   1      47.380  27.933  29.952  1.00  0.00     0.029 A 
ATOM     55  N   UNL A   1      45.585  29.195  29.631  1.00  0.00    -0.354 N 
ATOM     56  N   UNL A   1      41.623  28.780  31.132  1.00  0.00    -0.248 NA
ATOM     57  C   UNL A   1      41.583  30.252  29.319  1.00  0.00     0.031 C 
ATOM     58  C   UNL A   1      46.452  27.738  31.020  1.00  0.00     0.029 A 
ATOM     59  C   UNL A   1      45.305  28.492  30.770  1.00  0.00     0.049 A 
ATOM     60  H   UNL A   1      45.030  29.928  29.280  1.00  0.00     0.167 HD
ATOM     61  C   UNL A   1      42.918  29.213  30.907  1.00  0.00     0.074 A 
ATOM     62  C   UNL A   1      42.802  30.234  29.867  1.00  0.00     0.031 C 
ATOM     63  C   UNL A   1      43.979  28.479  31.354  1.00  0.00     0.037 A 
BRANCH  50  64
ATOM     64  C   UNL A   1      46.836  30.327  27.010  1.00  0.00     0.058 A 
ATOM     65  C   UNL A   1      48.058  31.030  27.082  1.00  0.00     0.135 A 
ATOM     66  C   UNL A   1      45.717  31.108  26.640  1.00  0.00     0.135 A 
ATOM     67  F   UNL A   1      49.190  30.399  27.432  1.00  0.00    -0.206 F 
ATOM     68  C   UNL A   1      48.146  32.407  26.866  1.00  0.00     0.059 A 
ATOM     69  C   UNL A   1      45.791  32.469  26.372  1.00  0.00     0.059 A 
ATOM     70  F   UNL A   1      44.471  30.625  26.604  1.00  0.00    -0.206 F 
ATOM     71  C   UNL A   1      47.002  33.119  26.518  1.00  0.00     0.060 A 
BRANCH  71  72
ATOM     72  S   UNL A   1      47.096  34.901  26.287  1.00  0.00     0.124 S 
ATOM     73  O   UNL A   1      47.538  35.345  27.603  1.00  0.00    -0.237 OA
ATOM     74  O   UNL A   1      48.073  35.010  25.209  1.00  0.00    -0.237 OA
ATOM     75  O   UNL A   1      45.729  35.264  25.923  1.00  0.00    -0.744 OA
ENDBRANCH  71  72
ENDBRANCH  50  64
BRANCH  51  76
ATOM     76  C   UNL A   1      38.531  28.935  29.169  1.00  0.00     0.058 A 
ATOM     77  C   UNL A   1      37.592  29.184  30.191  1.00  0.00     0.135 A 
ATOM     78  C   UNL A   1      38.249  29.524  27.922  1.00  0.00     0.135 A 
ATOM     79  F   UNL A   1      37.792  28.690  31.423  1.00  0.00    -0.206 F 
ATOM     80  C   UNL A   1      36.461  29.994  29.996  1.00  0.00     0.059 A 
ATOM     81  C   UNL A   1      37.133  30.337  27.704  1.00  0.00     0.059 A 
ATOM     82  F   UNL A   1      39.109  29.400  26.900  1.00  0.00    -0.206 F 
ATOM     83  C   UNL A   1      36.250  30.583  28.750  1.00  0.00     0.060 A 
BRANCH  83  84
ATOM     84  S   UNL A   1      34.877  31.746  28.525  1.00  0.00     0.124 S 
ATOM     85  O   UNL A   1      34.634  32.199  29.890  1.00  0.00    -0.237 OA
ATOM     86  O   UNL A   1      35.450  32.736  27.620  1.00  0.00    -0.237 OA
ATOM     87  O   UNL A   1      33.821  30.917  27.948  1.00  0.00    -0.744 OA
ENDBRANCH  83  84
ENDBRANCH  51  76
BRANCH  63  88
ATOM     88  C   UNL A   1      43.725  27.493  32.462  1.00  0.00     0.058 A 
ATOM     89  C   UNL A   1      43.743  26.094  32.325  1.00  0.00     0.135 A 
ATOM     90  C   UNL A   1      43.566  28.012  33.754  1.00  0.00     0.135 A 
ATOM     91  F   UNL A   1      43.972  25.521  31.134  1.00  0.00    -0.206 F 
ATOM     92  C   UNL A   1      43.578  25.249  33.427  1.00  0.00     0.059 A 
ATOM     93  C   UNL A   1      43.430  27.192  34.866  1.00  0.00     0.059 A 
ATOM     94  F   UNL A   1      43.593  29.339  33.951  1.00  0.00    -0.206 F 
ATOM     95  C   UNL A   1      43.424  25.810  34.695  1.00  0.00     0.060 A 
BRANCH  95  96
ATOM     96  S   UNL A   1      43.273  24.729  36.134  1.00  0.00     0.124 S 
ATOM     97  O   UNL A   1      41.927  24.189  35.973  1.00  0.00    -0.237 OA
ATOM     98  O   UNL A   1      44.365  23.781  35.932  1.00  0.00    -0.237 OA
ATOM     99  O   UNL A   1      43.449  25.637  37.264  1.00  0.00    -0.744 OA
ENDBRANCH  95  96
ENDBRANCH  63  88
ENDBRANCH  37  38
ENDBRANCH  30  32
ENDBRANCH  29  30
ENDBRANCH  28  29
ENDBRANCH   1  28
TORSDOF 20
ENDMDL
MODEL 2
REMARK VINA RESULT:     -11.9      2.631      3.762
REMARK SMILES CCCOc1ccc(-c2nc(C#N)c(N3CCC(C(=O)OCCOC(=O)c4ccc(-c5c6nc(c(-c7c(F)cc(S(=O)(=O)[O-])cc7F)c7ccc([nH]7)c(-c7c(F)cc(S(=O)(=O)[O-])cc7F)c7nc(c(-c8c(F)cc(S(=O)(=O)[O-])cc8F)c8ccc5[nH]8)C=C7)C=C6)cc4)CC3)o2)cc1
REMARK SMILES IDX 22 1 21 2 19 3 20 4 18 5 15 6 16 7 94 8 17 9 93 10 14 11
REMARK SMILES IDX 9 12 10 13 95 14 11 15 8 16 5 17 6 18 97 19 7 20 96 21 4 22
REMARK SMILES IDX 3 23 2 24 1 25 12 26 13 27 23 28 24 29 25 30 26 31 27 32
REMARK SMILES IDX 28 33 92 34 29 35 91 36 30 37 31 38 32 39 85 40 33 41 90 42
REMARK SMILES IDX 84 43 86 44 34 45 89 46 83 47 82 48 35 50 69 51 48 52 68 53
REMARK SMILES IDX 49 54 52 55 67 56 87 57 50 58 51 59 66 61 88 62 53 63 36 64
REMARK SMILES IDX 37 65 46 66 38 67 39 68 45 69 47 70 40 71 41 72 42 73 43 74
REMARK SMILES IDX 44 75 70 76 71 77 80 78 72 79 73 80 79 81 81 82 74 83 75 84
REMARK SMILES IDX 76 85 77 86 78 87 54 88 55 89 64 90 56 91 57 92 63 93 65 94
REMARK SMILES IDX 58 95 59 96 60 97 61 98 62 99
REMARK H PARENT 86 49 52 60
REMARK Flexibility Score: inf
ROOT
ATOM      1  C   UNL A   1      38.008  22.881  26.001  1.00  0.00     0.274 C 
ENDROOT
BRANCH   1   2
ATOM      2  O   UNL A   1      37.509  22.424  24.732  1.00  0.00    -0.462 OA
BRANCH   2   3
ATOM      3  C   UNL A   1      36.918  21.200  24.732  1.00  0.00     0.309 C 
ATOM      4  O   UNL A   1      37.521  20.132  24.718  1.00  0.00    -0.252 OA
BRANCH   3   5
ATOM      5  C   UNL A   1      35.408  21.270  24.654  1.00  0.00     0.103 C 
ATOM      6  N   UNL A   1      32.973  22.599  25.216  1.00  0.00    -0.340 N 
ATOM      7  C   UNL A   1      33.168  21.315  25.863  1.00  0.00     0.120 C 
ATOM      8  C   UNL A   1      33.562  22.780  23.901  1.00  0.00     0.120 C 
ATOM      9  C   UNL A   1      34.656  21.014  25.972  1.00  0.00     0.037 C 
ATOM     10  C   UNL A   1      35.066  22.633  24.052  1.00  0.00     0.037 C 
BRANCH   6  11
ATOM     11  C   UNL A   1      32.304  23.612  25.794  1.00  0.00     0.235 A 
ATOM     12  C   UNL A   1      32.102  25.655  26.457  1.00  0.00     0.230 A 
ATOM     13  N   UNL A   1      30.979  25.104  26.872  1.00  0.00    -0.196 NA
ATOM     14  O   UNL A   1      32.964  24.800  25.837  1.00  0.00    -0.419 OA
ATOM     15  C   UNL A   1      31.086  23.802  26.412  1.00  0.00     0.204 A 
BRANCH  12  16
ATOM     16  C   UNL A   1      32.561  27.031  26.502  1.00  0.00     0.037 A 
ATOM     17  C   UNL A   1      33.441  29.671  26.730  1.00  0.00     0.119 A 
ATOM     18  C   UNL A   1      34.120  28.788  25.891  1.00  0.00     0.047 A 
ATOM     19  C   UNL A   1      32.274  29.275  27.370  1.00  0.00     0.047 A 
ATOM     20  C   UNL A   1      33.681  27.462  25.781  1.00  0.00     0.017 A 
ATOM     21  C   UNL A   1      31.855  27.954  27.286  1.00  0.00     0.017 A 
BRANCH  17  22
ATOM     22  O   UNL A   1      33.867  30.961  26.871  1.00  0.00    -0.494 OA
BRANCH  22  23
ATOM     23  C   UNL A   1      34.904  31.083  27.862  1.00  0.00     0.229 C 
BRANCH  23  24
ATOM     24  C   UNL A   1      35.685  29.784  28.111  1.00  0.00     0.038 C 
ATOM     25  C   UNL A   1      37.152  29.861  27.694  1.00  0.00     0.007 C 
ENDBRANCH  23  24
ENDBRANCH  22  23
ENDBRANCH  17  22
ENDBRANCH  12  16
BRANCH  15  26
ATOM     26  C   UNL A   1      30.094  22.824  26.680  1.00  0.00     0.125 C 
ATOM     27  N   UNL A   1      29.263  22.032  26.915  1.00  0.00    -0.190 NA
ENDBRANCH  15  26
ENDBRANCH   6  11
ENDBRANCH   3   5
ENDBRANCH   2   3
ENDBRANCH   1   2
BRANCH   1  28
ATOM     28  C   UNL A   1      39.247  22.108  26.433  1.00  0.00     0.275 C 
BRANCH  28  29
ATOM     29  O   UNL A   1      40.162  22.943  27.143  1.00  0.00    -0.458 OA
BRANCH  29  30
ATOM     30  C   UNL A   1      41.318  23.172  26.483  1.00  0.00     0.338 C 
ATOM     31  O   UNL A   1      42.036  22.335  25.962  1.00  0.00    -0.246 OA
BRANCH  30  32
ATOM     32  C   UNL A   1      41.759  24.549  26.681  1.00  0.00     0.060 A 
ATOM     33  C   UNL A   1      42.761  24.760  27.635  1.00  0.00     0.016 A 
ATOM     34  C   UNL A   1      40.913  25.572  26.246  1.00  0.00     0.016 A 
ATOM     35  C   UNL A   1      42.742  25.944  28.337  1.00  0.00     0.010 A 
ATOM     36  C   UNL A   1      40.891  26.745  26.954  1.00  0.00     0.010 A 
ATOM     37  C   UNL A   1      41.734  26.875  28.054  1.00  0.00    -0.014 A 
BRANCH  37  38
ATOM     38  C   UNL A   1      41.686  28.111  28.805  1.00  0.00     0.031 A 
ATOM     39  C   UNL A   1      42.801  28.991  28.394  1.00  0.00     0.074 A 
ATOM     40  C   UNL A   1      40.679  28.435  29.643  1.00  0.00     0.049 A 
ATOM     41  N   UNL A   1      43.930  29.138  29.003  1.00  0.00    -0.248 NA
ATOM     42  C   UNL A   1      42.801  29.517  27.017  1.00  0.00     0.031 C 
ATOM     43  C   UNL A   1      39.432  27.705  29.897  1.00  0.00     0.029 A 
ATOM     44  N   UNL A   1      40.532  29.551  30.414  1.00  0.00    -0.354 N 
ATOM     45  C   UNL A   1      44.640  30.041  28.223  1.00  0.00     0.074 A 
ATOM     46  C   UNL A   1      44.046  29.987  26.918  1.00  0.00     0.031 C 
ATOM     47  C   UNL A   1      38.570  28.498  30.579  1.00  0.00     0.029 A 
ATOM     48  C   UNL A   1      39.251  29.729  30.943  1.00  0.00     0.049 A 
ATOM     49  H   UNL A   1      41.270  30.181  30.582  1.00  0.00     0.167 HD
ATOM     50  C   UNL A   1      45.377  31.018  28.819  1.00  0.00     0.037 A 
ATOM     51  C   UNL A   1      38.809  30.824  31.621  1.00  0.00     0.037 A 
ATOM     52  C   UNL A   1      45.541  30.722  30.223  1.00  0.00     0.049 A 
ATOM     53  C   UNL A   1      40.019  31.501  32.147  1.00  0.00     0.074 A 
ATOM     54  C   UNL A   1      46.235  29.796  30.972  1.00  0.00     0.029 A 
ATOM     55  N   UNL A   1      44.524  31.207  31.006  1.00  0.00    -0.354 N 
ATOM     56  N   UNL A   1      40.797  30.966  33.049  1.00  0.00    -0.248 NA
ATOM     57  C   UNL A   1      40.621  32.573  31.364  1.00  0.00     0.031 C 
ATOM     58  C   UNL A   1      45.456  29.587  32.151  1.00  0.00     0.029 A 
ATOM     59  C   UNL A   1      44.352  30.440  32.125  1.00  0.00     0.049 A 
ATOM     60  H   UNL A   1      43.988  32.003  30.791  1.00  0.00     0.167 HD
ATOM     61  C   UNL A   1      42.078  31.320  32.663  1.00  0.00     0.074 A 
ATOM     62  C   UNL A   1      41.900  32.424  31.723  1.00  0.00     0.031 C 
ATOM     63  C   UNL A   1      43.127  30.478  32.897  1.00  0.00     0.037 A 
BRANCH  50  64
ATOM     64  C   UNL A   1      45.478  32.445  28.310  1.00  0.00     0.058 A 
ATOM     65  C   UNL A   1      46.759  32.986  28.067  1.00  0.00     0.135 A 
ATOM     66  C   UNL A   1      44.423  33.388  28.326  1.00  0.00     0.135 A 
ATOM     67  F   UNL A   1      47.840  32.191  28.037  1.00  0.00    -0.206 F 
ATOM     68  C   UNL A   1      46.979  34.357  27.917  1.00  0.00     0.059 A 
ATOM     69  C   UNL A   1      44.615  34.750  28.131  1.00  0.00     0.059 A 
ATOM     70  F   UNL A   1      43.161  33.064  28.623  1.00  0.00    -0.206 F 
ATOM     71  C   UNL A   1      45.898  35.232  27.959  1.00  0.00     0.060 A 
BRANCH  71  72
ATOM     72  S   UNL A   1      46.178  37.003  27.818  1.00  0.00     0.124 S 
ATOM     73  O   UNL A   1      46.227  37.179  26.372  1.00  0.00    -0.237 OA
ATOM     74  O   UNL A   1      45.003  37.545  28.492  1.00  0.00    -0.237 OA
ATOM     75  O   UNL A   1      47.442  37.200  28.522  1.00  0.00    -0.744 OA
ENDBRANCH  71  72
ENDBRANCH  50  64
BRANCH  51  76
ATOM     76  C   UNL A   1      37.480  31.498  31.583  1.00  0.00     0.058 A 
ATOM     77  C   UNL A   1      36.625  31.543  32.704  1.00  0.00     0.135 A 
ATOM     78  C   UNL A   1      37.159  32.380  30.533  1.00  0.00     0.135 A 
ATOM     79  F   UNL A   1      36.869  30.762  33.767  1.00  0.00    -0.206 F 
ATOM     80  C   UNL A   1      35.541  32.432  32.791  1.00  0.00     0.059 A 
ATOM     81  C   UNL A   1      36.089  33.275  30.597  1.00  0.00     0.059 A 
ATOM     82  F   UNL A   1      37.944  32.459  29.448  1.00  0.00    -0.206 F 
ATOM     83  C   UNL A   1      35.292  33.310  31.736  1.00  0.00     0.060 A 
BRANCH  83  84
ATOM     84  S   UNL A   1      33.987  34.559  31.894  1.00  0.00     0.124 S 
ATOM     85  O   UNL A   1      34.743  35.739  32.304  1.00  0.00    -0.237 OA
ATOM     86  O   UNL A   1      33.427  34.599  30.548  1.00  0.00    -0.237 OA
ATOM     87  O   UNL A   1      33.105  34.001  32.917  1.00  0.00    -0.744 OA
ENDBRANCH  83  84
ENDBRANCH  51  76
BRANCH  63  88
ATOM     88  C   UNL A   1      42.953  29.430  33.963  1.00  0.00     0.058 A 
ATOM     89  C   UNL A   1      43.080  29.647  35.346  1.00  0.00     0.135 A 
ATOM     90  C   UNL A   1      42.524  28.162  33.547  1.00  0.00     0.135 A 
ATOM     91  F   UNL A   1      43.407  30.856  35.826  1.00  0.00    -0.206 F 
ATOM     92  C   UNL A   1      42.819  28.634  36.273  1.00  0.00     0.059 A 
ATOM     93  C   UNL A   1      42.231  27.149  34.451  1.00  0.00     0.059 A 
ATOM     94  F   UNL A   1      42.336  27.912  32.242  1.00  0.00    -0.206 F 
ATOM     95  C   UNL A   1      42.393  27.387  35.813  1.00  0.00     0.060 A 
BRANCH  95  96
ATOM     96  S   UNL A   1      41.993  26.089  37.004  1.00  0.00     0.124 S 
ATOM     97  O   UNL A   1      42.229  24.876  36.229  1.00  0.00    -0.237 OA
ATOM     98  O   UNL A   1      42.941  26.348  38.084  1.00  0.00    -0.237 OA
ATOM     99  O   UNL A   1      40.595  26.352  37.339  1.00  0.00    -0.744 OA
ENDBRANCH  95  96
ENDBRANCH  63  88
ENDBRANCH  37  38
ENDBRANCH  30  32
ENDBRANCH  29  30
ENDBRANCH  28  29
ENDBRANCH   1  28
TORSDOF 20
ENDMDL
MODEL 3
REMARK VINA RESULT:     -11.8      2.611      4.161
REMARK SMILES CCCOc1ccc(-c2nc(C#N)c(N3CCC(C(=O)OCCOC(=O)c4ccc(-c5c6nc(c(-c7c(F)cc(S(=O)(=O)[O-])cc7F)c7ccc([nH]7)c(-c7c(F)cc(S(=O)(=O)[O-])cc7F)c7nc(c(-c8c(F)cc(S(=O)(=O)[O-])cc8F)c8ccc5[nH]8)C=C7)C=C6)cc4)CC3)o2)cc1
REMARK SMILES IDX 22 1 21 2 19 3 20 4 18 5 15 6 16 7 94 8 17 9 93 10 14 11
REMARK SMILES IDX 9 12 10 13 95 14 11 15 8 16 5 17 6 18 97 19 7 20 96 21 4 22
REMARK SMILES IDX 3 23 2 24 1 25 12 26 13 27 23 28 24 29 25 30 26 31 27 32
REMARK SMILES IDX 28 33 92 34 29 35 91 36 30 37 31 38 32 39 85 40 33 41 90 42
REMARK SMILES IDX 84 43 86 44 34 45 89 46 83 47 82 48 35 50 69 51 48 52 68 53
REMARK SMILES IDX 49 54 52 55 67 56 87 57 50 58 51 59 66 61 88 62 53 63 36 64
REMARK SMILES IDX 37 65 46 66 38 67 39 68 45 69 47 70 40 71 41 72 42 73 43 74
REMARK SMILES IDX 44 75 70 76 71 77 80 78 72 79 73 80 79 81 81 82 74 83 75 84
REMARK SMILES IDX 76 85 77 86 78 87 54 88 55 89 64 90 56 91 57 92 63 93 65 94
REMARK SMILES IDX 58 95 59 96 60 97 61 98 62 99
REMARK H PARENT 86 49 52 60
REMARK Flexibility Score: inf
ROOT
ATOM      1  C   UNL A   1      36.650  21.503  25.792  1.00  0.00     0.274 C 
ENDROOT
BRANCH   1   2
ATOM      2  O   UNL A   1      35.866  21.323  24.599  1.00  0.00    -0.462 OA
BRANCH   2   3
ATOM      3  C   UNL A   1      34.656  20.728  24.768  1.00  0.00     0.309 C 
ATOM      4  O   UNL A   1      34.486  19.526  24.946  1.00  0.00    -0.252 OA
BRANCH   3   5
ATOM      5  C   UNL A   1      33.496  21.689  24.617  1.00  0.00     0.103 C 
ATOM      6  N   UNL A   1      32.500  24.277  24.051  1.00  0.00    -0.340 N 
ATOM      7  C   UNL A   1      32.301  23.795  25.404  1.00  0.00     0.120 C 
ATOM      8  C   UNL A   1      32.491  23.292  22.984  1.00  0.00     0.120 C 
ATOM      9  C   UNL A   1      33.346  22.738  25.734  1.00  0.00     0.037 C 
ATOM     10  C   UNL A   1      33.640  22.333  23.239  1.00  0.00     0.037 C 
BRANCH   6  11
ATOM     11  C   UNL A   1      32.718  25.572  23.763  1.00  0.00     0.235 A 
ATOM     12  C   UNL A   1      32.952  27.649  24.296  1.00  0.00     0.230 A 
ATOM     13  N   UNL A   1      33.040  27.676  22.981  1.00  0.00    -0.196 NA
ATOM     14  O   UNL A   1      32.715  26.417  24.829  1.00  0.00    -0.419 OA
ATOM     15  C   UNL A   1      32.932  26.339  22.637  1.00  0.00     0.204 A 
BRANCH  12  16
ATOM     16  C   UNL A   1      33.112  28.701  25.283  1.00  0.00     0.037 A 
ATOM     17  C   UNL A   1      33.293  30.692  27.232  1.00  0.00     0.119 A 
ATOM     18  C   UNL A   1      34.351  29.800  27.056  1.00  0.00     0.047 A 
ATOM     19  C   UNL A   1      32.199  30.661  26.377  1.00  0.00     0.047 A 
ATOM     20  C   UNL A   1      34.257  28.798  26.082  1.00  0.00     0.017 A 
ATOM     21  C   UNL A   1      32.091  29.650  25.432  1.00  0.00     0.017 A 
BRANCH  17  22
ATOM     22  O   UNL A   1      33.354  31.660  28.194  1.00  0.00    -0.494 OA
BRANCH  22  23
ATOM     23  C   UNL A   1      32.920  32.941  27.701  1.00  0.00     0.229 C 
BRANCH  23  24
ATOM     24  C   UNL A   1      33.885  34.092  28.027  1.00  0.00     0.038 C 
ATOM     25  C   UNL A   1      35.354  33.744  27.797  1.00  0.00     0.007 C 
ENDBRANCH  23  24
ENDBRANCH  22  23
ENDBRANCH  17  22
ENDBRANCH  12  16
BRANCH  15  26
ATOM     26  C   UNL A   1      32.931  25.905  21.287  1.00  0.00     0.125 C 
ATOM     27  N   UNL A   1      32.908  25.538  20.175  1.00  0.00    -0.190 NA
ENDBRANCH  15  26
ENDBRANCH   6  11
ENDBRANCH   3   5
ENDBRANCH   2   3
ENDBRANCH   1   2
BRANCH   1  28
ATOM     28  C   UNL A   1      38.049  22.016  25.477  1.00  0.00     0.275 C 
BRANCH  28  29
ATOM     29  O   UNL A   1      38.466  23.006  26.417  1.00  0.00    -0.458 OA
BRANCH  29  30
ATOM     30  C   UNL A   1      39.722  22.825  26.881  1.00  0.00     0.338 C 
ATOM     31  O   UNL A   1      40.193  21.789  27.319  1.00  0.00    -0.246 OA
BRANCH  30  32
ATOM     32  C   UNL A   1      40.402  24.107  27.038  1.00  0.00     0.060 A 
ATOM     33  C   UNL A   1      41.393  24.179  28.023  1.00  0.00     0.016 A 
ATOM     34  C   UNL A   1      39.772  25.245  26.525  1.00  0.00     0.016 A 
ATOM     35  C   UNL A   1      41.569  25.380  28.673  1.00  0.00     0.010 A 
ATOM     36  C   UNL A   1      39.943  26.435  27.181  1.00  0.00     0.010 A 
ATOM     37  C   UNL A   1      40.759  26.464  28.308  1.00  0.00    -0.014 A 
BRANCH  37  38
ATOM     38  C   UNL A   1      40.913  27.724  29.004  1.00  0.00     0.031 A 
ATOM     39  C   UNL A   1      42.046  28.478  28.427  1.00  0.00     0.074 A 
ATOM     40  C   UNL A   1      40.048  28.171  29.938  1.00  0.00     0.049 A 
ATOM     41  N   UNL A   1      43.249  28.537  28.894  1.00  0.00    -0.248 NA
ATOM     42  C   UNL A   1      41.930  28.955  27.037  1.00  0.00     0.031 C 
ATOM     43  C   UNL A   1      38.778  27.572  30.367  1.00  0.00     0.029 A 
ATOM     44  N   UNL A   1      40.096  29.321  30.669  1.00  0.00    -0.354 N 
ATOM     45  C   UNL A   1      43.939  29.342  27.996  1.00  0.00     0.074 A 
ATOM     46  C   UNL A   1      43.191  29.300  26.773  1.00  0.00     0.031 C 
ATOM     47  C   UNL A   1      38.081  28.466  31.109  1.00  0.00     0.029 A 
ATOM     48  C   UNL A   1      38.909  29.639  31.335  1.00  0.00     0.049 A 
ATOM     49  H   UNL A   1      40.903  29.883  30.723  1.00  0.00     0.167 HD
ATOM     50  C   UNL A   1      44.828  30.263  28.459  1.00  0.00     0.037 A 
ATOM     51  C   UNL A   1      38.653  30.793  32.010  1.00  0.00     0.037 A 
ATOM     52  C   UNL A   1      45.132  30.000  29.846  1.00  0.00     0.049 A 
ATOM     53  C   UNL A   1      39.974  31.369  32.361  1.00  0.00     0.074 A 
ATOM     54  C   UNL A   1      45.823  29.039  30.551  1.00  0.00     0.029 A 
ATOM     55  N   UNL A   1      44.264  30.606  30.719  1.00  0.00    -0.354 N 
ATOM     56  N   UNL A   1      40.802  30.793  33.190  1.00  0.00    -0.248 NA
ATOM     57  C   UNL A   1      40.572  32.351  31.466  1.00  0.00     0.031 C 
ATOM     58  C   UNL A   1      45.176  28.945  31.820  1.00  0.00     0.029 A 
ATOM     59  C   UNL A   1      44.159  29.898  31.884  1.00  0.00     0.049 A 
ATOM     60  H   UNL A   1      43.781  31.443  30.532  1.00  0.00     0.167 HD
ATOM     61  C   UNL A   1      42.055  31.009  32.642  1.00  0.00     0.074 A 
ATOM     62  C   UNL A   1      41.866  32.093  31.680  1.00  0.00     0.031 C 
ATOM     63  C   UNL A   1      43.044  30.079  32.791  1.00  0.00     0.037 A 
BRANCH  50  64
ATOM     64  C   UNL A   1      44.996  31.656  27.877  1.00  0.00     0.058 A 
ATOM     65  C   UNL A   1      46.262  32.029  27.377  1.00  0.00     0.135 A 
ATOM     66  C   UNL A   1      44.082  32.721  28.048  1.00  0.00     0.135 A 
ATOM     67  F   UNL A   1      47.218  31.107  27.181  1.00  0.00    -0.206 F 
ATOM     68  C   UNL A   1      46.610  33.359  27.129  1.00  0.00     0.059 A 
ATOM     69  C   UNL A   1      44.391  34.045  27.761  1.00  0.00     0.059 A 
ATOM     70  F   UNL A   1      42.870  32.562  28.589  1.00  0.00    -0.206 F 
ATOM     71  C   UNL A   1      45.666  34.361  27.332  1.00  0.00     0.060 A 
BRANCH  71  72
ATOM     72  S   UNL A   1      46.120  36.082  27.064  1.00  0.00     0.124 S 
ATOM     73  O   UNL A   1      47.171  36.266  28.056  1.00  0.00    -0.237 OA
ATOM     74  O   UNL A   1      46.547  36.063  25.669  1.00  0.00    -0.237 OA
ATOM     75  O   UNL A   1      44.875  36.801  27.321  1.00  0.00    -0.744 OA
ENDBRANCH  71  72
ENDBRANCH  50  64
BRANCH  51  76
ATOM     76  C   UNL A   1      37.395  31.589  32.096  1.00  0.00     0.058 A 
ATOM     77  C   UNL A   1      36.787  31.908  33.328  1.00  0.00     0.135 A 
ATOM     78  C   UNL A   1      36.937  32.317  30.981  1.00  0.00     0.135 A 
ATOM     79  F   UNL A   1      37.182  31.290  34.452  1.00  0.00    -0.206 F 
ATOM     80  C   UNL A   1      35.811  32.909  33.451  1.00  0.00     0.059 A 
ATOM     81  C   UNL A   1      35.969  33.320  31.078  1.00  0.00     0.059 A 
ATOM     82  F   UNL A   1      37.493  32.134  29.774  1.00  0.00    -0.206 F 
ATOM     83  C   UNL A   1      35.420  33.625  32.319  1.00  0.00     0.060 A 
BRANCH  83  84
ATOM     84  S   UNL A   1      34.268  35.015  32.487  1.00  0.00     0.124 S 
ATOM     85  O   UNL A   1      34.955  35.866  33.452  1.00  0.00    -0.237 OA
ATOM     86  O   UNL A   1      34.197  35.528  31.123  1.00  0.00    -0.237 OA
ATOM     87  O   UNL A   1      33.044  34.384  32.976  1.00  0.00    -0.744 OA
ENDBRANCH  83  84
ENDBRANCH  51  76
BRANCH  63  88
ATOM     88  C   UNL A   1      42.904  29.089  33.915  1.00  0.00     0.058 A 
ATOM     89  C   UNL A   1      43.240  29.332  35.258  1.00  0.00     0.135 A 
ATOM     90  C   UNL A   1      42.288  27.866  33.616  1.00  0.00     0.135 A 
ATOM     91  F   UNL A   1      43.758  30.509  35.637  1.00  0.00    -0.206 F 
ATOM     92  C   UNL A   1      43.000  28.382  36.256  1.00  0.00     0.059 A 
ATOM     93  C   UNL A   1      42.012  26.920  34.595  1.00  0.00     0.059 A 
ATOM     94  F   UNL A   1      41.898  27.602  32.359  1.00  0.00    -0.206 F 
ATOM     95  C   UNL A   1      42.383  27.178  35.912  1.00  0.00     0.060 A 
BRANCH  95  96
ATOM     96  S   UNL A   1      42.010  25.970  37.202  1.00  0.00     0.124 S 
ATOM     97  O   UNL A   1      42.983  26.311  38.234  1.00  0.00    -0.237 OA
ATOM     98  O   UNL A   1      40.617  26.266  37.520  1.00  0.00    -0.237 OA
ATOM     99  O   UNL A   1      42.229  24.686  36.540  1.00  0.00    -0.744 OA
ENDBRANCH  95  96
ENDBRANCH  63  88
ENDBRANCH  37  38
ENDBRANCH  30  32
ENDBRANCH  29  30
ENDBRANCH  28  29
ENDBRANCH   1  28
TORSDOF 20
ENDMDL
