MODEL 1
REMARK VINA RESULT:     -10.7      0.000      0.000
REMARK SMILES O=C(OCCOC(=O)c1cn(C2C[NH+](CCC[C@@H]3CCCO3)C2)nn1)c1ccc(-c2c3nc(c(-c4c(F)cc(S(=O)(=O)[O-])cc4F)c4ccc([nH]4)c(-c4c(F)cc(S(=O)(=O)[O-])cc4F)c4nc(c(-c5c(F)cc(S(=O)(=O)[O-])cc5F)c5ccc2[nH]5)C=C4)C=C3)cc1
REMARK SMILES IDX 5 1 4 2 3 3 2 4 1 5 26 6 27 7 91 8 28 9 90 10 29 11 30 12
REMARK SMILES IDX 31 13 84 14 32 15 89 16 83 17 85 18 33 19 88 20 82 21 81 22
REMARK SMILES IDX 34 24 68 25 47 26 67 27 48 28 51 29 66 30 86 31 49 32 50 33
REMARK SMILES IDX 65 35 87 36 52 37 35 38 36 39 45 40 37 41 38 42 44 43 46 44
REMARK SMILES IDX 39 45 40 46 41 47 42 48 43 49 69 50 70 51 79 52 71 53 72 54
REMARK SMILES IDX 78 55 80 56 73 57 74 58 75 59 76 60 77 61 53 62 54 63 63 64
REMARK SMILES IDX 55 65 56 66 62 67 64 68 57 69 58 70 59 71 60 72 61 73 6 74
REMARK SMILES IDX 7 75 8 76 9 77 10 78 25 79 11 80 24 81 12 82 13 83 23 84
REMARK SMILES IDX 14 85 15 87 16 88 17 89 18 90 19 91 22 92 20 93 21 94
REMARK H PARENT 85 23 51 34 14 86
REMARK Flexibility Score: inf
ROOT
ATOM      1  C   UNL A   1      42.054  19.083  26.401  1.00  0.00     0.275 C 
ENDROOT
BRANCH   1   2
ATOM      2  C   UNL A   1      40.876  20.029  26.625  1.00  0.00     0.275 C 
BRANCH   2   3
ATOM      3  O   UNL A   1      41.054  21.405  26.228  1.00  0.00    -0.458 OA
BRANCH   3   4
ATOM      4  C   UNL A   1      39.981  22.232  26.205  1.00  0.00     0.338 C 
ATOM      5  O   UNL A   1      38.874  21.901  25.815  1.00  0.00    -0.246 OA
BRANCH   4   6
ATOM      6  C   UNL A   1      40.271  23.503  26.908  1.00  0.00     0.060 A 
ATOM      7  C   UNL A   1      41.333  23.610  27.813  1.00  0.00     0.016 A 
ATOM      8  C   UNL A   1      39.458  24.613  26.650  1.00  0.00     0.016 A 
ATOM      9  C   UNL A   1      41.537  24.791  28.511  1.00  0.00     0.010 A 
ATOM     10  C   UNL A   1      39.665  25.800  27.348  1.00  0.00     0.010 A 
ATOM     11  C   UNL A   1      40.687  25.878  28.300  1.00  0.00    -0.014 A 
BRANCH  11  12
ATOM     12  C   UNL A   1      40.963  27.099  29.055  1.00  0.00     0.031 A 
ATOM     13  C   UNL A   1      42.142  27.910  28.616  1.00  0.00     0.074 A 
ATOM     14  C   UNL A   1      40.137  27.589  29.999  1.00  0.00     0.049 A 
ATOM     15  N   UNL A   1      43.174  28.292  29.301  1.00  0.00    -0.248 NA
ATOM     16  C   UNL A   1      42.182  28.318  27.203  1.00  0.00     0.031 C 
ATOM     17  C   UNL A   1      38.783  27.143  30.336  1.00  0.00     0.029 A 
ATOM     18  N   UNL A   1      40.307  28.692  30.780  1.00  0.00    -0.354 N 
ATOM     19  C   UNL A   1      43.910  29.135  28.465  1.00  0.00     0.074 A 
ATOM     20  C   UNL A   1      43.304  29.038  27.160  1.00  0.00     0.031 C 
ATOM     21  C   UNL A   1      38.178  28.102  31.073  1.00  0.00     0.029 A 
ATOM     22  C   UNL A   1      39.140  29.152  31.367  1.00  0.00     0.049 A 
ATOM     23  H   UNL A   1      41.182  29.123  30.915  1.00  0.00     0.167 HD
ATOM     24  C   UNL A   1      44.884  29.974  28.921  1.00  0.00     0.037 A 
ATOM     25  C   UNL A   1      38.960  30.354  31.966  1.00  0.00     0.037 A 
ATOM     26  C   UNL A   1      45.348  29.613  30.231  1.00  0.00     0.049 A 
ATOM     27  C   UNL A   1      40.298  30.888  32.330  1.00  0.00     0.074 A 
ATOM     28  C   UNL A   1      45.926  28.484  30.781  1.00  0.00     0.029 A 
ATOM     29  N   UNL A   1      44.974  30.383  31.305  1.00  0.00    -0.354 N 
ATOM     30  N   UNL A   1      41.079  30.373  33.240  1.00  0.00    -0.248 NA
ATOM     31  C   UNL A   1      40.950  31.784  31.387  1.00  0.00     0.031 C 
ATOM     32  C   UNL A   1      45.392  28.402  32.100  1.00  0.00     0.029 A 
ATOM     33  C   UNL A   1      44.549  29.502  32.268  1.00  0.00     0.049 A 
ATOM     34  H   UNL A   1      45.004  31.365  31.371  1.00  0.00     0.167 HD
ATOM     35  C   UNL A   1      42.365  30.553  32.755  1.00  0.00     0.074 A 
ATOM     36  C   UNL A   1      42.228  31.511  31.662  1.00  0.00     0.031 C 
ATOM     37  C   UNL A   1      43.388  29.715  33.100  1.00  0.00     0.037 A 
BRANCH  24  38
ATOM     38  C   UNL A   1      45.249  31.289  28.277  1.00  0.00     0.058 A 
ATOM     39  C   UNL A   1      44.249  32.244  27.997  1.00  0.00     0.135 A 
ATOM     40  C   UNL A   1      46.513  31.541  27.702  1.00  0.00     0.135 A 
ATOM     41  F   UNL A   1      43.006  32.096  28.482  1.00  0.00    -0.206 F 
ATOM     42  C   UNL A   1      44.477  33.344  27.168  1.00  0.00     0.059 A 
ATOM     43  C   UNL A   1      46.777  32.660  26.918  1.00  0.00     0.059 A 
ATOM     44  F   UNL A   1      47.523  30.669  27.814  1.00  0.00    -0.206 F 
ATOM     45  C   UNL A   1      45.743  33.535  26.623  1.00  0.00     0.060 A 
BRANCH  45  46
ATOM     46  S   UNL A   1      46.019  34.907  25.486  1.00  0.00     0.124 S 
ATOM     47  O   UNL A   1      47.335  34.578  24.952  1.00  0.00    -0.237 OA
ATOM     48  O   UNL A   1      44.899  34.764  24.561  1.00  0.00    -0.237 OA
ATOM     49  O   UNL A   1      45.959  36.076  26.356  1.00  0.00    -0.744 OA
ENDBRANCH  45  46
ENDBRANCH  24  38
BRANCH  25  50
ATOM     50  C   UNL A   1      37.744  31.205  31.922  1.00  0.00     0.058 A 
ATOM     51  C   UNL A   1      37.074  31.581  33.099  1.00  0.00     0.135 A 
ATOM     52  C   UNL A   1      37.368  31.886  30.746  1.00  0.00     0.135 A 
ATOM     53  F   UNL A   1      37.395  31.010  34.270  1.00  0.00    -0.206 F 
ATOM     54  C   UNL A   1      36.110  32.595  33.113  1.00  0.00     0.059 A 
ATOM     55  C   UNL A   1      36.401  32.886  30.732  1.00  0.00     0.059 A 
ATOM     56  F   UNL A   1      38.000  31.662  29.583  1.00  0.00    -0.206 F 
ATOM     57  C   UNL A   1      35.791  33.252  31.924  1.00  0.00     0.060 A 
BRANCH  57  58
ATOM     58  S   UNL A   1      34.669  34.668  31.965  1.00  0.00     0.124 S 
ATOM     59  O   UNL A   1      34.487  34.948  30.545  1.00  0.00    -0.237 OA
ATOM     60  O   UNL A   1      33.509  34.122  32.662  1.00  0.00    -0.237 OA
ATOM     61  O   UNL A   1      35.421  35.675  32.710  1.00  0.00    -0.744 OA
ENDBRANCH  57  58
ENDBRANCH  25  50
BRANCH  37  62
ATOM     62  C   UNL A   1      43.178  28.742  34.230  1.00  0.00     0.058 A 
ATOM     63  C   UNL A   1      42.467  27.537  34.101  1.00  0.00     0.135 A 
ATOM     64  C   UNL A   1      43.868  28.951  35.434  1.00  0.00     0.135 A 
ATOM     65  F   UNL A   1      41.877  27.205  32.944  1.00  0.00    -0.206 F 
ATOM     66  C   UNL A   1      42.409  26.602  35.134  1.00  0.00     0.059 A 
ATOM     67  C   UNL A   1      43.852  28.017  36.468  1.00  0.00     0.059 A 
ATOM     68  F   UNL A   1      44.624  30.050  35.595  1.00  0.00    -0.206 F 
ATOM     69  C   UNL A   1      43.109  26.848  36.315  1.00  0.00     0.060 A 
BRANCH  69  70
ATOM     70  S   UNL A   1      43.117  25.586  37.607  1.00  0.00     0.124 S 
ATOM     71  O   UNL A   1      41.731  25.129  37.599  1.00  0.00    -0.237 OA
ATOM     72  O   UNL A   1      44.103  24.629  37.112  1.00  0.00    -0.237 OA
ATOM     73  O   UNL A   1      43.526  26.323  38.800  1.00  0.00    -0.744 OA
ENDBRANCH  69  70
ENDBRANCH  37  62
ENDBRANCH  11  12
ENDBRANCH   4   6
ENDBRANCH   3   4
ENDBRANCH   2   3
ENDBRANCH   1   2
BRANCH   1  74
ATOM     74  O   UNL A   1      42.668  19.376  25.143  1.00  0.00    -0.457 OA
BRANCH  74  75
ATOM     75  C   UNL A   1      44.020  19.173  25.075  1.00  0.00     0.360 C 
ATOM     76  O   UNL A   1      44.569  18.078  25.019  1.00  0.00    -0.244 OA
BRANCH  75  77
ATOM     77  C   UNL A   1      44.726  20.426  25.174  1.00  0.00     0.190 A 
ATOM     78  C   UNL A   1      44.169  21.685  25.152  1.00  0.00     0.147 A 
ATOM     79  N   UNL A   1      46.090  20.534  25.218  1.00  0.00    -0.123 NA
ATOM     80  N   UNL A   1      45.249  22.520  25.144  1.00  0.00    -0.237 N 
ATOM     81  N   UNL A   1      46.400  21.825  25.201  1.00  0.00    -0.066 NA
BRANCH  80  82
ATOM     82  C   UNL A   1      45.255  23.945  25.046  1.00  0.00     0.218 C 
ATOM     83  C   UNL A   1      44.580  24.691  26.224  1.00  0.00     0.295 C 
ATOM     84  C   UNL A   1      46.563  24.578  25.574  1.00  0.00     0.295 C 
ATOM     85  N   UNL A   1      45.772  25.531  26.368  1.00  0.00    -0.331 N 
ATOM     86  H   UNL A   1      46.083  25.810  27.298  1.00  0.00     0.348 HD
BRANCH  85  87
ATOM     87  C   UNL A   1      45.658  26.865  25.756  1.00  0.00     0.262 C 
BRANCH  87  88
ATOM     88  C   UNL A   1      46.624  28.021  26.081  1.00  0.00     0.064 C 
BRANCH  88  89
ATOM     89  C   UNL A   1      47.773  28.306  25.103  1.00  0.00     0.038 C 
BRANCH  89  90
ATOM     90  C   UNL A   1      47.760  27.471  23.823  1.00  0.00     0.118 C 
ATOM     91  C   UNL A   1      49.164  27.101  23.364  1.00  0.00     0.034 C 
ATOM     92  O   UNL A   1      47.144  28.205  22.752  1.00  0.00    -0.378 OA
ATOM     93  C   UNL A   1      49.017  27.073  21.865  1.00  0.00     0.031 C 
ATOM     94  C   UNL A   1      48.042  28.204  21.631  1.00  0.00     0.160 C 
ENDBRANCH  89  90
ENDBRANCH  88  89
ENDBRANCH  87  88
ENDBRANCH  85  87
ENDBRANCH  80  82
ENDBRANCH  75  77
ENDBRANCH  74  75
ENDBRANCH   1  74
TORSDOF 19
ENDMDL
MODEL 2
REMARK VINA RESULT:     -10.7      3.482      6.347
REMARK SMILES O=C(OCCOC(=O)c1cn(C2C[NH+](CCC[C@@H]3CCCO3)C2)nn1)c1ccc(-c2c3nc(c(-c4c(F)cc(S(=O)(=O)[O-])cc4F)c4ccc([nH]4)c(-c4c(F)cc(S(=O)(=O)[O-])cc4F)c4nc(c(-c5c(F)cc(S(=O)(=O)[O-])cc5F)c5ccc2[nH]5)C=C4)C=C3)cc1
REMARK SMILES IDX 5 1 4 2 3 3 2 4 1 5 26 6 27 7 91 8 28 9 90 10 29 11 30 12
REMARK SMILES IDX 31 13 84 14 32 15 89 16 83 17 85 18 33 19 88 20 82 21 81 22
REMARK SMILES IDX 34 24 68 25 47 26 67 27 48 28 51 29 66 30 86 31 49 32 50 33
REMARK SMILES IDX 65 35 87 36 52 37 35 38 36 39 45 40 37 41 38 42 44 43 46 44
REMARK SMILES IDX 39 45 40 46 41 47 42 48 43 49 69 50 70 51 79 52 71 53 72 54
REMARK SMILES IDX 78 55 80 56 73 57 74 58 75 59 76 60 77 61 53 62 54 63 63 64
REMARK SMILES IDX 55 65 56 66 62 67 64 68 57 69 58 70 59 71 60 72 61 73 6 74
REMARK SMILES IDX 7 75 8 76 9 77 10 78 25 79 11 80 24 81 12 82 13 83 23 84
REMARK SMILES IDX 14 85 15 87 16 88 17 89 18 90 19 91 22 92 20 93 21 94
REMARK H PARENT 85 23 51 34 14 86
REMARK Flexibility Score: inf
ROOT
ATOM      1  C   UNL A   1      42.249  19.016  26.879  1.00  0.00     0.275 C 
ENDROOT
BRANCH   1   2
ATOM      2  C   UNL A   1      43.249  18.818  25.740  1.00  0.00     0.275 C 
BRANCH   2   3
ATOM      3  O   UNL A   1      43.413  19.910  24.812  1.00  0.00    -0.458 OA
BRANCH   3   4
ATOM      4  C   UNL A   1      44.556  20.637  24.840  1.00  0.00     0.338 C 
ATOM      5  O   UNL A   1      45.580  20.320  24.258  1.00  0.00    -0.246 OA
BRANCH   4   6
ATOM      6  C   UNL A   1      44.335  21.955  25.480  1.00  0.00     0.060 A 
ATOM      7  C   UNL A   1      45.196  22.437  26.472  1.00  0.00     0.016 A 
ATOM      8  C   UNL A   1      43.240  22.724  25.071  1.00  0.00     0.016 A 
ATOM      9  C   UNL A   1      44.925  23.641  27.105  1.00  0.00     0.010 A 
ATOM     10  C   UNL A   1      42.970  23.935  25.704  1.00  0.00     0.010 A 
ATOM     11  C   UNL A   1      43.797  24.378  26.740  1.00  0.00    -0.014 A 
BRANCH  11  12
ATOM     12  C   UNL A   1      43.575  25.646  27.433  1.00  0.00     0.031 A 
ATOM     13  C   UNL A   1      44.584  26.726  27.202  1.00  0.00     0.074 A 
ATOM     14  C   UNL A   1      42.454  25.925  28.126  1.00  0.00     0.049 A 
ATOM     15  N   UNL A   1      45.297  27.380  28.064  1.00  0.00    -0.248 NA
ATOM     16  C   UNL A   1      44.854  27.098  25.804  1.00  0.00     0.031 C 
ATOM     17  C   UNL A   1      41.213  25.149  28.190  1.00  0.00     0.029 A 
ATOM     18  N   UNL A   1      42.155  27.052  28.831  1.00  0.00    -0.354 N 
ATOM     19  C   UNL A   1      45.976  28.366  27.345  1.00  0.00     0.074 A 
ATOM     20  C   UNL A   1      45.739  28.085  25.952  1.00  0.00     0.031 C 
ATOM     21  C   UNL A   1      40.233  25.933  28.692  1.00  0.00     0.029 A 
ATOM     22  C   UNL A   1      40.806  27.204  29.104  1.00  0.00     0.049 A 
ATOM     23  H   UNL A   1      42.838  27.699  29.120  1.00  0.00     0.167 HD
ATOM     24  C   UNL A   1      46.575  29.441  27.935  1.00  0.00     0.037 A 
ATOM     25  C   UNL A   1      40.196  28.331  29.545  1.00  0.00     0.037 A 
ATOM     26  C   UNL A   1      46.791  29.245  29.341  1.00  0.00     0.049 A 
ATOM     27  C   UNL A   1      41.235  29.204  30.151  1.00  0.00     0.074 A 
ATOM     28  C   UNL A   1      47.485  28.319  30.098  1.00  0.00     0.029 A 
ATOM     29  N   UNL A   1      45.994  29.914  30.237  1.00  0.00    -0.354 N 
ATOM     30  N   UNL A   1      41.881  28.932  31.252  1.00  0.00    -0.248 NA
ATOM     31  C   UNL A   1      41.847  30.217  29.306  1.00  0.00     0.031 C 
ATOM     32  C   UNL A   1      46.692  28.130  31.267  1.00  0.00     0.029 A 
ATOM     33  C   UNL A   1      45.587  28.975  31.151  1.00  0.00     0.049 A 
ATOM     34  H   UNL A   1      45.763  30.871  30.226  1.00  0.00     0.167 HD
ATOM     35  C   UNL A   1      43.159  29.431  31.052  1.00  0.00     0.074 A 
ATOM     36  C   UNL A   1      43.050  30.294  29.879  1.00  0.00     0.031 C 
ATOM     37  C   UNL A   1      44.247  28.897  31.684  1.00  0.00     0.037 A 
BRANCH  24  38
ATOM     38  C   UNL A   1      46.743  30.791  27.281  1.00  0.00     0.058 A 
ATOM     39  C   UNL A   1      48.007  31.417  27.260  1.00  0.00     0.135 A 
ATOM     40  C   UNL A   1      45.654  31.602  26.895  1.00  0.00     0.135 A 
ATOM     41  F   UNL A   1      49.111  30.743  27.622  1.00  0.00    -0.206 F 
ATOM     42  C   UNL A   1      48.170  32.762  26.922  1.00  0.00     0.059 A 
ATOM     43  C   UNL A   1      45.800  32.928  26.502  1.00  0.00     0.059 A 
ATOM     44  F   UNL A   1      44.391  31.159  26.958  1.00  0.00    -0.206 F 
ATOM     45  C   UNL A   1      47.057  33.512  26.557  1.00  0.00     0.060 A 
BRANCH  45  46
ATOM     46  S   UNL A   1      47.252  35.269  26.202  1.00  0.00     0.124 S 
ATOM     47  O   UNL A   1      47.974  35.722  27.384  1.00  0.00    -0.237 OA
ATOM     48  O   UNL A   1      48.012  35.244  24.957  1.00  0.00    -0.237 OA
ATOM     49  O   UNL A   1      45.875  35.737  26.079  1.00  0.00    -0.744 OA
ENDBRANCH  45  46
ENDBRANCH  24  38
BRANCH  25  50
ATOM     50  C   UNL A   1      38.853  28.833  29.162  1.00  0.00     0.058 A 
ATOM     51  C   UNL A   1      37.828  28.975  30.112  1.00  0.00     0.135 A 
ATOM     52  C   UNL A   1      38.627  29.436  27.906  1.00  0.00     0.135 A 
ATOM     53  F   UNL A   1      37.975  28.464  31.344  1.00  0.00    -0.206 F 
ATOM     54  C   UNL A   1      36.661  29.698  29.845  1.00  0.00     0.059 A 
ATOM     55  C   UNL A   1      37.468  30.147  27.611  1.00  0.00     0.059 A 
ATOM     56  F   UNL A   1      39.572  29.431  26.954  1.00  0.00    -0.206 F 
ATOM     57  C   UNL A   1      36.497  30.294  28.593  1.00  0.00     0.060 A 
BRANCH  57  58
ATOM     58  S   UNL A   1      35.070  31.362  28.298  1.00  0.00     0.124 S 
ATOM     59  O   UNL A   1      34.135  30.443  27.658  1.00  0.00    -0.237 OA
ATOM     60  O   UNL A   1      34.721  31.790  29.648  1.00  0.00    -0.237 OA
ATOM     61  O   UNL A   1      35.605  32.411  27.434  1.00  0.00    -0.744 OA
ENDBRANCH  57  58
ENDBRANCH  25  50
BRANCH  37  62
ATOM     62  C   UNL A   1      44.025  27.929  32.816  1.00  0.00     0.058 A 
ATOM     63  C   UNL A   1      43.876  26.543  32.641  1.00  0.00     0.135 A 
ATOM     64  C   UNL A   1      44.143  28.397  34.134  1.00  0.00     0.135 A 
ATOM     65  F   UNL A   1      43.872  26.000  31.416  1.00  0.00    -0.206 F 
ATOM     66  C   UNL A   1      43.805  25.667  33.724  1.00  0.00     0.059 A 
ATOM     67  C   UNL A   1      44.108  27.538  35.230  1.00  0.00     0.059 A 
ATOM     68  F   UNL A   1      44.357  29.703  34.367  1.00  0.00    -0.206 F 
ATOM     69  C   UNL A   1      43.927  26.173  35.017  1.00  0.00     0.060 A 
BRANCH  69  70
ATOM     70  S   UNL A   1      43.942  25.023  36.410  1.00  0.00     0.124 S 
ATOM     71  O   UNL A   1      44.426  23.795  35.789  1.00  0.00    -0.237 OA
ATOM     72  O   UNL A   1      44.862  25.666  37.344  1.00  0.00    -0.237 OA
ATOM     73  O   UNL A   1      42.548  24.997  36.845  1.00  0.00    -0.744 OA
ENDBRANCH  69  70
ENDBRANCH  37  62
ENDBRANCH  11  12
ENDBRANCH   4   6
ENDBRANCH   3   4
ENDBRANCH   2   3
ENDBRANCH   1   2
BRANCH   1  74
ATOM     74  O   UNL A   1      41.444  20.168  26.609  1.00  0.00    -0.457 OA
BRANCH  74  75
ATOM     75  C   UNL A   1      40.210  19.922  26.069  1.00  0.00     0.360 C 
ATOM     76  O   UNL A   1      39.849  18.852  25.590  1.00  0.00    -0.244 OA
BRANCH  75  77
ATOM     77  C   UNL A   1      39.416  21.124  26.050  1.00  0.00     0.190 A 
ATOM     78  C   UNL A   1      38.289  21.351  25.294  1.00  0.00     0.147 A 
ATOM     79  N   UNL A   1      39.738  22.264  26.738  1.00  0.00    -0.123 NA
ATOM     80  N   UNL A   1      37.993  22.663  25.534  1.00  0.00    -0.237 N 
ATOM     81  N   UNL A   1      38.856  23.202  26.415  1.00  0.00    -0.066 NA
BRANCH  80  82
ATOM     82  C   UNL A   1      36.957  23.450  24.944  1.00  0.00     0.218 C 
ATOM     83  C   UNL A   1      36.541  23.030  23.512  1.00  0.00     0.295 C 
ATOM     84  C   UNL A   1      35.541  22.978  25.346  1.00  0.00     0.295 C 
ATOM     85  N   UNL A   1      35.138  23.009  23.932  1.00  0.00    -0.331 N 
ATOM     86  H   UNL A   1      34.510  22.297  23.559  1.00  0.00     0.348 HD
BRANCH  85  87
ATOM     87  C   UNL A   1      34.369  24.207  23.558  1.00  0.00     0.262 C 
BRANCH  87  88
ATOM     88  C   UNL A   1      33.006  24.139  22.842  1.00  0.00     0.064 C 
BRANCH  88  89
ATOM     89  C   UNL A   1      32.075  22.961  23.160  1.00  0.00     0.038 C 
BRANCH  89  90
ATOM     90  C   UNL A   1      31.098  23.196  24.312  1.00  0.00     0.118 C 
ATOM     91  C   UNL A   1      30.791  24.674  24.512  1.00  0.00     0.034 C 
ATOM     92  O   UNL A   1      31.649  22.707  25.545  1.00  0.00    -0.378 OA
ATOM     93  C   UNL A   1      30.577  24.761  26.000  1.00  0.00     0.031 C 
ATOM     94  C   UNL A   1      31.590  23.764  26.515  1.00  0.00     0.160 C 
ENDBRANCH  89  90
ENDBRANCH  88  89
ENDBRANCH  87  88
ENDBRANCH  85  87
ENDBRANCH  80  82
ENDBRANCH  75  77
ENDBRANCH  74  75
ENDBRANCH   1  74
TORSDOF 19
ENDMDL
MODEL 3
REMARK VINA RESULT:     -10.5      1.225      2.096
REMARK SMILES O=C(OCCOC(=O)c1cn(C2C[NH+](CCC[C@@H]3CCCO3)C2)nn1)c1ccc(-c2c3nc(c(-c4c(F)cc(S(=O)(=O)[O-])cc4F)c4ccc([nH]4)c(-c4c(F)cc(S(=O)(=O)[O-])cc4F)c4nc(c(-c5c(F)cc(S(=O)(=O)[O-])cc5F)c5ccc2[nH]5)C=C4)C=C3)cc1
REMARK SMILES IDX 5 1 4 2 3 3 2 4 1 5 26 6 27 7 91 8 28 9 90 10 29 11 30 12
REMARK SMILES IDX 31 13 84 14 32 15 89 16 83 17 85 18 33 19 88 20 82 21 81 22
REMARK SMILES IDX 34 24 68 25 47 26 67 27 48 28 51 29 66 30 86 31 49 32 50 33
REMARK SMILES IDX 65 35 87 36 52 37 35 38 36 39 45 40 37 41 38 42 44 43 46 44
REMARK SMILES IDX 39 45 40 46 41 47 42 48 43 49 69 50 70 51 79 52 71 53 72 54
REMARK SMILES IDX 78 55 80 56 73 57 74 58 75 59 76 60 77 61 53 62 54 63 63 64
REMARK SMILES IDX 55 65 56 66 62 67 64 68 57 69 58 70 59 71 60 72 61 73 6 74
REMARK SMILES IDX 7 75 8 76 9 77 10 78 25 79 11 80 24 81 12 82 13 83 23 84
REMARK SMILES IDX 14 85 15 87 16 88 17 89 18 90 19 91 22 92 20 93 21 94
REMARK H PARENT 85 23 51 34 14 86
REMARK Flexibility Score: inf
ROOT
ATOM      1  C   UNL A   1      42.268  19.160  26.370  1.00  0.00     0.275 C 
ENDROOT
BRANCH   1   2
ATOM      2  C   UNL A   1      40.984  19.980  26.491  1.00  0.00     0.275 C 
BRANCH   2   3
ATOM      3  O   UNL A   1      41.112  21.416  26.419  1.00  0.00    -0.458 OA
BRANCH   3   4
ATOM      4  C   UNL A   1      39.998  22.184  26.475  1.00  0.00     0.338 C 
ATOM      5  O   UNL A   1      38.882  21.788  26.182  1.00  0.00    -0.246 OA
BRANCH   4   6
ATOM      6  C   UNL A   1      40.275  23.480  27.136  1.00  0.00     0.060 A 
ATOM      7  C   UNL A   1      41.408  23.663  27.936  1.00  0.00     0.016 A 
ATOM      8  C   UNL A   1      39.376  24.535  26.946  1.00  0.00     0.016 A 
ATOM      9  C   UNL A   1      41.604  24.864  28.601  1.00  0.00     0.010 A 
ATOM     10  C   UNL A   1      39.575  25.743  27.611  1.00  0.00     0.010 A 
ATOM     11  C   UNL A   1      40.674  25.896  28.461  1.00  0.00    -0.014 A 
BRANCH  11  12
ATOM     12  C   UNL A   1      40.946  27.142  29.176  1.00  0.00     0.031 A 
ATOM     13  C   UNL A   1      42.125  27.939  28.715  1.00  0.00     0.074 A 
ATOM     14  C   UNL A   1      40.114  27.662  30.099  1.00  0.00     0.049 A 
ATOM     15  N   UNL A   1      43.154  28.346  29.391  1.00  0.00    -0.248 NA
ATOM     16  C   UNL A   1      42.172  28.299  27.290  1.00  0.00     0.031 C 
ATOM     17  C   UNL A   1      38.760  27.227  30.445  1.00  0.00     0.029 A 
ATOM     18  N   UNL A   1      40.280  28.791  30.843  1.00  0.00    -0.354 N 
ATOM     19  C   UNL A   1      43.893  29.160  28.531  1.00  0.00     0.074 A 
ATOM     20  C   UNL A   1      43.293  29.019  27.228  1.00  0.00     0.031 C 
ATOM     21  C   UNL A   1      38.150  28.208  31.146  1.00  0.00     0.029 A 
ATOM     22  C   UNL A   1      39.109  29.269  31.409  1.00  0.00     0.049 A 
ATOM     23  H   UNL A   1      41.153  29.228  30.967  1.00  0.00     0.167 HD
ATOM     24  C   UNL A   1      44.863  30.016  28.962  1.00  0.00     0.037 A 
ATOM     25  C   UNL A   1      38.925  30.491  31.966  1.00  0.00     0.037 A 
ATOM     26  C   UNL A   1      45.322  29.701  30.287  1.00  0.00     0.049 A 
ATOM     27  C   UNL A   1      40.260  31.038  32.318  1.00  0.00     0.074 A 
ATOM     28  C   UNL A   1      45.899  28.592  30.877  1.00  0.00     0.029 A 
ATOM     29  N   UNL A   1      44.941  30.506  31.332  1.00  0.00    -0.354 N 
ATOM     30  N   UNL A   1      41.038  30.556  33.248  1.00  0.00    -0.248 NA
ATOM     31  C   UNL A   1      40.916  31.903  31.348  1.00  0.00     0.031 C 
ATOM     32  C   UNL A   1      45.358  28.553  32.196  1.00  0.00     0.029 A 
ATOM     33  C   UNL A   1      44.514  29.657  32.322  1.00  0.00     0.049 A 
ATOM     34  H   UNL A   1      44.970  31.490  31.365  1.00  0.00     0.167 HD
ATOM     35  C   UNL A   1      42.326  30.721  32.763  1.00  0.00     0.074 A 
ATOM     36  C   UNL A   1      42.193  31.641  31.638  1.00  0.00     0.031 C 
ATOM     37  C   UNL A   1      43.348  29.896  33.141  1.00  0.00     0.037 A 
BRANCH  24  38
ATOM     38  C   UNL A   1      45.230  31.310  28.277  1.00  0.00     0.058 A 
ATOM     39  C   UNL A   1      44.262  32.321  28.104  1.00  0.00     0.135 A 
ATOM     40  C   UNL A   1      46.434  31.490  27.564  1.00  0.00     0.135 A 
ATOM     41  F   UNL A   1      43.073  32.244  28.724  1.00  0.00    -0.206 F 
ATOM     42  C   UNL A   1      44.459  33.407  27.250  1.00  0.00     0.059 A 
ATOM     43  C   UNL A   1      46.674  32.592  26.750  1.00  0.00     0.059 A 
ATOM     44  F   UNL A   1      47.399  30.560  27.567  1.00  0.00    -0.206 F 
ATOM     45  C   UNL A   1      45.666  33.526  26.567  1.00  0.00     0.060 A 
BRANCH  45  46
ATOM     46  S   UNL A   1      45.892  34.882  25.400  1.00  0.00     0.124 S 
ATOM     47  O   UNL A   1      47.329  34.821  25.164  1.00  0.00    -0.237 OA
ATOM     48  O   UNL A   1      45.043  34.469  24.288  1.00  0.00    -0.237 OA
ATOM     49  O   UNL A   1      45.417  36.043  26.145  1.00  0.00    -0.744 OA
ENDBRANCH  45  46
ENDBRANCH  24  38
BRANCH  25  50
ATOM     50  C   UNL A   1      37.708  31.338  31.888  1.00  0.00     0.058 A 
ATOM     51  C   UNL A   1      36.991  31.692  33.042  1.00  0.00     0.135 A 
ATOM     52  C   UNL A   1      37.376  32.036  30.708  1.00  0.00     0.135 A 
ATOM     53  F   UNL A   1      37.267  31.104  34.216  1.00  0.00    -0.206 F 
ATOM     54  C   UNL A   1      36.023  32.703  33.035  1.00  0.00     0.059 A 
ATOM     55  C   UNL A   1      36.406  33.033  30.672  1.00  0.00     0.059 A 
ATOM     56  F   UNL A   1      38.054  31.834  29.568  1.00  0.00    -0.206 F 
ATOM     57  C   UNL A   1      35.747  33.378  31.845  1.00  0.00     0.060 A 
BRANCH  57  58
ATOM     58  S   UNL A   1      34.619  34.789  31.864  1.00  0.00     0.124 S 
ATOM     59  O   UNL A   1      33.431  34.214  32.487  1.00  0.00    -0.237 OA
ATOM     60  O   UNL A   1      35.354  35.760  32.667  1.00  0.00    -0.237 OA
ATOM     61  O   UNL A   1      34.480  35.131  30.451  1.00  0.00    -0.744 OA
ENDBRANCH  57  58
ENDBRANCH  25  50
BRANCH  37  62
ATOM     62  C   UNL A   1      43.134  28.962  34.302  1.00  0.00     0.058 A 
ATOM     63  C   UNL A   1      42.416  27.757  34.214  1.00  0.00     0.135 A 
ATOM     64  C   UNL A   1      43.828  29.206  35.498  1.00  0.00     0.135 A 
ATOM     65  F   UNL A   1      41.822  27.392  33.069  1.00  0.00    -0.206 F 
ATOM     66  C   UNL A   1      42.353  26.857  35.277  1.00  0.00     0.059 A 
ATOM     67  C   UNL A   1      43.807  28.306  36.562  1.00  0.00     0.059 A 
ATOM     68  F   UNL A   1      44.590  30.305  35.622  1.00  0.00    -0.206 F 
ATOM     69  C   UNL A   1      43.057  27.137  36.448  1.00  0.00     0.060 A 
BRANCH  69  70
ATOM     70  S   UNL A   1      43.059  25.918  37.780  1.00  0.00     0.124 S 
ATOM     71  O   UNL A   1      41.639  25.618  37.925  1.00  0.00    -0.237 OA
ATOM     72  O   UNL A   1      43.881  24.844  37.228  1.00  0.00    -0.237 OA
ATOM     73  O   UNL A   1      43.664  26.637  38.899  1.00  0.00    -0.744 OA
ENDBRANCH  69  70
ENDBRANCH  37  62
ENDBRANCH  11  12
ENDBRANCH   4   6
ENDBRANCH   3   4
ENDBRANCH   2   3
ENDBRANCH   1   2
BRANCH   1  74
ATOM     74  O   UNL A   1      42.768  19.254  25.034  1.00  0.00    -0.457 OA
BRANCH  74  75
ATOM     75  C   UNL A   1      44.131  19.311  24.908  1.00  0.00     0.360 C 
ATOM     76  O   UNL A   1      44.889  18.352  25.002  1.00  0.00    -0.244 OA
BRANCH  75  77
ATOM     77  C   UNL A   1      44.568  20.674  24.743  1.00  0.00     0.190 A 
ATOM     78  C   UNL A   1      44.985  21.528  25.738  1.00  0.00     0.147 A 
ATOM     79  N   UNL A   1      44.542  21.346  23.549  1.00  0.00    -0.123 NA
ATOM     80  N   UNL A   1      45.161  22.719  25.094  1.00  0.00    -0.237 N 
ATOM     81  N   UNL A   1      44.911  22.601  23.777  1.00  0.00    -0.066 NA
BRANCH  80  82
ATOM     82  C   UNL A   1      45.519  23.980  25.664  1.00  0.00     0.218 C 
ATOM     83  C   UNL A   1      46.740  24.676  25.014  1.00  0.00     0.295 C 
ATOM     84  C   UNL A   1      44.707  25.156  25.076  1.00  0.00     0.295 C 
ATOM     85  N   UNL A   1      45.957  25.907  24.874  1.00  0.00    -0.331 N 
ATOM     86  H   UNL A   1      46.078  26.490  24.047  1.00  0.00     0.348 HD
BRANCH  85  87
ATOM     87  C   UNL A   1      46.217  26.920  25.909  1.00  0.00     0.262 C 
BRANCH  87  88
ATOM     88  C   UNL A   1      47.468  26.899  26.807  1.00  0.00     0.064 C 
BRANCH  88  89
ATOM     89  C   UNL A   1      47.272  26.881  28.329  1.00  0.00     0.038 C 
BRANCH  89  90
ATOM     90  C   UNL A   1      46.714  25.577  28.898  1.00  0.00     0.118 C 
ATOM     91  C   UNL A   1      45.192  25.573  28.941  1.00  0.00     0.034 C 
ATOM     92  O   UNL A   1      47.176  25.379  30.245  1.00  0.00    -0.378 OA
ATOM     93  C   UNL A   1      44.905  24.738  30.160  1.00  0.00     0.031 C 
ATOM     94  C   UNL A   1      46.033  25.141  31.082  1.00  0.00     0.160 C 
ENDBRANCH  89  90
ENDBRANCH  88  89
ENDBRANCH  87  88
ENDBRANCH  85  87
ENDBRANCH  80  82
ENDBRANCH  75  77
ENDBRANCH  74  75
ENDBRANCH   1  74
TORSDOF 19
ENDMDL
