MODEL 1
REMARK VINA RESULT:     -12.4      0.000      0.000
REMARK SMILES Cc1cc(C)n(C)c(=O)c1C(=O)[NH+]1CCC2(CC1)C[NH2+][C@@H](C(=O)OCCOC(=O)c1ccc(-c3c4nc(c(-c5c(F)cc(S(=O)(=O)[O-])cc5F)c5ccc([nH]5)c(-c5c(F)cc(S(=O)(=O)[O-])cc5F)c5nc(c(-c6c(F)cc(S(=O)(=O)[O-])cc6F)c6ccc3[nH]6)C=C5)C=C4)cc1)C2
REMARK SMILES IDX 26 1 25 2 24 3 22 4 23 5 21 6 13 7 14 8 18 9 15 11 17 12
REMARK SMILES IDX 16 13 19 14 96 15 20 16 11 19 12 20 10 21 1 22 2 23 3 24
REMARK SMILES IDX 4 25 8 26 5 27 6 28 9 29 7 30 27 31 28 32 29 33 30 34 31 35
REMARK SMILES IDX 95 36 32 37 94 38 33 39 34 40 35 41 88 42 36 43 93 44 87 45
REMARK SMILES IDX 89 46 37 47 92 48 86 49 85 50 38 52 72 53 51 54 71 55 52 56
REMARK SMILES IDX 55 57 70 58 90 59 53 60 54 61 69 63 91 64 56 65 39 66 40 67
REMARK SMILES IDX 49 68 41 69 42 70 48 71 50 72 43 73 44 74 45 75 46 76 47 77
REMARK SMILES IDX 73 78 74 79 83 80 75 81 76 82 82 83 84 84 77 85 78 86 79 87
REMARK SMILES IDX 80 88 81 89 57 90 58 91 67 92 59 93 60 94 66 95 68 96 61 97
REMARK SMILES IDX 62 98 63 99 64 100 65 101
REMARK H PARENT 13 10 20 17 20 18 89 51 55 62
REMARK Flexibility Score: inf
ROOT
ATOM      1  C   UNL A   1      42.300  22.457  26.740  1.00  0.00     0.275 C 
ENDROOT
BRANCH   1   2
ATOM      2  C   UNL A   1      41.748  21.160  26.151  1.00  0.00     0.274 C 
BRANCH   2   3
ATOM      3  O   UNL A   1      40.457  20.883  26.719  1.00  0.00    -0.458 OA
BRANCH   3   4
ATOM      4  C   UNL A   1      39.476  20.542  25.848  1.00  0.00     0.364 C 
ATOM      5  O   UNL A   1      39.294  19.411  25.403  1.00  0.00    -0.245 OA
BRANCH   4   6
ATOM      6  C   UNL A   1      38.582  21.715  25.465  1.00  0.00     0.294 C 
ATOM      7  N   UNL A   1      33.642  23.219  24.518  1.00  0.00    -0.267 N 
ATOM      8  C   UNL A   1      34.633  22.905  23.498  1.00  0.00     0.271 C 
ATOM      9  C   UNL A   1      33.793  22.433  25.733  1.00  0.00     0.271 C 
ATOM     10  H   UNL A   1      33.066  23.938  24.172  1.00  0.00     0.357 HD
ATOM     11  C   UNL A   1      35.974  23.418  23.999  1.00  0.00     0.075 C 
ATOM     12  C   UNL A   1      35.203  22.550  26.336  1.00  0.00     0.075 C 
ATOM     13  C   UNL A   1      36.390  22.767  25.342  1.00  0.00     0.036 C 
ATOM     14  C   UNL A   1      37.484  23.643  26.011  1.00  0.00     0.268 C 
ATOM     15  C   UNL A   1      37.133  21.429  25.076  1.00  0.00     0.090 C 
ATOM     16  N   UNL A   1      38.438  22.686  26.567  1.00  0.00    -0.334 N 
ATOM     17  H   UNL A   1      38.068  22.241  27.407  1.00  0.00     0.347 HD
ATOM     18  H   UNL A   1      39.319  23.108  26.858  1.00  0.00     0.347 HD
BRANCH   7  19
ATOM     19  C   UNL A   1      32.731  24.232  24.250  1.00  0.00     0.350 C 
ATOM     20  O   UNL A   1      31.705  24.019  23.597  1.00  0.00    -0.225 OA
BRANCH  19  21
ATOM     21  C   UNL A   1      33.013  25.654  24.615  1.00  0.00     0.147 A 
ATOM     22  C   UNL A   1      33.557  26.357  22.220  1.00  0.00     0.045 C 
ATOM     23  C   UNL A   1      33.313  26.584  23.681  1.00  0.00    -0.027 A 
ATOM     24  C   UNL A   1      33.247  27.994  24.008  1.00  0.00     0.026 A 
ATOM     25  C   UNL A   1      32.639  28.428  25.122  1.00  0.00     0.018 A 
ATOM     26  C   UNL A   1      32.549  26.134  25.966  1.00  0.00     0.267 A 
ATOM     27  C   UNL A   1      32.411  29.905  25.295  1.00  0.00     0.064 C 
ATOM     28  N   UNL A   1      32.235  27.502  26.078  1.00  0.00    -0.315 N 
ATOM     29  O   UNL A   1      32.448  25.348  26.908  1.00  0.00    -0.268 OA
ATOM     30  C   UNL A   1      31.484  27.923  27.254  1.00  0.00     0.153 C 
ENDBRANCH  19  21
ENDBRANCH   7  19
ENDBRANCH   4   6
ENDBRANCH   3   4
ENDBRANCH   2   3
ENDBRANCH   1   2
BRANCH   1  31
ATOM     31  O   UNL A   1      41.343  23.530  26.630  1.00  0.00    -0.458 OA
BRANCH  31  32
ATOM     32  C   UNL A   1      41.865  24.735  26.298  1.00  0.00     0.338 C 
ATOM     33  O   UNL A   1      42.465  25.027  25.280  1.00  0.00    -0.246 OA
BRANCH  32  34
ATOM     34  C   UNL A   1      41.498  25.731  27.316  1.00  0.00     0.060 A 
ATOM     35  C   UNL A   1      42.293  26.872  27.439  1.00  0.00     0.016 A 
ATOM     36  C   UNL A   1      40.455  25.497  28.211  1.00  0.00     0.016 A 
ATOM     37  C   UNL A   1      42.065  27.778  28.469  1.00  0.00     0.010 A 
ATOM     38  C   UNL A   1      40.214  26.419  29.237  1.00  0.00     0.010 A 
ATOM     39  C   UNL A   1      41.027  27.557  29.381  1.00  0.00    -0.014 A 
BRANCH  39  40
ATOM     40  C   UNL A   1      40.837  28.500  30.510  1.00  0.00     0.031 A 
ATOM     41  C   UNL A   1      41.746  28.431  31.705  1.00  0.00     0.074 A 
ATOM     42  C   UNL A   1      39.884  29.448  30.436  1.00  0.00     0.049 A 
ATOM     43  N   UNL A   1      41.703  29.122  32.815  1.00  0.00    -0.248 NA
ATOM     44  C   UNL A   1      42.850  27.461  31.641  1.00  0.00     0.031 C 
ATOM     45  C   UNL A   1      38.986  29.655  29.300  1.00  0.00     0.029 A 
ATOM     46  N   UNL A   1      39.522  30.425  31.329  1.00  0.00    -0.354 N 
ATOM     47  C   UNL A   1      42.763  28.663  33.588  1.00  0.00     0.074 A 
ATOM     48  C   UNL A   1      43.420  27.620  32.828  1.00  0.00     0.031 C 
ATOM     49  C   UNL A   1      38.188  30.704  29.555  1.00  0.00     0.029 A 
ATOM     50  C   UNL A   1      38.482  31.212  30.893  1.00  0.00     0.049 A 
ATOM     51  H   UNL A   1      39.964  30.551  32.200  1.00  0.00     0.167 HD
ATOM     52  C   UNL A   1      43.152  29.078  34.817  1.00  0.00     0.037 A 
ATOM     53  C   UNL A   1      37.825  32.212  31.511  1.00  0.00     0.037 A 
ATOM     54  C   UNL A   1      42.502  30.125  35.560  1.00  0.00     0.049 A 
ATOM     55  C   UNL A   1      38.226  32.602  32.907  1.00  0.00     0.074 A 
ATOM     56  C   UNL A   1      42.816  30.611  36.818  1.00  0.00     0.029 A 
ATOM     57  N   UNL A   1      41.409  30.853  35.112  1.00  0.00    -0.354 N 
ATOM     58  N   UNL A   1      39.203  32.129  33.645  1.00  0.00    -0.248 NA
ATOM     59  C   UNL A   1      37.427  33.646  33.563  1.00  0.00     0.031 C 
ATOM     60  C   UNL A   1      41.890  31.609  37.144  1.00  0.00     0.029 A 
ATOM     61  C   UNL A   1      41.025  31.772  36.075  1.00  0.00     0.049 A 
ATOM     62  H   UNL A   1      40.972  30.735  34.238  1.00  0.00     0.167 HD
ATOM     63  C   UNL A   1      39.142  32.823  34.847  1.00  0.00     0.074 A 
ATOM     64  C   UNL A   1      38.041  33.759  34.734  1.00  0.00     0.031 C 
ATOM     65  C   UNL A   1      39.924  32.693  35.946  1.00  0.00     0.037 A 
BRANCH  52  66
ATOM     66  C   UNL A   1      44.323  28.379  35.447  1.00  0.00     0.058 A 
ATOM     67  C   UNL A   1      45.635  28.850  35.289  1.00  0.00     0.135 A 
ATOM     68  C   UNL A   1      44.126  27.242  36.247  1.00  0.00     0.135 A 
ATOM     69  F   UNL A   1      45.880  29.922  34.518  1.00  0.00    -0.206 F 
ATOM     70  C   UNL A   1      46.715  28.209  35.888  1.00  0.00     0.059 A 
ATOM     71  C   UNL A   1      45.188  26.597  36.874  1.00  0.00     0.059 A 
ATOM     72  F   UNL A   1      42.890  26.749  36.428  1.00  0.00    -0.206 F 
ATOM     73  C   UNL A   1      46.480  27.081  36.678  1.00  0.00     0.060 A 
BRANCH  73  74
ATOM     74  S   UNL A   1      47.889  26.259  37.454  1.00  0.00     0.124 S 
ATOM     75  O   UNL A   1      47.584  26.436  38.871  1.00  0.00    -0.237 OA
ATOM     76  O   UNL A   1      47.775  24.896  36.947  1.00  0.00    -0.237 OA
ATOM     77  O   UNL A   1      49.037  27.013  36.962  1.00  0.00    -0.744 OA
ENDBRANCH  73  74
ENDBRANCH  52  66
BRANCH  53  78
ATOM     78  C   UNL A   1      36.707  32.901  30.816  1.00  0.00     0.058 A 
ATOM     79  C   UNL A   1      35.375  32.663  31.182  1.00  0.00     0.135 A 
ATOM     80  C   UNL A   1      36.949  33.832  29.792  1.00  0.00     0.135 A 
ATOM     81  F   UNL A   1      35.092  31.774  32.146  1.00  0.00    -0.206 F 
ATOM     82  C   UNL A   1      34.320  33.325  30.561  1.00  0.00     0.059 A 
ATOM     83  C   UNL A   1      35.913  34.522  29.172  1.00  0.00     0.059 A 
ATOM     84  F   UNL A   1      38.208  34.099  29.412  1.00  0.00    -0.206 F 
ATOM     85  C   UNL A   1      34.601  34.258  29.561  1.00  0.00     0.060 A 
BRANCH  85  86
ATOM     86  S   UNL A   1      33.229  35.163  28.810  1.00  0.00     0.124 S 
ATOM     87  O   UNL A   1      32.471  35.577  29.985  1.00  0.00    -0.237 OA
ATOM     88  O   UNL A   1      33.922  36.226  28.089  1.00  0.00    -0.237 OA
ATOM     89  O   UNL A   1      32.587  34.159  27.967  1.00  0.00    -0.744 OA
ENDBRANCH  85  86
ENDBRANCH  53  78
BRANCH  65  90
ATOM     90  C   UNL A   1      39.626  33.587  37.116  1.00  0.00     0.058 A 
ATOM     91  C   UNL A   1      38.773  33.175  38.151  1.00  0.00     0.135 A 
ATOM     92  C   UNL A   1      40.255  34.837  37.239  1.00  0.00     0.135 A 
ATOM     93  F   UNL A   1      38.142  31.993  38.076  1.00  0.00    -0.206 F 
ATOM     94  C   UNL A   1      38.546  33.976  39.265  1.00  0.00     0.059 A 
ATOM     95  C   UNL A   1      40.058  35.645  38.354  1.00  0.00     0.059 A 
ATOM     96  F   UNL A   1      41.086  35.272  36.277  1.00  0.00    -0.206 F 
ATOM     97  C   UNL A   1      39.197  35.207  39.359  1.00  0.00     0.060 A 
BRANCH  97  98
ATOM     98  S   UNL A   1      38.933  36.214  40.835  1.00  0.00     0.124 S 
ATOM     99  O   UNL A   1      40.237  36.134  41.483  1.00  0.00    -0.237 OA
ATOM    100  O   UNL A   1      38.585  37.514  40.269  1.00  0.00    -0.237 OA
ATOM    101  O   UNL A   1      37.845  35.527  41.526  1.00  0.00    -0.744 OA
ENDBRANCH  97  98
ENDBRANCH  65  90
ENDBRANCH  39  40
ENDBRANCH  32  34
ENDBRANCH  31  32
ENDBRANCH   1  31
TORSDOF 16
ENDMDL
MODEL 2
REMARK VINA RESULT:     -12.3      5.946     11.912
REMARK SMILES Cc1cc(C)n(C)c(=O)c1C(=O)[NH+]1CCC2(CC1)C[NH2+][C@@H](C(=O)OCCOC(=O)c1ccc(-c3c4nc(c(-c5c(F)cc(S(=O)(=O)[O-])cc5F)c5ccc([nH]5)c(-c5c(F)cc(S(=O)(=O)[O-])cc5F)c5nc(c(-c6c(F)cc(S(=O)(=O)[O-])cc6F)c6ccc3[nH]6)C=C5)C=C4)cc1)C2
REMARK SMILES IDX 26 1 25 2 24 3 22 4 23 5 21 6 13 7 14 8 18 9 15 11 17 12
REMARK SMILES IDX 16 13 19 14 96 15 20 16 11 19 12 20 10 21 1 22 2 23 3 24
REMARK SMILES IDX 4 25 8 26 5 27 6 28 9 29 7 30 27 31 28 32 29 33 30 34 31 35
REMARK SMILES IDX 95 36 32 37 94 38 33 39 34 40 35 41 88 42 36 43 93 44 87 45
REMARK SMILES IDX 89 46 37 47 92 48 86 49 85 50 38 52 72 53 51 54 71 55 52 56
REMARK SMILES IDX 55 57 70 58 90 59 53 60 54 61 69 63 91 64 56 65 39 66 40 67
REMARK SMILES IDX 49 68 41 69 42 70 48 71 50 72 43 73 44 74 45 75 46 76 47 77
REMARK SMILES IDX 73 78 74 79 83 80 75 81 76 82 82 83 84 84 77 85 78 86 79 87
REMARK SMILES IDX 80 88 81 89 57 90 58 91 67 92 59 93 60 94 66 95 68 96 61 97
REMARK SMILES IDX 62 98 63 99 64 100 65 101
REMARK H PARENT 13 10 20 17 20 18 89 51 55 62
REMARK Flexibility Score: inf
ROOT
ATOM      1  C   UNL A   1      35.175  32.962  30.362  1.00  0.00     0.275 C 
ENDROOT
BRANCH   1   2
ATOM      2  C   UNL A   1      34.479  33.828  29.312  1.00  0.00     0.274 C 
BRANCH   2   3
ATOM      3  O   UNL A   1      34.492  33.154  28.043  1.00  0.00    -0.458 OA
BRANCH   3   4
ATOM      4  C   UNL A   1      33.329  32.574  27.657  1.00  0.00     0.364 C 
ATOM      5  O   UNL A   1      32.298  33.183  27.385  1.00  0.00    -0.245 OA
BRANCH   4   6
ATOM      6  C   UNL A   1      33.417  31.055  27.575  1.00  0.00     0.294 C 
ATOM      7  N   UNL A   1      31.964  26.812  24.847  1.00  0.00    -0.267 N 
ATOM      8  C   UNL A   1      31.331  27.277  26.073  1.00  0.00     0.271 C 
ATOM      9  C   UNL A   1      32.487  27.889  24.021  1.00  0.00     0.271 C 
ATOM     10  H   UNL A   1      31.923  25.828  24.838  1.00  0.00     0.357 HD
ATOM     11  C   UNL A   1      32.433  27.811  26.975  1.00  0.00     0.075 C 
ATOM     12  C   UNL A   1      33.464  28.795  24.789  1.00  0.00     0.075 C 
ATOM     13  C   UNL A   1      33.216  28.978  26.321  1.00  0.00     0.036 C 
ATOM     14  C   UNL A   1      34.572  29.152  27.058  1.00  0.00     0.268 C 
ATOM     15  C   UNL A   1      32.494  30.325  26.602  1.00  0.00     0.090 C 
ATOM     16  N   UNL A   1      34.757  30.598  27.158  1.00  0.00    -0.334 N 
ATOM     17  H   UNL A   1      35.022  30.999  26.259  1.00  0.00     0.347 HD
ATOM     18  H   UNL A   1      35.500  30.872  27.799  1.00  0.00     0.347 HD
BRANCH   7  19
ATOM     19  C   UNL A   1      32.042  25.441  24.636  1.00  0.00     0.350 C 
ATOM     20  O   UNL A   1      31.111  24.815  24.119  1.00  0.00    -0.225 OA
BRANCH  19  21
ATOM     21  C   UNL A   1      33.194  24.636  25.146  1.00  0.00     0.147 A 
ATOM     22  C   UNL A   1      31.870  23.626  27.083  1.00  0.00     0.045 C 
ATOM     23  C   UNL A   1      33.064  23.792  26.194  1.00  0.00    -0.027 A 
ATOM     24  C   UNL A   1      34.077  22.788  26.450  1.00  0.00     0.026 A 
ATOM     25  C   UNL A   1      35.007  22.480  25.534  1.00  0.00     0.018 A 
ATOM     26  C   UNL A   1      34.376  24.450  24.230  1.00  0.00     0.267 A 
ATOM     27  C   UNL A   1      35.888  21.284  25.772  1.00  0.00     0.064 C 
ATOM     28  N   UNL A   1      35.125  23.269  24.396  1.00  0.00    -0.315 N 
ATOM     29  O   UNL A   1      34.649  25.299  23.382  1.00  0.00    -0.268 OA
ATOM     30  C   UNL A   1      36.054  22.911  23.332  1.00  0.00     0.153 C 
ENDBRANCH  19  21
ENDBRANCH   7  19
ENDBRANCH   4   6
ENDBRANCH   3   4
ENDBRANCH   2   3
ENDBRANCH   1   2
BRANCH   1  31
ATOM     31  O   UNL A   1      35.971  31.930  29.743  1.00  0.00    -0.458 OA
BRANCH  31  32
ATOM     32  C   UNL A   1      36.333  30.914  30.561  1.00  0.00     0.338 C 
ATOM     33  O   UNL A   1      35.696  30.446  31.487  1.00  0.00    -0.246 OA
BRANCH  32  34
ATOM     34  C   UNL A   1      37.604  30.336  30.101  1.00  0.00     0.060 A 
ATOM     35  C   UNL A   1      38.481  29.823  31.057  1.00  0.00     0.016 A 
ATOM     36  C   UNL A   1      37.979  30.395  28.758  1.00  0.00     0.016 A 
ATOM     37  C   UNL A   1      39.747  29.384  30.686  1.00  0.00     0.010 A 
ATOM     38  C   UNL A   1      39.247  29.937  28.382  1.00  0.00     0.010 A 
ATOM     39  C   UNL A   1      40.144  29.443  29.345  1.00  0.00    -0.014 A 
BRANCH  39  40
ATOM     40  C   UNL A   1      41.519  29.029  28.974  1.00  0.00     0.031 A 
ATOM     41  C   UNL A   1      42.653  30.010  29.088  1.00  0.00     0.074 A 
ATOM     42  C   UNL A   1      41.756  27.761  28.589  1.00  0.00     0.049 A 
ATOM     43  N   UNL A   1      43.909  29.861  28.755  1.00  0.00    -0.248 NA
ATOM     44  C   UNL A   1      42.332  31.329  29.655  1.00  0.00     0.031 C 
ATOM     45  C   UNL A   1      40.748  26.704  28.504  1.00  0.00     0.029 A 
ATOM     46  N   UNL A   1      42.921  27.143  28.209  1.00  0.00    -0.354 N 
ATOM     47  C   UNL A   1      44.526  31.069  29.057  1.00  0.00     0.074 A 
ATOM     48  C   UNL A   1      43.503  31.947  29.583  1.00  0.00     0.031 C 
ATOM     49  C   UNL A   1      41.340  25.563  28.116  1.00  0.00     0.029 A 
ATOM     50  C   UNL A   1      42.758  25.819  27.874  1.00  0.00     0.049 A 
ATOM     51  H   UNL A   1      43.790  27.603  28.178  1.00  0.00     0.167 HD
ATOM     52  C   UNL A   1      45.829  31.410  28.911  1.00  0.00     0.037 A 
ATOM     53  C   UNL A   1      43.645  24.922  27.402  1.00  0.00     0.037 A 
ATOM     54  C   UNL A   1      46.844  30.526  28.400  1.00  0.00     0.049 A 
ATOM     55  C   UNL A   1      45.069  25.349  27.176  1.00  0.00     0.074 A 
ATOM     56  C   UNL A   1      48.190  30.782  28.205  1.00  0.00     0.029 A 
ATOM     57  N   UNL A   1      46.626  29.213  28.008  1.00  0.00    -0.354 N 
ATOM     58  N   UNL A   1      45.631  26.508  27.423  1.00  0.00    -0.248 NA
ATOM     59  C   UNL A   1      45.977  24.353  26.588  1.00  0.00     0.031 C 
ATOM     60  C   UNL A   1      48.779  29.634  27.663  1.00  0.00     0.029 A 
ATOM     61  C   UNL A   1      47.809  28.651  27.556  1.00  0.00     0.049 A 
ATOM     62  H   UNL A   1      45.759  28.749  28.047  1.00  0.00     0.167 HD
ATOM     63  C   UNL A   1      46.958  26.380  27.031  1.00  0.00     0.074 A 
ATOM     64  C   UNL A   1      47.121  25.025  26.543  1.00  0.00     0.031 C 
ATOM     65  C   UNL A   1      47.950  27.302  27.069  1.00  0.00     0.037 A 
BRANCH  52  66
ATOM     66  C   UNL A   1      46.227  32.809  29.287  1.00  0.00     0.058 A 
ATOM     67  C   UNL A   1      46.677  33.126  30.577  1.00  0.00     0.135 A 
ATOM     68  C   UNL A   1      46.189  33.839  28.333  1.00  0.00     0.135 A 
ATOM     69  F   UNL A   1      46.714  32.182  31.531  1.00  0.00    -0.206 F 
ATOM     70  C   UNL A   1      47.060  34.420  30.915  1.00  0.00     0.059 A 
ATOM     71  C   UNL A   1      46.587  35.136  28.642  1.00  0.00     0.059 A 
ATOM     72  F   UNL A   1      45.763  33.588  27.085  1.00  0.00    -0.206 F 
ATOM     73  C   UNL A   1      47.010  35.419  29.940  1.00  0.00     0.060 A 
BRANCH  73  74
ATOM     74  S   UNL A   1      47.513  37.094  30.390  1.00  0.00     0.124 S 
ATOM     75  O   UNL A   1      48.834  37.176  29.773  1.00  0.00    -0.237 OA
ATOM     76  O   UNL A   1      46.474  37.910  29.771  1.00  0.00    -0.237 OA
ATOM     77  O   UNL A   1      47.503  37.073  31.849  1.00  0.00    -0.744 OA
ENDBRANCH  73  74
ENDBRANCH  52  66
BRANCH  53  78
ATOM     78  C   UNL A   1      43.203  23.537  27.097  1.00  0.00     0.058 A 
ATOM     79  C   UNL A   1      42.978  23.127  25.776  1.00  0.00     0.135 A 
ATOM     80  C   UNL A   1      43.025  22.588  28.117  1.00  0.00     0.135 A 
ATOM     81  F   UNL A   1      43.123  24.000  24.768  1.00  0.00    -0.206 F 
ATOM     82  C   UNL A   1      42.594  21.824  25.473  1.00  0.00     0.059 A 
ATOM     83  C   UNL A   1      42.663  21.275  27.839  1.00  0.00     0.059 A 
ATOM     84  F   UNL A   1      43.236  22.931  29.398  1.00  0.00    -0.206 F 
ATOM     85  C   UNL A   1      42.446  20.903  26.513  1.00  0.00     0.060 A 
BRANCH  85  86
ATOM     86  S   UNL A   1      42.017  19.197  26.104  1.00  0.00     0.124 S 
ATOM     87  O   UNL A   1      42.843  18.959  24.926  1.00  0.00    -0.237 OA
ATOM     88  O   UNL A   1      42.410  18.483  27.315  1.00  0.00    -0.237 OA
ATOM     89  O   UNL A   1      40.578  19.262  25.864  1.00  0.00    -0.744 OA
ENDBRANCH  85  86
ENDBRANCH  53  78
BRANCH  65  90
ATOM     90  C   UNL A   1      49.305  26.880  26.575  1.00  0.00     0.058 A 
ATOM     91  C   UNL A   1      50.208  26.203  27.409  1.00  0.00     0.135 A 
ATOM     92  C   UNL A   1      49.675  27.091  25.237  1.00  0.00     0.135 A 
ATOM     93  F   UNL A   1      49.903  25.985  28.698  1.00  0.00    -0.206 F 
ATOM     94  C   UNL A   1      51.436  25.756  26.935  1.00  0.00     0.059 A 
ATOM     95  C   UNL A   1      50.890  26.634  24.737  1.00  0.00     0.059 A 
ATOM     96  F   UNL A   1      48.842  27.728  24.398  1.00  0.00    -0.206 F 
ATOM     97  C   UNL A   1      51.766  25.972  25.596  1.00  0.00     0.060 A 
BRANCH  97  98
ATOM     98  S   UNL A   1      53.343  25.342  24.982  1.00  0.00     0.124 S 
ATOM     99  O   UNL A   1      53.269  23.937  25.369  1.00  0.00    -0.237 OA
ATOM    100  O   UNL A   1      53.251  25.610  23.550  1.00  0.00    -0.237 OA
ATOM    101  O   UNL A   1      54.332  26.140  25.700  1.00  0.00    -0.744 OA
ENDBRANCH  97  98
ENDBRANCH  65  90
ENDBRANCH  39  40
ENDBRANCH  32  34
ENDBRANCH  31  32
ENDBRANCH   1  31
TORSDOF 16
ENDMDL
MODEL 3
REMARK VINA RESULT:     -12.2      0.945      1.746
REMARK SMILES Cc1cc(C)n(C)c(=O)c1C(=O)[NH+]1CCC2(CC1)C[NH2+][C@@H](C(=O)OCCOC(=O)c1ccc(-c3c4nc(c(-c5c(F)cc(S(=O)(=O)[O-])cc5F)c5ccc([nH]5)c(-c5c(F)cc(S(=O)(=O)[O-])cc5F)c5nc(c(-c6c(F)cc(S(=O)(=O)[O-])cc6F)c6ccc3[nH]6)C=C5)C=C4)cc1)C2
REMARK SMILES IDX 26 1 25 2 24 3 22 4 23 5 21 6 13 7 14 8 18 9 15 11 17 12
REMARK SMILES IDX 16 13 19 14 96 15 20 16 11 19 12 20 10 21 1 22 2 23 3 24
REMARK SMILES IDX 4 25 8 26 5 27 6 28 9 29 7 30 27 31 28 32 29 33 30 34 31 35
REMARK SMILES IDX 95 36 32 37 94 38 33 39 34 40 35 41 88 42 36 43 93 44 87 45
REMARK SMILES IDX 89 46 37 47 92 48 86 49 85 50 38 52 72 53 51 54 71 55 52 56
REMARK SMILES IDX 55 57 70 58 90 59 53 60 54 61 69 63 91 64 56 65 39 66 40 67
REMARK SMILES IDX 49 68 41 69 42 70 48 71 50 72 43 73 44 74 45 75 46 76 47 77
REMARK SMILES IDX 73 78 74 79 83 80 75 81 76 82 82 83 84 84 77 85 78 86 79 87
REMARK SMILES IDX 80 88 81 89 57 90 58 91 67 92 59 93 60 94 66 95 68 96 61 97
REMARK SMILES IDX 62 98 63 99 64 100 65 101
REMARK H PARENT 13 10 20 17 20 18 89 51 55 62
REMARK Flexibility Score: inf
ROOT
ATOM      1  C   UNL A   1      41.442  22.310  26.315  1.00  0.00     0.275 C 
ENDROOT
BRANCH   1   2
ATOM      2  C   UNL A   1      40.342  21.260  26.155  1.00  0.00     0.274 C 
BRANCH   2   3
ATOM      3  O   UNL A   1      39.064  21.854  26.431  1.00  0.00    -0.458 OA
BRANCH   3   4
ATOM      4  C   UNL A   1      38.036  21.470  25.636  1.00  0.00     0.364 C 
ATOM      5  O   UNL A   1      38.014  20.441  24.965  1.00  0.00    -0.245 OA
BRANCH   4   6
ATOM      6  C   UNL A   1      36.867  22.447  25.654  1.00  0.00     0.294 C 
ATOM      7  N   UNL A   1      33.127  24.723  22.756  1.00  0.00    -0.267 N 
ATOM      8  C   UNL A   1      34.390  25.343  23.131  1.00  0.00     0.271 C 
ATOM      9  C   UNL A   1      33.223  23.284  22.566  1.00  0.00     0.271 C 
ATOM     10  H   UNL A   1      32.439  25.427  22.728  1.00  0.00     0.357 HD
ATOM     11  C   UNL A   1      34.711  24.892  24.549  1.00  0.00     0.075 C 
ATOM     12  C   UNL A   1      33.800  22.566  23.797  1.00  0.00     0.075 C 
ATOM     13  C   UNL A   1      34.836  23.352  24.663  1.00  0.00     0.036 C 
ATOM     14  C   UNL A   1      34.693  22.944  26.155  1.00  0.00     0.268 C 
ATOM     15  C   UNL A   1      36.285  22.910  24.321  1.00  0.00     0.090 C 
ATOM     16  N   UNL A   1      35.689  21.892  26.349  1.00  0.00    -0.334 N 
ATOM     17  H   UNL A   1      35.388  21.016  25.923  1.00  0.00     0.347 HD
ATOM     18  H   UNL A   1      35.861  21.666  27.327  1.00  0.00     0.347 HD
BRANCH   7  19
ATOM     19  C   UNL A   1      32.003  25.535  22.679  1.00  0.00     0.350 C 
ATOM     20  O   UNL A   1      31.416  25.721  21.608  1.00  0.00    -0.225 OA
BRANCH  19  21
ATOM     21  C   UNL A   1      31.530  26.330  23.853  1.00  0.00     0.147 A 
ATOM     22  C   UNL A   1      30.809  24.275  25.189  1.00  0.00     0.045 C 
ATOM     23  C   UNL A   1      31.067  25.736  24.975  1.00  0.00    -0.027 A 
ATOM     24  C   UNL A   1      30.938  26.496  26.203  1.00  0.00     0.026 A 
ATOM     25  C   UNL A   1      31.514  27.698  26.346  1.00  0.00     0.018 A 
ATOM     26  C   UNL A   1      31.965  27.769  23.943  1.00  0.00     0.267 A 
ATOM     27  C   UNL A   1      31.530  28.335  27.709  1.00  0.00     0.064 C 
ATOM     28  N   UNL A   1      32.080  28.316  25.236  1.00  0.00    -0.315 N 
ATOM     29  O   UNL A   1      32.210  28.414  22.924  1.00  0.00    -0.268 OA
ATOM     30  C   UNL A   1      32.801  29.575  25.369  1.00  0.00     0.153 C 
ENDBRANCH  19  21
ENDBRANCH   7  19
ENDBRANCH   4   6
ENDBRANCH   3   4
ENDBRANCH   2   3
ENDBRANCH   1   2
BRANCH   1  31
ATOM     31  O   UNL A   1      40.884  23.623  26.522  1.00  0.00    -0.458 OA
BRANCH  31  32
ATOM     32  C   UNL A   1      41.772  24.644  26.452  1.00  0.00     0.338 C 
ATOM     33  O   UNL A   1      42.675  24.785  25.648  1.00  0.00    -0.246 OA
BRANCH  32  34
ATOM     34  C   UNL A   1      41.424  25.673  27.444  1.00  0.00     0.060 A 
ATOM     35  C   UNL A   1      42.293  26.751  27.609  1.00  0.00     0.016 A 
ATOM     36  C   UNL A   1      40.315  25.524  28.278  1.00  0.00     0.016 A 
ATOM     37  C   UNL A   1      42.076  27.680  28.621  1.00  0.00     0.010 A 
ATOM     38  C   UNL A   1      40.086  26.469  29.285  1.00  0.00     0.010 A 
ATOM     39  C   UNL A   1      40.973  27.544  29.472  1.00  0.00    -0.014 A 
BRANCH  39  40
ATOM     40  C   UNL A   1      40.790  28.508  30.585  1.00  0.00     0.031 A 
ATOM     41  C   UNL A   1      41.696  28.451  31.783  1.00  0.00     0.074 A 
ATOM     42  C   UNL A   1      39.847  29.464  30.493  1.00  0.00     0.049 A 
ATOM     43  N   UNL A   1      41.658  29.160  32.880  1.00  0.00    -0.248 NA
ATOM     44  C   UNL A   1      42.791  27.469  31.737  1.00  0.00     0.031 C 
ATOM     45  C   UNL A   1      38.952  29.660  29.352  1.00  0.00     0.029 A 
ATOM     46  N   UNL A   1      39.492  30.459  31.369  1.00  0.00    -0.354 N 
ATOM     47  C   UNL A   1      42.712  28.704  33.663  1.00  0.00     0.074 A 
ATOM     48  C   UNL A   1      43.360  27.642  32.922  1.00  0.00     0.031 C 
ATOM     49  C   UNL A   1      38.164  30.721  29.588  1.00  0.00     0.029 A 
ATOM     50  C   UNL A   1      38.460  31.248  30.918  1.00  0.00     0.049 A 
ATOM     51  H   UNL A   1      39.933  30.594  32.238  1.00  0.00     0.167 HD
ATOM     52  C   UNL A   1      43.103  29.135  34.885  1.00  0.00     0.037 A 
ATOM     53  C   UNL A   1      37.811  32.264  31.518  1.00  0.00     0.037 A 
ATOM     54  C   UNL A   1      42.461  30.201  35.611  1.00  0.00     0.049 A 
ATOM     55  C   UNL A   1      38.214  32.673  32.908  1.00  0.00     0.074 A 
ATOM     56  C   UNL A   1      42.778  30.704  36.861  1.00  0.00     0.029 A 
ATOM     57  N   UNL A   1      41.377  30.931  35.148  1.00  0.00    -0.354 N 
ATOM     58  N   UNL A   1      39.185  32.203  33.656  1.00  0.00    -0.248 NA
ATOM     59  C   UNL A   1      37.423  33.736  33.545  1.00  0.00     0.031 C 
ATOM     60  C   UNL A   1      41.861  31.716  37.168  1.00  0.00     0.029 A 
ATOM     61  C   UNL A   1      40.999  31.870  36.095  1.00  0.00     0.049 A 
ATOM     62  H   UNL A   1      40.939  30.803  34.275  1.00  0.00     0.167 HD
ATOM     63  C   UNL A   1      39.128  32.918  34.846  1.00  0.00     0.074 A 
ATOM     64  C   UNL A   1      38.037  33.863  34.715  1.00  0.00     0.031 C 
ATOM     65  C   UNL A   1      39.907  32.799  35.949  1.00  0.00     0.037 A 
BRANCH  52  66
ATOM     66  C   UNL A   1      44.266  28.436  35.530  1.00  0.00     0.058 A 
ATOM     67  C   UNL A   1      44.089  27.305  36.340  1.00  0.00     0.135 A 
ATOM     68  C   UNL A   1      45.578  28.885  35.307  1.00  0.00     0.135 A 
ATOM     69  F   UNL A   1      42.854  26.847  36.601  1.00  0.00    -0.206 F 
ATOM     70  C   UNL A   1      45.171  26.651  36.922  1.00  0.00     0.059 A 
ATOM     71  C   UNL A   1      46.677  28.235  35.861  1.00  0.00     0.059 A 
ATOM     72  F   UNL A   1      45.801  29.965  34.542  1.00  0.00    -0.206 F 
ATOM     73  C   UNL A   1      46.461  27.126  36.678  1.00  0.00     0.060 A 
BRANCH  73  74
ATOM     74  S   UNL A   1      47.858  26.266  37.435  1.00  0.00     0.124 S 
ATOM     75  O   UNL A   1      48.984  26.850  36.712  1.00  0.00    -0.237 OA
ATOM     76  O   UNL A   1      47.738  26.650  38.838  1.00  0.00    -0.237 OA
ATOM     77  O   UNL A   1      47.589  24.861  37.148  1.00  0.00    -0.744 OA
ENDBRANCH  73  74
ENDBRANCH  52  66
BRANCH  53  78
ATOM     78  C   UNL A   1      36.701  32.952  30.809  1.00  0.00     0.058 A 
ATOM     79  C   UNL A   1      35.365  32.712  31.159  1.00  0.00     0.135 A 
ATOM     80  C   UNL A   1      36.955  33.884  29.790  1.00  0.00     0.135 A 
ATOM     81  F   UNL A   1      35.072  31.821  32.118  1.00  0.00    -0.206 F 
ATOM     82  C   UNL A   1      34.317  33.372  30.525  1.00  0.00     0.059 A 
ATOM     83  C   UNL A   1      35.926  34.573  29.157  1.00  0.00     0.059 A 
ATOM     84  F   UNL A   1      38.218  34.154  29.426  1.00  0.00    -0.206 F 
ATOM     85  C   UNL A   1      34.609  34.307  29.529  1.00  0.00     0.060 A 
BRANCH  85  86
ATOM     86  S   UNL A   1      33.245  35.210  28.762  1.00  0.00     0.124 S 
ATOM     87  O   UNL A   1      33.959  36.212  27.979  1.00  0.00    -0.237 OA
ATOM     88  O   UNL A   1      32.575  34.162  27.999  1.00  0.00    -0.237 OA
ATOM     89  O   UNL A   1      32.495  35.719  29.907  1.00  0.00    -0.744 OA
ENDBRANCH  85  86
ENDBRANCH  53  78
BRANCH  65  90
ATOM     90  C   UNL A   1      39.615  33.715  37.103  1.00  0.00     0.058 A 
ATOM     91  C   UNL A   1      38.776  33.319  38.155  1.00  0.00     0.135 A 
ATOM     92  C   UNL A   1      40.237  34.971  37.193  1.00  0.00     0.135 A 
ATOM     93  F   UNL A   1      38.152  32.132  38.111  1.00  0.00    -0.206 F 
ATOM     94  C   UNL A   1      38.556  34.142  39.255  1.00  0.00     0.059 A 
ATOM     95  C   UNL A   1      40.048  35.800  38.294  1.00  0.00     0.059 A 
ATOM     96  F   UNL A   1      41.056  35.391  36.215  1.00  0.00    -0.206 F 
ATOM     97  C   UNL A   1      39.200  35.379  39.317  1.00  0.00     0.060 A 
BRANCH  97  98
ATOM     98  S   UNL A   1      38.944  36.414  40.774  1.00  0.00     0.124 S 
ATOM     99  O   UNL A   1      40.273  36.408  41.376  1.00  0.00    -0.237 OA
ATOM    100  O   UNL A   1      38.520  37.681  40.188  1.00  0.00    -0.237 OA
ATOM    101  O   UNL A   1      37.913  35.700  41.522  1.00  0.00    -0.744 OA
ENDBRANCH  97  98
ENDBRANCH  65  90
ENDBRANCH  39  40
ENDBRANCH  32  34
ENDBRANCH  31  32
ENDBRANCH   1  31
TORSDOF 16
ENDMDL
