MODEL 1
REMARK VINA RESULT:     -13.0      0.000      0.000
REMARK SMILES O=C(OCCOC(=O)[C@@H]1CCCC[C@H]1C(=O)Nc1cnn(Cc2ccc(Cl)c(Cl)c2)c1)c1ccc(-c2c3nc(c(-c4c(F)cc(S(=O)(=O)[O-])cc4F)c4ccc([nH]4)c(-c4c(F)cc(S(=O)(=O)[O-])cc4F)c4nc(c(-c5c(F)cc(S(=O)(=O)[O-])cc5F)c5ccc2[nH]5)C=C4)C=C3)cc1
REMARK SMILES IDX 5 1 4 2 3 3 2 4 1 5 32 6 33 7 97 8 34 9 96 10 35 11 36 12
REMARK SMILES IDX 37 13 90 14 38 15 95 16 89 17 91 18 39 19 94 20 88 21 87 22
REMARK SMILES IDX 40 24 74 25 53 26 73 27 54 28 57 29 72 30 92 31 55 32 56 33
REMARK SMILES IDX 71 35 93 36 58 37 41 38 42 39 51 40 43 41 44 42 50 43 52 44
REMARK SMILES IDX 45 45 46 46 47 47 48 48 49 49 75 50 76 51 85 52 77 53 78 54
REMARK SMILES IDX 84 55 86 56 79 57 80 58 81 59 82 60 83 61 59 62 60 63 69 64
REMARK SMILES IDX 61 65 62 66 68 67 70 68 63 69 64 70 65 71 66 72 67 73 6 74
REMARK SMILES IDX 7 75 8 76 9 77 10 78 14 79 11 80 13 81 12 82 15 83 16 84
REMARK SMILES IDX 17 85 18 87 19 88 31 89 20 90 21 91 22 92 23 93 24 94 30 95
REMARK SMILES IDX 25 96 28 97 26 98 29 99 27 100
REMARK H PARENT 91 23 57 34 17 86
REMARK Flexibility Score: inf
ROOT
ATOM      1  C   UNL A   1      35.753  21.132  25.700  1.00  0.00     0.274 C 
ENDROOT
BRANCH   1   2
ATOM      2  C   UNL A   1      37.194  21.145  25.193  1.00  0.00     0.275 C 
BRANCH   2   3
ATOM      3  O   UNL A   1      38.028  22.268  25.548  1.00  0.00    -0.458 OA
BRANCH   3   4
ATOM      4  C   UNL A   1      39.172  22.053  26.240  1.00  0.00     0.338 C 
ATOM      5  O   UNL A   1      39.759  21.000  26.331  1.00  0.00    -0.246 OA
BRANCH   4   6
ATOM      6  C   UNL A   1      39.630  23.325  26.853  1.00  0.00     0.060 A 
ATOM      7  C   UNL A   1      38.876  24.496  26.729  1.00  0.00     0.016 A 
ATOM      8  C   UNL A   1      40.804  23.323  27.614  1.00  0.00     0.016 A 
ATOM      9  C   UNL A   1      39.318  25.669  27.326  1.00  0.00     0.010 A 
ATOM     10  C   UNL A   1      41.238  24.500  28.226  1.00  0.00     0.010 A 
ATOM     11  C   UNL A   1      40.510  25.682  28.059  1.00  0.00    -0.014 A 
BRANCH  11  12
ATOM     12  C   UNL A   1      40.908  26.958  28.660  1.00  0.00     0.031 A 
ATOM     13  C   UNL A   1      42.106  27.642  28.081  1.00  0.00     0.074 A 
ATOM     14  C   UNL A   1      40.210  27.618  29.604  1.00  0.00     0.049 A 
ATOM     15  N   UNL A   1      43.235  27.932  28.646  1.00  0.00    -0.248 NA
ATOM     16  C   UNL A   1      42.025  28.035  26.669  1.00  0.00     0.031 C 
ATOM     17  C   UNL A   1      38.857  27.360  30.097  1.00  0.00     0.029 A 
ATOM     18  N   UNL A   1      40.572  28.755  30.263  1.00  0.00    -0.354 N 
ATOM     19  C   UNL A   1      43.950  28.696  27.721  1.00  0.00     0.074 A 
ATOM     20  C   UNL A   1      43.198  28.645  26.499  1.00  0.00     0.031 C 
ATOM     21  C   UNL A   1      38.438  28.427  30.813  1.00  0.00     0.029 A 
ATOM     22  C   UNL A   1      39.537  29.370  30.949  1.00  0.00     0.049 A 
ATOM     23  H   UNL A   1      41.489  29.110  30.253  1.00  0.00     0.167 HD
ATOM     24  C   UNL A   1      45.038  29.452  28.044  1.00  0.00     0.037 A 
ATOM     25  C   UNL A   1      39.570  30.592  31.533  1.00  0.00     0.037 A 
ATOM     26  C   UNL A   1      45.612  29.061  29.301  1.00  0.00     0.049 A 
ATOM     27  C   UNL A   1      40.992  30.957  31.754  1.00  0.00     0.074 A 
ATOM     28  C   UNL A   1      46.099  27.876  29.821  1.00  0.00     0.029 A 
ATOM     29  N   UNL A   1      45.471  29.893  30.384  1.00  0.00    -0.354 N 
ATOM     30  N   UNL A   1      41.780  30.380  32.620  1.00  0.00    -0.248 NA
ATOM     31  C   UNL A   1      41.662  31.746  30.732  1.00  0.00     0.031 C 
ATOM     32  C   UNL A   1      45.697  27.887  31.190  1.00  0.00     0.029 A 
ATOM     33  C   UNL A   1      45.029  29.092  31.405  1.00  0.00     0.049 A 
ATOM     34  H   UNL A   1      45.649  30.861  30.420  1.00  0.00     0.167 HD
ATOM     35  C   UNL A   1      43.036  30.406  32.036  1.00  0.00     0.074 A 
ATOM     36  C   UNL A   1      42.919  31.347  30.926  1.00  0.00     0.031 C 
ATOM     37  C   UNL A   1      43.988  29.472  32.332  1.00  0.00     0.037 A 
BRANCH  24  38
ATOM     38  C   UNL A   1      45.429  30.742  27.353  1.00  0.00     0.058 A 
ATOM     39  C   UNL A   1      46.762  30.929  26.923  1.00  0.00     0.135 A 
ATOM     40  C   UNL A   1      44.624  31.903  27.353  1.00  0.00     0.135 A 
ATOM     41  F   UNL A   1      47.618  29.896  26.879  1.00  0.00    -0.206 F 
ATOM     42  C   UNL A   1      47.278  32.186  26.606  1.00  0.00     0.059 A 
ATOM     43  C   UNL A   1      45.105  33.157  26.986  1.00  0.00     0.059 A 
ATOM     44  F   UNL A   1      43.363  31.892  27.802  1.00  0.00    -0.206 F 
ATOM     45  C   UNL A   1      46.446  33.298  26.667  1.00  0.00     0.060 A 
BRANCH  45  46
ATOM     46  S   UNL A   1      47.143  34.941  26.405  1.00  0.00     0.124 S 
ATOM     47  O   UNL A   1      45.934  35.750  26.303  1.00  0.00    -0.237 OA
ATOM     48  O   UNL A   1      47.941  35.131  27.612  1.00  0.00    -0.237 OA
ATOM     49  O   UNL A   1      47.909  34.783  25.173  1.00  0.00    -0.744 OA
ENDBRANCH  45  46
ENDBRANCH  24  38
BRANCH  25  50
ATOM     50  C   UNL A   1      38.467  31.571  31.680  1.00  0.00     0.058 A 
ATOM     51  C   UNL A   1      38.055  32.369  30.598  1.00  0.00     0.135 A 
ATOM     52  C   UNL A   1      37.615  31.557  32.803  1.00  0.00     0.135 A 
ATOM     53  F   UNL A   1      38.791  32.419  29.477  1.00  0.00    -0.206 F 
ATOM     54  C   UNL A   1      36.851  33.077  30.612  1.00  0.00     0.059 A 
ATOM     55  C   UNL A   1      36.418  32.268  32.847  1.00  0.00     0.059 A 
ATOM     56  F   UNL A   1      37.877  30.773  33.860  1.00  0.00    -0.206 F 
ATOM     57  C   UNL A   1      36.030  33.007  31.736  1.00  0.00     0.060 A 
BRANCH  57  58
ATOM     58  S   UNL A   1      34.397  33.780  31.691  1.00  0.00     0.124 S 
ATOM     59  O   UNL A   1      33.660  32.978  32.662  1.00  0.00    -0.237 OA
ATOM     60  O   UNL A   1      34.694  35.151  32.089  1.00  0.00    -0.237 OA
ATOM     61  O   UNL A   1      33.982  33.613  30.301  1.00  0.00    -0.744 OA
ENDBRANCH  57  58
ENDBRANCH  25  50
BRANCH  37  62
ATOM     62  C   UNL A   1      43.796  28.577  33.525  1.00  0.00     0.058 A 
ATOM     63  C   UNL A   1      44.255  28.878  34.819  1.00  0.00     0.135 A 
ATOM     64  C   UNL A   1      42.952  27.461  33.388  1.00  0.00     0.135 A 
ATOM     65  F   UNL A   1      44.967  29.990  35.059  1.00  0.00    -0.206 F 
ATOM     66  C   UNL A   1      43.926  28.084  35.918  1.00  0.00     0.059 A 
ATOM     67  C   UNL A   1      42.582  26.676  34.477  1.00  0.00     0.059 A 
ATOM     68  F   UNL A   1      42.425  27.158  32.190  1.00  0.00    -0.206 F 
ATOM     69  C   UNL A   1      43.083  26.987  35.738  1.00  0.00     0.060 A 
BRANCH  69  70
ATOM     70  S   UNL A   1      42.566  26.029  37.180  1.00  0.00     0.124 S 
ATOM     71  O   UNL A   1      41.117  26.200  37.155  1.00  0.00    -0.237 OA
ATOM     72  O   UNL A   1      43.052  24.689  36.867  1.00  0.00    -0.237 OA
ATOM     73  O   UNL A   1      43.253  26.686  38.289  1.00  0.00    -0.744 OA
ENDBRANCH  69  70
ENDBRANCH  37  62
ENDBRANCH  11  12
ENDBRANCH   4   6
ENDBRANCH   3   4
ENDBRANCH   2   3
ENDBRANCH   1   2
BRANCH   1  74
ATOM     74  O   UNL A   1      34.910  20.516  24.713  1.00  0.00    -0.462 OA
BRANCH  74  75
ATOM     75  C   UNL A   1      33.592  20.415  25.049  1.00  0.00     0.309 C 
ATOM     76  O   UNL A   1      32.962  19.375  25.171  1.00  0.00    -0.252 OA
BRANCH  75  77
ATOM     77  C   UNL A   1      33.007  21.804  25.223  1.00  0.00     0.111 C 
ATOM     78  C   UNL A   1      32.620  22.041  26.683  1.00  0.00     0.016 C 
ATOM     79  C   UNL A   1      31.821  21.985  24.275  1.00  0.00     0.093 C 
ATOM     80  C   UNL A   1      31.972  23.410  26.854  1.00  0.00     0.001 C 
ATOM     81  C   UNL A   1      30.976  23.243  24.544  1.00  0.00     0.014 C 
ATOM     82  C   UNL A   1      30.699  23.493  26.024  1.00  0.00     0.001 C 
BRANCH  79  83
ATOM     83  C   UNL A   1      32.212  21.818  22.797  1.00  0.00     0.228 C 
ATOM     84  O   UNL A   1      32.014  20.736  22.233  1.00  0.00    -0.274 OA
ATOM     85  N   UNL A   1      32.702  22.833  22.027  1.00  0.00    -0.323 N 
ATOM     86  H   UNL A   1      32.780  22.630  21.067  1.00  0.00     0.170 HD
BRANCH  85  87
ATOM     87  C   UNL A   1      33.103  24.094  22.391  1.00  0.00     0.079 A 
ATOM     88  C   UNL A   1      34.127  24.547  23.246  1.00  0.00     0.161 A 
ATOM     89  C   UNL A   1      32.541  25.245  21.887  1.00  0.00     0.135 A 
ATOM     90  N   UNL A   1      34.125  25.875  23.375  1.00  0.00    -0.179 NA
ATOM     91  N   UNL A   1      33.080  26.269  22.621  1.00  0.00    -0.266 N 
BRANCH  91  92
ATOM     92  C   UNL A   1      32.655  27.665  22.624  1.00  0.00     0.179 C 
BRANCH  92  93
ATOM     93  C   UNL A   1      31.150  27.853  22.692  1.00  0.00    -0.025 A 
ATOM     94  C   UNL A   1      30.313  26.995  23.421  1.00  0.00     0.007 A 
ATOM     95  C   UNL A   1      30.575  29.003  22.127  1.00  0.00     0.027 A 
ATOM     96  C   UNL A   1      28.963  27.297  23.626  1.00  0.00     0.022 A 
ATOM     97  C   UNL A   1      29.214  29.296  22.303  1.00  0.00     0.060 A 
ATOM     98  C   UNL A   1      28.410  28.450  23.072  1.00  0.00     0.059 A 
ATOM     99  Cl  UNL A   1      28.598  30.718  21.538  1.00  0.00    -0.083 Cl
ATOM    100  Cl  UNL A   1      26.740  28.769  23.370  1.00  0.00    -0.083 Cl
ENDBRANCH  92  93
ENDBRANCH  91  92
ENDBRANCH  85  87
ENDBRANCH  79  83
ENDBRANCH  75  77
ENDBRANCH  74  75
ENDBRANCH   1  74
TORSDOF 18
ENDMDL
MODEL 2
REMARK VINA RESULT:     -12.8      1.372      2.111
REMARK SMILES O=C(OCCOC(=O)[C@@H]1CCCC[C@H]1C(=O)Nc1cnn(Cc2ccc(Cl)c(Cl)c2)c1)c1ccc(-c2c3nc(c(-c4c(F)cc(S(=O)(=O)[O-])cc4F)c4ccc([nH]4)c(-c4c(F)cc(S(=O)(=O)[O-])cc4F)c4nc(c(-c5c(F)cc(S(=O)(=O)[O-])cc5F)c5ccc2[nH]5)C=C4)C=C3)cc1
REMARK SMILES IDX 5 1 4 2 3 3 2 4 1 5 32 6 33 7 97 8 34 9 96 10 35 11 36 12
REMARK SMILES IDX 37 13 90 14 38 15 95 16 89 17 91 18 39 19 94 20 88 21 87 22
REMARK SMILES IDX 40 24 74 25 53 26 73 27 54 28 57 29 72 30 92 31 55 32 56 33
REMARK SMILES IDX 71 35 93 36 58 37 41 38 42 39 51 40 43 41 44 42 50 43 52 44
REMARK SMILES IDX 45 45 46 46 47 47 48 48 49 49 75 50 76 51 85 52 77 53 78 54
REMARK SMILES IDX 84 55 86 56 79 57 80 58 81 59 82 60 83 61 59 62 60 63 69 64
REMARK SMILES IDX 61 65 62 66 68 67 70 68 63 69 64 70 65 71 66 72 67 73 6 74
REMARK SMILES IDX 7 75 8 76 9 77 10 78 14 79 11 80 13 81 12 82 15 83 16 84
REMARK SMILES IDX 17 85 18 87 19 88 31 89 20 90 21 91 22 92 23 93 24 94 30 95
REMARK SMILES IDX 25 96 28 97 26 98 29 99 27 100
REMARK H PARENT 91 23 57 34 17 86
REMARK Flexibility Score: inf
ROOT
ATOM      1  C   UNL A   1      36.753  22.384  24.973  1.00  0.00     0.274 C 
ENDROOT
BRANCH   1   2
ATOM      2  C   UNL A   1      37.871  21.382  25.257  1.00  0.00     0.275 C 
BRANCH   2   3
ATOM      3  O   UNL A   1      39.213  21.890  25.413  1.00  0.00    -0.458 OA
BRANCH   3   4
ATOM      4  C   UNL A   1      39.844  21.745  26.603  1.00  0.00     0.338 C 
ATOM      5  O   UNL A   1      40.137  20.695  27.128  1.00  0.00    -0.246 OA
BRANCH   4   6
ATOM      6  C   UNL A   1      40.162  23.081  27.164  1.00  0.00     0.060 A 
ATOM      7  C   UNL A   1      41.336  23.294  27.895  1.00  0.00     0.016 A 
ATOM      8  C   UNL A   1      39.298  24.149  26.899  1.00  0.00     0.016 A 
ATOM      9  C   UNL A   1      41.619  24.557  28.395  1.00  0.00     0.010 A 
ATOM     10  C   UNL A   1      39.593  25.421  27.389  1.00  0.00     0.010 A 
ATOM     11  C   UNL A   1      40.740  25.622  28.163  1.00  0.00    -0.014 A 
BRANCH  11  12
ATOM     12  C   UNL A   1      41.110  26.925  28.722  1.00  0.00     0.031 A 
ATOM     13  C   UNL A   1      42.322  27.593  28.154  1.00  0.00     0.074 A 
ATOM     14  C   UNL A   1      40.377  27.619  29.613  1.00  0.00     0.049 A 
ATOM     15  N   UNL A   1      43.431  27.914  28.743  1.00  0.00    -0.248 NA
ATOM     16  C   UNL A   1      42.287  27.925  26.724  1.00  0.00     0.031 C 
ATOM     17  C   UNL A   1      39.010  27.372  30.071  1.00  0.00     0.029 A 
ATOM     18  N   UNL A   1      40.709  28.786  30.235  1.00  0.00    -0.354 N 
ATOM     19  C   UNL A   1      44.171  28.644  27.812  1.00  0.00     0.074 A 
ATOM     20  C   UNL A   1      43.461  28.536  26.568  1.00  0.00     0.031 C 
ATOM     21  C   UNL A   1      38.561  28.466  30.727  1.00  0.00     0.029 A 
ATOM     22  C   UNL A   1      39.649  29.421  30.859  1.00  0.00     0.049 A 
ATOM     23  H   UNL A   1      41.625  29.147  30.241  1.00  0.00     0.167 HD
ATOM     24  C   UNL A   1      45.244  29.421  28.138  1.00  0.00     0.037 A 
ATOM     25  C   UNL A   1      39.655  30.667  31.392  1.00  0.00     0.037 A 
ATOM     26  C   UNL A   1      45.777  29.087  29.429  1.00  0.00     0.049 A 
ATOM     27  C   UNL A   1      41.067  31.052  31.644  1.00  0.00     0.074 A 
ATOM     28  C   UNL A   1      46.253  27.929  30.015  1.00  0.00     0.029 A 
ATOM     29  N   UNL A   1      45.595  29.964  30.470  1.00  0.00    -0.354 N 
ATOM     30  N   UNL A   1      41.829  30.518  32.560  1.00  0.00    -0.248 NA
ATOM     31  C   UNL A   1      41.766  31.802  30.613  1.00  0.00     0.031 C 
ATOM     32  C   UNL A   1      45.806  27.995  31.368  1.00  0.00     0.029 A 
ATOM     33  C   UNL A   1      45.124  29.203  31.509  1.00  0.00     0.049 A 
ATOM     34  H   UNL A   1      45.767  30.933  30.471  1.00  0.00     0.167 HD
ATOM     35  C   UNL A   1      43.104  30.528  32.017  1.00  0.00     0.074 A 
ATOM     36  C   UNL A   1      43.019  31.420  30.865  1.00  0.00     0.031 C 
ATOM     37  C   UNL A   1      44.051  29.614  32.384  1.00  0.00     0.037 A 
BRANCH  24  38
ATOM     38  C   UNL A   1      45.650  30.683  27.406  1.00  0.00     0.058 A 
ATOM     39  C   UNL A   1      47.003  30.883  27.055  1.00  0.00     0.135 A 
ATOM     40  C   UNL A   1      44.820  31.821  27.291  1.00  0.00     0.135 A 
ATOM     41  F   UNL A   1      47.885  29.873  27.122  1.00  0.00    -0.206 F 
ATOM     42  C   UNL A   1      47.511  32.135  26.706  1.00  0.00     0.059 A 
ATOM     43  C   UNL A   1      45.295  33.067  26.890  1.00  0.00     0.059 A 
ATOM     44  F   UNL A   1      43.532  31.799  27.657  1.00  0.00    -0.206 F 
ATOM     45  C   UNL A   1      46.651  33.227  26.652  1.00  0.00     0.060 A 
BRANCH  45  46
ATOM     46  S   UNL A   1      47.325  34.871  26.350  1.00  0.00     0.124 S 
ATOM     47  O   UNL A   1      46.185  35.539  25.734  1.00  0.00    -0.237 OA
ATOM     48  O   UNL A   1      47.674  35.313  27.696  1.00  0.00    -0.237 OA
ATOM     49  O   UNL A   1      48.459  34.607  25.470  1.00  0.00    -0.744 OA
ENDBRANCH  45  46
ENDBRANCH  24  38
BRANCH  25  50
ATOM     50  C   UNL A   1      38.542  31.644  31.460  1.00  0.00     0.058 A 
ATOM     51  C   UNL A   1      37.916  32.113  30.293  1.00  0.00     0.135 A 
ATOM     52  C   UNL A   1      37.890  31.932  32.676  1.00  0.00     0.135 A 
ATOM     53  F   UNL A   1      38.451  31.859  29.089  1.00  0.00    -0.206 F 
ATOM     54  C   UNL A   1      36.695  32.793  30.326  1.00  0.00     0.059 A 
ATOM     55  C   UNL A   1      36.682  32.622  32.736  1.00  0.00     0.059 A 
ATOM     56  F   UNL A   1      38.365  31.468  33.843  1.00  0.00    -0.206 F 
ATOM     57  C   UNL A   1      36.076  33.028  31.553  1.00  0.00     0.060 A 
BRANCH  57  58
ATOM     58  S   UNL A   1      34.421  33.751  31.587  1.00  0.00     0.124 S 
ATOM     59  O   UNL A   1      34.698  35.112  32.031  1.00  0.00    -0.237 OA
ATOM     60  O   UNL A   1      33.992  33.606  30.201  1.00  0.00    -0.237 OA
ATOM     61  O   UNL A   1      33.706  32.914  32.548  1.00  0.00    -0.744 OA
ENDBRANCH  57  58
ENDBRANCH  25  50
BRANCH  37  62
ATOM     62  C   UNL A   1      43.824  28.769  33.607  1.00  0.00     0.058 A 
ATOM     63  C   UNL A   1      44.167  29.162  34.912  1.00  0.00     0.135 A 
ATOM     64  C   UNL A   1      43.060  27.596  33.471  1.00  0.00     0.135 A 
ATOM     65  F   UNL A   1      44.791  30.327  35.141  1.00  0.00    -0.206 F 
ATOM     66  C   UNL A   1      43.805  28.404  36.026  1.00  0.00     0.059 A 
ATOM     67  C   UNL A   1      42.658  26.844  34.571  1.00  0.00     0.059 A 
ATOM     68  F   UNL A   1      42.643  27.202  32.256  1.00  0.00    -0.206 F 
ATOM     69  C   UNL A   1      43.045  27.248  35.846  1.00  0.00     0.060 A 
BRANCH  69  70
ATOM     70  S   UNL A   1      42.479  26.332  37.297  1.00  0.00     0.124 S 
ATOM     71  O   UNL A   1      42.634  24.948  36.863  1.00  0.00    -0.237 OA
ATOM     72  O   UNL A   1      43.401  26.779  38.338  1.00  0.00    -0.237 OA
ATOM     73  O   UNL A   1      41.100  26.783  37.467  1.00  0.00    -0.744 OA
ENDBRANCH  69  70
ENDBRANCH  37  62
ENDBRANCH  11  12
ENDBRANCH   4   6
ENDBRANCH   3   4
ENDBRANCH   2   3
ENDBRANCH   1   2
BRANCH   1  74
ATOM     74  O   UNL A   1      35.558  21.670  24.615  1.00  0.00    -0.462 OA
BRANCH  74  75
ATOM     75  C   UNL A   1      34.834  21.179  25.661  1.00  0.00     0.309 C 
ATOM     76  O   UNL A   1      34.807  21.639  26.793  1.00  0.00    -0.252 OA
BRANCH  75  77
ATOM     77  C   UNL A   1      34.077  19.942  25.214  1.00  0.00     0.111 C 
ATOM     78  C   UNL A   1      35.033  18.933  24.577  1.00  0.00     0.016 C 
ATOM     79  C   UNL A   1      32.948  20.346  24.266  1.00  0.00     0.093 C 
ATOM     80  C   UNL A   1      34.270  17.716  24.067  1.00  0.00     0.001 C 
ATOM     81  C   UNL A   1      32.280  19.169  23.532  1.00  0.00     0.014 C 
ATOM     82  C   UNL A   1      33.269  18.135  23.000  1.00  0.00     0.001 C 
BRANCH  79  83
ATOM     83  C   UNL A   1      31.940  21.307  24.918  1.00  0.00     0.228 C 
ATOM     84  O   UNL A   1      31.238  20.909  25.854  1.00  0.00    -0.274 OA
ATOM     85  N   UNL A   1      31.822  22.624  24.577  1.00  0.00    -0.323 N 
ATOM     86  H   UNL A   1      31.241  23.158  25.163  1.00  0.00     0.170 HD
BRANCH  85  87
ATOM     87  C   UNL A   1      32.394  23.313  23.536  1.00  0.00     0.079 A 
ATOM     88  C   UNL A   1      33.402  22.966  22.617  1.00  0.00     0.161 A 
ATOM     89  C   UNL A   1      31.995  24.573  23.151  1.00  0.00     0.135 A 
ATOM     90  N   UNL A   1      33.709  23.974  21.800  1.00  0.00    -0.179 NA
ATOM     91  N   UNL A   1      32.912  24.978  22.217  1.00  0.00    -0.266 N 
BRANCH  91  92
ATOM     92  C   UNL A   1      33.061  26.318  21.657  1.00  0.00     0.179 C 
BRANCH  92  93
ATOM     93  C   UNL A   1      32.781  27.436  22.645  1.00  0.00    -0.025 A 
ATOM     94  C   UNL A   1      31.643  28.252  22.561  1.00  0.00     0.007 A 
ATOM     95  C   UNL A   1      33.609  27.580  23.770  1.00  0.00     0.027 A 
ATOM     96  C   UNL A   1      31.311  29.143  23.587  1.00  0.00     0.022 A 
ATOM     97  C   UNL A   1      33.297  28.495  24.788  1.00  0.00     0.060 A 
ATOM     98  C   UNL A   1      32.134  29.263  24.705  1.00  0.00     0.059 A 
ATOM     99  Cl  UNL A   1      34.399  28.620  26.114  1.00  0.00    -0.083 Cl
ATOM    100  Cl  UNL A   1      31.661  30.375  25.939  1.00  0.00    -0.083 Cl
ENDBRANCH  92  93
ENDBRANCH  91  92
ENDBRANCH  85  87
ENDBRANCH  79  83
ENDBRANCH  75  77
ENDBRANCH  74  75
ENDBRANCH   1  74
TORSDOF 18
ENDMDL
MODEL 3
REMARK VINA RESULT:     -12.7      5.709      8.374
REMARK SMILES O=C(OCCOC(=O)[C@@H]1CCCC[C@H]1C(=O)Nc1cnn(Cc2ccc(Cl)c(Cl)c2)c1)c1ccc(-c2c3nc(c(-c4c(F)cc(S(=O)(=O)[O-])cc4F)c4ccc([nH]4)c(-c4c(F)cc(S(=O)(=O)[O-])cc4F)c4nc(c(-c5c(F)cc(S(=O)(=O)[O-])cc5F)c5ccc2[nH]5)C=C4)C=C3)cc1
REMARK SMILES IDX 5 1 4 2 3 3 2 4 1 5 32 6 33 7 97 8 34 9 96 10 35 11 36 12
REMARK SMILES IDX 37 13 90 14 38 15 95 16 89 17 91 18 39 19 94 20 88 21 87 22
REMARK SMILES IDX 40 24 74 25 53 26 73 27 54 28 57 29 72 30 92 31 55 32 56 33
REMARK SMILES IDX 71 35 93 36 58 37 41 38 42 39 51 40 43 41 44 42 50 43 52 44
REMARK SMILES IDX 45 45 46 46 47 47 48 48 49 49 75 50 76 51 85 52 77 53 78 54
REMARK SMILES IDX 84 55 86 56 79 57 80 58 81 59 82 60 83 61 59 62 60 63 69 64
REMARK SMILES IDX 61 65 62 66 68 67 70 68 63 69 64 70 65 71 66 72 67 73 6 74
REMARK SMILES IDX 7 75 8 76 9 77 10 78 14 79 11 80 13 81 12 82 15 83 16 84
REMARK SMILES IDX 17 85 18 87 19 88 31 89 20 90 21 91 22 92 23 93 24 94 30 95
REMARK SMILES IDX 25 96 28 97 26 98 29 99 27 100
REMARK H PARENT 91 23 57 34 17 86
REMARK Flexibility Score: inf
ROOT
ATOM      1  C   UNL A   1      43.379  20.671  25.765  1.00  0.00     0.274 C 
ENDROOT
BRANCH   1   2
ATOM      2  C   UNL A   1      41.906  20.807  26.150  1.00  0.00     0.275 C 
BRANCH   2   3
ATOM      3  O   UNL A   1      41.209  22.005  25.749  1.00  0.00    -0.458 OA
BRANCH   3   4
ATOM      4  C   UNL A   1      40.042  22.329  26.354  1.00  0.00     0.338 C 
ATOM      5  O   UNL A   1      39.040  21.651  26.373  1.00  0.00    -0.246 OA
BRANCH   4   6
ATOM      6  C   UNL A   1      40.179  23.642  27.033  1.00  0.00     0.060 A 
ATOM      7  C   UNL A   1      41.223  23.880  27.934  1.00  0.00     0.016 A 
ATOM      8  C   UNL A   1      39.282  24.666  26.711  1.00  0.00     0.016 A 
ATOM      9  C   UNL A   1      41.339  25.122  28.543  1.00  0.00     0.010 A 
ATOM     10  C   UNL A   1      39.411  25.918  27.313  1.00  0.00     0.010 A 
ATOM     11  C   UNL A   1      40.423  26.140  28.252  1.00  0.00    -0.014 A 
BRANCH  11  12
ATOM     12  C   UNL A   1      40.615  27.422  28.934  1.00  0.00     0.031 A 
ATOM     13  C   UNL A   1      41.699  28.316  28.418  1.00  0.00     0.074 A 
ATOM     14  C   UNL A   1      39.815  27.910  29.901  1.00  0.00     0.049 A 
ATOM     15  N   UNL A   1      42.765  28.739  29.021  1.00  0.00    -0.248 NA
ATOM     16  C   UNL A   1      41.573  28.776  27.030  1.00  0.00     0.031 C 
ATOM     17  C   UNL A   1      38.512  27.419  30.352  1.00  0.00     0.029 A 
ATOM     18  N   UNL A   1      39.990  29.047  30.632  1.00  0.00    -0.354 N 
ATOM     19  C   UNL A   1      43.363  29.658  28.156  1.00  0.00     0.074 A 
ATOM     20  C   UNL A   1      42.640  29.567  26.919  1.00  0.00     0.031 C 
ATOM     21  C   UNL A   1      37.927  28.365  31.121  1.00  0.00     0.029 A 
ATOM     22  C   UNL A   1      38.867  29.454  31.333  1.00  0.00     0.049 A 
ATOM     23  H   UNL A   1      40.843  29.538  30.660  1.00  0.00     0.167 HD
ATOM     24  C   UNL A   1      44.319  30.551  28.543  1.00  0.00     0.037 A 
ATOM     25  C   UNL A   1      38.706  30.629  31.988  1.00  0.00     0.037 A 
ATOM     26  C   UNL A   1      44.933  30.176  29.787  1.00  0.00     0.049 A 
ATOM     27  C   UNL A   1      40.053  31.193  32.257  1.00  0.00     0.074 A 
ATOM     28  C   UNL A   1      45.591  29.050  30.246  1.00  0.00     0.029 A 
ATOM     29  N   UNL A   1      44.656  30.910  30.914  1.00  0.00    -0.354 N 
ATOM     30  N   UNL A   1      40.911  30.692  33.102  1.00  0.00    -0.248 NA
ATOM     31  C   UNL A   1      40.604  32.135  31.296  1.00  0.00     0.031 C 
ATOM     32  C   UNL A   1      45.178  28.916  31.605  1.00  0.00     0.029 A 
ATOM     33  C   UNL A   1      44.331  29.991  31.877  1.00  0.00     0.049 A 
ATOM     34  H   UNL A   1      44.683  31.889  31.009  1.00  0.00     0.167 HD
ATOM     35  C   UNL A   1      42.155  30.944  32.545  1.00  0.00     0.074 A 
ATOM     36  C   UNL A   1      41.906  31.922  31.490  1.00  0.00     0.031 C 
ATOM     37  C   UNL A   1      43.236  30.150  32.804  1.00  0.00     0.037 A 
BRANCH  24  38
ATOM     38  C   UNL A   1      44.515  31.925  27.936  1.00  0.00     0.058 A 
ATOM     39  C   UNL A   1      45.656  32.184  27.147  1.00  0.00     0.135 A 
ATOM     40  C   UNL A   1      43.780  33.065  28.332  1.00  0.00     0.135 A 
ATOM     41  F   UNL A   1      46.430  31.177  26.710  1.00  0.00    -0.206 F 
ATOM     42  C   UNL A   1      46.085  33.478  26.849  1.00  0.00     0.059 A 
ATOM     43  C   UNL A   1      44.159  34.362  27.999  1.00  0.00     0.059 A 
ATOM     44  F   UNL A   1      42.717  32.978  29.141  1.00  0.00    -0.206 F 
ATOM     45  C   UNL A   1      45.341  34.562  27.304  1.00  0.00     0.060 A 
BRANCH  45  46
ATOM     46  S   UNL A   1      45.969  36.234  27.054  1.00  0.00     0.124 S 
ATOM     47  O   UNL A   1      46.758  36.063  25.840  1.00  0.00    -0.237 OA
ATOM     48  O   UNL A   1      44.739  37.006  26.914  1.00  0.00    -0.237 OA
ATOM     49  O   UNL A   1      46.726  36.489  28.275  1.00  0.00    -0.744 OA
ENDBRANCH  45  46
ENDBRANCH  24  38
BRANCH  25  50
ATOM     50  C   UNL A   1      37.464  31.418  32.170  1.00  0.00     0.058 A 
ATOM     51  C   UNL A   1      37.055  31.843  33.446  1.00  0.00     0.135 A 
ATOM     52  C   UNL A   1      36.797  32.002  31.074  1.00  0.00     0.135 A 
ATOM     53  F   UNL A   1      37.655  31.361  34.544  1.00  0.00    -0.206 F 
ATOM     54  C   UNL A   1      36.071  32.819  33.624  1.00  0.00     0.059 A 
ATOM     55  C   UNL A   1      35.802  32.965  31.227  1.00  0.00     0.059 A 
ATOM     56  F   UNL A   1      37.159  31.721  29.813  1.00  0.00    -0.206 F 
ATOM     57  C   UNL A   1      35.461  33.387  32.506  1.00  0.00     0.060 A 
BRANCH  57  58
ATOM     58  S   UNL A   1      34.316  34.768  32.727  1.00  0.00     0.124 S 
ATOM     59  O   UNL A   1      33.085  34.079  33.097  1.00  0.00    -0.237 OA
ATOM     60  O   UNL A   1      34.961  35.537  33.785  1.00  0.00    -0.237 OA
ATOM     61  O   UNL A   1      34.303  35.409  31.414  1.00  0.00    -0.744 OA
ENDBRANCH  57  58
ENDBRANCH  25  50
BRANCH  37  62
ATOM     62  C   UNL A   1      43.171  29.165  33.939  1.00  0.00     0.058 A 
ATOM     63  C   UNL A   1      43.473  29.481  35.276  1.00  0.00     0.135 A 
ATOM     64  C   UNL A   1      42.601  27.904  33.692  1.00  0.00     0.135 A 
ATOM     65  F   UNL A   1      43.908  30.703  35.615  1.00  0.00    -0.206 F 
ATOM     66  C   UNL A   1      43.259  28.571  36.311  1.00  0.00     0.059 A 
ATOM     67  C   UNL A   1      42.347  26.995  34.715  1.00  0.00     0.059 A 
ATOM     68  F   UNL A   1      42.228  27.566  32.446  1.00  0.00    -0.206 F 
ATOM     69  C   UNL A   1      42.689  27.331  36.021  1.00  0.00     0.060 A 
BRANCH  69  70
ATOM     70  S   UNL A   1      42.306  26.201  37.378  1.00  0.00     0.124 S 
ATOM     71  O   UNL A   1      40.906  26.509  37.646  1.00  0.00    -0.237 OA
ATOM     72  O   UNL A   1      42.565  24.891  36.787  1.00  0.00    -0.237 OA
ATOM     73  O   UNL A   1      43.245  26.596  38.425  1.00  0.00    -0.744 OA
ENDBRANCH  69  70
ENDBRANCH  37  62
ENDBRANCH  11  12
ENDBRANCH   4   6
ENDBRANCH   3   4
ENDBRANCH   2   3
ENDBRANCH   1   2
BRANCH   1  74
ATOM     74  O   UNL A   1      44.057  21.906  26.048  1.00  0.00    -0.462 OA
BRANCH  74  75
ATOM     75  C   UNL A   1      44.178  22.763  24.994  1.00  0.00     0.309 C 
ATOM     76  O   UNL A   1      44.381  22.444  23.832  1.00  0.00    -0.252 OA
BRANCH  75  77
ATOM     77  C   UNL A   1      44.049  24.192  25.488  1.00  0.00     0.111 C 
ATOM     78  C   UNL A   1      42.844  24.874  24.839  1.00  0.00     0.016 C 
ATOM     79  C   UNL A   1      45.352  24.946  25.222  1.00  0.00     0.093 C 
ATOM     80  C   UNL A   1      42.746  26.329  25.280  1.00  0.00     0.001 C 
ATOM     81  C   UNL A   1      45.259  26.469  25.426  1.00  0.00     0.014 C 
ATOM     82  C   UNL A   1      43.991  27.091  24.849  1.00  0.00     0.001 C 
BRANCH  79  83
ATOM     83  C   UNL A   1      46.561  24.309  25.927  1.00  0.00     0.228 C 
ATOM     84  O   UNL A   1      47.510  23.895  25.251  1.00  0.00    -0.274 OA
ATOM     85  N   UNL A   1      46.695  24.241  27.283  1.00  0.00    -0.323 N 
ATOM     86  H   UNL A   1      47.574  23.937  27.603  1.00  0.00     0.170 HD
BRANCH  85  87
ATOM     87  C   UNL A   1      45.784  24.533  28.269  1.00  0.00     0.079 A 
ATOM     88  C   UNL A   1      45.216  25.749  28.696  1.00  0.00     0.161 A 
ATOM     89  C   UNL A   1      45.177  23.576  29.048  1.00  0.00     0.135 A 
ATOM     90  N   UNL A   1      44.415  25.588  29.750  1.00  0.00    -0.179 NA
ATOM     91  N   UNL A   1      44.492  24.268  30.012  1.00  0.00    -0.266 N 
BRANCH  91  92
ATOM     92  C   UNL A   1      43.859  23.716  31.206  1.00  0.00     0.179 C 
BRANCH  92  93
ATOM     93  C   UNL A   1      44.581  24.050  32.499  1.00  0.00    -0.025 A 
ATOM     94  C   UNL A   1      45.102  25.325  32.766  1.00  0.00     0.007 A 
ATOM     95  C   UNL A   1      44.612  23.100  33.534  1.00  0.00     0.027 A 
ATOM     96  C   UNL A   1      45.589  25.660  34.034  1.00  0.00     0.022 A 
ATOM     97  C   UNL A   1      45.127  23.422  34.799  1.00  0.00     0.060 A 
ATOM     98  C   UNL A   1      45.599  24.711  35.055  1.00  0.00     0.059 A 
ATOM     99  Cl  UNL A   1      45.151  22.172  35.993  1.00  0.00    -0.083 Cl
ATOM    100  Cl  UNL A   1      46.205  25.193  36.599  1.00  0.00    -0.083 Cl
ENDBRANCH  92  93
ENDBRANCH  91  92
ENDBRANCH  85  87
ENDBRANCH  79  83
ENDBRANCH  75  77
ENDBRANCH  74  75
ENDBRANCH   1  74
TORSDOF 18
ENDMDL
