MODEL 1
REMARK VINA RESULT:     -10.2      0.000      0.000
REMARK SMILES Cc1cscc1CNC(=O)CC(C)(C)C(=O)OCCOC(=O)c1ccc(-c2c3nc(c(-c4c(F)cc(S(=O)(=O)[O-])cc4F)c4ccc([nH]4)c(-c4c(F)cc(S(=O)(=O)[O-])cc4F)c4nc(c(-c5c(F)cc(S(=O)(=O)[O-])cc5F)c5ccc2[nH]5)C=C4)C=C3)cc1
REMARK SMILES IDX 18 1 17 2 15 3 16 4 12 5 13 6 14 7 11 8 9 9 8 10 10 12 7 13
REMARK SMILES IDX 6 14 1 15 2 16 3 17 4 18 5 19 19 20 20 21 21 22 22 23 23 24
REMARK SMILES IDX 24 25 88 26 25 27 87 28 26 29 27 30 28 31 81 32 29 33 86 34
REMARK SMILES IDX 80 35 82 36 30 37 85 38 79 39 78 40 31 42 65 43 44 44 64 45
REMARK SMILES IDX 45 46 48 47 63 48 83 49 46 50 47 51 62 53 84 54 49 55 32 56
REMARK SMILES IDX 33 57 42 58 34 59 35 60 41 61 43 62 36 63 37 64 38 65 39 66
REMARK SMILES IDX 40 67 66 68 67 69 76 70 68 71 69 72 75 73 77 74 70 75 71 76
REMARK SMILES IDX 72 77 73 78 74 79 50 80 51 81 60 82 52 83 53 84 59 85 61 86
REMARK SMILES IDX 54 87 55 88 56 89 57 90 58 91
REMARK H PARENT 8 11 82 41 48 52
REMARK Flexibility Score: inf
ROOT
ATOM      1  C   UNL A   1      31.830  28.501  26.305  1.00  0.00     0.274 C 
ENDROOT
BRANCH   1   2
ATOM      2  O   UNL A   1      32.193  27.370  25.486  1.00  0.00    -0.462 OA
BRANCH   2   3
ATOM      3  C   UNL A   1      31.608  26.179  25.809  1.00  0.00     0.312 C 
ATOM      4  O   UNL A   1      30.589  26.094  26.475  1.00  0.00    -0.252 OA
BRANCH   3   5
ATOM      5  C   UNL A   1      32.456  24.985  25.333  1.00  0.00     0.071 C 
ATOM      6  C   UNL A   1      33.863  25.173  25.926  1.00  0.00     0.024 C 
ATOM      7  C   UNL A   1      32.591  25.010  23.794  1.00  0.00     0.024 C 
BRANCH   5   8
ATOM      8  C   UNL A   1      31.890  23.587  25.732  1.00  0.00     0.118 C 
BRANCH   8   9
ATOM      9  C   UNL A   1      32.662  22.728  26.719  1.00  0.00     0.221 C 
ATOM     10  N   UNL A   1      33.702  21.956  26.322  1.00  0.00    -0.352 N 
ATOM     11  H   UNL A   1      34.250  21.586  27.053  1.00  0.00     0.163 HD
ATOM     12  O   UNL A   1      32.336  22.691  27.906  1.00  0.00    -0.275 OA
BRANCH  10  13
ATOM     13  C   UNL A   1      34.127  21.594  24.998  1.00  0.00     0.152 C 
BRANCH  13  14
ATOM     14  C   UNL A   1      33.455  20.333  24.532  1.00  0.00    -0.015 A 
ATOM     15  C   UNL A   1      32.081  21.485  22.646  1.00  0.00     0.045 C 
ATOM     16  C   UNL A   1      32.536  20.287  23.415  1.00  0.00    -0.035 A 
ATOM     17  C   UNL A   1      32.129  18.994  23.144  1.00  0.00     0.068 A 
ATOM     18  S   UNL A   1      32.797  17.851  24.217  1.00  0.00    -0.152 S 
ATOM     19  C   UNL A   1      33.635  19.068  25.066  1.00  0.00     0.070 A 
ENDBRANCH  13  14
ENDBRANCH  10  13
ENDBRANCH   8   9
ENDBRANCH   5   8
ENDBRANCH   3   5
ENDBRANCH   2   3
ENDBRANCH   1   2
BRANCH   1  20
ATOM     20  C   UNL A   1      32.652  28.523  27.590  1.00  0.00     0.275 C 
BRANCH  20  21
ATOM     21  O   UNL A   1      34.011  28.892  27.303  1.00  0.00    -0.458 OA
BRANCH  21  22
ATOM     22  C   UNL A   1      34.451  30.023  27.898  1.00  0.00     0.338 C 
ATOM     23  O   UNL A   1      33.799  31.008  28.204  1.00  0.00    -0.246 OA
BRANCH  22  24
ATOM     24  C   UNL A   1      35.874  29.865  28.219  1.00  0.00     0.060 A 
ATOM     25  C   UNL A   1      36.804  30.080  27.206  1.00  0.00     0.016 A 
ATOM     26  C   UNL A   1      36.285  29.421  29.474  1.00  0.00     0.016 A 
ATOM     27  C   UNL A   1      38.156  29.834  27.426  1.00  0.00     0.010 A 
ATOM     28  C   UNL A   1      37.646  29.197  29.704  1.00  0.00     0.010 A 
ATOM     29  C   UNL A   1      38.589  29.384  28.675  1.00  0.00    -0.014 A 
BRANCH  29  30
ATOM     30  C   UNL A   1      40.007  29.003  28.876  1.00  0.00     0.031 A 
ATOM     31  C   UNL A   1      40.960  30.025  29.423  1.00  0.00     0.074 A 
ATOM     32  C   UNL A   1      40.436  27.758  28.605  1.00  0.00     0.049 A 
ATOM     33  N   UNL A   1      42.263  29.986  29.503  1.00  0.00    -0.248 NA
ATOM     34  C   UNL A   1      40.357  31.258  29.956  1.00  0.00     0.031 C 
ATOM     35  C   UNL A   1      39.589  26.638  28.193  1.00  0.00     0.029 A 
ATOM     36  N   UNL A   1      41.701  27.226  28.637  1.00  0.00    -0.354 N 
ATOM     37  C   UNL A   1      42.642  31.206  30.048  1.00  0.00     0.074 A 
ATOM     38  C   UNL A   1      41.430  31.957  30.295  1.00  0.00     0.031 C 
ATOM     39  C   UNL A   1      40.359  25.553  28.007  1.00  0.00     0.029 A 
ATOM     40  C   UNL A   1      41.757  25.916  28.223  1.00  0.00     0.049 A 
ATOM     41  H   UNL A   1      42.493  27.734  28.927  1.00  0.00     0.167 HD
ATOM     42  C   UNL A   1      43.892  31.660  30.304  1.00  0.00     0.037 A 
ATOM     43  C   UNL A   1      42.821  25.119  28.003  1.00  0.00     0.037 A 
ATOM     44  C   UNL A   1      45.087  30.893  30.077  1.00  0.00     0.049 A 
ATOM     45  C   UNL A   1      44.207  25.672  28.205  1.00  0.00     0.074 A 
ATOM     46  C   UNL A   1      46.403  31.266  30.278  1.00  0.00     0.029 A 
ATOM     47  N   UNL A   1      45.107  29.589  29.603  1.00  0.00    -0.354 N 
ATOM     48  N   UNL A   1      44.566  26.855  28.645  1.00  0.00    -0.248 NA
ATOM     49  C   UNL A   1      45.334  24.795  27.855  1.00  0.00     0.031 C 
ATOM     50  C   UNL A   1      47.222  30.198  29.895  1.00  0.00     0.029 A 
ATOM     51  C   UNL A   1      46.414  29.148  29.489  1.00  0.00     0.049 A 
ATOM     52  H   UNL A   1      44.309  29.057  29.380  1.00  0.00     0.167 HD
ATOM     53  C   UNL A   1      45.956  26.854  28.651  1.00  0.00     0.074 A 
ATOM     54  C   UNL A   1      46.375  25.555  28.166  1.00  0.00     0.031 C 
ATOM     55  C   UNL A   1      46.808  27.840  29.025  1.00  0.00     0.037 A 
BRANCH  42  56
ATOM     56  C   UNL A   1      44.017  33.076  30.783  1.00  0.00     0.058 A 
ATOM     57  C   UNL A   1      44.017  33.406  32.147  1.00  0.00     0.135 A 
ATOM     58  C   UNL A   1      44.113  34.124  29.854  1.00  0.00     0.135 A 
ATOM     59  F   UNL A   1      43.907  32.443  33.076  1.00  0.00    -0.206 F 
ATOM     60  C   UNL A   1      44.069  34.730  32.573  1.00  0.00     0.059 A 
ATOM     61  C   UNL A   1      44.186  35.453  30.256  1.00  0.00     0.059 A 
ATOM     62  F   UNL A   1      44.113  33.862  28.537  1.00  0.00    -0.206 F 
ATOM     63  C   UNL A   1      44.141  35.748  31.617  1.00  0.00     0.060 A 
BRANCH  63  64
ATOM     64  S   UNL A   1      44.165  37.465  32.174  1.00  0.00     0.124 S 
ATOM     65  O   UNL A   1      43.207  37.426  33.274  1.00  0.00    -0.237 OA
ATOM     66  O   UNL A   1      45.560  37.656  32.557  1.00  0.00    -0.237 OA
ATOM     67  O   UNL A   1      43.736  38.209  30.994  1.00  0.00    -0.744 OA
ENDBRANCH  63  64
ENDBRANCH  42  56
BRANCH  43  68
ATOM     68  C   UNL A   1      42.619  23.723  27.530  1.00  0.00     0.058 A 
ATOM     69  C   UNL A   1      42.536  23.431  26.161  1.00  0.00     0.135 A 
ATOM     70  C   UNL A   1      42.518  22.653  28.434  1.00  0.00     0.135 A 
ATOM     71  F   UNL A   1      42.610  24.421  25.259  1.00  0.00    -0.206 F 
ATOM     72  C   UNL A   1      42.360  22.129  25.702  1.00  0.00     0.059 A 
ATOM     73  C   UNL A   1      42.365  21.340  27.999  1.00  0.00     0.059 A 
ATOM     74  F   UNL A   1      42.593  22.878  29.754  1.00  0.00    -0.206 F 
ATOM     75  C   UNL A   1      42.280  21.088  26.630  1.00  0.00     0.060 A 
BRANCH  75  76
ATOM     76  S   UNL A   1      42.109  19.395  26.025  1.00  0.00     0.124 S 
ATOM     77  O   UNL A   1      43.006  19.402  24.875  1.00  0.00    -0.237 OA
ATOM     78  O   UNL A   1      42.552  18.610  27.173  1.00  0.00    -0.237 OA
ATOM     79  O   UNL A   1      40.686  19.291  25.716  1.00  0.00    -0.744 OA
ENDBRANCH  75  76
ENDBRANCH  43  68
BRANCH  55  80
ATOM     80  C   UNL A   1      48.280  27.547  28.975  1.00  0.00     0.058 A 
ATOM     81  C   UNL A   1      49.053  27.857  27.847  1.00  0.00     0.135 A 
ATOM     82  C   UNL A   1      48.936  27.037  30.106  1.00  0.00     0.135 A 
ATOM     83  F   UNL A   1      48.470  28.340  26.739  1.00  0.00    -0.206 F 
ATOM     84  C   UNL A   1      50.433  27.674  27.843  1.00  0.00     0.059 A 
ATOM     85  C   UNL A   1      50.316  26.863  30.131  1.00  0.00     0.059 A 
ATOM     86  F   UNL A   1      48.238  26.732  31.212  1.00  0.00    -0.206 F 
ATOM     87  C   UNL A   1      51.056  27.183  28.992  1.00  0.00     0.060 A 
BRANCH  87  88
ATOM     88  S   UNL A   1      52.854  27.019  29.005  1.00  0.00     0.124 S 
ATOM     89  O   UNL A   1      53.275  28.366  28.634  1.00  0.00    -0.237 OA
ATOM     90  O   UNL A   1      53.125  26.628  30.386  1.00  0.00    -0.237 OA
ATOM     91  O   UNL A   1      53.108  25.984  28.008  1.00  0.00    -0.744 OA
ENDBRANCH  87  88
ENDBRANCH  55  80
ENDBRANCH  29  30
ENDBRANCH  22  24
ENDBRANCH  21  22
ENDBRANCH  20  21
ENDBRANCH   1  20
TORSDOF 18
ENDMDL
MODEL 2
REMARK VINA RESULT:     -10.2      3.562      6.316
REMARK SMILES Cc1cscc1CNC(=O)CC(C)(C)C(=O)OCCOC(=O)c1ccc(-c2c3nc(c(-c4c(F)cc(S(=O)(=O)[O-])cc4F)c4ccc([nH]4)c(-c4c(F)cc(S(=O)(=O)[O-])cc4F)c4nc(c(-c5c(F)cc(S(=O)(=O)[O-])cc5F)c5ccc2[nH]5)C=C4)C=C3)cc1
REMARK SMILES IDX 18 1 17 2 15 3 16 4 12 5 13 6 14 7 11 8 9 9 8 10 10 12 7 13
REMARK SMILES IDX 6 14 1 15 2 16 3 17 4 18 5 19 19 20 20 21 21 22 22 23 23 24
REMARK SMILES IDX 24 25 88 26 25 27 87 28 26 29 27 30 28 31 81 32 29 33 86 34
REMARK SMILES IDX 80 35 82 36 30 37 85 38 79 39 78 40 31 42 65 43 44 44 64 45
REMARK SMILES IDX 45 46 48 47 63 48 83 49 46 50 47 51 62 53 84 54 49 55 32 56
REMARK SMILES IDX 33 57 42 58 34 59 35 60 41 61 43 62 36 63 37 64 38 65 39 66
REMARK SMILES IDX 40 67 66 68 67 69 76 70 68 71 69 72 75 73 77 74 70 75 71 76
REMARK SMILES IDX 72 77 73 78 74 79 50 80 51 81 60 82 52 83 53 84 59 85 61 86
REMARK SMILES IDX 54 87 55 88 56 89 57 90 58 91
REMARK H PARENT 8 11 82 41 48 52
REMARK Flexibility Score: inf
ROOT
ATOM      1  C   UNL A   1      33.864  33.568  28.329  1.00  0.00     0.274 C 
ENDROOT
BRANCH   1   2
ATOM      2  O   UNL A   1      34.856  33.621  29.375  1.00  0.00    -0.462 OA
BRANCH   2   3
ATOM      3  C   UNL A   1      34.425  34.062  30.593  1.00  0.00     0.312 C 
ATOM      4  O   UNL A   1      33.425  34.747  30.740  1.00  0.00    -0.252 OA
BRANCH   3   5
ATOM      5  C   UNL A   1      35.412  33.686  31.713  1.00  0.00     0.071 C 
ATOM      6  C   UNL A   1      34.675  32.716  32.651  1.00  0.00     0.024 C 
ATOM      7  C   UNL A   1      35.784  34.941  32.536  1.00  0.00     0.024 C 
BRANCH   5   8
ATOM      8  C   UNL A   1      36.743  33.042  31.215  1.00  0.00     0.118 C 
BRANCH   8   9
ATOM      9  C   UNL A   1      38.012  33.877  31.202  1.00  0.00     0.221 C 
ATOM     10  N   UNL A   1      38.927  33.788  32.196  1.00  0.00    -0.352 N 
ATOM     11  H   UNL A   1      39.791  34.223  32.009  1.00  0.00     0.163 HD
ATOM     12  O   UNL A   1      38.222  34.684  30.296  1.00  0.00    -0.275 OA
BRANCH  10  13
ATOM     13  C   UNL A   1      38.831  33.156  33.484  1.00  0.00     0.152 C 
BRANCH  13  14
ATOM     14  C   UNL A   1      39.657  31.903  33.542  1.00  0.00    -0.015 A 
ATOM     15  C   UNL A   1      37.652  30.283  33.183  1.00  0.00     0.045 C 
ATOM     16  C   UNL A   1      39.107  30.576  33.364  1.00  0.00    -0.035 A 
ATOM     17  C   UNL A   1      40.095  29.609  33.381  1.00  0.00     0.068 A 
ATOM     18  S   UNL A   1      41.650  30.255  33.639  1.00  0.00    -0.152 S 
ATOM     19  C   UNL A   1      41.027  31.838  33.740  1.00  0.00     0.070 A 
ENDBRANCH  13  14
ENDBRANCH  10  13
ENDBRANCH   8   9
ENDBRANCH   5   8
ENDBRANCH   3   5
ENDBRANCH   2   3
ENDBRANCH   1   2
BRANCH   1  20
ATOM     20  C   UNL A   1      33.853  32.195  27.664  1.00  0.00     0.275 C 
BRANCH  20  21
ATOM     21  O   UNL A   1      34.070  31.168  28.645  1.00  0.00    -0.458 OA
BRANCH  21  22
ATOM     22  C   UNL A   1      34.491  29.977  28.163  1.00  0.00     0.338 C 
ATOM     23  O   UNL A   1      33.840  29.147  27.549  1.00  0.00    -0.246 OA
BRANCH  22  24
ATOM     24  C   UNL A   1      35.930  29.846  28.419  1.00  0.00     0.060 A 
ATOM     25  C   UNL A   1      36.808  30.060  27.360  1.00  0.00     0.016 A 
ATOM     26  C   UNL A   1      36.407  29.428  29.659  1.00  0.00     0.016 A 
ATOM     27  C   UNL A   1      38.172  29.838  27.520  1.00  0.00     0.010 A 
ATOM     28  C   UNL A   1      37.781  29.229  29.828  1.00  0.00     0.010 A 
ATOM     29  C   UNL A   1      38.671  29.415  28.753  1.00  0.00    -0.014 A 
BRANCH  29  30
ATOM     30  C   UNL A   1      40.103  29.059  28.893  1.00  0.00     0.031 A 
ATOM     31  C   UNL A   1      41.061  30.099  29.393  1.00  0.00     0.074 A 
ATOM     32  C   UNL A   1      40.542  27.820  28.607  1.00  0.00     0.049 A 
ATOM     33  N   UNL A   1      42.368  30.083  29.416  1.00  0.00    -0.248 NA
ATOM     34  C   UNL A   1      40.461  31.324  29.948  1.00  0.00     0.031 C 
ATOM     35  C   UNL A   1      39.696  26.684  28.237  1.00  0.00     0.029 A 
ATOM     36  N   UNL A   1      41.816  27.311  28.584  1.00  0.00    -0.354 N 
ATOM     37  C   UNL A   1      42.748  31.312  29.939  1.00  0.00     0.074 A 
ATOM     38  C   UNL A   1      41.536  32.043  30.236  1.00  0.00     0.031 C 
ATOM     39  C   UNL A   1      40.476  25.612  28.021  1.00  0.00     0.029 A 
ATOM     40  C   UNL A   1      41.876  26.000  28.173  1.00  0.00     0.049 A 
ATOM     41  H   UNL A   1      42.611  27.834  28.838  1.00  0.00     0.167 HD
ATOM     42  C   UNL A   1      44.001  31.789  30.137  1.00  0.00     0.037 A 
ATOM     43  C   UNL A   1      42.943  25.220  27.909  1.00  0.00     0.037 A 
ATOM     44  C   UNL A   1      45.197  31.042  29.861  1.00  0.00     0.049 A 
ATOM     45  C   UNL A   1      44.327  25.798  28.047  1.00  0.00     0.074 A 
ATOM     46  C   UNL A   1      46.515  31.439  30.002  1.00  0.00     0.029 A 
ATOM     47  N   UNL A   1      45.219  29.736  29.391  1.00  0.00    -0.354 N 
ATOM     48  N   UNL A   1      44.684  26.989  28.467  1.00  0.00    -0.248 NA
ATOM     49  C   UNL A   1      45.452  24.939  27.651  1.00  0.00     0.031 C 
ATOM     50  C   UNL A   1      47.334  30.383  29.586  1.00  0.00     0.029 A 
ATOM     51  C   UNL A   1      46.527  29.317  29.221  1.00  0.00     0.049 A 
ATOM     52  H   UNL A   1      44.422  29.190  29.205  1.00  0.00     0.167 HD
ATOM     53  C   UNL A   1      46.073  27.012  28.411  1.00  0.00     0.074 A 
ATOM     54  C   UNL A   1      46.493  25.718  27.913  1.00  0.00     0.031 C 
ATOM     55  C   UNL A   1      46.923  28.015  28.744  1.00  0.00     0.037 A 
BRANCH  42  56
ATOM     56  C   UNL A   1      44.122  33.209  30.606  1.00  0.00     0.058 A 
ATOM     57  C   UNL A   1      44.141  34.291  29.712  1.00  0.00     0.135 A 
ATOM     58  C   UNL A   1      44.249  33.485  31.976  1.00  0.00     0.135 A 
ATOM     59  F   UNL A   1      44.045  34.079  28.390  1.00  0.00    -0.206 F 
ATOM     60  C   UNL A   1      44.320  35.597  30.160  1.00  0.00     0.059 A 
ATOM     61  C   UNL A   1      44.407  34.783  32.448  1.00  0.00     0.059 A 
ATOM     62  F   UNL A   1      44.240  32.485  32.871  1.00  0.00    -0.206 F 
ATOM     63  C   UNL A   1      44.464  35.831  31.531  1.00  0.00     0.060 A 
BRANCH  63  64
ATOM     64  S   UNL A   1      44.739  37.522  32.101  1.00  0.00     0.124 S 
ATOM     65  O   UNL A   1      44.102  37.492  33.413  1.00  0.00    -0.237 OA
ATOM     66  O   UNL A   1      46.194  37.623  32.106  1.00  0.00    -0.237 OA
ATOM     67  O   UNL A   1      44.062  38.332  31.092  1.00  0.00    -0.744 OA
ENDBRANCH  63  64
ENDBRANCH  42  56
BRANCH  43  68
ATOM     68  C   UNL A   1      42.745  23.819  27.450  1.00  0.00     0.058 A 
ATOM     69  C   UNL A   1      42.657  22.765  28.372  1.00  0.00     0.135 A 
ATOM     70  C   UNL A   1      42.625  23.506  26.087  1.00  0.00     0.135 A 
ATOM     71  F   UNL A   1      42.781  23.011  29.685  1.00  0.00    -0.206 F 
ATOM     72  C   UNL A   1      42.459  21.451  27.961  1.00  0.00     0.059 A 
ATOM     73  C   UNL A   1      42.404  22.203  25.652  1.00  0.00     0.059 A 
ATOM     74  F   UNL A   1      42.700  24.478  25.165  1.00  0.00    -0.206 F 
ATOM     75  C   UNL A   1      42.329  21.180  26.597  1.00  0.00     0.060 A 
BRANCH  75  76
ATOM     76  S   UNL A   1      42.014  19.480  26.074  1.00  0.00     0.124 S 
ATOM     77  O   UNL A   1      42.873  19.370  24.900  1.00  0.00    -0.237 OA
ATOM     78  O   UNL A   1      42.433  18.714  27.244  1.00  0.00    -0.237 OA
ATOM     79  O   UNL A   1      40.579  19.470  25.809  1.00  0.00    -0.744 OA
ENDBRANCH  75  76
ENDBRANCH  43  68
BRANCH  55  80
ATOM     80  C   UNL A   1      48.396  27.747  28.630  1.00  0.00     0.058 A 
ATOM     81  C   UNL A   1      49.092  27.033  29.617  1.00  0.00     0.135 A 
ATOM     82  C   UNL A   1      49.095  28.129  27.474  1.00  0.00     0.135 A 
ATOM     83  F   UNL A   1      48.469  26.653  30.742  1.00  0.00    -0.206 F 
ATOM     84  C   UNL A   1      50.435  26.704  29.460  1.00  0.00     0.059 A 
ATOM     85  C   UNL A   1      50.433  27.795  27.288  1.00  0.00     0.059 A 
ATOM     86  F   UNL A   1      48.469  28.808  26.500  1.00  0.00    -0.206 F 
ATOM     87  C   UNL A   1      51.095  27.083  28.289  1.00  0.00     0.060 A 
BRANCH  87  88
ATOM     88  S   UNL A   1      52.816  26.586  28.059  1.00  0.00     0.124 S 
ATOM     89  O   UNL A   1      52.675  25.438  27.169  1.00  0.00    -0.237 OA
ATOM     90  O   UNL A   1      53.412  27.779  27.466  1.00  0.00    -0.237 OA
ATOM     91  O   UNL A   1      53.264  26.278  29.414  1.00  0.00    -0.744 OA
ENDBRANCH  87  88
ENDBRANCH  55  80
ENDBRANCH  29  30
ENDBRANCH  22  24
ENDBRANCH  21  22
ENDBRANCH  20  21
ENDBRANCH   1  20
TORSDOF 18
ENDMDL
MODEL 3
REMARK VINA RESULT:     -10.0      5.853     11.505
REMARK SMILES Cc1cscc1CNC(=O)CC(C)(C)C(=O)OCCOC(=O)c1ccc(-c2c3nc(c(-c4c(F)cc(S(=O)(=O)[O-])cc4F)c4ccc([nH]4)c(-c4c(F)cc(S(=O)(=O)[O-])cc4F)c4nc(c(-c5c(F)cc(S(=O)(=O)[O-])cc5F)c5ccc2[nH]5)C=C4)C=C3)cc1
REMARK SMILES IDX 18 1 17 2 15 3 16 4 12 5 13 6 14 7 11 8 9 9 8 10 10 12 7 13
REMARK SMILES IDX 6 14 1 15 2 16 3 17 4 18 5 19 19 20 20 21 21 22 22 23 23 24
REMARK SMILES IDX 24 25 88 26 25 27 87 28 26 29 27 30 28 31 81 32 29 33 86 34
REMARK SMILES IDX 80 35 82 36 30 37 85 38 79 39 78 40 31 42 65 43 44 44 64 45
REMARK SMILES IDX 45 46 48 47 63 48 83 49 46 50 47 51 62 53 84 54 49 55 32 56
REMARK SMILES IDX 33 57 42 58 34 59 35 60 41 61 43 62 36 63 37 64 38 65 39 66
REMARK SMILES IDX 40 67 66 68 67 69 76 70 68 71 69 72 75 73 77 74 70 75 71 76
REMARK SMILES IDX 72 77 73 78 74 79 50 80 51 81 60 82 52 83 53 84 59 85 61 86
REMARK SMILES IDX 54 87 55 88 56 89 57 90 58 91
REMARK H PARENT 8 11 82 41 48 52
REMARK Flexibility Score: inf
ROOT
ATOM      1  C   UNL A   1      46.311  25.576  25.178  1.00  0.00     0.274 C 
ENDROOT
BRANCH   1   2
ATOM      2  O   UNL A   1      45.494  24.502  24.668  1.00  0.00    -0.462 OA
BRANCH   2   3
ATOM      3  C   UNL A   1      45.574  23.314  25.336  1.00  0.00     0.312 C 
ATOM      4  O   UNL A   1      46.495  23.030  26.087  1.00  0.00    -0.252 OA
BRANCH   3   5
ATOM      5  C   UNL A   1      44.437  22.359  24.930  1.00  0.00     0.071 C 
ATOM      6  C   UNL A   1      44.773  21.841  23.521  1.00  0.00     0.024 C 
ATOM      7  C   UNL A   1      43.102  23.132  24.838  1.00  0.00     0.024 C 
BRANCH   5   8
ATOM      8  C   UNL A   1      44.219  21.159  25.903  1.00  0.00     0.118 C 
BRANCH   8   9
ATOM      9  C   UNL A   1      43.200  20.090  25.545  1.00  0.00     0.221 C 
ATOM     10  N   UNL A   1      42.053  19.942  26.249  1.00  0.00    -0.352 N 
ATOM     11  H   UNL A   1      41.380  19.355  25.832  1.00  0.00     0.163 HD
ATOM     12  O   UNL A   1      43.413  19.306  24.619  1.00  0.00    -0.275 OA
BRANCH  10  13
ATOM     13  C   UNL A   1      41.666  20.512  27.511  1.00  0.00     0.152 C 
BRANCH  13  14
ATOM     14  C   UNL A   1      40.829  21.746  27.322  1.00  0.00    -0.015 A 
ATOM     15  C   UNL A   1      42.360  23.288  28.754  1.00  0.00     0.045 C 
ATOM     16  C   UNL A   1      41.180  23.038  27.872  1.00  0.00    -0.035 A 
ATOM     17  C   UNL A   1      40.286  24.017  27.479  1.00  0.00     0.068 A 
ATOM     18  S   UNL A   1      39.029  23.413  26.501  1.00  0.00    -0.152 S 
ATOM     19  C   UNL A   1      39.654  21.830  26.594  1.00  0.00     0.070 A 
ENDBRANCH  13  14
ENDBRANCH  10  13
ENDBRANCH   8   9
ENDBRANCH   5   8
ENDBRANCH   3   5
ENDBRANCH   2   3
ENDBRANCH   1   2
BRANCH   1  20
ATOM     20  C   UNL A   1      45.443  26.684  25.766  1.00  0.00     0.275 C 
BRANCH  20  21
ATOM     21  O   UNL A   1      44.052  26.344  25.639  1.00  0.00    -0.458 OA
BRANCH  21  22
ATOM     22  C   UNL A   1      43.195  27.388  25.580  1.00  0.00     0.338 C 
ATOM     23  O   UNL A   1      42.624  27.832  24.598  1.00  0.00    -0.246 OA
BRANCH  22  24
ATOM     24  C   UNL A   1      42.968  27.889  26.941  1.00  0.00     0.060 A 
ATOM     25  C   UNL A   1      42.242  27.092  27.822  1.00  0.00     0.016 A 
ATOM     26  C   UNL A   1      43.382  29.164  27.318  1.00  0.00     0.016 A 
ATOM     27  C   UNL A   1      41.901  27.567  29.085  1.00  0.00     0.010 A 
ATOM     28  C   UNL A   1      43.061  29.634  28.597  1.00  0.00     0.010 A 
ATOM     29  C   UNL A   1      42.302  28.844  29.481  1.00  0.00    -0.014 A 
BRANCH  29  30
ATOM     30  C   UNL A   1      41.837  29.400  30.774  1.00  0.00     0.031 A 
ATOM     31  C   UNL A   1      40.572  30.206  30.802  1.00  0.00     0.074 A 
ATOM     32  C   UNL A   1      42.515  29.168  31.913  1.00  0.00     0.049 A 
ATOM     33  N   UNL A   1      40.078  30.943  31.762  1.00  0.00    -0.248 NA
ATOM     34  C   UNL A   1      39.751  30.171  29.581  1.00  0.00     0.031 C 
ATOM     35  C   UNL A   1      43.683  28.298  32.044  1.00  0.00     0.029 A 
ATOM     36  N   UNL A   1      42.313  29.651  33.182  1.00  0.00    -0.354 N 
ATOM     37  C   UNL A   1      38.915  31.500  31.245  1.00  0.00     0.074 A 
ATOM     38  C   UNL A   1      38.768  31.004  29.894  1.00  0.00     0.031 C 
ATOM     39  C   UNL A   1      44.097  28.311  33.322  1.00  0.00     0.029 A 
ATOM     40  C   UNL A   1      43.264  29.238  34.084  1.00  0.00     0.049 A 
ATOM     41  H   UNL A   1      41.560  30.237  33.423  1.00  0.00     0.167 HD
ATOM     42  C   UNL A   1      38.058  32.361  31.844  1.00  0.00     0.037 A 
ATOM     43  C   UNL A   1      43.464  29.603  35.366  1.00  0.00     0.037 A 
ATOM     44  C   UNL A   1      38.203  32.827  33.196  1.00  0.00     0.049 A 
ATOM     45  C   UNL A   1      42.555  30.632  35.986  1.00  0.00     0.074 A 
ATOM     46  C   UNL A   1      37.406  33.718  33.892  1.00  0.00     0.029 A 
ATOM     47  N   UNL A   1      39.212  32.430  34.062  1.00  0.00    -0.354 N 
ATOM     48  N   UNL A   1      41.501  31.218  35.469  1.00  0.00    -0.248 NA
ATOM     49  C   UNL A   1      42.875  31.069  37.352  1.00  0.00     0.031 C 
ATOM     50  C   UNL A   1      37.953  33.885  35.169  1.00  0.00     0.029 A 
ATOM     51  C   UNL A   1      39.069  33.071  35.281  1.00  0.00     0.049 A 
ATOM     52  H   UNL A   1      39.925  31.789  33.841  1.00  0.00     0.167 HD
ATOM     53  C   UNL A   1      41.018  32.072  36.454  1.00  0.00     0.074 A 
ATOM     54  C   UNL A   1      41.896  31.930  37.597  1.00  0.00     0.031 C 
ATOM     55  C   UNL A   1      39.943  32.898  36.414  1.00  0.00     0.037 A 
BRANCH  42  56
ATOM     56  C   UNL A   1      36.940  32.903  31.004  1.00  0.00     0.058 A 
ATOM     57  C   UNL A   1      37.150  33.888  30.026  1.00  0.00     0.135 A 
ATOM     58  C   UNL A   1      35.628  32.444  31.204  1.00  0.00     0.135 A 
ATOM     59  F   UNL A   1      38.381  34.376  29.810  1.00  0.00    -0.206 F 
ATOM     60  C   UNL A   1      36.090  34.426  29.300  1.00  0.00     0.059 A 
ATOM     61  C   UNL A   1      34.558  32.952  30.477  1.00  0.00     0.059 A 
ATOM     62  F   UNL A   1      35.375  31.506  32.129  1.00  0.00    -0.206 F 
ATOM     63  C   UNL A   1      34.795  33.958  29.543  1.00  0.00     0.060 A 
BRANCH  63  64
ATOM     64  S   UNL A   1      33.421  34.691  28.629  1.00  0.00     0.124 S 
ATOM     65  O   UNL A   1      33.073  33.611  27.713  1.00  0.00    -0.237 OA
ATOM     66  O   UNL A   1      32.449  34.964  29.683  1.00  0.00    -0.237 OA
ATOM     67  O   UNL A   1      34.017  35.872  28.012  1.00  0.00    -0.744 OA
ENDBRANCH  63  64
ENDBRANCH  42  56
BRANCH  43  68
ATOM     68  C   UNL A   1      44.594  29.020  36.139  1.00  0.00     0.058 A 
ATOM     69  C   UNL A   1      44.414  27.870  36.920  1.00  0.00     0.135 A 
ATOM     70  C   UNL A   1      45.876  29.591  36.101  1.00  0.00     0.135 A 
ATOM     71  F   UNL A   1      43.203  27.297  37.001  1.00  0.00    -0.206 F 
ATOM     72  C   UNL A   1      45.463  27.305  37.639  1.00  0.00     0.059 A 
ATOM     73  C   UNL A   1      46.946  29.032  36.792  1.00  0.00     0.059 A 
ATOM     74  F   UNL A   1      46.101  30.691  35.367  1.00  0.00    -0.206 F 
ATOM     75  C   UNL A   1      46.728  27.891  37.565  1.00  0.00     0.060 A 
BRANCH  75  76
ATOM     76  S   UNL A   1      48.098  27.119  38.454  1.00  0.00     0.124 S 
ATOM     77  O   UNL A   1      48.854  28.285  38.899  1.00  0.00    -0.237 OA
ATOM     78  O   UNL A   1      47.406  26.371  39.499  1.00  0.00    -0.237 OA
ATOM     79  O   UNL A   1      48.743  26.301  37.432  1.00  0.00    -0.744 OA
ENDBRANCH  75  76
ENDBRANCH  43  68
BRANCH  55  80
ATOM     80  C   UNL A   1      39.619  33.681  37.654  1.00  0.00     0.058 A 
ATOM     81  C   UNL A   1      38.698  33.209  38.601  1.00  0.00     0.135 A 
ATOM     82  C   UNL A   1      40.309  34.869  37.938  1.00  0.00     0.135 A 
ATOM     83  F   UNL A   1      38.009  32.082  38.371  1.00  0.00    -0.206 F 
ATOM     84  C   UNL A   1      38.475  33.891  39.794  1.00  0.00     0.059 A 
ATOM     85  C   UNL A   1      40.115  35.557  39.131  1.00  0.00     0.059 A 
ATOM     86  F   UNL A   1      41.205  35.355  37.064  1.00  0.00    -0.206 F 
ATOM     87  C   UNL A   1      39.193  35.059  40.053  1.00  0.00     0.060 A 
BRANCH  87  88
ATOM     88  S   UNL A   1      38.953  35.896  41.635  1.00  0.00     0.124 S 
ATOM     89  O   UNL A   1      38.903  37.295  41.224  1.00  0.00    -0.237 OA
ATOM     90  O   UNL A   1      37.692  35.328  42.104  1.00  0.00    -0.237 OA
ATOM     91  O   UNL A   1      40.131  35.509  42.406  1.00  0.00    -0.744 OA
ENDBRANCH  87  88
ENDBRANCH  55  80
ENDBRANCH  29  30
ENDBRANCH  22  24
ENDBRANCH  21  22
ENDBRANCH  20  21
ENDBRANCH   1  20
TORSDOF 18
ENDMDL
