MODEL 1
REMARK VINA RESULT:     -12.2      0.000      0.000
REMARK SMILES C[C@H]1[C@@H](C(=O)OCCOC(=O)c2ccc(-c3c4nc(c(-c5c(F)cc(S(=O)(=O)[O-])cc5F)c5ccc([nH]5)c(-c5c(F)cc(S(=O)(=O)[O-])cc5F)c5nc(c(-c6c(F)cc(S(=O)(=O)[O-])cc6F)c6ccc3[nH]6)C=C5)C=C4)cc2)CCN1C(=O)c1cc2cc(F)ccc2s1
REMARK SMILES IDX 8 1 7 2 6 3 4 4 5 5 3 6 1 7 2 8 80 9 78 10 79 11 81 12 82 13
REMARK SMILES IDX 83 14 84 15 92 16 85 17 91 18 86 19 90 20 87 21 89 22 88 23
REMARK SMILES IDX 9 24 10 25 11 26 12 27 13 28 77 29 14 30 76 31 15 32 16 33
REMARK SMILES IDX 17 34 70 35 18 36 75 37 69 38 71 39 19 40 74 41 68 42 67 43
REMARK SMILES IDX 20 45 54 46 33 47 53 48 34 49 37 50 52 51 72 52 35 53 36 54
REMARK SMILES IDX 51 56 73 57 38 58 21 59 22 60 31 61 23 62 24 63 30 64 32 65
REMARK SMILES IDX 25 66 26 67 27 68 28 69 29 70 55 71 56 72 65 73 57 74 58 75
REMARK SMILES IDX 64 76 66 77 59 78 60 79 61 80 62 81 63 82 39 83 40 84 49 85
REMARK SMILES IDX 41 86 42 87 48 88 50 89 43 90 44 91 45 92 46 93 47 94
REMARK H PARENT 71 44 37 55
REMARK Flexibility Score: inf
ROOT
ATOM      1  C   UNL A   1      33.919  28.889  25.837  1.00  0.00     0.275 C 
ENDROOT
BRANCH   1   2
ATOM      2  C   UNL A   1      32.549  29.210  25.253  1.00  0.00     0.274 C 
BRANCH   2   3
ATOM      3  O   UNL A   1      31.927  28.028  24.712  1.00  0.00    -0.462 OA
BRANCH   3   4
ATOM      4  C   UNL A   1      31.572  28.063  23.411  1.00  0.00     0.311 C 
ATOM      5  O   UNL A   1      30.945  28.983  22.895  1.00  0.00    -0.252 OA
BRANCH   4   6
ATOM      6  C   UNL A   1      31.978  26.842  22.610  1.00  0.00     0.123 C 
ATOM      7  C   UNL A   1      30.219  25.243  23.801  1.00  0.00     0.032 C 
ATOM      8  C   UNL A   1      31.441  25.431  22.917  1.00  0.00     0.096 C 
ATOM      9  N   UNL A   1      32.580  24.666  23.423  1.00  0.00    -0.334 N 
ATOM     10  C   UNL A   1      33.501  26.656  22.640  1.00  0.00     0.039 C 
ATOM     11  C   UNL A   1      33.687  25.567  23.677  1.00  0.00     0.121 C 
BRANCH   9  12
ATOM     12  C   UNL A   1      32.875  23.515  22.700  1.00  0.00     0.264 C 
ATOM     13  O   UNL A   1      33.536  23.576  21.663  1.00  0.00    -0.268 OA
BRANCH  12  14
ATOM     14  C   UNL A   1      32.361  22.267  23.212  1.00  0.00     0.093 A 
ATOM     15  C   UNL A   1      32.057  21.156  22.455  1.00  0.00     0.034 A 
ATOM     16  S   UNL A   1      32.252  21.921  24.876  1.00  0.00    -0.130 S 
ATOM     17  C   UNL A   1      32.281  19.959  23.203  1.00  0.00    -0.004 A 
ATOM     18  C   UNL A   1      32.463  20.238  24.562  1.00  0.00     0.035 A 
ATOM     19  C   UNL A   1      32.462  18.635  22.752  1.00  0.00     0.048 A 
ATOM     20  C   UNL A   1      32.828  19.238  25.481  1.00  0.00     0.022 A 
ATOM     21  C   UNL A   1      32.916  17.672  23.646  1.00  0.00     0.123 A 
ATOM     22  C   UNL A   1      33.102  17.961  24.989  1.00  0.00     0.041 A 
ATOM     23  F   UNL A   1      33.222  16.452  23.185  1.00  0.00    -0.207 F 
ENDBRANCH  12  14
ENDBRANCH   9  12
ENDBRANCH   4   6
ENDBRANCH   3   4
ENDBRANCH   2   3
ENDBRANCH   1   2
BRANCH   1  24
ATOM     24  O   UNL A   1      33.870  28.975  27.270  1.00  0.00    -0.458 OA
BRANCH  24  25
ATOM     25  C   UNL A   1      34.380  30.106  27.800  1.00  0.00     0.338 C 
ATOM     26  O   UNL A   1      33.794  31.157  28.021  1.00  0.00    -0.246 OA
BRANCH  25  27
ATOM     27  C   UNL A   1      35.793  29.893  28.121  1.00  0.00     0.060 A 
ATOM     28  C   UNL A   1      36.756  30.087  27.130  1.00  0.00     0.016 A 
ATOM     29  C   UNL A   1      36.152  29.401  29.373  1.00  0.00     0.016 A 
ATOM     30  C   UNL A   1      38.076  29.709  27.361  1.00  0.00     0.010 A 
ATOM     31  C   UNL A   1      37.494  29.115  29.632  1.00  0.00     0.010 A 
ATOM     32  C   UNL A   1      38.467  29.241  28.623  1.00  0.00    -0.014 A 
BRANCH  32  33
ATOM     33  C   UNL A   1      39.879  28.877  28.912  1.00  0.00     0.031 A 
ATOM     34  C   UNL A   1      40.830  29.925  29.423  1.00  0.00     0.074 A 
ATOM     35  C   UNL A   1      40.325  27.628  28.667  1.00  0.00     0.049 A 
ATOM     36  N   UNL A   1      42.136  29.914  29.450  1.00  0.00    -0.248 NA
ATOM     37  C   UNL A   1      40.228  31.158  29.956  1.00  0.00     0.031 C 
ATOM     38  C   UNL A   1      39.501  26.501  28.224  1.00  0.00     0.029 A 
ATOM     39  N   UNL A   1      41.591  27.102  28.737  1.00  0.00    -0.354 N 
ATOM     40  C   UNL A   1      42.517  31.159  29.937  1.00  0.00     0.074 A 
ATOM     41  C   UNL A   1      41.301  31.895  30.209  1.00  0.00     0.031 C 
ATOM     42  C   UNL A   1      40.278  25.419  28.070  1.00  0.00     0.029 A 
ATOM     43  C   UNL A   1      41.666  25.796  28.312  1.00  0.00     0.049 A 
ATOM     44  H   UNL A   1      42.370  27.610  29.061  1.00  0.00     0.167 HD
ATOM     45  C   UNL A   1      43.768  31.642  30.125  1.00  0.00     0.037 A 
ATOM     46  C   UNL A   1      42.732  25.007  28.077  1.00  0.00     0.037 A 
ATOM     47  C   UNL A   1      44.965  30.875  29.900  1.00  0.00     0.049 A 
ATOM     48  C   UNL A   1      44.112  25.565  28.273  1.00  0.00     0.074 A 
ATOM     49  C   UNL A   1      46.283  31.266  30.062  1.00  0.00     0.029 A 
ATOM     50  N   UNL A   1      44.989  29.552  29.483  1.00  0.00    -0.354 N 
ATOM     51  N   UNL A   1      44.462  26.768  28.659  1.00  0.00    -0.248 NA
ATOM     52  C   UNL A   1      45.240  24.672  27.981  1.00  0.00     0.031 C 
ATOM     53  C   UNL A   1      47.104  30.185  29.723  1.00  0.00     0.029 A 
ATOM     54  C   UNL A   1      46.297  29.111  29.379  1.00  0.00     0.049 A 
ATOM     55  H   UNL A   1      44.193  29.007  29.288  1.00  0.00     0.167 HD
ATOM     56  C   UNL A   1      45.851  26.774  28.667  1.00  0.00     0.074 A 
ATOM     57  C   UNL A   1      46.277  25.452  28.256  1.00  0.00     0.031 C 
ATOM     58  C   UNL A   1      46.696  27.784  28.985  1.00  0.00     0.037 A 
BRANCH  45  59
ATOM     59  C   UNL A   1      43.910  33.074  30.557  1.00  0.00     0.058 A 
ATOM     60  C   UNL A   1      43.890  34.135  29.641  1.00  0.00     0.135 A 
ATOM     61  C   UNL A   1      44.031  33.388  31.922  1.00  0.00     0.135 A 
ATOM     62  F   UNL A   1      43.792  33.889  28.326  1.00  0.00    -0.206 F 
ATOM     63  C   UNL A   1      44.006  35.458  30.060  1.00  0.00     0.059 A 
ATOM     64  C   UNL A   1      44.128  34.704  32.364  1.00  0.00     0.059 A 
ATOM     65  F   UNL A   1      44.057  32.410  32.841  1.00  0.00    -0.206 F 
ATOM     66  C   UNL A   1      44.129  35.732  31.423  1.00  0.00     0.060 A 
BRANCH  66  67
ATOM     67  S   UNL A   1      44.280  37.451  31.956  1.00  0.00     0.124 S 
ATOM     68  O   UNL A   1      45.711  37.547  32.226  1.00  0.00    -0.237 OA
ATOM     69  O   UNL A   1      43.806  38.187  30.788  1.00  0.00    -0.237 OA
ATOM     70  O   UNL A   1      43.414  37.520  33.128  1.00  0.00    -0.744 OA
ENDBRANCH  66  67
ENDBRANCH  45  59
BRANCH  46  71
ATOM     71  C   UNL A   1      42.521  23.623  27.577  1.00  0.00     0.058 A 
ATOM     72  C   UNL A   1      42.477  23.354  26.202  1.00  0.00     0.135 A 
ATOM     73  C   UNL A   1      42.417  22.539  28.461  1.00  0.00     0.135 A 
ATOM     74  F   UNL A   1      42.563  24.359  25.319  1.00  0.00    -0.206 F 
ATOM     75  C   UNL A   1      42.343  22.056  25.720  1.00  0.00     0.059 A 
ATOM     76  C   UNL A   1      42.306  21.230  28.004  1.00  0.00     0.059 A 
ATOM     77  F   UNL A   1      42.468  22.745  29.787  1.00  0.00    -0.206 F 
ATOM     78  C   UNL A   1      42.264  20.999  26.630  1.00  0.00     0.060 A 
BRANCH  78  79
ATOM     79  S   UNL A   1      42.175  19.309  25.999  1.00  0.00     0.124 S 
ATOM     80  O   UNL A   1      42.657  18.544  27.144  1.00  0.00    -0.237 OA
ATOM     81  O   UNL A   1      40.756  19.167  25.688  1.00  0.00    -0.237 OA
ATOM     82  O   UNL A   1      43.062  19.339  24.840  1.00  0.00    -0.744 OA
ENDBRANCH  78  79
ENDBRANCH  46  71
BRANCH  58  83
ATOM     83  C   UNL A   1      48.167  27.493  28.943  1.00  0.00     0.058 A 
ATOM     84  C   UNL A   1      48.942  27.805  27.817  1.00  0.00     0.135 A 
ATOM     85  C   UNL A   1      48.817  26.977  30.074  1.00  0.00     0.135 A 
ATOM     86  F   UNL A   1      48.361  28.292  26.710  1.00  0.00    -0.206 F 
ATOM     87  C   UNL A   1      50.319  27.613  27.814  1.00  0.00     0.059 A 
ATOM     88  C   UNL A   1      50.195  26.793  30.098  1.00  0.00     0.059 A 
ATOM     89  F   UNL A   1      48.115  26.670  31.176  1.00  0.00    -0.206 F 
ATOM     90  C   UNL A   1      50.937  27.112  28.962  1.00  0.00     0.060 A 
BRANCH  90  91
ATOM     91  S   UNL A   1      52.735  26.932  28.972  1.00  0.00     0.124 S 
ATOM     92  O   UNL A   1      53.169  28.317  28.831  1.00  0.00    -0.237 OA
ATOM     93  O   UNL A   1      52.982  26.320  30.274  1.00  0.00    -0.237 OA
ATOM     94  O   UNL A   1      52.994  26.071  27.823  1.00  0.00    -0.744 OA
ENDBRANCH  90  91
ENDBRANCH  58  83
ENDBRANCH  32  33
ENDBRANCH  25  27
ENDBRANCH  24  25
ENDBRANCH   1  24
TORSDOF 16
ENDMDL
MODEL 2
REMARK VINA RESULT:     -12.1      2.262      3.185
REMARK SMILES C[C@H]1[C@@H](C(=O)OCCOC(=O)c2ccc(-c3c4nc(c(-c5c(F)cc(S(=O)(=O)[O-])cc5F)c5ccc([nH]5)c(-c5c(F)cc(S(=O)(=O)[O-])cc5F)c5nc(c(-c6c(F)cc(S(=O)(=O)[O-])cc6F)c6ccc3[nH]6)C=C5)C=C4)cc2)CCN1C(=O)c1cc2cc(F)ccc2s1
REMARK SMILES IDX 8 1 7 2 6 3 4 4 5 5 3 6 1 7 2 8 80 9 78 10 79 11 81 12 82 13
REMARK SMILES IDX 83 14 84 15 92 16 85 17 91 18 86 19 90 20 87 21 89 22 88 23
REMARK SMILES IDX 9 24 10 25 11 26 12 27 13 28 77 29 14 30 76 31 15 32 16 33
REMARK SMILES IDX 17 34 70 35 18 36 75 37 69 38 71 39 19 40 74 41 68 42 67 43
REMARK SMILES IDX 20 45 54 46 33 47 53 48 34 49 37 50 52 51 72 52 35 53 36 54
REMARK SMILES IDX 51 56 73 57 38 58 21 59 22 60 31 61 23 62 24 63 30 64 32 65
REMARK SMILES IDX 25 66 26 67 27 68 28 69 29 70 55 71 56 72 65 73 57 74 58 75
REMARK SMILES IDX 64 76 66 77 59 78 60 79 61 80 62 81 63 82 39 83 40 84 49 85
REMARK SMILES IDX 41 86 42 87 48 88 50 89 43 90 44 91 45 92 46 93 47 94
REMARK H PARENT 71 44 37 55
REMARK Flexibility Score: inf
ROOT
ATOM      1  C   UNL A   1      33.900  30.386  27.300  1.00  0.00     0.275 C 
ENDROOT
BRANCH   1   2
ATOM      2  C   UNL A   1      33.321  29.581  26.143  1.00  0.00     0.274 C 
BRANCH   2   3
ATOM      3  O   UNL A   1      31.925  29.293  26.362  1.00  0.00    -0.462 OA
BRANCH   3   4
ATOM      4  C   UNL A   1      31.623  28.088  26.888  1.00  0.00     0.311 C 
ATOM      5  O   UNL A   1      31.689  27.827  28.085  1.00  0.00    -0.252 OA
BRANCH   4   6
ATOM      6  C   UNL A   1      31.215  27.037  25.876  1.00  0.00     0.123 C 
ATOM      7  C   UNL A   1      33.514  25.713  26.045  1.00  0.00     0.032 C 
ATOM      8  C   UNL A   1      32.197  25.979  25.336  1.00  0.00     0.096 C 
ATOM      9  N   UNL A   1      32.414  26.309  23.929  1.00  0.00    -0.334 N 
ATOM     10  C   UNL A   1      30.668  27.694  24.602  1.00  0.00     0.039 C 
ATOM     11  C   UNL A   1      31.843  27.612  23.648  1.00  0.00     0.121 C 
BRANCH   9  12
ATOM     12  C   UNL A   1      32.094  25.290  23.036  1.00  0.00     0.264 C 
ATOM     13  O   UNL A   1      31.083  25.362  22.337  1.00  0.00    -0.268 OA
BRANCH  12  14
ATOM     14  C   UNL A   1      32.985  24.157  22.985  1.00  0.00     0.093 A 
ATOM     15  C   UNL A   1      34.330  24.209  22.690  1.00  0.00     0.034 A 
ATOM     16  S   UNL A   1      32.531  22.596  23.496  1.00  0.00    -0.130 S 
ATOM     17  C   UNL A   1      35.040  23.182  23.388  1.00  0.00    -0.004 A 
ATOM     18  C   UNL A   1      34.161  22.243  23.937  1.00  0.00     0.035 A 
ATOM     19  C   UNL A   1      36.416  23.079  23.682  1.00  0.00     0.048 A 
ATOM     20  C   UNL A   1      34.612  21.210  24.779  1.00  0.00     0.022 A 
ATOM     21  C   UNL A   1      36.842  22.117  24.590  1.00  0.00     0.123 A 
ATOM     22  C   UNL A   1      35.962  21.196  25.137  1.00  0.00     0.041 A 
ATOM     23  F   UNL A   1      38.124  22.112  24.976  1.00  0.00    -0.207 F 
ENDBRANCH  12  14
ENDBRANCH   9  12
ENDBRANCH   4   6
ENDBRANCH   3   4
ENDBRANCH   2   3
ENDBRANCH   1   2
BRANCH   1  24
ATOM     24  O   UNL A   1      35.026  29.694  27.860  1.00  0.00    -0.458 OA
BRANCH  24  25
ATOM     25  C   UNL A   1      35.854  30.447  28.613  1.00  0.00     0.338 C 
ATOM     26  O   UNL A   1      35.569  31.436  29.275  1.00  0.00    -0.246 OA
BRANCH  25  27
ATOM     27  C   UNL A   1      37.204  29.882  28.558  1.00  0.00     0.060 A 
ATOM     28  C   UNL A   1      37.841  29.515  29.744  1.00  0.00     0.016 A 
ATOM     29  C   UNL A   1      37.878  29.815  27.341  1.00  0.00     0.016 A 
ATOM     30  C   UNL A   1      39.185  29.156  29.727  1.00  0.00     0.010 A 
ATOM     31  C   UNL A   1      39.197  29.360  27.317  1.00  0.00     0.010 A 
ATOM     32  C   UNL A   1      39.874  29.050  28.512  1.00  0.00    -0.014 A 
BRANCH  32  33
ATOM     33  C   UNL A   1      41.298  28.623  28.461  1.00  0.00     0.031 A 
ATOM     34  C   UNL A   1      42.390  29.648  28.603  1.00  0.00     0.074 A 
ATOM     35  C   UNL A   1      41.614  27.332  28.233  1.00  0.00     0.049 A 
ATOM     36  N   UNL A   1      43.656  29.556  28.293  1.00  0.00    -0.248 NA
ATOM     37  C   UNL A   1      41.998  30.957  29.150  1.00  0.00     0.031 C 
ATOM     38  C   UNL A   1      40.659  26.226  28.131  1.00  0.00     0.029 A 
ATOM     39  N   UNL A   1      42.833  26.735  28.025  1.00  0.00    -0.354 N 
ATOM     40  C   UNL A   1      44.200  30.812  28.540  1.00  0.00     0.074 A 
ATOM     41  C   UNL A   1      43.128  31.644  29.043  1.00  0.00     0.031 C 
ATOM     42  C   UNL A   1      41.326  25.088  27.888  1.00  0.00     0.029 A 
ATOM     43  C   UNL A   1      42.742  25.395  27.726  1.00  0.00     0.049 A 
ATOM     44  H   UNL A   1      43.689  27.218  28.085  1.00  0.00     0.167 HD
ATOM     45  C   UNL A   1      45.474  31.229  28.351  1.00  0.00     0.037 A 
ATOM     46  C   UNL A   1      43.677  24.524  27.302  1.00  0.00     0.037 A 
ATOM     47  C   UNL A   1      46.539  30.371  27.900  1.00  0.00     0.049 A 
ATOM     48  C   UNL A   1      45.081  25.007  27.079  1.00  0.00     0.074 A 
ATOM     49  C   UNL A   1      47.867  30.690  27.677  1.00  0.00     0.029 A 
ATOM     50  N   UNL A   1      46.400  29.019  27.623  1.00  0.00    -0.354 N 
ATOM     51  N   UNL A   1      45.566  26.214  27.241  1.00  0.00    -0.248 NA
ATOM     52  C   UNL A   1      46.057  24.023  26.594  1.00  0.00     0.031 C 
ATOM     53  C   UNL A   1      48.527  29.535  27.245  1.00  0.00     0.029 A 
ATOM     54  C   UNL A   1      47.617  28.489  27.229  1.00  0.00     0.049 A 
ATOM     55  H   UNL A   1      45.561  28.511  27.695  1.00  0.00     0.167 HD
ATOM     56  C   UNL A   1      46.908  26.133  26.890  1.00  0.00     0.074 A 
ATOM     57  C   UNL A   1      47.159  24.756  26.514  1.00  0.00     0.031 C 
ATOM     58  C   UNL A   1      47.846  27.111  26.877  1.00  0.00     0.037 A 
BRANCH  45  59
ATOM     59  C   UNL A   1      45.780  32.680  28.588  1.00  0.00     0.058 A 
ATOM     60  C   UNL A   1      46.245  33.152  29.824  1.00  0.00     0.135 A 
ATOM     61  C   UNL A   1      45.637  33.609  27.544  1.00  0.00     0.135 A 
ATOM     62  F   UNL A   1      46.384  32.309  30.859  1.00  0.00    -0.206 F 
ATOM     63  C   UNL A   1      46.539  34.498  30.024  1.00  0.00     0.059 A 
ATOM     64  C   UNL A   1      45.944  34.956  27.715  1.00  0.00     0.059 A 
ATOM     65  F   UNL A   1      45.193  33.211  26.341  1.00  0.00    -0.206 F 
ATOM     66  C   UNL A   1      46.382  35.393  28.964  1.00  0.00     0.060 A 
BRANCH  66  67
ATOM     67  S   UNL A   1      46.765  37.138  29.233  1.00  0.00     0.124 S 
ATOM     68  O   UNL A   1      46.842  37.633  27.862  1.00  0.00    -0.237 OA
ATOM     69  O   UNL A   1      45.618  37.598  30.009  1.00  0.00    -0.237 OA
ATOM     70  O   UNL A   1      48.032  37.098  29.958  1.00  0.00    -0.744 OA
ENDBRANCH  66  67
ENDBRANCH  45  59
BRANCH  46  71
ATOM     71  C   UNL A   1      43.289  23.118  27.012  1.00  0.00     0.058 A 
ATOM     72  C   UNL A   1      43.219  22.649  25.693  1.00  0.00     0.135 A 
ATOM     73  C   UNL A   1      43.035  22.206  28.047  1.00  0.00     0.135 A 
ATOM     74  F   UNL A   1      43.444  23.487  24.670  1.00  0.00    -0.206 F 
ATOM     75  C   UNL A   1      42.917  21.320  25.409  1.00  0.00     0.059 A 
ATOM     76  C   UNL A   1      42.754  20.868  27.790  1.00  0.00     0.059 A 
ATOM     77  F   UNL A   1      43.103  22.604  29.327  1.00  0.00    -0.206 F 
ATOM     78  C   UNL A   1      42.693  20.436  26.466  1.00  0.00     0.060 A 
BRANCH  78  79
ATOM     79  S   UNL A   1      42.385  18.694  26.097  1.00  0.00     0.124 S 
ATOM     80  O   UNL A   1      42.704  18.064  27.372  1.00  0.00    -0.237 OA
ATOM     81  O   UNL A   1      40.974  18.700  25.722  1.00  0.00    -0.237 OA
ATOM     82  O   UNL A   1      43.313  18.417  25.005  1.00  0.00    -0.744 OA
ENDBRANCH  78  79
ENDBRANCH  46  71
BRANCH  58  83
ATOM     83  C   UNL A   1      49.241  26.725  26.486  1.00  0.00     0.058 A 
ATOM     84  C   UNL A   1      50.130  26.158  27.411  1.00  0.00     0.135 A 
ATOM     85  C   UNL A   1      49.660  26.846  25.152  1.00  0.00     0.135 A 
ATOM     86  F   UNL A   1      49.776  26.031  28.699  1.00  0.00    -0.206 F 
ATOM     87  C   UNL A   1      51.393  25.723  27.024  1.00  0.00     0.059 A 
ATOM     88  C   UNL A   1      50.911  26.402  24.740  1.00  0.00     0.059 A 
ATOM     89  F   UNL A   1      48.839  27.377  24.232  1.00  0.00    -0.206 F 
ATOM     90  C   UNL A   1      51.772  25.844  25.684  1.00  0.00     0.060 A 
BRANCH  90  91
ATOM     91  S   UNL A   1      53.387  25.212  25.179  1.00  0.00     0.124 S 
ATOM     92  O   UNL A   1      53.194  23.772  25.315  1.00  0.00    -0.237 OA
ATOM     93  O   UNL A   1      53.505  25.709  23.811  1.00  0.00    -0.237 OA
ATOM     94  O   UNL A   1      54.302  25.818  26.140  1.00  0.00    -0.744 OA
ENDBRANCH  90  91
ENDBRANCH  58  83
ENDBRANCH  32  33
ENDBRANCH  25  27
ENDBRANCH  24  25
ENDBRANCH   1  24
TORSDOF 16
ENDMDL
MODEL 3
REMARK VINA RESULT:     -12.1      1.620      2.337
REMARK SMILES C[C@H]1[C@@H](C(=O)OCCOC(=O)c2ccc(-c3c4nc(c(-c5c(F)cc(S(=O)(=O)[O-])cc5F)c5ccc([nH]5)c(-c5c(F)cc(S(=O)(=O)[O-])cc5F)c5nc(c(-c6c(F)cc(S(=O)(=O)[O-])cc6F)c6ccc3[nH]6)C=C5)C=C4)cc2)CCN1C(=O)c1cc2cc(F)ccc2s1
REMARK SMILES IDX 8 1 7 2 6 3 4 4 5 5 3 6 1 7 2 8 80 9 78 10 79 11 81 12 82 13
REMARK SMILES IDX 83 14 84 15 92 16 85 17 91 18 86 19 90 20 87 21 89 22 88 23
REMARK SMILES IDX 9 24 10 25 11 26 12 27 13 28 77 29 14 30 76 31 15 32 16 33
REMARK SMILES IDX 17 34 70 35 18 36 75 37 69 38 71 39 19 40 74 41 68 42 67 43
REMARK SMILES IDX 20 45 54 46 33 47 53 48 34 49 37 50 52 51 72 52 35 53 36 54
REMARK SMILES IDX 51 56 73 57 38 58 21 59 22 60 31 61 23 62 24 63 30 64 32 65
REMARK SMILES IDX 25 66 26 67 27 68 28 69 29 70 55 71 56 72 65 73 57 74 58 75
REMARK SMILES IDX 64 76 66 77 59 78 60 79 61 80 62 81 63 82 39 83 40 84 49 85
REMARK SMILES IDX 41 86 42 87 48 88 50 89 43 90 44 91 45 92 46 93 47 94
REMARK H PARENT 71 44 37 55
REMARK Flexibility Score: inf
ROOT
ATOM      1  C   UNL A   1      33.464  30.400  26.955  1.00  0.00     0.275 C 
ENDROOT
BRANCH   1   2
ATOM      2  C   UNL A   1      33.104  29.324  25.938  1.00  0.00     0.274 C 
BRANCH   2   3
ATOM      3  O   UNL A   1      31.716  28.951  26.049  1.00  0.00    -0.462 OA
BRANCH   3   4
ATOM      4  C   UNL A   1      31.430  27.871  26.805  1.00  0.00     0.311 C 
ATOM      5  O   UNL A   1      31.545  27.838  28.026  1.00  0.00    -0.252 OA
BRANCH   4   6
ATOM      6  C   UNL A   1      30.976  26.653  26.026  1.00  0.00     0.123 C 
ATOM      7  C   UNL A   1      33.333  25.434  26.195  1.00  0.00     0.032 C 
ATOM      8  C   UNL A   1      31.947  25.543  25.580  1.00  0.00     0.096 C 
ATOM      9  N   UNL A   1      32.024  25.633  24.123  1.00  0.00    -0.334 N 
ATOM     10  C   UNL A   1      30.291  27.070  24.718  1.00  0.00     0.039 C 
ATOM     11  C   UNL A   1      31.378  26.855  23.684  1.00  0.00     0.121 C 
BRANCH   9  12
ATOM     12  C   UNL A   1      31.667  24.470  23.448  1.00  0.00     0.264 C 
ATOM     13  O   UNL A   1      30.539  24.342  22.970  1.00  0.00    -0.268 OA
BRANCH  12  14
ATOM     14  C   UNL A   1      32.664  23.432  23.354  1.00  0.00     0.093 A 
ATOM     15  C   UNL A   1      33.950  23.597  22.887  1.00  0.00     0.034 A 
ATOM     16  S   UNL A   1      32.449  21.875  24.012  1.00  0.00    -0.130 S 
ATOM     17  C   UNL A   1      34.847  22.703  23.549  1.00  0.00    -0.004 A 
ATOM     18  C   UNL A   1      34.149  21.723  24.263  1.00  0.00     0.035 A 
ATOM     19  C   UNL A   1      36.251  22.762  23.672  1.00  0.00     0.048 A 
ATOM     20  C   UNL A   1      34.809  20.807  25.102  1.00  0.00     0.022 A 
ATOM     21  C   UNL A   1      36.887  21.918  24.575  1.00  0.00     0.123 A 
ATOM     22  C   UNL A   1      36.185  20.956  25.285  1.00  0.00     0.041 A 
ATOM     23  F   UNL A   1      38.199  22.072  24.795  1.00  0.00    -0.207 F 
ENDBRANCH  12  14
ENDBRANCH   9  12
ENDBRANCH   4   6
ENDBRANCH   3   4
ENDBRANCH   2   3
ENDBRANCH   1   2
BRANCH   1  24
ATOM     24  O   UNL A   1      34.269  29.833  27.999  1.00  0.00    -0.458 OA
BRANCH  24  25
ATOM     25  C   UNL A   1      35.061  30.704  28.657  1.00  0.00     0.338 C 
ATOM     26  O   UNL A   1      34.744  31.777  29.152  1.00  0.00    -0.246 OA
BRANCH  25  27
ATOM     27  C   UNL A   1      36.419  30.158  28.733  1.00  0.00     0.060 A 
ATOM     28  C   UNL A   1      36.936  29.781  29.972  1.00  0.00     0.016 A 
ATOM     29  C   UNL A   1      37.214  30.120  27.591  1.00  0.00     0.016 A 
ATOM     30  C   UNL A   1      38.280  29.441  30.089  1.00  0.00     0.010 A 
ATOM     31  C   UNL A   1      38.536  29.684  27.696  1.00  0.00     0.010 A 
ATOM     32  C   UNL A   1      39.092  29.364  28.949  1.00  0.00    -0.014 A 
BRANCH  32  33
ATOM     33  C   UNL A   1      40.519  28.956  29.038  1.00  0.00     0.031 A 
ATOM     34  C   UNL A   1      41.567  29.980  29.383  1.00  0.00     0.074 A 
ATOM     35  C   UNL A   1      40.886  27.690  28.758  1.00  0.00     0.049 A 
ATOM     36  N   UNL A   1      42.862  29.925  29.221  1.00  0.00    -0.248 NA
ATOM     37  C   UNL A   1      41.088  31.241  29.972  1.00  0.00     0.031 C 
ATOM     38  C   UNL A   1      39.971  26.584  28.463  1.00  0.00     0.029 A 
ATOM     39  N   UNL A   1      42.132  27.122  28.655  1.00  0.00    -0.354 N 
ATOM     40  C   UNL A   1      43.348  31.165  29.621  1.00  0.00     0.074 A 
ATOM     41  C   UNL A   1      42.209  31.946  30.050  1.00  0.00     0.031 C 
ATOM     42  C   UNL A   1      40.683  25.474  28.221  1.00  0.00     0.029 A 
ATOM     43  C   UNL A   1      42.103  25.807  28.251  1.00  0.00     0.049 A 
ATOM     44  H   UNL A   1      42.965  27.608  28.852  1.00  0.00     0.167 HD
ATOM     45  C   UNL A   1      44.628  31.608  29.616  1.00  0.00     0.037 A 
ATOM     46  C   UNL A   1      43.098  24.979  27.882  1.00  0.00     0.037 A 
ATOM     47  C   UNL A   1      45.755  30.797  29.235  1.00  0.00     0.049 A 
ATOM     48  C   UNL A   1      44.509  25.493  27.863  1.00  0.00     0.074 A 
ATOM     49  C   UNL A   1      47.094  31.145  29.197  1.00  0.00     0.029 A 
ATOM     50  N   UNL A   1      45.677  29.467  28.847  1.00  0.00    -0.354 N 
ATOM     51  N   UNL A   1      44.948  26.690  28.168  1.00  0.00    -0.248 NA
ATOM     52  C   UNL A   1      45.554  24.557  27.430  1.00  0.00     0.031 C 
ATOM     53  C   UNL A   1      47.823  30.032  28.765  1.00  0.00     0.029 A 
ATOM     54  C   UNL A   1      46.941  28.981  28.565  1.00  0.00     0.049 A 
ATOM     55  H   UNL A   1      44.844  28.947  28.782  1.00  0.00     0.167 HD
ATOM     56  C   UNL A   1      46.323  26.649  27.975  1.00  0.00     0.074 A 
ATOM     57  C   UNL A   1      46.644  25.306  27.534  1.00  0.00     0.031 C 
ATOM     58  C   UNL A   1      47.237  27.634  28.145  1.00  0.00     0.037 A 
BRANCH  45  59
ATOM     59  C   UNL A   1      44.876  33.041  29.992  1.00  0.00     0.058 A 
ATOM     60  C   UNL A   1      45.188  33.424  31.304  1.00  0.00     0.135 A 
ATOM     61  C   UNL A   1      44.834  34.043  29.009  1.00  0.00     0.135 A 
ATOM     62  F   UNL A   1      45.225  32.509  32.284  1.00  0.00    -0.206 F 
ATOM     63  C   UNL A   1      45.430  34.756  31.634  1.00  0.00     0.059 A 
ATOM     64  C   UNL A   1      45.092  35.377  29.311  1.00  0.00     0.059 A 
ATOM     65  F   UNL A   1      44.537  33.731  27.737  1.00  0.00    -0.206 F 
ATOM     66  C   UNL A   1      45.376  35.725  30.631  1.00  0.00     0.060 A 
BRANCH  66  67
ATOM     67  S   UNL A   1      45.691  37.449  31.068  1.00  0.00     0.124 S 
ATOM     68  O   UNL A   1      45.088  38.150  29.938  1.00  0.00    -0.237 OA
ATOM     69  O   UNL A   1      44.993  37.585  32.343  1.00  0.00    -0.237 OA
ATOM     70  O   UNL A   1      47.147  37.519  31.145  1.00  0.00    -0.744 OA
ENDBRANCH  66  67
ENDBRANCH  45  59
BRANCH  46  71
ATOM     71  C   UNL A   1      42.774  23.595  27.446  1.00  0.00     0.058 A 
ATOM     72  C   UNL A   1      42.641  23.280  26.087  1.00  0.00     0.135 A 
ATOM     73  C   UNL A   1      42.647  22.552  28.377  1.00  0.00     0.135 A 
ATOM     74  F   UNL A   1      42.744  24.246  25.162  1.00  0.00    -0.206 F 
ATOM     75  C   UNL A   1      42.399  21.977  25.663  1.00  0.00     0.059 A 
ATOM     76  C   UNL A   1      42.429  21.238  27.977  1.00  0.00     0.059 A 
ATOM     77  F   UNL A   1      42.781  22.801  29.689  1.00  0.00    -0.206 F 
ATOM     78  C   UNL A   1      42.301  20.961  26.616  1.00  0.00     0.060 A 
BRANCH  78  79
ATOM     79  S   UNL A   1      42.072  19.259  26.057  1.00  0.00     0.124 S 
ATOM     80  O   UNL A   1      42.475  18.506  27.239  1.00  0.00    -0.237 OA
ATOM     81  O   UNL A   1      40.649  19.227  25.734  1.00  0.00    -0.237 OA
ATOM     82  O   UNL A   1      42.968  19.162  24.909  1.00  0.00    -0.744 OA
ENDBRANCH  78  79
ENDBRANCH  46  71
BRANCH  58  83
ATOM     83  C   UNL A   1      48.676  27.293  27.897  1.00  0.00     0.058 A 
ATOM     84  C   UNL A   1      49.276  27.518  26.649  1.00  0.00     0.135 A 
ATOM     85  C   UNL A   1      49.480  26.817  28.944  1.00  0.00     0.135 A 
ATOM     86  F   UNL A   1      48.544  27.964  25.617  1.00  0.00    -0.206 F 
ATOM     87  C   UNL A   1      50.632  27.280  26.448  1.00  0.00     0.059 A 
ATOM     88  C   UNL A   1      50.840  26.589  28.768  1.00  0.00     0.059 A 
ATOM     89  F   UNL A   1      48.949  26.593  30.155  1.00  0.00    -0.206 F 
ATOM     90  C   UNL A   1      51.406  26.822  27.516  1.00  0.00     0.060 A 
BRANCH  90  91
ATOM     91  S   UNL A   1      53.179  26.583  27.263  1.00  0.00     0.124 S 
ATOM     92  O   UNL A   1      53.702  26.824  28.603  1.00  0.00    -0.237 OA
ATOM     93  O   UNL A   1      53.247  25.202  26.795  1.00  0.00    -0.237 OA
ATOM     94  O   UNL A   1      53.517  27.593  26.265  1.00  0.00    -0.744 OA
ENDBRANCH  90  91
ENDBRANCH  58  83
ENDBRANCH  32  33
ENDBRANCH  25  27
ENDBRANCH  24  25
ENDBRANCH   1  24
TORSDOF 16
ENDMDL
