MODEL 1
REMARK VINA RESULT:     -11.9      0.000      0.000
REMARK SMILES COc1cc([C@H]2[NH2+]CCC3=c4ccccc4=N[C@H]32)ccc1OCC(=O)OCCOC(=O)c1ccc(-c2c3nc(c(-c4c(F)cc(S(=O)(=O)[O-])cc4F)c4ccc([nH]4)c(-c4c(F)cc(S(=O)(=O)[O-])cc4F)c4nc(c(-c5c(F)cc(S(=O)(=O)[O-])cc5F)c5ccc2[nH]5)C=C4)C=C3)cc1
REMARK SMILES IDX 27 1 26 2 24 3 25 4 23 5 22 6 21 7 3 8 4 9 5 10 20 11 19 12
REMARK SMILES IDX 2 13 1 14 6 15 7 16 18 17 8 18 10 21 17 22 9 23 11 24 16 25
REMARK SMILES IDX 12 26 15 27 13 28 14 29 28 30 29 31 30 32 31 33 32 34 33 35
REMARK SMILES IDX 97 36 34 37 96 38 35 39 36 40 37 41 90 42 38 43 95 44 89 45
REMARK SMILES IDX 91 46 39 47 94 48 88 49 87 50 40 52 74 53 53 54 73 55 54 56
REMARK SMILES IDX 57 57 72 58 92 59 55 60 56 61 71 63 93 64 58 65 41 66 42 67
REMARK SMILES IDX 51 68 43 69 44 70 50 71 52 72 45 73 46 74 47 75 48 76 49 77
REMARK SMILES IDX 75 78 76 79 85 80 77 81 78 82 84 83 86 84 79 85 80 86 81 87
REMARK SMILES IDX 82 88 83 89 59 90 60 91 69 92 61 93 62 94 68 95 70 96 63 97
REMARK SMILES IDX 64 98 65 99 66 100 67 101
REMARK H PARENT 7 19 7 20 91 51 57 62
REMARK Flexibility Score: inf
ROOT
ATOM      1  C   UNL A   1      32.195  29.547  25.470  1.00  0.00     0.274 C 
ENDROOT
BRANCH   1   2
ATOM      2  O   UNL A   1      32.991  28.538  24.818  1.00  0.00    -0.460 OA
BRANCH   2   3
ATOM      3  C   UNL A   1      32.856  28.454  23.469  1.00  0.00     0.344 C 
ATOM      4  O   UNL A   1      32.272  29.280  22.776  1.00  0.00    -0.248 OA
BRANCH   3   5
ATOM      5  C   UNL A   1      33.450  27.156  22.916  1.00  0.00     0.352 C 
BRANCH   5   6
ATOM      6  O   UNL A   1      32.660  26.237  22.190  1.00  0.00    -0.478 OA
BRANCH   6   7
ATOM      7  C   UNL A   1      32.441  24.994  22.708  1.00  0.00     0.162 A 
ATOM      8  C   UNL A   1      31.443  24.843  23.678  1.00  0.00     0.161 A 
ATOM      9  C   UNL A   1      31.383  23.666  24.443  1.00  0.00     0.060 A 
ATOM     10  C   UNL A   1      32.283  22.604  24.239  1.00  0.00     0.016 A 
ATOM     11  C   UNL A   1      33.280  23.923  22.427  1.00  0.00     0.051 A 
ATOM     12  C   UNL A   1      33.161  22.730  23.154  1.00  0.00     0.014 A 
BRANCH   8  13
ATOM     13  O   UNL A   1      30.514  25.798  24.014  1.00  0.00    -0.493 OA
ATOM     14  C   UNL A   1      30.325  25.999  25.411  1.00  0.00     0.278 C 
ENDBRANCH   8  13
BRANCH  10  15
ATOM     15  C   UNL A   1      32.272  21.420  25.231  1.00  0.00     0.243 C 
ATOM     16  N   UNL A   1      31.907  20.147  24.551  1.00  0.00    -0.338 N 
ATOM     17  C   UNL A   1      33.498  21.205  26.206  1.00  0.00     0.196 C 
ATOM     18  C   UNL A   1      33.035  19.507  23.865  1.00  0.00     0.265 C 
ATOM     19  H   UNL A   1      31.181  20.345  23.863  1.00  0.00     0.346 HD
ATOM     20  H   UNL A   1      31.589  19.502  25.274  1.00  0.00     0.346 HD
ATOM     21  C   UNL A   1      34.617  20.503  25.487  1.00  0.00    -0.025 C 
ATOM     22  N   UNL A   1      34.086  22.483  26.701  1.00  0.00    -0.270 NA
ATOM     23  C   UNL A   1      34.252  19.247  24.774  1.00  0.00     0.095 C 
ATOM     24  C   UNL A   1      35.703  21.265  25.442  1.00  0.00     0.001 A 
ATOM     25  C   UNL A   1      35.285  22.460  26.201  1.00  0.00     0.066 A 
ATOM     26  C   UNL A   1      36.910  21.236  24.681  1.00  0.00     0.010 A 
ATOM     27  C   UNL A   1      36.236  23.590  26.220  1.00  0.00     0.028 A 
ATOM     28  C   UNL A   1      37.671  22.343  24.657  1.00  0.00     0.001 A 
ATOM     29  C   UNL A   1      37.333  23.518  25.447  1.00  0.00     0.002 A 
ENDBRANCH  10  15
ENDBRANCH   6   7
ENDBRANCH   5   6
ENDBRANCH   3   5
ENDBRANCH   2   3
ENDBRANCH   1   2
BRANCH   1  30
ATOM     30  C   UNL A   1      32.415  29.445  26.977  1.00  0.00     0.275 C 
BRANCH  30  31
ATOM     31  O   UNL A   1      33.823  29.292  27.220  1.00  0.00    -0.458 OA
BRANCH  31  32
ATOM     32  C   UNL A   1      34.423  30.346  27.825  1.00  0.00     0.338 C 
ATOM     33  O   UNL A   1      33.870  31.400  28.133  1.00  0.00    -0.246 OA
BRANCH  32  34
ATOM     34  C   UNL A   1      35.846  30.036  28.119  1.00  0.00     0.060 A 
ATOM     35  C   UNL A   1      36.833  30.155  27.142  1.00  0.00     0.016 A 
ATOM     36  C   UNL A   1      36.207  29.564  29.382  1.00  0.00     0.016 A 
ATOM     37  C   UNL A   1      38.129  29.689  27.378  1.00  0.00     0.010 A 
ATOM     38  C   UNL A   1      37.540  29.216  29.652  1.00  0.00     0.010 A 
ATOM     39  C   UNL A   1      38.524  29.253  28.646  1.00  0.00    -0.014 A 
BRANCH  39  40
ATOM     40  C   UNL A   1      39.940  28.867  28.953  1.00  0.00     0.031 A 
ATOM     41  C   UNL A   1      40.913  29.913  29.443  1.00  0.00     0.074 A 
ATOM     42  C   UNL A   1      40.393  27.612  28.736  1.00  0.00     0.049 A 
ATOM     43  N   UNL A   1      42.218  29.938  29.358  1.00  0.00    -0.248 NA
ATOM     44  C   UNL A   1      40.334  31.100  30.094  1.00  0.00     0.031 C 
ATOM     45  C   UNL A   1      39.580  26.453  28.356  1.00  0.00     0.029 A 
ATOM     46  N   UNL A   1      41.674  27.103  28.778  1.00  0.00    -0.354 N 
ATOM     47  C   UNL A   1      42.609  31.180  29.850  1.00  0.00     0.074 A 
ATOM     48  C   UNL A   1      41.404  31.866  30.266  1.00  0.00     0.031 C 
ATOM     49  C   UNL A   1      40.367  25.377  28.224  1.00  0.00     0.029 A 
ATOM     50  C   UNL A   1      41.754  25.794  28.360  1.00  0.00     0.049 A 
ATOM     51  H   UNL A   1      42.453  27.624  29.078  1.00  0.00     0.167 HD
ATOM     52  C   UNL A   1      43.860  31.699  29.920  1.00  0.00     0.037 A 
ATOM     53  C   UNL A   1      42.811  25.028  28.022  1.00  0.00     0.037 A 
ATOM     54  C   UNL A   1      45.052  30.962  29.578  1.00  0.00     0.049 A 
ATOM     55  C   UNL A   1      44.185  25.630  28.054  1.00  0.00     0.074 A 
ATOM     56  C   UNL A   1      46.370  31.383  29.622  1.00  0.00     0.029 A 
ATOM     57  N   UNL A   1      45.070  29.641  29.152  1.00  0.00    -0.354 N 
ATOM     58  N   UNL A   1      44.541  26.844  28.402  1.00  0.00    -0.248 NA
ATOM     59  C   UNL A   1      45.297  24.775  27.618  1.00  0.00     0.031 C 
ATOM     60  C   UNL A   1      47.181  30.329  29.189  1.00  0.00     0.029 A 
ATOM     61  C   UNL A   1      46.373  29.236  28.922  1.00  0.00     0.049 A 
ATOM     62  H   UNL A   1      44.273  29.076  29.031  1.00  0.00     0.167 HD
ATOM     63  C   UNL A   1      45.922  26.889  28.252  1.00  0.00     0.074 A 
ATOM     64  C   UNL A   1      46.336  25.583  27.783  1.00  0.00     0.031 C 
ATOM     65  C   UNL A   1      46.768  27.920  28.484  1.00  0.00     0.037 A 
BRANCH  52  66
ATOM     66  C   UNL A   1      44.016  33.142  30.325  1.00  0.00     0.058 A 
ATOM     67  C   UNL A   1      44.013  34.194  29.398  1.00  0.00     0.135 A 
ATOM     68  C   UNL A   1      44.107  33.477  31.689  1.00  0.00     0.135 A 
ATOM     69  F   UNL A   1      43.938  33.935  28.083  1.00  0.00    -0.206 F 
ATOM     70  C   UNL A   1      44.117  35.523  29.805  1.00  0.00     0.059 A 
ATOM     71  C   UNL A   1      44.185  34.799  32.118  1.00  0.00     0.059 A 
ATOM     72  F   UNL A   1      44.110  32.513  32.622  1.00  0.00    -0.206 F 
ATOM     73  C   UNL A   1      44.202  35.816  31.167  1.00  0.00     0.060 A 
BRANCH  73  74
ATOM     74  S   UNL A   1      44.322  37.543  31.683  1.00  0.00     0.124 S 
ATOM     75  O   UNL A   1      43.626  37.514  32.966  1.00  0.00    -0.237 OA
ATOM     76  O   UNL A   1      45.765  37.751  31.752  1.00  0.00    -0.237 OA
ATOM     77  O   UNL A   1      43.639  38.267  30.616  1.00  0.00    -0.744 OA
ENDBRANCH  73  74
ENDBRANCH  52  66
BRANCH  53  78
ATOM     78  C   UNL A   1      42.594  23.636  27.538  1.00  0.00     0.058 A 
ATOM     79  C   UNL A   1      42.483  23.358  26.168  1.00  0.00     0.135 A 
ATOM     80  C   UNL A   1      42.531  22.552  28.430  1.00  0.00     0.135 A 
ATOM     81  F   UNL A   1      42.521  24.359  25.276  1.00  0.00    -0.206 F 
ATOM     82  C   UNL A   1      42.315  22.058  25.699  1.00  0.00     0.059 A 
ATOM     83  C   UNL A   1      42.397  21.242  27.985  1.00  0.00     0.059 A 
ATOM     84  F   UNL A   1      42.643  22.760  29.752  1.00  0.00    -0.206 F 
ATOM     85  C   UNL A   1      42.281  21.005  26.616  1.00  0.00     0.060 A 
BRANCH  85  86
ATOM     86  S   UNL A   1      42.132  19.315  25.996  1.00  0.00     0.124 S 
ATOM     87  O   UNL A   1      40.695  19.212  25.769  1.00  0.00    -0.237 OA
ATOM     88  O   UNL A   1      42.966  19.352  24.799  1.00  0.00    -0.237 OA
ATOM     89  O   UNL A   1      42.660  18.508  27.092  1.00  0.00    -0.744 OA
ENDBRANCH  85  86
ENDBRANCH  53  78
BRANCH  65  90
ATOM     90  C   UNL A   1      48.236  27.662  28.307  1.00  0.00     0.058 A 
ATOM     91  C   UNL A   1      49.041  27.210  29.362  1.00  0.00     0.135 A 
ATOM     92  C   UNL A   1      48.824  27.805  27.040  1.00  0.00     0.135 A 
ATOM     93  F   UNL A   1      48.527  27.072  30.594  1.00  0.00    -0.206 F 
ATOM     94  C   UNL A   1      50.385  26.908  29.167  1.00  0.00     0.059 A 
ATOM     95  C   UNL A   1      50.160  27.488  26.818  1.00  0.00     0.059 A 
ATOM     96  F   UNL A   1      48.092  28.233  25.999  1.00  0.00    -0.206 F 
ATOM     97  C   UNL A   1      50.933  27.044  27.890  1.00  0.00     0.060 A 
BRANCH  97  98
ATOM     98  S   UNL A   1      52.661  26.587  27.635  1.00  0.00     0.124 S 
ATOM     99  O   UNL A   1      53.108  26.349  29.004  1.00  0.00    -0.237 OA
ATOM    100  O   UNL A   1      52.549  25.403  26.790  1.00  0.00    -0.237 OA
ATOM    101  O   UNL A   1      53.231  27.763  26.983  1.00  0.00    -0.744 OA
ENDBRANCH  97  98
ENDBRANCH  65  90
ENDBRANCH  39  40
ENDBRANCH  32  34
ENDBRANCH  31  32
ENDBRANCH  30  31
ENDBRANCH   1  30
TORSDOF 18
ENDMDL
MODEL 2
REMARK VINA RESULT:     -11.3      2.268      8.677
REMARK SMILES COc1cc([C@H]2[NH2+]CCC3=c4ccccc4=N[C@H]32)ccc1OCC(=O)OCCOC(=O)c1ccc(-c2c3nc(c(-c4c(F)cc(S(=O)(=O)[O-])cc4F)c4ccc([nH]4)c(-c4c(F)cc(S(=O)(=O)[O-])cc4F)c4nc(c(-c5c(F)cc(S(=O)(=O)[O-])cc5F)c5ccc2[nH]5)C=C4)C=C3)cc1
REMARK SMILES IDX 27 1 26 2 24 3 25 4 23 5 22 6 21 7 3 8 4 9 5 10 20 11 19 12
REMARK SMILES IDX 2 13 1 14 6 15 7 16 18 17 8 18 10 21 17 22 9 23 11 24 16 25
REMARK SMILES IDX 12 26 15 27 13 28 14 29 28 30 29 31 30 32 31 33 32 34 33 35
REMARK SMILES IDX 97 36 34 37 96 38 35 39 36 40 37 41 90 42 38 43 95 44 89 45
REMARK SMILES IDX 91 46 39 47 94 48 88 49 87 50 40 52 74 53 53 54 73 55 54 56
REMARK SMILES IDX 57 57 72 58 92 59 55 60 56 61 71 63 93 64 58 65 41 66 42 67
REMARK SMILES IDX 51 68 43 69 44 70 50 71 52 72 45 73 46 74 47 75 48 76 49 77
REMARK SMILES IDX 75 78 76 79 85 80 77 81 78 82 84 83 86 84 79 85 80 86 81 87
REMARK SMILES IDX 82 88 83 89 59 90 60 91 69 92 61 93 62 94 68 95 70 96 63 97
REMARK SMILES IDX 64 98 65 99 66 100 67 101
REMARK H PARENT 7 19 7 20 91 51 57 62
REMARK Flexibility Score: inf
ROOT
ATOM      1  C   UNL A   1      35.160  32.409  30.234  1.00  0.00     0.274 C 
ENDROOT
BRANCH   1   2
ATOM      2  O   UNL A   1      34.953  31.525  29.116  1.00  0.00    -0.460 OA
BRANCH   2   3
ATOM      3  C   UNL A   1      34.410  32.088  28.006  1.00  0.00     0.344 C 
ATOM      4  O   UNL A   1      34.643  33.229  27.619  1.00  0.00    -0.248 OA
BRANCH   3   5
ATOM      5  C   UNL A   1      33.398  31.159  27.330  1.00  0.00     0.352 C 
BRANCH   5   6
ATOM      6  O   UNL A   1      33.816  30.102  26.491  1.00  0.00    -0.478 OA
BRANCH   6   7
ATOM      7  C   UNL A   1      33.132  28.923  26.516  1.00  0.00     0.162 A 
ATOM      8  C   UNL A   1      33.186  28.096  25.388  1.00  0.00     0.161 A 
ATOM      9  C   UNL A   1      32.276  27.034  25.253  1.00  0.00     0.060 A 
ATOM     10  C   UNL A   1      31.321  26.747  26.246  1.00  0.00     0.016 A 
ATOM     11  C   UNL A   1      32.260  28.602  27.549  1.00  0.00     0.051 A 
ATOM     12  C   UNL A   1      31.405  27.497  27.427  1.00  0.00     0.014 A 
BRANCH   8  13
ATOM     13  O   UNL A   1      34.038  28.264  24.324  1.00  0.00    -0.493 OA
ATOM     14  C   UNL A   1      33.459  28.862  23.168  1.00  0.00     0.278 C 
ENDBRANCH   8  13
BRANCH  10  15
ATOM     15  C   UNL A   1      30.241  25.683  25.951  1.00  0.00     0.243 C 
ATOM     16  N   UNL A   1      29.557  25.951  24.656  1.00  0.00    -0.338 N 
ATOM     17  C   UNL A   1      30.595  24.149  26.094  1.00  0.00     0.196 C 
ATOM     18  C   UNL A   1      30.301  25.457  23.491  1.00  0.00     0.265 C 
ATOM     19  H   UNL A   1      29.434  26.958  24.558  1.00  0.00     0.346 HD
ATOM     20  H   UNL A   1      28.669  25.452  24.678  1.00  0.00     0.346 HD
ATOM     21  C   UNL A   1      31.310  23.664  24.864  1.00  0.00    -0.025 C 
ATOM     22  N   UNL A   1      31.518  23.863  27.229  1.00  0.00    -0.270 NA
ATOM     23  C   UNL A   1      30.650  23.959  23.562  1.00  0.00     0.095 C 
ATOM     24  C   UNL A   1      32.533  23.241  25.164  1.00  0.00     0.001 A 
ATOM     25  C   UNL A   1      32.577  23.407  26.630  1.00  0.00     0.066 A 
ATOM     26  C   UNL A   1      33.703  22.954  24.399  1.00  0.00     0.010 A 
ATOM     27  C   UNL A   1      33.879  23.154  27.279  1.00  0.00     0.028 A 
ATOM     28  C   UNL A   1      34.874  22.847  25.049  1.00  0.00     0.001 A 
ATOM     29  C   UNL A   1      34.952  22.933  26.500  1.00  0.00     0.002 A 
ENDBRANCH  10  15
ENDBRANCH   6   7
ENDBRANCH   5   6
ENDBRANCH   3   5
ENDBRANCH   2   3
ENDBRANCH   1   2
BRANCH   1  30
ATOM     30  C   UNL A   1      35.724  31.599  31.399  1.00  0.00     0.275 C 
BRANCH  30  31
ATOM     31  O   UNL A   1      36.169  30.329  30.895  1.00  0.00    -0.458 OA
BRANCH  31  32
ATOM     32  C   UNL A   1      37.145  29.729  31.618  1.00  0.00     0.338 C 
ATOM     33  O   UNL A   1      37.022  29.301  32.764  1.00  0.00    -0.246 OA
BRANCH  32  34
ATOM     34  C   UNL A   1      38.388  29.604  30.812  1.00  0.00     0.060 A 
ATOM     35  C   UNL A   1      38.423  29.975  29.469  1.00  0.00     0.016 A 
ATOM     36  C   UNL A   1      39.536  29.057  31.387  1.00  0.00     0.016 A 
ATOM     37  C   UNL A   1      39.539  29.684  28.679  1.00  0.00     0.010 A 
ATOM     38  C   UNL A   1      40.698  28.885  30.618  1.00  0.00     0.010 A 
ATOM     39  C   UNL A   1      40.714  29.178  29.241  1.00  0.00    -0.014 A 
BRANCH  39  40
ATOM     40  C   UNL A   1      41.962  28.976  28.436  1.00  0.00     0.031 A 
ATOM     41  C   UNL A   1      42.265  27.617  27.850  1.00  0.00     0.074 A 
ATOM     42  C   UNL A   1      42.867  29.968  28.274  1.00  0.00     0.049 A 
ATOM     43  N   UNL A   1      43.417  27.095  27.516  1.00  0.00    -0.248 NA
ATOM     44  C   UNL A   1      41.117  26.720  27.636  1.00  0.00     0.031 C 
ATOM     45  C   UNL A   1      42.703  31.364  28.686  1.00  0.00     0.029 A 
ATOM     46  N   UNL A   1      44.137  29.941  27.736  1.00  0.00    -0.354 N 
ATOM     47  C   UNL A   1      43.147  25.779  27.149  1.00  0.00     0.074 A 
ATOM     48  C   UNL A   1      41.716  25.595  27.267  1.00  0.00     0.031 C 
ATOM     49  C   UNL A   1      43.804  32.058  28.370  1.00  0.00     0.029 A 
ATOM     50  C   UNL A   1      44.811  31.134  27.872  1.00  0.00     0.049 A 
ATOM     51  H   UNL A   1      44.522  29.148  27.299  1.00  0.00     0.167 HD
ATOM     52  C   UNL A   1      44.024  24.816  26.774  1.00  0.00     0.037 A 
ATOM     53  C   UNL A   1      46.113  31.446  27.716  1.00  0.00     0.037 A 
ATOM     54  C   UNL A   1      45.435  25.050  26.584  1.00  0.00     0.049 A 
ATOM     55  C   UNL A   1      47.083  30.360  27.351  1.00  0.00     0.074 A 
ATOM     56  C   UNL A   1      46.414  24.151  26.194  1.00  0.00     0.029 A 
ATOM     57  N   UNL A   1      46.062  26.277  26.744  1.00  0.00    -0.354 N 
ATOM     58  N   UNL A   1      46.845  29.090  27.124  1.00  0.00    -0.248 NA
ATOM     59  C   UNL A   1      48.499  30.737  27.253  1.00  0.00     0.031 C 
ATOM     60  C   UNL A   1      47.638  24.828  26.154  1.00  0.00     0.029 A 
ATOM     61  C   UNL A   1      47.414  26.158  26.471  1.00  0.00     0.049 A 
ATOM     62  H   UNL A   1      45.612  27.110  27.013  1.00  0.00     0.167 HD
ATOM     63  C   UNL A   1      48.078  28.522  26.830  1.00  0.00     0.074 A 
ATOM     64  C   UNL A   1      49.058  29.585  26.907  1.00  0.00     0.031 C 
ATOM     65  C   UNL A   1      48.370  27.236  26.523  1.00  0.00     0.037 A 
BRANCH  52  66
ATOM     66  C   UNL A   1      43.513  23.409  26.599  1.00  0.00     0.058 A 
ATOM     67  C   UNL A   1      43.409  22.790  25.346  1.00  0.00     0.135 A 
ATOM     68  C   UNL A   1      43.179  22.643  27.732  1.00  0.00     0.135 A 
ATOM     69  F   UNL A   1      43.704  23.473  24.228  1.00  0.00    -0.206 F 
ATOM     70  C   UNL A   1      42.971  21.473  25.218  1.00  0.00     0.059 A 
ATOM     71  C   UNL A   1      42.766  21.318  27.630  1.00  0.00     0.059 A 
ATOM     72  F   UNL A   1      43.264  23.181  28.959  1.00  0.00    -0.206 F 
ATOM     73  C   UNL A   1      42.652  20.745  26.366  1.00  0.00     0.060 A 
BRANCH  73  74
ATOM     74  S   UNL A   1      42.101  19.034  26.188  1.00  0.00     0.124 S 
ATOM     75  O   UNL A   1      43.029  18.530  25.180  1.00  0.00    -0.237 OA
ATOM     76  O   UNL A   1      42.283  18.504  27.536  1.00  0.00    -0.237 OA
ATOM     77  O   UNL A   1      40.714  19.165  25.753  1.00  0.00    -0.744 OA
ENDBRANCH  73  74
ENDBRANCH  52  66
BRANCH  53  78
ATOM     78  C   UNL A   1      46.583  32.832  27.993  1.00  0.00     0.058 A 
ATOM     79  C   UNL A   1      46.492  33.833  27.015  1.00  0.00     0.135 A 
ATOM     80  C   UNL A   1      47.098  33.193  29.249  1.00  0.00     0.135 A 
ATOM     81  F   UNL A   1      46.021  33.536  25.794  1.00  0.00    -0.206 F 
ATOM     82  C   UNL A   1      46.895  35.141  27.270  1.00  0.00     0.059 A 
ATOM     83  C   UNL A   1      47.476  34.500  29.539  1.00  0.00     0.059 A 
ATOM     84  F   UNL A   1      47.197  32.277  30.225  1.00  0.00    -0.206 F 
ATOM     85  C   UNL A   1      47.379  35.466  28.539  1.00  0.00     0.060 A 
BRANCH  85  86
ATOM     86  S   UNL A   1      47.835  37.179  28.884  1.00  0.00     0.124 S 
ATOM     87  O   UNL A   1      48.485  37.053  30.184  1.00  0.00    -0.237 OA
ATOM     88  O   UNL A   1      48.711  37.497  27.761  1.00  0.00    -0.237 OA
ATOM     89  O   UNL A   1      46.552  37.874  28.883  1.00  0.00    -0.744 OA
ENDBRANCH  85  86
ENDBRANCH  53  78
BRANCH  65  90
ATOM     90  C   UNL A   1      49.794  26.915  26.173  1.00  0.00     0.058 A 
ATOM     91  C   UNL A   1      50.700  26.432  27.128  1.00  0.00     0.135 A 
ATOM     92  C   UNL A   1      50.231  27.029  24.844  1.00  0.00     0.135 A 
ATOM     93  F   UNL A   1      50.332  26.320  28.413  1.00  0.00    -0.206 F 
ATOM     94  C   UNL A   1      51.997  26.073  26.776  1.00  0.00     0.059 A 
ATOM     95  C   UNL A   1      51.515  26.655  24.466  1.00  0.00     0.059 A 
ATOM     96  F   UNL A   1      49.398  27.485  23.894  1.00  0.00    -0.206 F 
ATOM     97  C   UNL A   1      52.393  26.182  25.441  1.00  0.00     0.060 A 
BRANCH  97  98
ATOM     98  S   UNL A   1      54.057  25.652  24.984  1.00  0.00     0.124 S 
ATOM     99  O   UNL A   1      53.978  24.211  25.207  1.00  0.00    -0.237 OA
ATOM    100  O   UNL A   1      54.148  26.074  23.591  1.00  0.00    -0.237 OA
ATOM    101  O   UNL A   1      54.914  26.385  25.912  1.00  0.00    -0.744 OA
ENDBRANCH  97  98
ENDBRANCH  65  90
ENDBRANCH  39  40
ENDBRANCH  32  34
ENDBRANCH  31  32
ENDBRANCH  30  31
ENDBRANCH   1  30
TORSDOF 18
ENDMDL
MODEL 3
REMARK VINA RESULT:     -11.2      5.495     10.281
REMARK SMILES COc1cc([C@H]2[NH2+]CCC3=c4ccccc4=N[C@H]32)ccc1OCC(=O)OCCOC(=O)c1ccc(-c2c3nc(c(-c4c(F)cc(S(=O)(=O)[O-])cc4F)c4ccc([nH]4)c(-c4c(F)cc(S(=O)(=O)[O-])cc4F)c4nc(c(-c5c(F)cc(S(=O)(=O)[O-])cc5F)c5ccc2[nH]5)C=C4)C=C3)cc1
REMARK SMILES IDX 27 1 26 2 24 3 25 4 23 5 22 6 21 7 3 8 4 9 5 10 20 11 19 12
REMARK SMILES IDX 2 13 1 14 6 15 7 16 18 17 8 18 10 21 17 22 9 23 11 24 16 25
REMARK SMILES IDX 12 26 15 27 13 28 14 29 28 30 29 31 30 32 31 33 32 34 33 35
REMARK SMILES IDX 97 36 34 37 96 38 35 39 36 40 37 41 90 42 38 43 95 44 89 45
REMARK SMILES IDX 91 46 39 47 94 48 88 49 87 50 40 52 74 53 53 54 73 55 54 56
REMARK SMILES IDX 57 57 72 58 92 59 55 60 56 61 71 63 93 64 58 65 41 66 42 67
REMARK SMILES IDX 51 68 43 69 44 70 50 71 52 72 45 73 46 74 47 75 48 76 49 77
REMARK SMILES IDX 75 78 76 79 85 80 77 81 78 82 84 83 86 84 79 85 80 86 81 87
REMARK SMILES IDX 82 88 83 89 59 90 60 91 69 92 61 93 62 94 68 95 70 96 63 97
REMARK SMILES IDX 64 98 65 99 66 100 67 101
REMARK H PARENT 7 19 7 20 91 51 57 62
REMARK Flexibility Score: inf
ROOT
ATOM      1  C   UNL A   1      42.294  22.485  26.127  1.00  0.00     0.274 C 
ENDROOT
BRANCH   1   2
ATOM      2  O   UNL A   1      41.013  22.577  26.779  1.00  0.00    -0.460 OA
BRANCH   2   3
ATOM      3  C   UNL A   1      40.072  21.687  26.372  1.00  0.00     0.344 C 
ATOM      4  O   UNL A   1      40.289  20.502  26.144  1.00  0.00    -0.248 OA
BRANCH   3   5
ATOM      5  C   UNL A   1      38.713  22.355  26.144  1.00  0.00     0.352 C 
BRANCH   5   6
ATOM      6  O   UNL A   1      37.589  21.610  25.724  1.00  0.00    -0.478 OA
BRANCH   6   7
ATOM      7  C   UNL A   1      36.621  22.227  24.986  1.00  0.00     0.162 A 
ATOM      8  C   UNL A   1      35.282  22.018  25.336  1.00  0.00     0.161 A 
ATOM      9  C   UNL A   1      34.260  22.383  24.443  1.00  0.00     0.060 A 
ATOM     10  C   UNL A   1      34.540  22.993  23.206  1.00  0.00     0.016 A 
ATOM     11  C   UNL A   1      36.916  22.910  23.813  1.00  0.00     0.051 A 
ATOM     12  C   UNL A   1      35.880  23.328  22.966  1.00  0.00     0.014 A 
BRANCH   8  13
ATOM     13  O   UNL A   1      34.851  21.410  26.490  1.00  0.00    -0.493 OA
ATOM     14  C   UNL A   1      34.008  22.204  27.320  1.00  0.00     0.278 C 
ENDBRANCH   8  13
BRANCH  10  15
ATOM     15  C   UNL A   1      33.385  23.201  22.203  1.00  0.00     0.243 C 
ATOM     16  N   UNL A   1      32.367  22.121  22.318  1.00  0.00    -0.338 N 
ATOM     17  C   UNL A   1      32.692  24.618  22.092  1.00  0.00     0.196 C 
ATOM     18  C   UNL A   1      31.405  22.339  23.406  1.00  0.00     0.265 C 
ATOM     19  H   UNL A   1      32.849  21.239  22.485  1.00  0.00     0.346 HD
ATOM     20  H   UNL A   1      31.838  22.114  21.447  1.00  0.00     0.346 HD
ATOM     21  C   UNL A   1      31.678  24.788  23.189  1.00  0.00    -0.025 C 
ATOM     22  N   UNL A   1      33.645  25.753  22.254  1.00  0.00    -0.270 NA
ATOM     23  C   UNL A   1      30.678  23.695  23.334  1.00  0.00     0.095 C 
ATOM     24  C   UNL A   1      32.004  25.803  23.981  1.00  0.00     0.001 A 
ATOM     25  C   UNL A   1      33.224  26.329  23.339  1.00  0.00     0.066 A 
ATOM     26  C   UNL A   1      31.589  26.228  25.279  1.00  0.00     0.010 A 
ATOM     27  C   UNL A   1      33.937  27.400  24.065  1.00  0.00     0.028 A 
ATOM     28  C   UNL A   1      32.351  27.126  25.926  1.00  0.00     0.001 A 
ATOM     29  C   UNL A   1      33.522  27.723  25.302  1.00  0.00     0.002 A 
ENDBRANCH  10  15
ENDBRANCH   6   7
ENDBRANCH   5   6
ENDBRANCH   3   5
ENDBRANCH   2   3
ENDBRANCH   1   2
BRANCH   1  30
ATOM     30  C   UNL A   1      42.637  23.847  25.529  1.00  0.00     0.275 C 
BRANCH  30  31
ATOM     31  O   UNL A   1      41.600  24.775  25.891  1.00  0.00    -0.458 OA
BRANCH  31  32
ATOM     32  C   UNL A   1      41.952  26.082  25.843  1.00  0.00     0.338 C 
ATOM     33  O   UNL A   1      42.475  26.645  24.884  1.00  0.00    -0.246 OA
BRANCH  32  34
ATOM     34  C   UNL A   1      41.567  26.771  27.103  1.00  0.00     0.060 A 
ATOM     35  C   UNL A   1      42.039  28.047  27.407  1.00  0.00     0.016 A 
ATOM     36  C   UNL A   1      40.760  26.115  28.034  1.00  0.00     0.016 A 
ATOM     37  C   UNL A   1      41.819  28.606  28.669  1.00  0.00     0.010 A 
ATOM     38  C   UNL A   1      40.437  26.736  29.251  1.00  0.00     0.010 A 
ATOM     39  C   UNL A   1      40.978  27.988  29.600  1.00  0.00    -0.014 A 
BRANCH  39  40
ATOM     40  C   UNL A   1      40.630  28.629  30.909  1.00  0.00     0.031 A 
ATOM     41  C   UNL A   1      39.497  29.626  30.978  1.00  0.00     0.074 A 
ATOM     42  C   UNL A   1      41.351  28.389  32.028  1.00  0.00     0.049 A 
ATOM     43  N   UNL A   1      39.294  30.594  31.834  1.00  0.00    -0.248 NA
ATOM     44  C   UNL A   1      38.470  29.531  29.927  1.00  0.00     0.031 C 
ATOM     45  C   UNL A   1      42.415  27.393  32.174  1.00  0.00     0.029 A 
ATOM     46  N   UNL A   1      41.313  28.998  33.264  1.00  0.00    -0.354 N 
ATOM     47  C   UNL A   1      38.177  31.285  31.370  1.00  0.00     0.074 A 
ATOM     48  C   UNL A   1      37.726  30.601  30.176  1.00  0.00     0.031 C 
ATOM     49  C   UNL A   1      42.908  27.441  33.418  1.00  0.00     0.029 A 
ATOM     50  C   UNL A   1      42.305  28.567  34.115  1.00  0.00     0.049 A 
ATOM     51  H   UNL A   1      40.643  29.674  33.514  1.00  0.00     0.167 HD
ATOM     52  C   UNL A   1      37.607  32.401  31.887  1.00  0.00     0.037 A 
ATOM     53  C   UNL A   1      42.762  29.066  35.281  1.00  0.00     0.037 A 
ATOM     54  C   UNL A   1      38.025  33.012  33.125  1.00  0.00     0.049 A 
ATOM     55  C   UNL A   1      42.156  30.331  35.817  1.00  0.00     0.074 A 
ATOM     56  C   UNL A   1      37.511  34.137  33.749  1.00  0.00     0.029 A 
ATOM     57  N   UNL A   1      39.042  32.535  33.939  1.00  0.00    -0.354 N 
ATOM     58  N   UNL A   1      41.183  31.052  35.313  1.00  0.00    -0.248 NA
ATOM     59  C   UNL A   1      42.728  30.870  37.057  1.00  0.00     0.031 C 
ATOM     60  C   UNL A   1      38.242  34.358  34.922  1.00  0.00     0.029 A 
ATOM     61  C   UNL A   1      39.177  33.345  35.054  1.00  0.00     0.049 A 
ATOM     62  H   UNL A   1      39.588  31.737  33.752  1.00  0.00     0.167 HD
ATOM     63  C   UNL A   1      41.008  32.115  36.190  1.00  0.00     0.074 A 
ATOM     64  C   UNL A   1      41.975  31.944  37.255  1.00  0.00     0.031 C 
ATOM     65  C   UNL A   1      40.126  33.140  36.119  1.00  0.00     0.037 A 
BRANCH  52  66
ATOM     66  C   UNL A   1      36.511  33.075  31.103  1.00  0.00     0.058 A 
ATOM     67  C   UNL A   1      35.163  33.023  31.484  1.00  0.00     0.135 A 
ATOM     68  C   UNL A   1      36.838  33.847  29.972  1.00  0.00     0.135 A 
ATOM     69  F   UNL A   1      34.789  32.295  32.548  1.00  0.00    -0.206 F 
ATOM     70  C   UNL A   1      34.176  33.691  30.761  1.00  0.00     0.059 A 
ATOM     71  C   UNL A   1      35.872  34.544  29.252  1.00  0.00     0.059 A 
ATOM     72  F   UNL A   1      38.113  33.938  29.563  1.00  0.00    -0.206 F 
ATOM     73  C   UNL A   1      34.540  34.450  29.647  1.00  0.00     0.060 A 
BRANCH  73  74
ATOM     74  S   UNL A   1      33.253  35.323  28.727  1.00  0.00     0.124 S 
ATOM     75  O   UNL A   1      32.511  35.969  29.806  1.00  0.00    -0.237 OA
ATOM     76  O   UNL A   1      34.030  36.215  27.872  1.00  0.00    -0.237 OA
ATOM     77  O   UNL A   1      32.544  34.254  28.032  1.00  0.00    -0.744 OA
ENDBRANCH  73  74
ENDBRANCH  52  66
BRANCH  53  78
ATOM     78  C   UNL A   1      43.911  28.414  35.970  1.00  0.00     0.058 A 
ATOM     79  C   UNL A   1      45.225  28.848  35.746  1.00  0.00     0.135 A 
ATOM     80  C   UNL A   1      43.716  27.372  36.890  1.00  0.00     0.135 A 
ATOM     81  F   UNL A   1      45.466  29.830  34.864  1.00  0.00    -0.206 F 
ATOM     82  C   UNL A   1      46.305  28.271  36.408  1.00  0.00     0.059 A 
ATOM     83  C   UNL A   1      44.775  26.802  37.589  1.00  0.00     0.059 A 
ATOM     84  F   UNL A   1      42.477  26.925  37.151  1.00  0.00    -0.206 F 
ATOM     85  C   UNL A   1      46.069  27.253  37.334  1.00  0.00     0.060 A 
BRANCH  85  86
ATOM     86  S   UNL A   1      47.468  26.558  38.239  1.00  0.00     0.124 S 
ATOM     87  O   UNL A   1      48.494  26.513  37.203  1.00  0.00    -0.237 OA
ATOM     88  O   UNL A   1      47.671  27.543  39.297  1.00  0.00    -0.237 OA
ATOM     89  O   UNL A   1      46.967  25.263  38.690  1.00  0.00    -0.744 OA
ENDBRANCH  85  86
ENDBRANCH  53  78
BRANCH  65  90
ATOM     90  C   UNL A   1      40.109  34.117  37.258  1.00  0.00     0.058 A 
ATOM     91  C   UNL A   1      40.805  35.334  37.200  1.00  0.00     0.135 A 
ATOM     92  C   UNL A   1      39.325  33.856  38.393  1.00  0.00     0.135 A 
ATOM     93  F   UNL A   1      41.578  35.621  36.142  1.00  0.00    -0.206 F 
ATOM     94  C   UNL A   1      40.725  36.261  38.233  1.00  0.00     0.059 A 
ATOM     95  C   UNL A   1      39.214  34.779  39.427  1.00  0.00     0.059 A 
ATOM     96  F   UNL A   1      38.641  32.706  38.493  1.00  0.00    -0.206 F 
ATOM     97  C   UNL A   1      39.921  35.977  39.340  1.00  0.00     0.060 A 
BRANCH  97  98
ATOM     98  S   UNL A   1      39.773  37.216  40.645  1.00  0.00     0.124 S 
ATOM     99  O   UNL A   1      41.161  37.359  41.074  1.00  0.00    -0.237 OA
ATOM    100  O   UNL A   1      39.210  38.357  39.929  1.00  0.00    -0.237 OA
ATOM    101  O   UNL A   1      38.878  36.587  41.611  1.00  0.00    -0.744 OA
ENDBRANCH  97  98
ENDBRANCH  65  90
ENDBRANCH  39  40
ENDBRANCH  32  34
ENDBRANCH  31  32
ENDBRANCH  30  31
ENDBRANCH   1  30
TORSDOF 18
ENDMDL
