MODEL 1
REMARK VINA RESULT:     -11.6      0.000      0.000
REMARK SMILES CC(C)CSc1cc2c(cc1Cl)C=C(C(=O)OCCOC(=O)c1ccc(-c3c4nc(c(-c5c(F)cc(S(=O)(=O)[O-])cc5F)c5ccc([nH]5)c(-c5c(F)cc(S(=O)(=O)[O-])cc5F)c5nc(c(-c6c(F)cc(S(=O)(=O)[O-])cc6F)c6ccc3[nH]6)C=C5)C=C4)cc1)[C@H](C(F)(F)F)O2
REMARK SMILES IDX 18 1 17 2 15 3 16 4 14 5 6 6 7 7 11 8 8 9 10 10 12 11 9 12
REMARK SMILES IDX 94 13 13 14 89 15 5 16 4 17 2 18 1 19 3 20 90 21 91 22 92 23
REMARK SMILES IDX 93 24 19 25 20 26 21 27 22 28 23 29 24 30 88 31 25 32 87 33
REMARK SMILES IDX 26 34 27 35 28 36 81 37 29 38 86 39 80 40 82 41 30 42 85 43
REMARK SMILES IDX 79 44 78 45 31 47 65 48 44 49 64 50 45 51 48 52 63 53 83 54
REMARK SMILES IDX 46 55 47 56 62 58 84 59 49 60 32 61 33 62 42 63 34 64 35 65
REMARK SMILES IDX 41 66 43 67 36 68 37 69 38 70 39 71 40 72 66 73 67 74 76 75
REMARK SMILES IDX 68 76 69 77 75 78 77 79 70 80 71 81 72 82 73 83 74 84 50 85
REMARK SMILES IDX 51 86 60 87 52 88 53 89 59 90 61 91 54 92 55 93 56 94 57 95
REMARK SMILES IDX 58 96
REMARK H PARENT 82 46 48 57
REMARK Flexibility Score: inf
ROOT
ATOM      1  C   UNL A   1      34.029  31.991  27.953  1.00  0.00     0.275 C 
ENDROOT
BRANCH   1   2
ATOM      2  O   UNL A   1      33.990  30.807  27.125  1.00  0.00    -0.459 OA
BRANCH   2   3
ATOM      3  C   UNL A   1      32.767  30.471  26.651  1.00  0.00     0.338 C 
ATOM      4  O   UNL A   1      31.740  31.104  26.806  1.00  0.00    -0.246 OA
BRANCH   3   5
ATOM      5  C   UNL A   1      32.837  29.233  25.843  1.00  0.00     0.087 C 
ATOM      6  C   UNL A   1      34.127  24.693  24.098  1.00  0.00     0.030 A 
ATOM      7  C   UNL A   1      33.647  25.871  23.501  1.00  0.00     0.063 A 
ATOM      8  C   UNL A   1      34.330  24.669  25.489  1.00  0.00     0.055 A 
ATOM      9  C   UNL A   1      33.364  26.998  24.275  1.00  0.00     0.129 A 
ATOM     10  C   UNL A   1      34.048  25.797  26.260  1.00  0.00     0.033 A 
ATOM     11  Cl  UNL A   1      34.919  23.271  26.324  1.00  0.00    -0.083 Cl
ATOM     12  C   UNL A   1      33.585  26.965  25.649  1.00  0.00     0.019 A 
ATOM     13  O   UNL A   1      32.939  28.118  23.614  1.00  0.00    -0.475 OA
ATOM     14  C   UNL A   1      33.419  28.177  26.424  1.00  0.00     0.027 C 
ATOM     15  C   UNL A   1      32.392  29.220  24.406  1.00  0.00     0.316 C 
BRANCH   6  16
ATOM     16  S   UNL A   1      34.531  23.295  23.055  1.00  0.00    -0.124 SA
BRANCH  16  17
ATOM     17  C   UNL A   1      32.965  22.357  23.074  1.00  0.00     0.078 C 
BRANCH  17  18
ATOM     18  C   UNL A   1      32.816  21.357  24.237  1.00  0.00    -0.007 C 
ATOM     19  C   UNL A   1      31.719  21.750  25.228  1.00  0.00     0.008 C 
ATOM     20  C   UNL A   1      32.492  19.972  23.665  1.00  0.00     0.008 C 
ENDBRANCH  17  18
ENDBRANCH  16  17
ENDBRANCH   6  16
BRANCH  15  21
ATOM     21  C   UNL A   1      30.868  29.328  24.184  1.00  0.00     0.430 C 
ATOM     22  F   UNL A   1      30.215  28.404  24.937  1.00  0.00    -0.167 F 
ATOM     23  F   UNL A   1      30.382  30.538  24.558  1.00  0.00    -0.167 F 
ATOM     24  F   UNL A   1      30.497  29.136  22.901  1.00  0.00    -0.167 F 
ENDBRANCH  15  21
ENDBRANCH   3   5
ENDBRANCH   2   3
ENDBRANCH   1   2
BRANCH   1  25
ATOM     25  C   UNL A   1      35.056  31.834  29.074  1.00  0.00     0.275 C 
BRANCH  25  26
ATOM     26  O   UNL A   1      35.619  30.510  29.030  1.00  0.00    -0.458 OA
BRANCH  26  27
ATOM     27  C   UNL A   1      36.306  30.115  30.123  1.00  0.00     0.338 C 
ATOM     28  O   UNL A   1      35.869  29.941  31.254  1.00  0.00    -0.246 OA
BRANCH  27  29
ATOM     29  C   UNL A   1      37.713  29.890  29.760  1.00  0.00     0.060 A 
ATOM     30  C   UNL A   1      38.644  29.519  30.726  1.00  0.00     0.016 A 
ATOM     31  C   UNL A   1      38.086  29.951  28.420  1.00  0.00     0.016 A 
ATOM     32  C   UNL A   1      39.957  29.227  30.336  1.00  0.00     0.010 A 
ATOM     33  C   UNL A   1      39.357  29.546  28.021  1.00  0.00     0.010 A 
ATOM     34  C   UNL A   1      40.322  29.199  28.976  1.00  0.00    -0.014 A 
BRANCH  34  35
ATOM     35  C   UNL A   1      41.694  28.805  28.539  1.00  0.00     0.031 A 
ATOM     36  C   UNL A   1      42.818  29.815  28.515  1.00  0.00     0.074 A 
ATOM     37  C   UNL A   1      41.922  27.549  28.105  1.00  0.00     0.049 A 
ATOM     38  N   UNL A   1      44.052  29.670  28.100  1.00  0.00    -0.248 NA
ATOM     39  C   UNL A   1      42.506  31.176  28.980  1.00  0.00     0.031 C 
ATOM     40  C   UNL A   1      40.913  26.492  27.998  1.00  0.00     0.029 A 
ATOM     41  N   UNL A   1      43.077  26.942  27.677  1.00  0.00    -0.354 N 
ATOM     42  C   UNL A   1      44.648  30.922  28.221  1.00  0.00     0.074 A 
ATOM     43  C   UNL A   1      43.625  31.827  28.696  1.00  0.00     0.031 C 
ATOM     44  C   UNL A   1      41.502  25.356  27.595  1.00  0.00     0.029 A 
ATOM     45  C   UNL A   1      42.921  25.609  27.372  1.00  0.00     0.049 A 
ATOM     46  H   UNL A   1      43.936  27.416  27.596  1.00  0.00     0.167 HD
ATOM     47  C   UNL A   1      45.934  31.283  27.991  1.00  0.00     0.037 A 
ATOM     48  C   UNL A   1      43.819  24.689  26.967  1.00  0.00     0.037 A 
ATOM     49  C   UNL A   1      46.967  30.367  27.577  1.00  0.00     0.049 A 
ATOM     50  C   UNL A   1      45.256  25.091  26.794  1.00  0.00     0.074 A 
ATOM     51  C   UNL A   1      48.312  30.622  27.369  1.00  0.00     0.029 A 
ATOM     52  N   UNL A   1      46.775  29.016  27.331  1.00  0.00    -0.354 N 
ATOM     53  N   UNL A   1      45.804  26.273  26.941  1.00  0.00    -0.248 NA
ATOM     54  C   UNL A   1      46.201  24.032  26.411  1.00  0.00     0.031 C 
ATOM     55  C   UNL A   1      48.930  29.426  26.981  1.00  0.00     0.029 A 
ATOM     56  C   UNL A   1      47.977  28.422  26.984  1.00  0.00     0.049 A 
ATOM     57  H   UNL A   1      45.911  28.547  27.393  1.00  0.00     0.167 HD
ATOM     58  C   UNL A   1      47.159  26.098  26.689  1.00  0.00     0.074 A 
ATOM     59  C   UNL A   1      47.351  24.693  26.394  1.00  0.00     0.031 C 
ATOM     60  C   UNL A   1      48.154  27.019  26.701  1.00  0.00     0.037 A 
BRANCH  47  61
ATOM     61  C   UNL A   1      46.305  32.725  28.210  1.00  0.00     0.058 A 
ATOM     62  C   UNL A   1      46.771  33.183  29.453  1.00  0.00     0.135 A 
ATOM     63  C   UNL A   1      46.228  33.657  27.161  1.00  0.00     0.135 A 
ATOM     64  F   UNL A   1      46.853  32.341  30.496  1.00  0.00    -0.206 F 
ATOM     65  C   UNL A   1      47.113  34.516  29.659  1.00  0.00     0.059 A 
ATOM     66  C   UNL A   1      46.593  34.990  27.336  1.00  0.00     0.059 A 
ATOM     67  F   UNL A   1      45.794  33.276  25.949  1.00  0.00    -0.206 F 
ATOM     68  C   UNL A   1      47.019  35.413  28.595  1.00  0.00     0.060 A 
BRANCH  68  69
ATOM     69  S   UNL A   1      47.470  37.138  28.880  1.00  0.00     0.124 S 
ATOM     70  O   UNL A   1      46.160  37.756  29.056  1.00  0.00    -0.237 OA
ATOM     71  O   UNL A   1      48.294  37.051  30.082  1.00  0.00    -0.237 OA
ATOM     72  O   UNL A   1      48.181  37.510  27.661  1.00  0.00    -0.744 OA
ENDBRANCH  68  69
ENDBRANCH  47  61
BRANCH  48  73
ATOM     73  C   UNL A   1      43.386  23.280  26.771  1.00  0.00     0.058 A 
ATOM     74  C   UNL A   1      43.325  22.726  25.484  1.00  0.00     0.135 A 
ATOM     75  C   UNL A   1      43.082  22.446  27.857  1.00  0.00     0.135 A 
ATOM     76  F   UNL A   1      43.602  23.487  24.412  1.00  0.00    -0.206 F 
ATOM     77  C   UNL A   1      42.978  21.396  25.277  1.00  0.00     0.059 A 
ATOM     78  C   UNL A   1      42.753  21.106  27.678  1.00  0.00     0.059 A 
ATOM     79  F   UNL A   1      43.143  22.925  29.109  1.00  0.00    -0.206 F 
ATOM     80  C   UNL A   1      42.702  20.590  26.383  1.00  0.00     0.060 A 
BRANCH  80  81
ATOM     81  S   UNL A   1      42.338  18.843  26.108  1.00  0.00     0.124 S 
ATOM     82  O   UNL A   1      40.935  18.891  25.714  1.00  0.00    -0.237 OA
ATOM     83  O   UNL A   1      43.285  18.495  25.052  1.00  0.00    -0.237 OA
ATOM     84  O   UNL A   1      42.610  18.234  27.407  1.00  0.00    -0.744 OA
ENDBRANCH  80  81
ENDBRANCH  48  73
BRANCH  60  85
ATOM     85  C   UNL A   1      49.547  26.530  26.425  1.00  0.00     0.058 A 
ATOM     86  C   UNL A   1      50.345  25.969  27.433  1.00  0.00     0.135 A 
ATOM     87  C   UNL A   1      50.076  26.593  25.125  1.00  0.00     0.135 A 
ATOM     88  F   UNL A   1      49.887  25.890  28.692  1.00  0.00    -0.206 F 
ATOM     89  C   UNL A   1      51.633  25.513  27.169  1.00  0.00     0.059 A 
ATOM     90  C   UNL A   1      51.351  26.121  24.834  1.00  0.00     0.059 A 
ATOM     91  F   UNL A   1      49.348  27.111  24.124  1.00  0.00    -0.206 F 
ATOM     92  C   UNL A   1      52.128  25.596  25.866  1.00  0.00     0.060 A 
BRANCH  92  93
ATOM     93  S   UNL A   1      53.796  24.990  25.532  1.00  0.00     0.124 S 
ATOM     94  O   UNL A   1      54.484  25.324  26.775  1.00  0.00    -0.237 OA
ATOM     95  O   UNL A   1      53.572  23.567  25.295  1.00  0.00    -0.237 OA
ATOM     96  O   UNL A   1      54.208  25.756  24.361  1.00  0.00    -0.744 OA
ENDBRANCH  92  93
ENDBRANCH  60  85
ENDBRANCH  34  35
ENDBRANCH  27  29
ENDBRANCH  26  27
ENDBRANCH  25  26
ENDBRANCH   1  25
TORSDOF 18
ENDMDL
MODEL 2
REMARK VINA RESULT:     -11.2      4.838     10.477
REMARK SMILES CC(C)CSc1cc2c(cc1Cl)C=C(C(=O)OCCOC(=O)c1ccc(-c3c4nc(c(-c5c(F)cc(S(=O)(=O)[O-])cc5F)c5ccc([nH]5)c(-c5c(F)cc(S(=O)(=O)[O-])cc5F)c5nc(c(-c6c(F)cc(S(=O)(=O)[O-])cc6F)c6ccc3[nH]6)C=C5)C=C4)cc1)[C@H](C(F)(F)F)O2
REMARK SMILES IDX 18 1 17 2 15 3 16 4 14 5 6 6 7 7 11 8 8 9 10 10 12 11 9 12
REMARK SMILES IDX 94 13 13 14 89 15 5 16 4 17 2 18 1 19 3 20 90 21 91 22 92 23
REMARK SMILES IDX 93 24 19 25 20 26 21 27 22 28 23 29 24 30 88 31 25 32 87 33
REMARK SMILES IDX 26 34 27 35 28 36 81 37 29 38 86 39 80 40 82 41 30 42 85 43
REMARK SMILES IDX 79 44 78 45 31 47 65 48 44 49 64 50 45 51 48 52 63 53 83 54
REMARK SMILES IDX 46 55 47 56 62 58 84 59 49 60 32 61 33 62 42 63 34 64 35 65
REMARK SMILES IDX 41 66 43 67 36 68 37 69 38 70 39 71 40 72 66 73 67 74 76 75
REMARK SMILES IDX 68 76 69 77 75 78 77 79 70 80 71 81 72 82 73 83 74 84 50 85
REMARK SMILES IDX 51 86 60 87 52 88 53 89 59 90 61 91 54 92 55 93 56 94 57 95
REMARK SMILES IDX 58 96
REMARK H PARENT 82 46 48 57
REMARK Flexibility Score: inf
ROOT
ATOM      1  C   UNL A   1      36.325  21.099  25.337  1.00  0.00     0.275 C 
ENDROOT
BRANCH   1   2
ATOM      2  O   UNL A   1      35.529  21.834  26.294  1.00  0.00    -0.459 OA
BRANCH   2   3
ATOM      3  C   UNL A   1      34.189  21.736  26.130  1.00  0.00     0.338 C 
ATOM      4  O   UNL A   1      33.495  20.792  26.457  1.00  0.00    -0.246 OA
BRANCH   3   5
ATOM      5  C   UNL A   1      33.638  22.977  25.544  1.00  0.00     0.087 C 
ATOM      6  C   UNL A   1      32.214  27.755  24.854  1.00  0.00     0.030 A 
ATOM      7  C   UNL A   1      31.729  26.514  24.406  1.00  0.00     0.063 A 
ATOM      8  C   UNL A   1      33.346  27.782  25.688  1.00  0.00     0.055 A 
ATOM      9  C   UNL A   1      32.365  25.326  24.772  1.00  0.00     0.129 A 
ATOM     10  C   UNL A   1      33.978  26.593  26.054  1.00  0.00     0.033 A 
ATOM     11  Cl  UNL A   1      34.023  29.254  26.297  1.00  0.00    -0.083 Cl
ATOM     12  C   UNL A   1      33.474  25.368  25.612  1.00  0.00     0.019 A 
ATOM     13  O   UNL A   1      31.807  24.158  24.328  1.00  0.00    -0.475 OA
ATOM     14  C   UNL A   1      34.044  24.128  26.096  1.00  0.00     0.027 C 
ATOM     15  C   UNL A   1      32.582  22.926  24.473  1.00  0.00     0.316 C 
BRANCH   6  16
ATOM     16  S   UNL A   1      31.329  29.245  24.405  1.00  0.00    -0.124 SA
BRANCH  16  17
ATOM     17  C   UNL A   1      29.931  28.568  23.445  1.00  0.00     0.078 C 
BRANCH  17  18
ATOM     18  C   UNL A   1      28.844  29.592  23.063  1.00  0.00    -0.007 C 
ATOM     19  C   UNL A   1      29.130  30.304  21.739  1.00  0.00     0.008 C 
ATOM     20  C   UNL A   1      27.496  28.870  22.954  1.00  0.00     0.008 C 
ENDBRANCH  17  18
ENDBRANCH  16  17
ENDBRANCH   6  16
BRANCH  15  21
ATOM     21  C   UNL A   1      33.065  22.437  23.091  1.00  0.00     0.430 C 
ATOM     22  F   UNL A   1      34.387  22.706  22.930  1.00  0.00    -0.167 F 
ATOM     23  F   UNL A   1      32.928  21.096  22.947  1.00  0.00    -0.167 F 
ATOM     24  F   UNL A   1      32.409  23.010  22.059  1.00  0.00    -0.167 F 
ENDBRANCH  15  21
ENDBRANCH   3   5
ENDBRANCH   2   3
ENDBRANCH   1   2
BRANCH   1  25
ATOM     25  C   UNL A   1      37.329  22.021  24.647  1.00  0.00     0.275 C 
BRANCH  25  26
ATOM     26  O   UNL A   1      37.686  23.097  25.534  1.00  0.00    -0.458 OA
BRANCH  26  27
ATOM     27  C   UNL A   1      38.919  23.039  26.080  1.00  0.00     0.338 C 
ATOM     28  O   UNL A   1      39.737  22.133  25.978  1.00  0.00    -0.246 OA
BRANCH  27  29
ATOM     29  C   UNL A   1      39.175  24.274  26.837  1.00  0.00     0.060 A 
ATOM     30  C   UNL A   1      38.713  24.414  28.143  1.00  0.00     0.016 A 
ATOM     31  C   UNL A   1      39.975  25.263  26.271  1.00  0.00     0.016 A 
ATOM     32  C   UNL A   1      39.047  25.565  28.868  1.00  0.00     0.010 A 
ATOM     33  C   UNL A   1      40.403  26.348  27.032  1.00  0.00     0.010 A 
ATOM     34  C   UNL A   1      39.927  26.528  28.337  1.00  0.00    -0.014 A 
BRANCH  34  35
ATOM     35  C   UNL A   1      40.361  27.716  29.130  1.00  0.00     0.031 A 
ATOM     36  C   UNL A   1      41.726  27.759  29.776  1.00  0.00     0.074 A 
ATOM     37  C   UNL A   1      39.505  28.740  29.322  1.00  0.00     0.049 A 
ATOM     38  N   UNL A   1      42.245  28.674  30.557  1.00  0.00    -0.248 NA
ATOM     39  C   UNL A   1      42.611  26.604  29.550  1.00  0.00     0.031 C 
ATOM     40  C   UNL A   1      38.128  28.799  28.825  1.00  0.00     0.029 A 
ATOM     41  N   UNL A   1      39.665  29.934  29.983  1.00  0.00    -0.354 N 
ATOM     42  C   UNL A   1      43.493  28.191  30.939  1.00  0.00     0.074 A 
ATOM     43  C   UNL A   1      43.632  26.878  30.349  1.00  0.00     0.031 C 
ATOM     44  C   UNL A   1      37.593  29.988  29.143  1.00  0.00     0.029 A 
ATOM     45  C   UNL A   1      38.568  30.760  29.905  1.00  0.00     0.049 A 
ATOM     46  H   UNL A   1      40.488  30.175  30.467  1.00  0.00     0.167 HD
ATOM     47  C   UNL A   1      44.451  28.795  31.684  1.00  0.00     0.037 A 
ATOM     48  C   UNL A   1      38.369  32.005  30.383  1.00  0.00     0.037 A 
ATOM     49  C   UNL A   1      44.337  30.128  32.219  1.00  0.00     0.049 A 
ATOM     50  C   UNL A   1      39.473  32.687  31.139  1.00  0.00     0.074 A 
ATOM     51  C   UNL A   1      45.272  30.850  32.941  1.00  0.00     0.029 A 
ATOM     52  N   UNL A   1      43.229  30.949  32.071  1.00  0.00    -0.354 N 
ATOM     53  N   UNL A   1      40.656  32.224  31.465  1.00  0.00    -0.248 NA
ATOM     54  C   UNL A   1      39.222  34.065  31.582  1.00  0.00     0.031 C 
ATOM     55  C   UNL A   1      44.723  32.102  33.243  1.00  0.00     0.029 A 
ATOM     56  C   UNL A   1      43.461  32.172  32.678  1.00  0.00     0.049 A 
ATOM     57  H   UNL A   1      42.400  30.699  31.604  1.00  0.00     0.167 HD
ATOM     58  C   UNL A   1      41.298  33.259  32.134  1.00  0.00     0.074 A 
ATOM     59  C   UNL A   1      40.378  34.378  32.153  1.00  0.00     0.031 C 
ATOM     60  C   UNL A   1      42.538  33.279  32.681  1.00  0.00     0.037 A 
BRANCH  47  61
ATOM     61  C   UNL A   1      45.722  28.029  31.941  1.00  0.00     0.058 A 
ATOM     62  C   UNL A   1      45.873  27.215  33.074  1.00  0.00     0.135 A 
ATOM     63  C   UNL A   1      46.791  28.081  31.030  1.00  0.00     0.135 A 
ATOM     64  F   UNL A   1      44.890  27.136  33.986  1.00  0.00    -0.206 F 
ATOM     65  C   UNL A   1      47.047  26.507  33.315  1.00  0.00     0.059 A 
ATOM     66  C   UNL A   1      47.965  27.359  31.235  1.00  0.00     0.059 A 
ATOM     67  F   UNL A   1      46.702  28.840  29.926  1.00  0.00    -0.206 F 
ATOM     68  C   UNL A   1      48.089  26.588  32.390  1.00  0.00     0.060 A 
BRANCH  68  69
ATOM     69  S   UNL A   1      49.603  25.660  32.717  1.00  0.00     0.124 S 
ATOM     70  O   UNL A   1      50.347  26.602  33.547  1.00  0.00    -0.237 OA
ATOM     71  O   UNL A   1      49.101  24.474  33.403  1.00  0.00    -0.237 OA
ATOM     72  O   UNL A   1      50.153  25.426  31.386  1.00  0.00    -0.744 OA
ENDBRANCH  68  69
ENDBRANCH  47  61
BRANCH  48  73
ATOM     73  C   UNL A   1      37.090  32.705  30.091  1.00  0.00     0.058 A 
ATOM     74  C   UNL A   1      35.972  32.522  30.918  1.00  0.00     0.135 A 
ATOM     75  C   UNL A   1      36.974  33.608  29.024  1.00  0.00     0.135 A 
ATOM     76  F   UNL A   1      36.034  31.663  31.948  1.00  0.00    -0.206 F 
ATOM     77  C   UNL A   1      34.783  33.209  30.701  1.00  0.00     0.059 A 
ATOM     78  C   UNL A   1      35.801  34.324  28.798  1.00  0.00     0.059 A 
ATOM     79  F   UNL A   1      38.020  33.831  28.215  1.00  0.00    -0.206 F 
ATOM     80  C   UNL A   1      34.710  34.115  29.642  1.00  0.00     0.060 A 
BRANCH  80  81
ATOM     81  S   UNL A   1      33.189  35.064  29.422  1.00  0.00     0.124 S 
ATOM     82  O   UNL A   1      32.601  34.993  30.755  1.00  0.00    -0.237 OA
ATOM     83  O   UNL A   1      33.699  36.371  29.019  1.00  0.00    -0.237 OA
ATOM     84  O   UNL A   1      32.481  34.328  28.378  1.00  0.00    -0.744 OA
ENDBRANCH  80  81
ENDBRANCH  48  73
BRANCH  60  85
ATOM     85  C   UNL A   1      42.989  34.565  33.315  1.00  0.00     0.058 A 
ATOM     86  C   UNL A   1      42.854  34.795  34.692  1.00  0.00     0.135 A 
ATOM     87  C   UNL A   1      43.595  35.564  32.536  1.00  0.00     0.135 A 
ATOM     88  F   UNL A   1      42.278  33.873  35.478  1.00  0.00    -0.206 F 
ATOM     89  C   UNL A   1      43.280  35.986  35.273  1.00  0.00     0.059 A 
ATOM     90  C   UNL A   1      44.049  36.752  33.100  1.00  0.00     0.059 A 
ATOM     91  F   UNL A   1      43.757  35.387  31.216  1.00  0.00    -0.206 F 
ATOM     92  C   UNL A   1      43.874  36.960  34.467  1.00  0.00     0.060 A 
BRANCH  92  93
ATOM     93  S   UNL A   1      44.432  38.496  35.234  1.00  0.00     0.124 S 
ATOM     94  O   UNL A   1      45.878  38.402  35.059  1.00  0.00    -0.237 OA
ATOM     95  O   UNL A   1      43.762  39.512  34.428  1.00  0.00    -0.237 OA
ATOM     96  O   UNL A   1      43.957  38.382  36.608  1.00  0.00    -0.744 OA
ENDBRANCH  92  93
ENDBRANCH  60  85
ENDBRANCH  34  35
ENDBRANCH  27  29
ENDBRANCH  26  27
ENDBRANCH  25  26
ENDBRANCH   1  25
TORSDOF 18
ENDMDL
MODEL 3
REMARK VINA RESULT:     -11.2      1.299      2.037
REMARK SMILES CC(C)CSc1cc2c(cc1Cl)C=C(C(=O)OCCOC(=O)c1ccc(-c3c4nc(c(-c5c(F)cc(S(=O)(=O)[O-])cc5F)c5ccc([nH]5)c(-c5c(F)cc(S(=O)(=O)[O-])cc5F)c5nc(c(-c6c(F)cc(S(=O)(=O)[O-])cc6F)c6ccc3[nH]6)C=C5)C=C4)cc1)[C@H](C(F)(F)F)O2
REMARK SMILES IDX 18 1 17 2 15 3 16 4 14 5 6 6 7 7 11 8 8 9 10 10 12 11 9 12
REMARK SMILES IDX 94 13 13 14 89 15 5 16 4 17 2 18 1 19 3 20 90 21 91 22 92 23
REMARK SMILES IDX 93 24 19 25 20 26 21 27 22 28 23 29 24 30 88 31 25 32 87 33
REMARK SMILES IDX 26 34 27 35 28 36 81 37 29 38 86 39 80 40 82 41 30 42 85 43
REMARK SMILES IDX 79 44 78 45 31 47 65 48 44 49 64 50 45 51 48 52 63 53 83 54
REMARK SMILES IDX 46 55 47 56 62 58 84 59 49 60 32 61 33 62 42 63 34 64 35 65
REMARK SMILES IDX 41 66 43 67 36 68 37 69 38 70 39 71 40 72 66 73 67 74 76 75
REMARK SMILES IDX 68 76 69 77 75 78 77 79 70 80 71 81 72 82 73 83 74 84 50 85
REMARK SMILES IDX 51 86 60 87 52 88 53 89 59 90 61 91 54 92 55 93 56 94 57 95
REMARK SMILES IDX 58 96
REMARK H PARENT 82 46 48 57
REMARK Flexibility Score: inf
ROOT
ATOM      1  C   UNL A   1      33.716  30.945  27.617  1.00  0.00     0.275 C 
ENDROOT
BRANCH   1   2
ATOM      2  O   UNL A   1      32.708  29.910  27.550  1.00  0.00    -0.459 OA
BRANCH   2   3
ATOM      3  C   UNL A   1      32.151  29.721  26.331  1.00  0.00     0.338 C 
ATOM      4  O   UNL A   1      31.645  30.580  25.635  1.00  0.00    -0.246 OA
BRANCH   3   5
ATOM      5  C   UNL A   1      32.288  28.312  25.903  1.00  0.00     0.087 C 
ATOM      6  C   UNL A   1      31.995  23.291  25.707  1.00  0.00     0.030 A 
ATOM      7  C   UNL A   1      32.934  24.236  25.259  1.00  0.00     0.063 A 
ATOM      8  C   UNL A   1      30.841  23.743  26.374  1.00  0.00     0.055 A 
ATOM      9  C   UNL A   1      32.724  25.601  25.460  1.00  0.00     0.129 A 
ATOM     10  C   UNL A   1      30.635  25.108  26.576  1.00  0.00     0.033 A 
ATOM     11  Cl  UNL A   1      29.624  22.666  26.969  1.00  0.00    -0.083 Cl
ATOM     12  C   UNL A   1      31.586  26.032  26.137  1.00  0.00     0.019 A 
ATOM     13  O   UNL A   1      33.705  26.453  25.030  1.00  0.00    -0.475 OA
ATOM     14  C   UNL A   1      31.442  27.436  26.461  1.00  0.00     0.027 C 
ATOM     15  C   UNL A   1      33.406  27.884  24.991  1.00  0.00     0.316 C 
BRANCH   6  16
ATOM     16  S   UNL A   1      32.338  21.550  25.477  1.00  0.00    -0.124 SA
BRANCH  16  17
ATOM     17  C   UNL A   1      33.967  21.385  26.287  1.00  0.00     0.078 C 
BRANCH  17  18
ATOM     18  C   UNL A   1      35.060  20.724  25.426  1.00  0.00    -0.007 C 
ATOM     19  C   UNL A   1      34.556  19.510  24.643  1.00  0.00     0.008 C 
ATOM     20  C   UNL A   1      35.606  21.758  24.435  1.00  0.00     0.008 C 
ENDBRANCH  17  18
ENDBRANCH  16  17
ENDBRANCH   6  16
BRANCH  15  21
ATOM     21  C   UNL A   1      33.283  28.361  23.527  1.00  0.00     0.430 C 
ATOM     22  F   UNL A   1      31.985  28.327  23.126  1.00  0.00    -0.167 F 
ATOM     23  F   UNL A   1      33.698  29.642  23.370  1.00  0.00    -0.167 F 
ATOM     24  F   UNL A   1      33.992  27.611  22.657  1.00  0.00    -0.167 F 
ENDBRANCH  15  21
ENDBRANCH   3   5
ENDBRANCH   2   3
ENDBRANCH   1   2
BRANCH   1  25
ATOM     25  C   UNL A   1      35.103  30.338  27.824  1.00  0.00     0.275 C 
BRANCH  25  26
ATOM     26  O   UNL A   1      35.873  31.181  28.700  1.00  0.00    -0.458 OA
BRANCH  26  27
ATOM     27  C   UNL A   1      36.459  30.574  29.754  1.00  0.00     0.338 C 
ATOM     28  O   UNL A   1      36.017  30.468  30.891  1.00  0.00    -0.246 OA
BRANCH  27  29
ATOM     29  C   UNL A   1      37.752  30.011  29.336  1.00  0.00     0.060 A 
ATOM     30  C   UNL A   1      38.071  29.890  27.986  1.00  0.00     0.016 A 
ATOM     31  C   UNL A   1      38.699  29.695  30.307  1.00  0.00     0.016 A 
ATOM     32  C   UNL A   1      39.342  29.432  27.621  1.00  0.00     0.010 A 
ATOM     33  C   UNL A   1      39.999  29.354  29.941  1.00  0.00     0.010 A 
ATOM     34  C   UNL A   1      40.336  29.195  28.591  1.00  0.00    -0.014 A 
BRANCH  34  35
ATOM     35  C   UNL A   1      41.721  28.790  28.212  1.00  0.00     0.031 A 
ATOM     36  C   UNL A   1      42.846  29.799  28.198  1.00  0.00     0.074 A 
ATOM     37  C   UNL A   1      41.963  27.522  27.821  1.00  0.00     0.049 A 
ATOM     38  N   UNL A   1      44.094  29.643  27.830  1.00  0.00    -0.248 NA
ATOM     39  C   UNL A   1      42.519  31.172  28.615  1.00  0.00     0.031 C 
ATOM     40  C   UNL A   1      40.959  26.462  27.709  1.00  0.00     0.029 A 
ATOM     41  N   UNL A   1      43.133  26.904  27.449  1.00  0.00    -0.354 N 
ATOM     42  C   UNL A   1      44.685  30.899  27.936  1.00  0.00     0.074 A 
ATOM     43  C   UNL A   1      43.647  31.816  28.351  1.00  0.00     0.031 C 
ATOM     44  C   UNL A   1      41.560  25.316  27.358  1.00  0.00     0.029 A 
ATOM     45  C   UNL A   1      42.987  25.563  27.176  1.00  0.00     0.049 A 
ATOM     46  H   UNL A   1      43.994  27.376  27.384  1.00  0.00     0.167 HD
ATOM     47  C   UNL A   1      45.979  31.253  27.739  1.00  0.00     0.037 A 
ATOM     48  C   UNL A   1      43.897  24.633  26.828  1.00  0.00     0.037 A 
ATOM     49  C   UNL A   1      47.025  30.327  27.387  1.00  0.00     0.049 A 
ATOM     50  C   UNL A   1      45.339  25.030  26.692  1.00  0.00     0.074 A 
ATOM     51  C   UNL A   1      48.376  30.577  27.217  1.00  0.00     0.029 A 
ATOM     52  N   UNL A   1      46.841  28.970  27.171  1.00  0.00    -0.354 N 
ATOM     53  N   UNL A   1      45.882  26.217  26.825  1.00  0.00    -0.248 NA
ATOM     54  C   UNL A   1      46.296  23.962  26.370  1.00  0.00     0.031 C 
ATOM     55  C   UNL A   1      49.007  29.371  26.884  1.00  0.00     0.029 A 
ATOM     56  C   UNL A   1      48.054  28.367  26.882  1.00  0.00     0.049 A 
ATOM     57  H   UNL A   1      45.975  28.502  27.218  1.00  0.00     0.167 HD
ATOM     58  C   UNL A   1      47.245  26.035  26.623  1.00  0.00     0.074 A 
ATOM     59  C   UNL A   1      47.446  24.622  26.374  1.00  0.00     0.031 C 
ATOM     60  C   UNL A   1      48.239  26.957  26.644  1.00  0.00     0.037 A 
BRANCH  47  61
ATOM     61  C   UNL A   1      46.343  32.701  27.931  1.00  0.00     0.058 A 
ATOM     62  C   UNL A   1      46.163  33.646  26.909  1.00  0.00     0.135 A 
ATOM     63  C   UNL A   1      46.847  33.162  29.160  1.00  0.00     0.135 A 
ATOM     64  F   UNL A   1      45.698  33.262  25.708  1.00  0.00    -0.206 F 
ATOM     65  C   UNL A   1      46.500  34.985  27.083  1.00  0.00     0.059 A 
ATOM     66  C   UNL A   1      47.164  34.502  29.367  1.00  0.00     0.059 A 
ATOM     67  F   UNL A   1      47.036  32.305  30.177  1.00  0.00    -0.206 F 
ATOM     68  C   UNL A   1      47.002  35.403  28.315  1.00  0.00     0.060 A 
BRANCH  68  69
ATOM     69  S   UNL A   1      47.431  37.145  28.523  1.00  0.00     0.124 S 
ATOM     70  O   UNL A   1      46.138  37.789  28.318  1.00  0.00    -0.237 OA
ATOM     71  O   UNL A   1      47.945  37.179  29.889  1.00  0.00    -0.237 OA
ATOM     72  O   UNL A   1      48.422  37.378  27.478  1.00  0.00    -0.744 OA
ENDBRANCH  68  69
ENDBRANCH  47  61
BRANCH  48  73
ATOM     73  C   UNL A   1      43.470  23.219  26.656  1.00  0.00     0.058 A 
ATOM     74  C   UNL A   1      43.461  22.627  25.384  1.00  0.00     0.135 A 
ATOM     75  C   UNL A   1      43.121  22.418  27.753  1.00  0.00     0.135 A 
ATOM     76  F   UNL A   1      43.782  23.355  24.303  1.00  0.00    -0.206 F 
ATOM     77  C   UNL A   1      43.121  21.291  25.203  1.00  0.00     0.059 A 
ATOM     78  C   UNL A   1      42.798  21.072  27.601  1.00  0.00     0.059 A 
ATOM     79  F   UNL A   1      43.131  22.934  28.991  1.00  0.00    -0.206 F 
ATOM     80  C   UNL A   1      42.798  20.519  26.320  1.00  0.00     0.060 A 
BRANCH  80  81
ATOM     81  S   UNL A   1      42.443  18.764  26.082  1.00  0.00     0.124 S 
ATOM     82  O   UNL A   1      43.398  18.408  25.039  1.00  0.00    -0.237 OA
ATOM     83  O   UNL A   1      42.713  18.214  27.408  1.00  0.00    -0.237 OA
ATOM     84  O   UNL A   1      41.039  18.756  25.684  1.00  0.00    -0.744 OA
ENDBRANCH  80  81
ENDBRANCH  48  73
BRANCH  60  85
ATOM     85  C   UNL A   1      49.641  26.461  26.429  1.00  0.00     0.058 A 
ATOM     86  C   UNL A   1      50.245  26.484  25.163  1.00  0.00     0.135 A 
ATOM     87  C   UNL A   1      50.400  25.990  27.512  1.00  0.00     0.135 A 
ATOM     88  F   UNL A   1      49.560  26.922  24.095  1.00  0.00    -0.206 F 
ATOM     89  C   UNL A   1      51.546  26.030  24.972  1.00  0.00     0.059 A 
ATOM     90  C   UNL A   1      51.710  25.553  27.348  1.00  0.00     0.059 A 
ATOM     91  F   UNL A   1      49.871  25.959  28.745  1.00  0.00    -0.206 F 
ATOM     92  C   UNL A   1      52.270  25.562  26.071  1.00  0.00     0.060 A 
BRANCH  92  93
ATOM     93  S   UNL A   1      53.961  24.985  25.814  1.00  0.00     0.124 S 
ATOM     94  O   UNL A   1      54.602  25.391  27.060  1.00  0.00    -0.237 OA
ATOM     95  O   UNL A   1      53.779  23.548  25.634  1.00  0.00    -0.237 OA
ATOM     96  O   UNL A   1      54.389  25.710  24.622  1.00  0.00    -0.744 OA
ENDBRANCH  92  93
ENDBRANCH  60  85
ENDBRANCH  34  35
ENDBRANCH  27  29
ENDBRANCH  26  27
ENDBRANCH  25  26
ENDBRANCH   1  25
TORSDOF 18
ENDMDL
