MODEL 1
REMARK VINA RESULT:     -12.8      0.000      0.000
REMARK SMILES O=C(OCCOC(=O)c1cc(Cl)c2c(c1)[C@H]1C=CC[C@H]1[C@H](c1ccc(S(=O)(=O)N3CCOCC3)cc1)N2)c1ccc(-c2c3nc(c(-c4c(F)cc(S(=O)(=O)[O-])cc4F)c4ccc([nH]4)c(-c4c(F)cc(S(=O)(=O)[O-])cc4F)c4nc(c(-c5c(F)cc(S(=O)(=O)[O-])cc5F)c5ccc2[nH]5)C=C4)C=C3)cc1
REMARK SMILES IDX 4 1 3 2 2 3 1 4 38 5 39 6 103 7 40 8 102 9 41 10 42 11 43 12
REMARK SMILES IDX 96 13 44 14 101 15 95 16 97 17 45 18 100 19 94 20 93 21
REMARK SMILES IDX 46 23 80 24 59 25 79 26 60 27 63 28 78 29 98 30 61 31 62 32
REMARK SMILES IDX 77 34 99 35 64 36 47 37 48 38 57 39 49 40 50 41 56 42 58 43
REMARK SMILES IDX 51 44 52 45 53 46 54 47 55 48 81 49 82 50 91 51 83 52 84 53
REMARK SMILES IDX 90 54 92 55 85 56 86 57 87 58 88 59 89 60 65 61 66 62 75 63
REMARK SMILES IDX 67 64 68 65 74 66 76 67 69 68 70 69 71 70 72 71 73 72 5 73
REMARK SMILES IDX 6 74 7 75 8 76 9 77 10 78 15 79 11 80 14 81 12 82 13 83
REMARK SMILES IDX 16 84 37 85 17 86 20 87 21 88 18 90 19 91 22 92 23 93 36 94
REMARK SMILES IDX 24 95 35 96 25 97 26 98 27 99 28 100 29 101 30 102 34 103
REMARK SMILES IDX 31 104 33 105 32 106
REMARK H PARENT 97 22 63 33 37 89
REMARK Flexibility Score: inf
ROOT
ATOM      1  C   UNL A   1      43.994  22.643  25.996  1.00  0.00     0.275 C 
ENDROOT
BRANCH   1   2
ATOM      2  O   UNL A   1      43.420  23.610  26.888  1.00  0.00    -0.458 OA
BRANCH   2   3
ATOM      3  C   UNL A   1      43.010  24.871  26.621  1.00  0.00     0.338 C 
ATOM      4  O   UNL A   1      42.948  25.222  25.443  1.00  0.00    -0.246 OA
BRANCH   3   5
ATOM      5  C   UNL A   1      42.778  25.917  27.676  1.00  0.00     0.060 A 
ATOM      6  C   UNL A   1      43.472  27.117  27.852  1.00  0.00     0.016 A 
ATOM      7  C   UNL A   1      41.708  25.662  28.550  1.00  0.00     0.016 A 
ATOM      8  C   UNL A   1      43.067  28.064  28.795  1.00  0.00     0.010 A 
ATOM      9  C   UNL A   1      41.283  26.605  29.490  1.00  0.00     0.010 A 
ATOM     10  C   UNL A   1      41.974  27.811  29.620  1.00  0.00    -0.014 A 
BRANCH  10  11
ATOM     11  C   UNL A   1      41.746  28.668  30.798  1.00  0.00     0.031 A 
ATOM     12  C   UNL A   1      40.676  29.705  30.680  1.00  0.00     0.074 A 
ATOM     13  C   UNL A   1      42.396  28.476  31.958  1.00  0.00     0.049 A 
ATOM     14  N   UNL A   1      40.252  30.552  31.574  1.00  0.00    -0.248 NA
ATOM     15  C   UNL A   1      39.951  29.759  29.397  1.00  0.00     0.031 C 
ATOM     16  C   UNL A   1      43.325  27.387  32.224  1.00  0.00     0.029 A 
ATOM     17  N   UNL A   1      42.375  29.186  33.130  1.00  0.00    -0.354 N 
ATOM     18  C   UNL A   1      39.169  31.188  30.989  1.00  0.00     0.074 A 
ATOM     19  C   UNL A   1      39.054  30.701  29.634  1.00  0.00     0.031 C 
ATOM     20  C   UNL A   1      43.843  27.536  33.456  1.00  0.00     0.029 A 
ATOM     21  C   UNL A   1      43.278  28.731  34.062  1.00  0.00     0.049 A 
ATOM     22  H   UNL A   1      41.771  29.946  33.289  1.00  0.00     0.167 HD
ATOM     23  C   UNL A   1      38.316  32.068  31.555  1.00  0.00     0.037 A 
ATOM     24  C   UNL A   1      43.610  29.228  35.269  1.00  0.00     0.037 A 
ATOM     25  C   UNL A   1      38.483  32.580  32.885  1.00  0.00     0.049 A 
ATOM     26  C   UNL A   1      42.804  30.383  35.793  1.00  0.00     0.074 A 
ATOM     27  C   UNL A   1      37.726  33.530  33.541  1.00  0.00     0.029 A 
ATOM     28  N   UNL A   1      39.492  32.191  33.757  1.00  0.00    -0.354 N 
ATOM     29  N   UNL A   1      41.786  30.991  35.227  1.00  0.00    -0.248 NA
ATOM     30  C   UNL A   1      43.147  30.890  37.126  1.00  0.00     0.031 C 
ATOM     31  C   UNL A   1      38.314  33.760  34.789  1.00  0.00     0.029 A 
ATOM     32  C   UNL A   1      39.398  32.906  34.935  1.00  0.00     0.049 A 
ATOM     33  H   UNL A   1      40.172  31.506  33.564  1.00  0.00     0.167 HD
ATOM     34  C   UNL A   1      41.328  31.912  36.160  1.00  0.00     0.074 A 
ATOM     35  C   UNL A   1      42.190  31.787  37.320  1.00  0.00     0.031 C 
ATOM     36  C   UNL A   1      40.275  32.763  36.073  1.00  0.00     0.037 A 
BRANCH  23  37
ATOM     37  C   UNL A   1      37.165  32.527  30.713  1.00  0.00     0.058 A 
ATOM     38  C   UNL A   1      37.286  33.627  29.846  1.00  0.00     0.135 A 
ATOM     39  C   UNL A   1      35.922  31.886  30.795  1.00  0.00     0.135 A 
ATOM     40  F   UNL A   1      38.444  34.302  29.766  1.00  0.00    -0.206 F 
ATOM     41  C   UNL A   1      36.206  34.084  29.101  1.00  0.00     0.059 A 
ATOM     42  C   UNL A   1      34.835  32.311  30.040  1.00  0.00     0.059 A 
ATOM     43  F   UNL A   1      35.749  30.850  31.630  1.00  0.00    -0.206 F 
ATOM     44  C   UNL A   1      34.985  33.417  29.203  1.00  0.00     0.060 A 
BRANCH  44  45
ATOM     45  S   UNL A   1      33.596  34.022  28.224  1.00  0.00     0.124 S 
ATOM     46  O   UNL A   1      34.260  34.959  27.322  1.00  0.00    -0.237 OA
ATOM     47  O   UNL A   1      33.096  32.798  27.609  1.00  0.00    -0.237 OA
ATOM     48  O   UNL A   1      32.717  34.628  29.219  1.00  0.00    -0.744 OA
ENDBRANCH  44  45
ENDBRANCH  23  37
BRANCH  24  49
ATOM     49  C   UNL A   1      44.711  28.615  36.061  1.00  0.00     0.058 A 
ATOM     50  C   UNL A   1      44.463  27.579  36.974  1.00  0.00     0.135 A 
ATOM     51  C   UNL A   1      46.040  29.045  35.912  1.00  0.00     0.135 A 
ATOM     52  F   UNL A   1      43.211  27.131  37.154  1.00  0.00    -0.206 F 
ATOM     53  C   UNL A   1      45.486  27.001  37.720  1.00  0.00     0.059 A 
ATOM     54  C   UNL A   1      47.085  28.472  36.635  1.00  0.00     0.059 A 
ATOM     55  F   UNL A   1      46.338  30.021  35.039  1.00  0.00    -0.206 F 
ATOM     56  C   UNL A   1      46.796  27.452  37.541  1.00  0.00     0.060 A 
BRANCH  56  57
ATOM     57  S   UNL A   1      48.113  26.661  38.493  1.00  0.00     0.124 S 
ATOM     58  O   UNL A   1      49.251  26.790  37.590  1.00  0.00    -0.237 OA
ATOM     59  O   UNL A   1      48.155  27.492  39.693  1.00  0.00    -0.237 OA
ATOM     60  O   UNL A   1      47.617  25.304  38.694  1.00  0.00    -0.744 OA
ENDBRANCH  56  57
ENDBRANCH  24  49
BRANCH  36  61
ATOM     61  C   UNL A   1      39.974  33.603  37.279  1.00  0.00     0.058 A 
ATOM     62  C   UNL A   1      40.611  34.833  37.499  1.00  0.00     0.135 A 
ATOM     63  C   UNL A   1      38.985  33.199  38.192  1.00  0.00     0.135 A 
ATOM     64  F   UNL A   1      41.566  35.261  36.656  1.00  0.00    -0.206 F 
ATOM     65  C   UNL A   1      40.298  35.622  38.597  1.00  0.00     0.059 A 
ATOM     66  C   UNL A   1      38.631  33.988  39.277  1.00  0.00     0.059 A 
ATOM     67  F   UNL A   1      38.337  32.036  38.016  1.00  0.00    -0.206 F 
ATOM     68  C   UNL A   1      39.302  35.194  39.479  1.00  0.00     0.060 A 
BRANCH  68  69
ATOM     69  S   UNL A   1      38.883  36.247  40.881  1.00  0.00     0.124 S 
ATOM     70  O   UNL A   1      40.141  36.268  41.619  1.00  0.00    -0.237 OA
ATOM     71  O   UNL A   1      38.511  37.498  40.226  1.00  0.00    -0.237 OA
ATOM     72  O   UNL A   1      37.786  35.534  41.528  1.00  0.00    -0.744 OA
ENDBRANCH  68  69
ENDBRANCH  36  61
ENDBRANCH  10  11
ENDBRANCH   3   5
ENDBRANCH   2   3
ENDBRANCH   1   2
BRANCH   1  73
ATOM     73  C   UNL A   1      43.311  21.270  26.028  1.00  0.00     0.275 C 
BRANCH  73  74
ATOM     74  O   UNL A   1      41.969  21.262  25.513  1.00  0.00    -0.458 OA
BRANCH  74  75
ATOM     75  C   UNL A   1      41.008  20.839  26.375  1.00  0.00     0.338 C 
ATOM     76  O   UNL A   1      41.102  19.940  27.192  1.00  0.00    -0.246 OA
BRANCH  75  77
ATOM     77  C   UNL A   1      39.829  21.719  26.257  1.00  0.00     0.062 A 
ATOM     78  C   UNL A   1      39.872  23.020  26.741  1.00  0.00     0.038 A 
ATOM     79  C   UNL A   1      38.694  21.257  25.579  1.00  0.00     0.022 A 
ATOM     80  C   UNL A   1      38.746  23.830  26.591  1.00  0.00     0.065 A 
ATOM     81  C   UNL A   1      37.543  22.064  25.475  1.00  0.00    -0.015 A 
ATOM     82  Cl  UNL A   1      38.903  25.505  27.001  1.00  0.00    -0.082 Cl
ATOM     83  C   UNL A   1      37.535  23.332  26.065  1.00  0.00     0.057 A 
ATOM     84  C   UNL A   1      36.384  21.618  24.629  1.00  0.00     0.049 C 
ATOM     85  N   UNL A   1      36.403  24.126  26.027  1.00  0.00    -0.376 N 
ATOM     86  C   UNL A   1      35.480  20.549  25.180  1.00  0.00    -0.023 C 
ATOM     87  C   UNL A   1      35.367  22.732  24.274  1.00  0.00     0.031 C 
ATOM     88  C   UNL A   1      35.125  23.665  25.505  1.00  0.00     0.114 C 
ATOM     89  H   UNL A   1      36.464  25.047  26.370  1.00  0.00     0.161 HD
ATOM     90  C   UNL A   1      34.231  20.697  24.724  1.00  0.00    -0.030 C 
ATOM     91  C   UNL A   1      34.160  21.881  23.818  1.00  0.00     0.034 C 
BRANCH  88  92
ATOM     92  C   UNL A   1      34.263  24.889  25.173  1.00  0.00    -0.025 A 
ATOM     93  C   UNL A   1      33.401  25.536  26.087  1.00  0.00     0.007 A 
ATOM     94  C   UNL A   1      34.306  25.403  23.880  1.00  0.00     0.007 A 
ATOM     95  C   UNL A   1      32.665  26.683  25.728  1.00  0.00     0.022 A 
ATOM     96  C   UNL A   1      33.655  26.585  23.560  1.00  0.00     0.022 A 
ATOM     97  C   UNL A   1      32.827  27.229  24.458  1.00  0.00     0.082 A 
BRANCH  97  98
ATOM     98  S   UNL A   1      31.969  28.718  24.000  1.00  0.00     0.243 S 
ATOM     99  O   UNL A   1      31.557  29.361  25.225  1.00  0.00    -0.207 OA
ATOM    100  O   UNL A   1      32.807  29.390  23.026  1.00  0.00    -0.207 OA
BRANCH  98 101
ATOM    101  N   UNL A   1      30.570  28.232  23.194  1.00  0.00    -0.193 NA
ATOM    102  C   UNL A   1      29.709  29.178  22.452  1.00  0.00     0.131 C 
ATOM    103  C   UNL A   1      30.012  26.877  23.327  1.00  0.00     0.131 C 
ATOM    104  C   UNL A   1      28.252  29.129  22.945  1.00  0.00     0.177 C 
ATOM    105  C   UNL A   1      28.585  26.935  23.873  1.00  0.00     0.177 C 
ATOM    106  O   UNL A   1      27.740  27.794  23.092  1.00  0.00    -0.379 OA
ENDBRANCH  98 101
ENDBRANCH  97  98
ENDBRANCH  88  92
ENDBRANCH  75  77
ENDBRANCH  74  75
ENDBRANCH  73  74
ENDBRANCH   1  73
TORSDOF 17
ENDMDL
MODEL 2
REMARK VINA RESULT:     -12.7      6.077     12.018
REMARK SMILES O=C(OCCOC(=O)c1cc(Cl)c2c(c1)[C@H]1C=CC[C@H]1[C@H](c1ccc(S(=O)(=O)N3CCOCC3)cc1)N2)c1ccc(-c2c3nc(c(-c4c(F)cc(S(=O)(=O)[O-])cc4F)c4ccc([nH]4)c(-c4c(F)cc(S(=O)(=O)[O-])cc4F)c4nc(c(-c5c(F)cc(S(=O)(=O)[O-])cc5F)c5ccc2[nH]5)C=C4)C=C3)cc1
REMARK SMILES IDX 4 1 3 2 2 3 1 4 38 5 39 6 103 7 40 8 102 9 41 10 42 11 43 12
REMARK SMILES IDX 96 13 44 14 101 15 95 16 97 17 45 18 100 19 94 20 93 21
REMARK SMILES IDX 46 23 80 24 59 25 79 26 60 27 63 28 78 29 98 30 61 31 62 32
REMARK SMILES IDX 77 34 99 35 64 36 47 37 48 38 57 39 49 40 50 41 56 42 58 43
REMARK SMILES IDX 51 44 52 45 53 46 54 47 55 48 81 49 82 50 91 51 83 52 84 53
REMARK SMILES IDX 90 54 92 55 85 56 86 57 87 58 88 59 89 60 65 61 66 62 75 63
REMARK SMILES IDX 67 64 68 65 74 66 76 67 69 68 70 69 71 70 72 71 73 72 5 73
REMARK SMILES IDX 6 74 7 75 8 76 9 77 10 78 15 79 11 80 14 81 12 82 13 83
REMARK SMILES IDX 16 84 37 85 17 86 20 87 21 88 18 90 19 91 22 92 23 93 36 94
REMARK SMILES IDX 24 95 35 96 25 97 26 98 27 99 28 100 29 101 30 102 34 103
REMARK SMILES IDX 31 104 33 105 32 106
REMARK H PARENT 97 22 63 33 37 89
REMARK Flexibility Score: inf
ROOT
ATOM      1  C   UNL A   1      35.626  33.546  31.214  1.00  0.00     0.275 C 
ENDROOT
BRANCH   1   2
ATOM      2  O   UNL A   1      36.614  32.723  30.576  1.00  0.00    -0.458 OA
BRANCH   2   3
ATOM      3  C   UNL A   1      37.100  31.523  30.970  1.00  0.00     0.338 C 
ATOM      4  O   UNL A   1      36.437  30.866  31.773  1.00  0.00    -0.246 OA
BRANCH   3   5
ATOM      5  C   UNL A   1      38.469  31.015  30.610  1.00  0.00     0.060 A 
ATOM      6  C   UNL A   1      39.528  30.738  31.478  1.00  0.00     0.016 A 
ATOM      7  C   UNL A   1      38.672  30.753  29.246  1.00  0.00     0.016 A 
ATOM      8  C   UNL A   1      40.707  30.143  31.023  1.00  0.00     0.010 A 
ATOM      9  C   UNL A   1      39.841  30.147  28.778  1.00  0.00     0.010 A 
ATOM     10  C   UNL A   1      40.870  29.849  29.673  1.00  0.00    -0.014 A 
BRANCH  10  11
ATOM     11  C   UNL A   1      42.213  29.509  29.166  1.00  0.00     0.031 A 
ATOM     12  C   UNL A   1      42.456  28.079  28.806  1.00  0.00     0.074 A 
ATOM     13  C   UNL A   1      43.151  30.445  28.946  1.00  0.00     0.049 A 
ATOM     14  N   UNL A   1      43.525  27.529  28.305  1.00  0.00    -0.248 NA
ATOM     15  C   UNL A   1      41.322  27.153  28.987  1.00  0.00     0.031 C 
ATOM     16  C   UNL A   1      42.952  31.880  29.099  1.00  0.00     0.029 A 
ATOM     17  N   UNL A   1      44.457  30.334  28.543  1.00  0.00    -0.354 N 
ATOM     18  C   UNL A   1      43.171  26.214  28.046  1.00  0.00     0.074 A 
ATOM     19  C   UNL A   1      41.824  26.020  28.527  1.00  0.00     0.031 C 
ATOM     20  C   UNL A   1      44.112  32.516  28.864  1.00  0.00     0.029 A 
ATOM     21  C   UNL A   1      45.133  31.531  28.543  1.00  0.00     0.049 A 
ATOM     22  H   UNL A   1      44.869  29.480  28.280  1.00  0.00     0.167 HD
ATOM     23  C   UNL A   1      43.897  25.267  27.415  1.00  0.00     0.037 A 
ATOM     24  C   UNL A   1      46.432  31.798  28.309  1.00  0.00     0.037 A 
ATOM     25  C   UNL A   1      45.254  25.466  26.994  1.00  0.00     0.049 A 
ATOM     26  C   UNL A   1      47.302  30.668  27.836  1.00  0.00     0.074 A 
ATOM     27  C   UNL A   1      46.116  24.559  26.412  1.00  0.00     0.029 A 
ATOM     28  N   UNL A   1      45.952  26.660  27.130  1.00  0.00    -0.354 N 
ATOM     29  N   UNL A   1      46.965  29.419  27.605  1.00  0.00    -0.248 NA
ATOM     30  C   UNL A   1      48.706  30.978  27.545  1.00  0.00     0.031 C 
ATOM     31  C   UNL A   1      47.355  25.185  26.250  1.00  0.00     0.029 A 
ATOM     32  C   UNL A   1      47.247  26.503  26.672  1.00  0.00     0.049 A 
ATOM     33  H   UNL A   1      45.580  27.494  27.497  1.00  0.00     0.167 HD
ATOM     34  C   UNL A   1      48.097  28.810  27.084  1.00  0.00     0.074 A 
ATOM     35  C   UNL A   1      49.132  29.826  27.047  1.00  0.00     0.031 C 
ATOM     36  C   UNL A   1      48.257  27.534  26.651  1.00  0.00     0.037 A 
BRANCH  23  37
ATOM     37  C   UNL A   1      43.225  23.949  27.181  1.00  0.00     0.058 A 
ATOM     38  C   UNL A   1      43.188  22.960  28.180  1.00  0.00     0.135 A 
ATOM     39  C   UNL A   1      42.642  23.655  25.941  1.00  0.00     0.135 A 
ATOM     40  F   UNL A   1      43.772  23.177  29.369  1.00  0.00    -0.206 F 
ATOM     41  C   UNL A   1      42.608  21.719  27.949  1.00  0.00     0.059 A 
ATOM     42  C   UNL A   1      42.035  22.429  25.697  1.00  0.00     0.059 A 
ATOM     43  F   UNL A   1      42.678  24.555  24.947  1.00  0.00    -0.206 F 
ATOM     44  C   UNL A   1      42.031  21.464  26.704  1.00  0.00     0.060 A 
BRANCH  44  45
ATOM     45  S   UNL A   1      41.279  19.849  26.425  1.00  0.00     0.124 S 
ATOM     46  O   UNL A   1      42.090  19.334  25.325  1.00  0.00    -0.237 OA
ATOM     47  O   UNL A   1      41.470  19.193  27.714  1.00  0.00    -0.237 OA
ATOM     48  O   UNL A   1      39.897  20.172  26.084  1.00  0.00    -0.744 OA
ENDBRANCH  44  45
ENDBRANCH  23  37
BRANCH  24  49
ATOM     49  C   UNL A   1      46.961  33.180  28.475  1.00  0.00     0.058 A 
ATOM     50  C   UNL A   1      47.521  33.604  29.689  1.00  0.00     0.135 A 
ATOM     51  C   UNL A   1      46.928  34.103  27.416  1.00  0.00     0.135 A 
ATOM     52  F   UNL A   1      47.577  32.762  30.731  1.00  0.00    -0.206 F 
ATOM     53  C   UNL A   1      48.016  34.895  29.853  1.00  0.00     0.059 A 
ATOM     54  C   UNL A   1      47.432  35.396  27.550  1.00  0.00     0.059 A 
ATOM     55  F   UNL A   1      46.419  33.744  26.226  1.00  0.00    -0.206 F 
ATOM     56  C   UNL A   1      47.971  35.783  28.777  1.00  0.00     0.060 A 
BRANCH  56  57
ATOM     57  S   UNL A   1      48.654  37.441  29.002  1.00  0.00     0.124 S 
ATOM     58  O   UNL A   1      48.610  37.587  30.453  1.00  0.00    -0.237 OA
ATOM     59  O   UNL A   1      49.984  37.300  28.416  1.00  0.00    -0.237 OA
ATOM     60  O   UNL A   1      47.733  38.292  28.254  1.00  0.00    -0.744 OA
ENDBRANCH  56  57
ENDBRANCH  24  49
BRANCH  36  61
ATOM     61  C   UNL A   1      49.592  27.172  26.068  1.00  0.00     0.058 A 
ATOM     62  C   UNL A   1      50.623  26.642  26.858  1.00  0.00     0.135 A 
ATOM     63  C   UNL A   1      49.815  27.298  24.687  1.00  0.00     0.135 A 
ATOM     64  F   UNL A   1      50.458  26.506  28.184  1.00  0.00    -0.206 F 
ATOM     65  C   UNL A   1      51.840  26.274  26.302  1.00  0.00     0.059 A 
ATOM     66  C   UNL A   1      51.012  26.903  24.105  1.00  0.00     0.059 A 
ATOM     67  F   UNL A   1      48.853  27.786  23.887  1.00  0.00    -0.206 F 
ATOM     68  C   UNL A   1      52.024  26.403  24.924  1.00  0.00     0.060 A 
BRANCH  68  69
ATOM     69  S   UNL A   1      53.600  25.887  24.213  1.00  0.00     0.124 S 
ATOM     70  O   UNL A   1      53.298  25.908  22.786  1.00  0.00    -0.237 OA
ATOM     71  O   UNL A   1      54.507  26.929  24.685  1.00  0.00    -0.237 OA
ATOM     72  O   UNL A   1      53.818  24.565  24.791  1.00  0.00    -0.744 OA
ENDBRANCH  68  69
ENDBRANCH  36  61
ENDBRANCH  10  11
ENDBRANCH   3   5
ENDBRANCH   2   3
ENDBRANCH   1   2
BRANCH   1  73
ATOM     73  C   UNL A   1      34.412  33.872  30.334  1.00  0.00     0.275 C 
BRANCH  73  74
ATOM     74  O   UNL A   1      34.616  33.639  28.931  1.00  0.00    -0.458 OA
BRANCH  74  75
ATOM     75  C   UNL A   1      33.512  33.275  28.227  1.00  0.00     0.338 C 
ATOM     76  O   UNL A   1      32.540  33.967  27.979  1.00  0.00    -0.246 OA
BRANCH  75  77
ATOM     77  C   UNL A   1      33.704  31.912  27.695  1.00  0.00     0.062 A 
ATOM     78  C   UNL A   1      34.895  31.232  27.919  1.00  0.00     0.038 A 
ATOM     79  C   UNL A   1      32.645  31.278  27.034  1.00  0.00     0.022 A 
ATOM     80  C   UNL A   1      35.031  29.936  27.422  1.00  0.00     0.065 A 
ATOM     81  C   UNL A   1      32.808  29.987  26.491  1.00  0.00    -0.015 A 
ATOM     82  Cl  UNL A   1      36.431  29.036  27.903  1.00  0.00    -0.082 Cl
ATOM     83  C   UNL A   1      34.043  29.342  26.607  1.00  0.00     0.057 A 
ATOM     84  C   UNL A   1      31.629  29.261  25.908  1.00  0.00     0.049 C 
ATOM     85  N   UNL A   1      34.252  28.099  26.039  1.00  0.00    -0.376 N 
ATOM     86  C   UNL A   1      31.147  29.679  24.546  1.00  0.00    -0.023 C 
ATOM     87  C   UNL A   1      31.833  27.737  25.711  1.00  0.00     0.031 C 
ATOM     88  C   UNL A   1      33.274  27.440  25.184  1.00  0.00     0.114 C 
ATOM     89  H   UNL A   1      35.102  27.636  26.221  1.00  0.00     0.161 HD
ATOM     90  C   UNL A   1      30.610  28.643  23.890  1.00  0.00    -0.030 C 
ATOM     91  C   UNL A   1      30.674  27.418  24.739  1.00  0.00     0.034 C 
BRANCH  88  92
ATOM     92  C   UNL A   1      33.601  25.943  25.131  1.00  0.00    -0.025 A 
ATOM     93  C   UNL A   1      34.139  25.277  24.007  1.00  0.00     0.007 A 
ATOM     94  C   UNL A   1      33.340  25.165  26.255  1.00  0.00     0.007 A 
ATOM     95  C   UNL A   1      34.454  23.905  24.038  1.00  0.00     0.022 A 
ATOM     96  C   UNL A   1      33.740  23.839  26.313  1.00  0.00     0.022 A 
ATOM     97  C   UNL A   1      34.283  23.191  25.220  1.00  0.00     0.082 A 
BRANCH  97  98
ATOM     98  S   UNL A   1      34.741  21.475  25.313  1.00  0.00     0.243 S 
ATOM     99  O   UNL A   1      35.614  21.211  24.194  1.00  0.00    -0.207 OA
ATOM    100  O   UNL A   1      35.155  21.235  26.682  1.00  0.00    -0.207 OA
BRANCH  98 101
ATOM    101  N   UNL A   1      33.326  20.591  25.065  1.00  0.00    -0.193 NA
ATOM    102  C   UNL A   1      32.853  19.562  26.015  1.00  0.00     0.131 C 
ATOM    103  C   UNL A   1      32.570  20.649  23.804  1.00  0.00     0.131 C 
ATOM    104  C   UNL A   1      32.647  18.201  25.326  1.00  0.00     0.177 C 
ATOM    105  C   UNL A   1      32.468  19.260  23.174  1.00  0.00     0.177 C 
ATOM    106  O   UNL A   1      31.930  18.290  24.084  1.00  0.00    -0.379 OA
ENDBRANCH  98 101
ENDBRANCH  97  98
ENDBRANCH  88  92
ENDBRANCH  75  77
ENDBRANCH  74  75
ENDBRANCH  73  74
ENDBRANCH   1  73
TORSDOF 17
ENDMDL
MODEL 3
REMARK VINA RESULT:     -12.5      5.358     10.890
REMARK SMILES O=C(OCCOC(=O)c1cc(Cl)c2c(c1)[C@H]1C=CC[C@H]1[C@H](c1ccc(S(=O)(=O)N3CCOCC3)cc1)N2)c1ccc(-c2c3nc(c(-c4c(F)cc(S(=O)(=O)[O-])cc4F)c4ccc([nH]4)c(-c4c(F)cc(S(=O)(=O)[O-])cc4F)c4nc(c(-c5c(F)cc(S(=O)(=O)[O-])cc5F)c5ccc2[nH]5)C=C4)C=C3)cc1
REMARK SMILES IDX 4 1 3 2 2 3 1 4 38 5 39 6 103 7 40 8 102 9 41 10 42 11 43 12
REMARK SMILES IDX 96 13 44 14 101 15 95 16 97 17 45 18 100 19 94 20 93 21
REMARK SMILES IDX 46 23 80 24 59 25 79 26 60 27 63 28 78 29 98 30 61 31 62 32
REMARK SMILES IDX 77 34 99 35 64 36 47 37 48 38 57 39 49 40 50 41 56 42 58 43
REMARK SMILES IDX 51 44 52 45 53 46 54 47 55 48 81 49 82 50 91 51 83 52 84 53
REMARK SMILES IDX 90 54 92 55 85 56 86 57 87 58 88 59 89 60 65 61 66 62 75 63
REMARK SMILES IDX 67 64 68 65 74 66 76 67 69 68 70 69 71 70 72 71 73 72 5 73
REMARK SMILES IDX 6 74 7 75 8 76 9 77 10 78 15 79 11 80 14 81 12 82 13 83
REMARK SMILES IDX 16 84 37 85 17 86 20 87 21 88 18 90 19 91 22 92 23 93 36 94
REMARK SMILES IDX 24 95 35 96 25 97 26 98 27 99 28 100 29 101 30 102 34 103
REMARK SMILES IDX 31 104 33 105 32 106
REMARK H PARENT 97 22 63 33 37 89
REMARK Flexibility Score: inf
ROOT
ATOM      1  C   UNL A   1      33.989  34.709  30.540  1.00  0.00     0.275 C 
ENDROOT
BRANCH   1   2
ATOM      2  O   UNL A   1      34.120  33.295  30.747  1.00  0.00    -0.458 OA
BRANCH   2   3
ATOM      3  C   UNL A   1      34.885  32.637  31.649  1.00  0.00     0.338 C 
ATOM      4  O   UNL A   1      34.526  32.644  32.827  1.00  0.00    -0.246 OA
BRANCH   3   5
ATOM      5  C   UNL A   1      36.225  32.035  31.329  1.00  0.00     0.060 A 
ATOM      6  C   UNL A   1      36.964  31.142  32.109  1.00  0.00     0.016 A 
ATOM      7  C   UNL A   1      36.760  32.389  30.080  1.00  0.00     0.016 A 
ATOM      8  C   UNL A   1      38.139  30.555  31.632  1.00  0.00     0.010 A 
ATOM      9  C   UNL A   1      37.926  31.800  29.584  1.00  0.00     0.010 A 
ATOM     10  C   UNL A   1      38.626  30.884  30.371  1.00  0.00    -0.014 A 
BRANCH  10  11
ATOM     11  C   UNL A   1      40.002  30.499  30.007  1.00  0.00     0.031 A 
ATOM     12  C   UNL A   1      41.052  31.556  30.128  1.00  0.00     0.074 A 
ATOM     13  C   UNL A   1      40.326  29.240  29.670  1.00  0.00     0.049 A 
ATOM     14  N   UNL A   1      42.334  31.469  29.911  1.00  0.00    -0.248 NA
ATOM     15  C   UNL A   1      40.605  32.876  30.608  1.00  0.00     0.031 C 
ATOM     16  C   UNL A   1      39.411  28.107  29.693  1.00  0.00     0.029 A 
ATOM     17  N   UNL A   1      41.512  28.698  29.247  1.00  0.00    -0.354 N 
ATOM     18  C   UNL A   1      42.853  32.695  30.295  1.00  0.00     0.074 A 
ATOM     19  C   UNL A   1      41.745  33.542  30.670  1.00  0.00     0.031 C 
ATOM     20  C   UNL A   1      40.046  27.015  29.234  1.00  0.00     0.029 A 
ATOM     21  C   UNL A   1      41.412  27.374  28.887  1.00  0.00     0.049 A 
ATOM     22  H   UNL A   1      42.354  29.206  29.205  1.00  0.00     0.167 HD
ATOM     23  C   UNL A   1      44.150  33.061  30.372  1.00  0.00     0.037 A 
ATOM     24  C   UNL A   1      42.323  26.549  28.339  1.00  0.00     0.037 A 
ATOM     25  C   UNL A   1      45.231  32.222  29.941  1.00  0.00     0.049 A 
ATOM     26  C   UNL A   1      43.731  27.057  28.199  1.00  0.00     0.074 A 
ATOM     27  C   UNL A   1      46.580  32.511  29.902  1.00  0.00     0.029 A 
ATOM     28  N   UNL A   1      45.078  30.929  29.458  1.00  0.00    -0.354 N 
ATOM     29  N   UNL A   1      44.215  28.227  28.553  1.00  0.00    -0.248 NA
ATOM     30  C   UNL A   1      44.724  26.135  27.639  1.00  0.00     0.031 C 
ATOM     31  C   UNL A   1      47.238  31.414  29.337  1.00  0.00     0.029 A 
ATOM     32  C   UNL A   1      46.306  30.416  29.085  1.00  0.00     0.049 A 
ATOM     33  H   UNL A   1      44.221  30.448  29.391  1.00  0.00     0.167 HD
ATOM     34  C   UNL A   1      45.580  28.159  28.314  1.00  0.00     0.074 A 
ATOM     35  C   UNL A   1      45.840  26.839  27.774  1.00  0.00     0.031 C 
ATOM     36  C   UNL A   1      46.534  29.096  28.546  1.00  0.00     0.037 A 
BRANCH  23  37
ATOM     37  C   UNL A   1      44.432  34.427  30.917  1.00  0.00     0.058 A 
ATOM     38  C   UNL A   1      44.489  35.553  30.077  1.00  0.00     0.135 A 
ATOM     39  C   UNL A   1      44.681  34.612  32.284  1.00  0.00     0.135 A 
ATOM     40  F   UNL A   1      44.303  35.420  28.754  1.00  0.00    -0.206 F 
ATOM     41  C   UNL A   1      44.799  36.813  30.574  1.00  0.00     0.059 A 
ATOM     42  C   UNL A   1      44.968  35.868  32.806  1.00  0.00     0.059 A 
ATOM     43  F   UNL A   1      44.666  33.564  33.121  1.00  0.00    -0.206 F 
ATOM     44  C   UNL A   1      45.034  36.960  31.942  1.00  0.00     0.060 A 
BRANCH  44  45
ATOM     45  S   UNL A   1      45.429  38.604  32.569  1.00  0.00     0.124 S 
ATOM     46  O   UNL A   1      46.773  38.806  32.034  1.00  0.00    -0.237 OA
ATOM     47  O   UNL A   1      44.380  39.423  31.971  1.00  0.00    -0.237 OA
ATOM     48  O   UNL A   1      45.351  38.444  34.017  1.00  0.00    -0.744 OA
ENDBRANCH  44  45
ENDBRANCH  23  37
BRANCH  24  49
ATOM     49  C   UNL A   1      41.943  25.168  27.932  1.00  0.00     0.058 A 
ATOM     50  C   UNL A   1      41.254  24.925  26.735  1.00  0.00     0.135 A 
ATOM     51  C   UNL A   1      42.274  24.059  28.729  1.00  0.00     0.135 A 
ATOM     52  F   UNL A   1      40.915  25.949  25.938  1.00  0.00    -0.206 F 
ATOM     53  C   UNL A   1      40.894  23.638  26.347  1.00  0.00     0.059 A 
ATOM     54  C   UNL A   1      41.938  22.758  28.355  1.00  0.00     0.059 A 
ATOM     55  F   UNL A   1      42.949  24.232  29.876  1.00  0.00    -0.206 F 
ATOM     56  C   UNL A   1      41.243  22.559  27.163  1.00  0.00     0.060 A 
BRANCH  56  57
ATOM     57  S   UNL A   1      40.798  20.893  26.621  1.00  0.00     0.124 S 
ATOM     58  O   UNL A   1      40.795  20.160  27.882  1.00  0.00    -0.237 OA
ATOM     59  O   UNL A   1      39.490  21.117  26.010  1.00  0.00    -0.237 OA
ATOM     60  O   UNL A   1      41.866  20.543  25.690  1.00  0.00    -0.744 OA
ENDBRANCH  56  57
ENDBRANCH  24  49
BRANCH  36  61
ATOM     61  C   UNL A   1      47.954  28.714  28.248  1.00  0.00     0.058 A 
ATOM     62  C   UNL A   1      48.796  28.179  29.233  1.00  0.00     0.135 A 
ATOM     63  C   UNL A   1      48.455  28.826  26.940  1.00  0.00     0.135 A 
ATOM     64  F   UNL A   1      48.364  28.056  30.499  1.00  0.00    -0.206 F 
ATOM     65  C   UNL A   1      50.096  27.792  28.938  1.00  0.00     0.059 A 
ATOM     66  C   UNL A   1      49.739  28.412  26.615  1.00  0.00     0.059 A 
ATOM     67  F   UNL A   1      47.681  29.319  25.959  1.00  0.00    -0.206 F 
ATOM     68  C   UNL A   1      50.558  27.908  27.625  1.00  0.00     0.060 A 
BRANCH  68  69
ATOM     69  S   UNL A   1      52.237  27.367  27.253  1.00  0.00     0.124 S 
ATOM     70  O   UNL A   1      53.020  28.517  27.694  1.00  0.00    -0.237 OA
ATOM     71  O   UNL A   1      52.362  26.163  28.069  1.00  0.00    -0.237 OA
ATOM     72  O   UNL A   1      52.212  27.141  25.811  1.00  0.00    -0.744 OA
ENDBRANCH  68  69
ENDBRANCH  36  61
ENDBRANCH  10  11
ENDBRANCH   3   5
ENDBRANCH   2   3
ENDBRANCH   1   2
BRANCH   1  73
ATOM     73  C   UNL A   1      33.849  35.122  29.069  1.00  0.00     0.275 C 
BRANCH  73  74
ATOM     74  O   UNL A   1      34.051  34.053  28.131  1.00  0.00    -0.458 OA
BRANCH  74  75
ATOM     75  C   UNL A   1      32.923  33.477  27.641  1.00  0.00     0.338 C 
ATOM     76  O   UNL A   1      31.870  34.033  27.380  1.00  0.00    -0.246 OA
BRANCH  75  77
ATOM     77  C   UNL A   1      33.188  32.053  27.357  1.00  0.00     0.062 A 
ATOM     78  C   UNL A   1      34.337  31.442  27.845  1.00  0.00     0.038 A 
ATOM     79  C   UNL A   1      32.233  31.302  26.661  1.00  0.00     0.022 A 
ATOM     80  C   UNL A   1      34.543  30.089  27.578  1.00  0.00     0.065 A 
ATOM     81  C   UNL A   1      32.472  29.948  26.352  1.00  0.00    -0.015 A 
ATOM     82  Cl  UNL A   1      35.862  29.305  28.380  1.00  0.00    -0.082 Cl
ATOM     83  C   UNL A   1      33.679  29.355  26.736  1.00  0.00     0.057 A 
ATOM     84  C   UNL A   1      31.387  29.114  25.730  1.00  0.00     0.049 C 
ATOM     85  N   UNL A   1      33.967  28.045  26.400  1.00  0.00    -0.376 N 
ATOM     86  C   UNL A   1      31.100  29.308  24.266  1.00  0.00    -0.023 C 
ATOM     87  C   UNL A   1      31.618  27.583  25.800  1.00  0.00     0.031 C 
ATOM     88  C   UNL A   1      33.120  27.242  25.530  1.00  0.00     0.114 C 
ATOM     89  H   UNL A   1      34.784  27.635  26.766  1.00  0.00     0.161 HD
ATOM     90  C   UNL A   1      30.662  28.174  23.710  1.00  0.00    -0.030 C 
ATOM     91  C   UNL A   1      30.607  27.093  24.738  1.00  0.00     0.034 C 
BRANCH  88  92
ATOM     92  C   UNL A   1      33.452  25.762  25.754  1.00  0.00    -0.025 A 
ATOM     93  C   UNL A   1      32.581  24.824  26.350  1.00  0.00     0.007 A 
ATOM     94  C   UNL A   1      34.705  25.296  25.364  1.00  0.00     0.007 A 
ATOM     95  C   UNL A   1      32.935  23.468  26.490  1.00  0.00     0.022 A 
ATOM     96  C   UNL A   1      35.011  23.944  25.416  1.00  0.00     0.022 A 
ATOM     97  C   UNL A   1      34.151  23.023  25.982  1.00  0.00     0.082 A 
BRANCH  97  98
ATOM     98  S   UNL A   1      34.594  21.303  26.077  1.00  0.00     0.243 S 
ATOM     99  O   UNL A   1      36.036  21.240  26.108  1.00  0.00    -0.207 OA
ATOM    100  O   UNL A   1      33.780  20.728  27.131  1.00  0.00    -0.207 OA
BRANCH  98 101
ATOM    101  N   UNL A   1      34.092  20.601  24.629  1.00  0.00    -0.193 NA
ATOM    102  C   UNL A   1      33.527  21.392  23.515  1.00  0.00     0.131 C 
ATOM    103  C   UNL A   1      34.006  19.144  24.445  1.00  0.00     0.131 C 
ATOM    104  C   UNL A   1      32.137  20.878  23.097  1.00  0.00     0.177 C 
ATOM    105  C   UNL A   1      32.578  18.731  24.087  1.00  0.00     0.177 C 
ATOM    106  O   UNL A   1      32.074  19.450  22.951  1.00  0.00    -0.379 OA
ENDBRANCH  98 101
ENDBRANCH  97  98
ENDBRANCH  88  92
ENDBRANCH  75  77
ENDBRANCH  74  75
ENDBRANCH  73  74
ENDBRANCH   1  73
TORSDOF 17
ENDMDL
