MODEL 1
REMARK VINA RESULT:     -13.7      0.000      0.000
REMARK SMILES Cc1ccc(N2C(=O)N[C@@H]3CCN(C(=O)CC4(CC(=O)OCCOC(=O)c5ccc(-c6c7nc(c(-c8c(F)cc(S(=O)(=O)[O-])cc8F)c8ccc([nH]8)c(-c8c(F)cc(S(=O)(=O)[O-])cc8F)c8nc(c(-c9c(F)cc(S(=O)(=O)[O-])cc9F)c9ccc6[nH]9)C=C8)C=C7)cc5)CCCC4)[C@@H]3C2=O)cc1
REMARK SMILES IDX 22 1 21 2 19 3 20 4 18 5 17 6 93 7 96 8 94 9 95 10 16 11
REMARK SMILES IDX 14 12 15 13 13 14 6 15 7 16 98 17 8 18 9 19 97 20 99 21
REMARK SMILES IDX 10 22 11 24 12 25 5 26 1 27 2 28 3 29 101 30 4 31 100 32
REMARK SMILES IDX 23 33 24 34 25 35 26 36 27 37 28 38 92 39 29 40 91 41 30 42
REMARK SMILES IDX 31 43 32 44 85 45 33 46 90 47 84 48 86 49 34 50 89 51 83 52
REMARK SMILES IDX 82 53 35 55 69 56 48 57 68 58 49 59 52 60 67 61 87 62 50 63
REMARK SMILES IDX 51 64 66 66 88 67 53 68 36 69 37 70 46 71 38 72 39 73 45 74
REMARK SMILES IDX 47 75 40 76 41 77 42 78 43 79 44 80 70 81 71 82 80 83 72 84
REMARK SMILES IDX 73 85 79 86 81 87 74 88 75 89 76 90 77 91 78 92 54 93 55 94
REMARK SMILES IDX 64 95 56 96 57 97 63 98 65 99 58 100 59 101 60 102 61 103
REMARK SMILES IDX 62 104
REMARK H PARENT 9 23 86 54 52 65
REMARK Flexibility Score: inf
ROOT
ATOM      1  C   UNL A   1      37.686  22.540  25.560  1.00  0.00     0.274 C 
ENDROOT
BRANCH   1   2
ATOM      2  O   UNL A   1      36.284  22.347  25.777  1.00  0.00    -0.462 OA
BRANCH   2   3
ATOM      3  C   UNL A   1      35.556  21.931  24.713  1.00  0.00     0.306 C 
ATOM      4  O   UNL A   1      35.412  22.578  23.684  1.00  0.00    -0.252 OA
BRANCH   3   5
ATOM      5  C   UNL A   1      34.869  20.592  24.979  1.00  0.00     0.130 C 
BRANCH   5   6
ATOM      6  C   UNL A   1      33.330  20.696  25.133  1.00  0.00    -0.011 C 
ATOM      7  C   UNL A   1      32.801  19.428  25.832  1.00  0.00     0.008 C 
ATOM      8  C   UNL A   1      32.795  20.598  23.681  1.00  0.00     0.008 C 
ATOM      9  C   UNL A   1      32.694  18.376  24.743  1.00  0.00     0.001 C 
ATOM     10  C   UNL A   1      32.393  19.140  23.459  1.00  0.00     0.001 C 
BRANCH   6  11
ATOM     11  C   UNL A   1      32.982  21.981  25.958  1.00  0.00     0.107 C 
BRANCH  11  12
ATOM     12  C   UNL A   1      31.742  22.836  25.653  1.00  0.00     0.223 C 
ATOM     13  O   UNL A   1      30.760  22.831  26.395  1.00  0.00    -0.275 OA
BRANCH  12  14
ATOM     14  N   UNL A   1      31.771  23.668  24.560  1.00  0.00    -0.328 N 
ATOM     15  N   UNL A   1      32.759  27.170  24.753  1.00  0.00    -0.230 N 
ATOM     16  C   UNL A   1      32.860  27.455  23.399  1.00  0.00     0.329 C 
ATOM     17  C   UNL A   1      32.535  25.903  25.299  1.00  0.00     0.260 C 
ATOM     18  O   UNL A   1      32.877  28.573  22.887  1.00  0.00    -0.248 OA
ATOM     19  N   UNL A   1      32.995  26.395  22.558  1.00  0.00    -0.332 N 
ATOM     20  C   UNL A   1      32.798  24.696  24.387  1.00  0.00     0.197 C 
ATOM     21  O   UNL A   1      32.152  25.755  26.465  1.00  0.00    -0.271 OA
ATOM     22  C   UNL A   1      32.704  25.039  22.904  1.00  0.00     0.118 C 
ATOM     23  H   UNL A   1      33.318  26.575  21.645  1.00  0.00     0.165 HD
ATOM     24  C   UNL A   1      31.265  24.732  22.522  1.00  0.00     0.049 C 
ATOM     25  C   UNL A   1      30.867  23.623  23.450  1.00  0.00     0.122 C 
BRANCH  15  26
ATOM     26  C   UNL A   1      32.898  28.255  25.670  1.00  0.00     0.054 A 
ATOM     27  C   UNL A   1      33.566  31.782  28.046  1.00  0.00     0.044 C 
ATOM     28  C   UNL A   1      33.332  30.537  27.245  1.00  0.00    -0.051 A 
ATOM     29  C   UNL A   1      32.054  30.248  26.751  1.00  0.00     0.005 A 
ATOM     30  C   UNL A   1      34.379  29.646  26.993  1.00  0.00     0.005 A 
ATOM     31  C   UNL A   1      31.840  29.124  25.949  1.00  0.00     0.027 A 
ATOM     32  C   UNL A   1      34.160  28.503  26.226  1.00  0.00     0.027 A 
ENDBRANCH  15  26
ENDBRANCH  12  14
ENDBRANCH  11  12
ENDBRANCH   6  11
ENDBRANCH   5   6
ENDBRANCH   3   5
ENDBRANCH   2   3
ENDBRANCH   1   2
BRANCH   1  33
ATOM     33  C   UNL A   1      38.120  23.920  26.095  1.00  0.00     0.275 C 
BRANCH  33  34
ATOM     34  O   UNL A   1      39.003  23.970  27.245  1.00  0.00    -0.458 OA
BRANCH  34  35
ATOM     35  C   UNL A   1      40.342  24.118  27.038  1.00  0.00     0.338 C 
ATOM     36  O   UNL A   1      41.024  23.280  26.439  1.00  0.00    -0.246 OA
BRANCH  35  37
ATOM     37  C   UNL A   1      40.727  25.528  27.336  1.00  0.00     0.060 A 
ATOM     38  C   UNL A   1      40.626  26.566  26.393  1.00  0.00     0.016 A 
ATOM     39  C   UNL A   1      40.813  25.841  28.684  1.00  0.00     0.016 A 
ATOM     40  C   UNL A   1      40.472  27.901  26.823  1.00  0.00     0.010 A 
ATOM     41  C   UNL A   1      40.375  27.071  29.086  1.00  0.00     0.010 A 
ATOM     42  C   UNL A   1      40.274  28.139  28.182  1.00  0.00    -0.014 A 
BRANCH  42  43
ATOM     43  C   UNL A   1      40.234  29.427  28.879  1.00  0.00     0.031 A 
ATOM     44  C   UNL A   1      39.112  30.391  28.897  1.00  0.00     0.074 A 
ATOM     45  C   UNL A   1      41.285  29.542  29.728  1.00  0.00     0.049 A 
ATOM     46  N   UNL A   1      39.200  31.549  29.458  1.00  0.00    -0.248 NA
ATOM     47  C   UNL A   1      37.794  30.175  28.320  1.00  0.00     0.031 C 
ATOM     48  C   UNL A   1      41.542  30.421  30.849  1.00  0.00     0.029 A 
ATOM     49  N   UNL A   1      42.480  28.815  29.608  1.00  0.00    -0.354 N 
ATOM     50  C   UNL A   1      37.942  32.116  29.540  1.00  0.00     0.074 A 
ATOM     51  C   UNL A   1      37.102  31.233  28.772  1.00  0.00     0.031 C 
ATOM     52  C   UNL A   1      42.874  30.432  31.073  1.00  0.00     0.029 A 
ATOM     53  C   UNL A   1      43.508  29.660  30.004  1.00  0.00     0.049 A 
ATOM     54  H   UNL A   1      42.572  27.885  29.301  1.00  0.00     0.167 HD
ATOM     55  C   UNL A   1      37.787  33.216  30.340  1.00  0.00     0.037 A 
ATOM     56  C   UNL A   1      44.295  30.125  28.987  1.00  0.00     0.037 A 
ATOM     57  C   UNL A   1      39.104  33.678  30.787  1.00  0.00     0.049 A 
ATOM     58  C   UNL A   1      44.068  31.601  28.742  1.00  0.00     0.074 A 
ATOM     59  C   UNL A   1      39.868  33.460  31.919  1.00  0.00     0.029 A 
ATOM     60  N   UNL A   1      39.960  34.200  29.837  1.00  0.00    -0.354 N 
ATOM     61  N   UNL A   1      43.104  32.292  29.288  1.00  0.00    -0.248 NA
ATOM     62  C   UNL A   1      44.889  32.411  27.848  1.00  0.00     0.031 C 
ATOM     63  C   UNL A   1      41.226  33.761  31.589  1.00  0.00     0.029 A 
ATOM     64  C   UNL A   1      41.271  34.181  30.270  1.00  0.00     0.049 A 
ATOM     65  H   UNL A   1      39.672  34.544  28.962  1.00  0.00     0.167 HD
ATOM     66  C   UNL A   1      43.169  33.587  28.878  1.00  0.00     0.074 A 
ATOM     67  C   UNL A   1      44.287  33.609  27.950  1.00  0.00     0.031 C 
ATOM     68  C   UNL A   1      42.317  34.552  29.330  1.00  0.00     0.037 A 
BRANCH  55  69
ATOM     69  C   UNL A   1      36.498  33.820  30.875  1.00  0.00     0.058 A 
ATOM     70  C   UNL A   1      35.529  34.309  29.961  1.00  0.00     0.135 A 
ATOM     71  C   UNL A   1      36.148  33.993  32.230  1.00  0.00     0.135 A 
ATOM     72  F   UNL A   1      35.688  34.188  28.637  1.00  0.00    -0.206 F 
ATOM     73  C   UNL A   1      34.359  34.963  30.350  1.00  0.00     0.059 A 
ATOM     74  C   UNL A   1      34.984  34.664  32.644  1.00  0.00     0.059 A 
ATOM     75  F   UNL A   1      36.901  33.495  33.217  1.00  0.00    -0.206 F 
ATOM     76  C   UNL A   1      34.099  35.156  31.695  1.00  0.00     0.060 A 
BRANCH  76  77
ATOM     77  S   UNL A   1      32.603  36.050  32.157  1.00  0.00     0.124 S 
ATOM     78  O   UNL A   1      32.260  36.736  30.915  1.00  0.00    -0.237 OA
ATOM     79  O   UNL A   1      31.706  34.968  32.551  1.00  0.00    -0.237 OA
ATOM     80  O   UNL A   1      33.045  36.921  33.243  1.00  0.00    -0.744 OA
ENDBRANCH  76  77
ENDBRANCH  55  69
BRANCH  56  81
ATOM     81  C   UNL A   1      44.550  29.075  27.926  1.00  0.00     0.058 A 
ATOM     82  C   UNL A   1      45.329  27.943  28.275  1.00  0.00     0.135 A 
ATOM     83  C   UNL A   1      43.796  28.968  26.746  1.00  0.00     0.135 A 
ATOM     84  F   UNL A   1      46.063  27.955  29.401  1.00  0.00    -0.206 F 
ATOM     85  C   UNL A   1      45.277  26.744  27.564  1.00  0.00     0.059 A 
ATOM     86  C   UNL A   1      43.754  27.780  25.998  1.00  0.00     0.059 A 
ATOM     87  F   UNL A   1      43.014  29.982  26.347  1.00  0.00    -0.206 F 
ATOM     88  C   UNL A   1      44.470  26.663  26.435  1.00  0.00     0.060 A 
BRANCH  88  89
ATOM     89  S   UNL A   1      44.259  25.042  25.651  1.00  0.00     0.124 S 
ATOM     90  O   UNL A   1      44.087  24.172  26.808  1.00  0.00    -0.237 OA
ATOM     91  O   UNL A   1      43.064  25.251  24.837  1.00  0.00    -0.237 OA
ATOM     92  O   UNL A   1      45.502  24.870  24.907  1.00  0.00    -0.744 OA
ENDBRANCH  88  89
ENDBRANCH  56  81
BRANCH  68  93
ATOM     93  C   UNL A   1      42.449  35.972  28.895  1.00  0.00     0.058 A 
ATOM     94  C   UNL A   1      41.870  36.422  27.700  1.00  0.00     0.135 A 
ATOM     95  C   UNL A   1      43.237  36.895  29.610  1.00  0.00     0.135 A 
ATOM     96  F   UNL A   1      41.163  35.586  26.921  1.00  0.00    -0.206 F 
ATOM     97  C   UNL A   1      41.997  37.739  27.277  1.00  0.00     0.059 A 
ATOM     98  C   UNL A   1      43.433  38.197  29.172  1.00  0.00     0.059 A 
ATOM     99  F   UNL A   1      43.809  36.571  30.780  1.00  0.00    -0.206 F 
ATOM    100  C   UNL A   1      42.776  38.620  28.025  1.00  0.00     0.060 A 
BRANCH 100 101
ATOM    101  S   UNL A   1      42.918  40.332  27.494  1.00  0.00     0.124 S 
ATOM    102  O   UNL A   1      43.677  40.219  26.253  1.00  0.00    -0.237 OA
ATOM    103  O   UNL A   1      41.514  40.701  27.346  1.00  0.00    -0.237 OA
ATOM    104  O   UNL A   1      43.625  40.970  28.600  1.00  0.00    -0.744 OA
ENDBRANCH 100 101
ENDBRANCH  68  93
ENDBRANCH  42  43
ENDBRANCH  35  37
ENDBRANCH  34  35
ENDBRANCH  33  34
ENDBRANCH   1  33
TORSDOF 19
ENDMDL
MODEL 2
REMARK VINA RESULT:     -12.7      1.790      2.511
REMARK SMILES Cc1ccc(N2C(=O)N[C@@H]3CCN(C(=O)CC4(CC(=O)OCCOC(=O)c5ccc(-c6c7nc(c(-c8c(F)cc(S(=O)(=O)[O-])cc8F)c8ccc([nH]8)c(-c8c(F)cc(S(=O)(=O)[O-])cc8F)c8nc(c(-c9c(F)cc(S(=O)(=O)[O-])cc9F)c9ccc6[nH]9)C=C8)C=C7)cc5)CCCC4)[C@@H]3C2=O)cc1
REMARK SMILES IDX 22 1 21 2 19 3 20 4 18 5 17 6 93 7 96 8 94 9 95 10 16 11
REMARK SMILES IDX 14 12 15 13 13 14 6 15 7 16 98 17 8 18 9 19 97 20 99 21
REMARK SMILES IDX 10 22 11 24 12 25 5 26 1 27 2 28 3 29 101 30 4 31 100 32
REMARK SMILES IDX 23 33 24 34 25 35 26 36 27 37 28 38 92 39 29 40 91 41 30 42
REMARK SMILES IDX 31 43 32 44 85 45 33 46 90 47 84 48 86 49 34 50 89 51 83 52
REMARK SMILES IDX 82 53 35 55 69 56 48 57 68 58 49 59 52 60 67 61 87 62 50 63
REMARK SMILES IDX 51 64 66 66 88 67 53 68 36 69 37 70 46 71 38 72 39 73 45 74
REMARK SMILES IDX 47 75 40 76 41 77 42 78 43 79 44 80 70 81 71 82 80 83 72 84
REMARK SMILES IDX 73 85 79 86 81 87 74 88 75 89 76 90 77 91 78 92 54 93 55 94
REMARK SMILES IDX 64 95 56 96 57 97 63 98 65 99 58 100 59 101 60 102 61 103
REMARK SMILES IDX 62 104
REMARK H PARENT 9 23 86 54 52 65
REMARK Flexibility Score: inf
ROOT
ATOM      1  C   UNL A   1      37.292  21.164  25.690  1.00  0.00     0.274 C 
ENDROOT
BRANCH   1   2
ATOM      2  O   UNL A   1      36.520  21.528  24.541  1.00  0.00    -0.462 OA
BRANCH   2   3
ATOM      3  C   UNL A   1      35.572  22.478  24.723  1.00  0.00     0.306 C 
ATOM      4  O   UNL A   1      35.692  23.433  25.480  1.00  0.00    -0.252 OA
BRANCH   3   5
ATOM      5  C   UNL A   1      34.301  22.175  23.930  1.00  0.00     0.130 C 
BRANCH   5   6
ATOM      6  C   UNL A   1      33.159  21.569  24.786  1.00  0.00    -0.011 C 
ATOM      7  C   UNL A   1      33.701  20.362  25.577  1.00  0.00     0.008 C 
ATOM      8  C   UNL A   1      32.188  20.953  23.745  1.00  0.00     0.008 C 
ATOM      9  C   UNL A   1      33.689  19.197  24.604  1.00  0.00     0.001 C 
ATOM     10  C   UNL A   1      32.530  19.466  23.652  1.00  0.00     0.001 C 
BRANCH   6  11
ATOM     11  C   UNL A   1      32.599  22.669  25.750  1.00  0.00     0.107 C 
BRANCH  11  12
ATOM     12  C   UNL A   1      31.471  23.625  25.331  1.00  0.00     0.223 C 
ATOM     13  O   UNL A   1      30.393  23.646  25.926  1.00  0.00    -0.275 OA
BRANCH  12  14
ATOM     14  N   UNL A   1      31.709  24.513  24.311  1.00  0.00    -0.328 N 
ATOM     15  N   UNL A   1      33.170  27.808  24.846  1.00  0.00    -0.230 N 
ATOM     16  C   UNL A   1      33.421  28.164  23.528  1.00  0.00     0.329 C 
ATOM     17  C   UNL A   1      32.722  26.556  25.274  1.00  0.00     0.260 C 
ATOM     18  O   UNL A   1      33.641  29.300  23.107  1.00  0.00    -0.248 OA
ATOM     19  N   UNL A   1      33.472  27.155  22.620  1.00  0.00    -0.332 N 
ATOM     20  C   UNL A   1      32.884  25.386  24.292  1.00  0.00     0.197 C 
ATOM     21  O   UNL A   1      32.227  26.390  26.394  1.00  0.00    -0.271 OA
ATOM     22  C   UNL A   1      32.962  25.837  22.838  1.00  0.00     0.118 C 
ATOM     23  H   UNL A   1      33.892  27.344  21.749  1.00  0.00     0.165 HD
ATOM     24  C   UNL A   1      31.530  25.774  22.330  1.00  0.00     0.049 C 
ATOM     25  C   UNL A   1      30.902  24.677  23.139  1.00  0.00     0.122 C 
BRANCH  15  26
ATOM     26  C   UNL A   1      33.387  28.797  25.851  1.00  0.00     0.054 A 
ATOM     27  C   UNL A   1      34.383  32.002  28.549  1.00  0.00     0.044 C 
ATOM     28  C   UNL A   1      34.028  30.869  27.634  1.00  0.00    -0.051 A 
ATOM     29  C   UNL A   1      32.795  30.859  26.971  1.00  0.00     0.005 A 
ATOM     30  C   UNL A   1      34.914  29.805  27.443  1.00  0.00     0.005 A 
ATOM     31  C   UNL A   1      32.483  29.841  26.067  1.00  0.00     0.027 A 
ATOM     32  C   UNL A   1      34.588  28.766  26.572  1.00  0.00     0.027 A 
ENDBRANCH  15  26
ENDBRANCH  12  14
ENDBRANCH  11  12
ENDBRANCH   6  11
ENDBRANCH   5   6
ENDBRANCH   3   5
ENDBRANCH   2   3
ENDBRANCH   1   2
BRANCH   1  33
ATOM     33  C   UNL A   1      38.791  21.411  25.423  1.00  0.00     0.275 C 
BRANCH  33  34
ATOM     34  O   UNL A   1      39.613  21.917  26.506  1.00  0.00    -0.458 OA
BRANCH  34  35
ATOM     35  C   UNL A   1      40.963  21.982  26.328  1.00  0.00     0.338 C 
ATOM     36  O   UNL A   1      41.604  21.105  25.738  1.00  0.00    -0.246 OA
BRANCH  35  37
ATOM     37  C   UNL A   1      41.430  23.363  26.642  1.00  0.00     0.060 A 
ATOM     38  C   UNL A   1      41.284  24.443  25.754  1.00  0.00     0.016 A 
ATOM     39  C   UNL A   1      41.652  23.616  27.988  1.00  0.00     0.016 A 
ATOM     40  C   UNL A   1      41.222  25.763  26.247  1.00  0.00     0.010 A 
ATOM     41  C   UNL A   1      41.301  24.843  28.476  1.00  0.00     0.010 A 
ATOM     42  C   UNL A   1      41.160  25.951  27.627  1.00  0.00    -0.014 A 
BRANCH  42  43
ATOM     43  C   UNL A   1      41.234  27.210  28.373  1.00  0.00     0.031 A 
ATOM     44  C   UNL A   1      40.192  28.256  28.454  1.00  0.00     0.074 A 
ATOM     45  C   UNL A   1      42.307  27.207  29.204  1.00  0.00     0.049 A 
ATOM     46  N   UNL A   1      40.383  29.380  29.056  1.00  0.00    -0.248 NA
ATOM     47  C   UNL A   1      38.851  28.167  27.898  1.00  0.00     0.031 C 
ATOM     48  C   UNL A   1      42.654  28.018  30.351  1.00  0.00     0.029 A 
ATOM     49  N   UNL A   1      43.439  26.395  29.029  1.00  0.00    -0.354 N 
ATOM     50  C   UNL A   1      39.175  30.040  29.189  1.00  0.00     0.074 A 
ATOM     51  C   UNL A   1      38.253  29.257  28.406  1.00  0.00     0.031 C 
ATOM     52  C   UNL A   1      43.986  27.916  30.546  1.00  0.00     0.029 A 
ATOM     53  C   UNL A   1      44.537  27.140  29.435  1.00  0.00     0.049 A 
ATOM     54  H   UNL A   1      43.451  25.474  28.684  1.00  0.00     0.167 HD
ATOM     55  C   UNL A   1      39.122  31.115  30.033  1.00  0.00     0.037 A 
ATOM     56  C   UNL A   1      45.339  27.583  28.419  1.00  0.00     0.037 A 
ATOM     57  C   UNL A   1      40.480  31.455  30.468  1.00  0.00     0.049 A 
ATOM     58  C   UNL A   1      45.225  29.081  28.236  1.00  0.00     0.074 A 
ATOM     59  C   UNL A   1      41.246  31.133  31.574  1.00  0.00     0.029 A 
ATOM     60  N   UNL A   1      41.356  31.947  29.521  1.00  0.00    -0.354 N 
ATOM     61  N   UNL A   1      44.328  29.822  28.830  1.00  0.00    -0.248 NA
ATOM     62  C   UNL A   1      46.089  29.859  27.356  1.00  0.00     0.031 C 
ATOM     63  C   UNL A   1      42.616  31.340  31.227  1.00  0.00     0.029 A 
ATOM     64  C   UNL A   1      42.670  31.808  29.924  1.00  0.00     0.049 A 
ATOM     65  H   UNL A   1      41.079  32.347  28.666  1.00  0.00     0.167 HD
ATOM     66  C   UNL A   1      44.488  31.123  28.469  1.00  0.00     0.074 A 
ATOM     67  C   UNL A   1      45.587  31.096  27.517  1.00  0.00     0.031 C 
ATOM     68  C   UNL A   1      43.724  32.133  28.976  1.00  0.00     0.037 A 
BRANCH  55  69
ATOM     69  C   UNL A   1      37.895  31.796  30.620  1.00  0.00     0.058 A 
ATOM     70  C   UNL A   1      37.622  33.147  30.280  1.00  0.00     0.135 A 
ATOM     71  C   UNL A   1      36.974  31.236  31.529  1.00  0.00     0.135 A 
ATOM     72  F   UNL A   1      38.378  33.817  29.399  1.00  0.00    -0.206 F 
ATOM     73  C   UNL A   1      36.578  33.889  30.835  1.00  0.00     0.059 A 
ATOM     74  C   UNL A   1      35.927  31.969  32.113  1.00  0.00     0.059 A 
ATOM     75  F   UNL A   1      37.027  29.945  31.871  1.00  0.00    -0.206 F 
ATOM     76  C   UNL A   1      35.743  33.301  31.767  1.00  0.00     0.060 A 
BRANCH  76  77
ATOM     77  S   UNL A   1      34.437  34.306  32.499  1.00  0.00     0.124 S 
ATOM     78  O   UNL A   1      33.666  33.312  33.241  1.00  0.00    -0.237 OA
ATOM     79  O   UNL A   1      35.194  35.253  33.310  1.00  0.00    -0.237 OA
ATOM     80  O   UNL A   1      33.755  34.880  31.342  1.00  0.00    -0.744 OA
ENDBRANCH  76  77
ENDBRANCH  55  69
BRANCH  56  81
ATOM     81  C   UNL A   1      45.490  26.559  27.313  1.00  0.00     0.058 A 
ATOM     82  C   UNL A   1      46.246  25.390  27.579  1.00  0.00     0.135 A 
ATOM     83  C   UNL A   1      44.663  26.518  26.179  1.00  0.00     0.135 A 
ATOM     84  F   UNL A   1      47.047  25.339  28.657  1.00  0.00    -0.206 F 
ATOM     85  C   UNL A   1      46.107  24.218  26.836  1.00  0.00     0.059 A 
ATOM     86  C   UNL A   1      44.531  25.357  25.399  1.00  0.00     0.059 A 
ATOM     87  F   UNL A   1      43.897  27.571  25.860  1.00  0.00    -0.206 F 
ATOM     88  C   UNL A   1      45.231  24.202  25.757  1.00  0.00     0.060 A 
BRANCH  88  89
ATOM     89  S   UNL A   1      44.912  22.616  24.939  1.00  0.00     0.124 S 
ATOM     90  O   UNL A   1      44.609  21.751  26.073  1.00  0.00    -0.237 OA
ATOM     91  O   UNL A   1      43.781  22.941  24.074  1.00  0.00    -0.237 OA
ATOM     92  O   UNL A   1      46.168  22.341  24.250  1.00  0.00    -0.744 OA
ENDBRANCH  88  89
ENDBRANCH  56  81
BRANCH  68  93
ATOM     93  C   UNL A   1      43.959  33.555  28.593  1.00  0.00     0.058 A 
ATOM     94  C   UNL A   1      44.328  34.513  29.547  1.00  0.00     0.135 A 
ATOM     95  C   UNL A   1      43.727  34.016  27.281  1.00  0.00     0.135 A 
ATOM     96  F   UNL A   1      44.499  34.170  30.835  1.00  0.00    -0.206 F 
ATOM     97  C   UNL A   1      44.536  35.843  29.205  1.00  0.00     0.059 A 
ATOM     98  C   UNL A   1      43.863  35.351  26.932  1.00  0.00     0.059 A 
ATOM     99  F   UNL A   1      43.398  33.174  26.290  1.00  0.00    -0.206 F 
ATOM    100  C   UNL A   1      44.307  36.250  27.892  1.00  0.00     0.060 A 
BRANCH 100 101
ATOM    101  S   UNL A   1      44.604  37.965  27.441  1.00  0.00     0.124 S 
ATOM    102  O   UNL A   1      43.449  38.280  26.607  1.00  0.00    -0.237 OA
ATOM    103  O   UNL A   1      44.629  38.603  28.754  1.00  0.00    -0.237 OA
ATOM    104  O   UNL A   1      45.882  37.913  26.739  1.00  0.00    -0.744 OA
ENDBRANCH 100 101
ENDBRANCH  68  93
ENDBRANCH  42  43
ENDBRANCH  35  37
ENDBRANCH  34  35
ENDBRANCH  33  34
ENDBRANCH   1  33
TORSDOF 19
ENDMDL
MODEL 3
REMARK VINA RESULT:     -12.6      1.561      2.446
REMARK SMILES Cc1ccc(N2C(=O)N[C@@H]3CCN(C(=O)CC4(CC(=O)OCCOC(=O)c5ccc(-c6c7nc(c(-c8c(F)cc(S(=O)(=O)[O-])cc8F)c8ccc([nH]8)c(-c8c(F)cc(S(=O)(=O)[O-])cc8F)c8nc(c(-c9c(F)cc(S(=O)(=O)[O-])cc9F)c9ccc6[nH]9)C=C8)C=C7)cc5)CCCC4)[C@@H]3C2=O)cc1
REMARK SMILES IDX 22 1 21 2 19 3 20 4 18 5 17 6 93 7 96 8 94 9 95 10 16 11
REMARK SMILES IDX 14 12 15 13 13 14 6 15 7 16 98 17 8 18 9 19 97 20 99 21
REMARK SMILES IDX 10 22 11 24 12 25 5 26 1 27 2 28 3 29 101 30 4 31 100 32
REMARK SMILES IDX 23 33 24 34 25 35 26 36 27 37 28 38 92 39 29 40 91 41 30 42
REMARK SMILES IDX 31 43 32 44 85 45 33 46 90 47 84 48 86 49 34 50 89 51 83 52
REMARK SMILES IDX 82 53 35 55 69 56 48 57 68 58 49 59 52 60 67 61 87 62 50 63
REMARK SMILES IDX 51 64 66 66 88 67 53 68 36 69 37 70 46 71 38 72 39 73 45 74
REMARK SMILES IDX 47 75 40 76 41 77 42 78 43 79 44 80 70 81 71 82 80 83 72 84
REMARK SMILES IDX 73 85 79 86 81 87 74 88 75 89 76 90 77 91 78 92 54 93 55 94
REMARK SMILES IDX 64 95 56 96 57 97 63 98 65 99 58 100 59 101 60 102 61 103
REMARK SMILES IDX 62 104
REMARK H PARENT 9 23 86 54 52 65
REMARK Flexibility Score: inf
ROOT
ATOM      1  C   UNL A   1      36.999  22.102  25.711  1.00  0.00     0.274 C 
ENDROOT
BRANCH   1   2
ATOM      2  O   UNL A   1      35.774  22.677  26.177  1.00  0.00    -0.462 OA
BRANCH   2   3
ATOM      3  C   UNL A   1      34.689  21.866  26.192  1.00  0.00     0.306 C 
ATOM      4  O   UNL A   1      34.130  21.485  27.213  1.00  0.00    -0.252 OA
BRANCH   3   5
ATOM      5  C   UNL A   1      34.292  21.417  24.786  1.00  0.00     0.130 C 
BRANCH   5   6
ATOM      6  C   UNL A   1      32.768  21.198  24.604  1.00  0.00    -0.011 C 
ATOM      7  C   UNL A   1      32.293  20.097  25.574  1.00  0.00     0.008 C 
ATOM      8  C   UNL A   1      32.639  20.563  23.195  1.00  0.00     0.008 C 
ATOM      9  C   UNL A   1      32.636  18.783  24.899  1.00  0.00     0.001 C 
ATOM     10  C   UNL A   1      32.548  19.051  23.402  1.00  0.00     0.001 C 
BRANCH   6  11
ATOM     11  C   UNL A   1      32.020  22.547  24.873  1.00  0.00     0.107 C 
BRANCH  11  12
ATOM     12  C   UNL A   1      32.343  23.830  24.091  1.00  0.00     0.223 C 
ATOM     13  O   UNL A   1      32.292  23.864  22.862  1.00  0.00    -0.275 OA
BRANCH  12  14
ATOM     14  N   UNL A   1      32.632  24.973  24.798  1.00  0.00    -0.328 N 
ATOM     15  N   UNL A   1      30.921  28.141  24.236  1.00  0.00    -0.230 N 
ATOM     16  C   UNL A   1      31.387  28.851  25.334  1.00  0.00     0.329 C 
ATOM     17  C   UNL A   1      31.145  26.783  23.997  1.00  0.00     0.260 C 
ATOM     18  O   UNL A   1      31.359  30.072  25.480  1.00  0.00    -0.248 OA
ATOM     19  N   UNL A   1      31.885  28.122  26.368  1.00  0.00    -0.332 N 
ATOM     20  C   UNL A   1      31.598  25.931  25.192  1.00  0.00     0.197 C 
ATOM     21  O   UNL A   1      30.979  26.283  22.879  1.00  0.00    -0.271 OA
ATOM     22  C   UNL A   1      32.277  26.750  26.283  1.00  0.00     0.118 C 
ATOM     23  H   UNL A   1      31.982  28.572  27.239  1.00  0.00     0.165 HD
ATOM     24  C   UNL A   1      33.761  26.682  25.958  1.00  0.00     0.049 C 
ATOM     25  C   UNL A   1      33.926  25.357  25.275  1.00  0.00     0.122 C 
BRANCH  15  26
ATOM     26  C   UNL A   1      30.147  28.850  23.270  1.00  0.00     0.054 A 
ATOM     27  C   UNL A   1      27.761  31.367  20.719  1.00  0.00     0.044 C 
ATOM     28  C   UNL A   1      28.582  30.466  21.591  1.00  0.00    -0.051 A 
ATOM     29  C   UNL A   1      29.958  30.333  21.367  1.00  0.00     0.005 A 
ATOM     30  C   UNL A   1      27.985  29.740  22.625  1.00  0.00     0.005 A 
ATOM     31  C   UNL A   1      30.742  29.546  22.215  1.00  0.00     0.027 A 
ATOM     32  C   UNL A   1      28.758  28.922  23.448  1.00  0.00     0.027 A 
ENDBRANCH  15  26
ENDBRANCH  12  14
ENDBRANCH  11  12
ENDBRANCH   6  11
ENDBRANCH   5   6
ENDBRANCH   3   5
ENDBRANCH   2   3
ENDBRANCH   1   2
BRANCH   1  33
ATOM     33  C   UNL A   1      38.043  23.209  25.462  1.00  0.00     0.275 C 
BRANCH  33  34
ATOM     34  O   UNL A   1      38.490  24.005  26.589  1.00  0.00    -0.458 OA
BRANCH  34  35
ATOM     35  C   UNL A   1      39.792  23.912  26.983  1.00  0.00     0.338 C 
ATOM     36  O   UNL A   1      40.484  22.909  26.774  1.00  0.00    -0.246 OA
BRANCH  35  37
ATOM     37  C   UNL A   1      40.284  25.267  27.366  1.00  0.00     0.060 A 
ATOM     38  C   UNL A   1      40.436  26.317  26.443  1.00  0.00     0.016 A 
ATOM     39  C   UNL A   1      40.208  25.559  28.720  1.00  0.00     0.016 A 
ATOM     40  C   UNL A   1      40.370  27.657  26.877  1.00  0.00     0.010 A 
ATOM     41  C   UNL A   1      39.854  26.827  29.083  1.00  0.00     0.010 A 
ATOM     42  C   UNL A   1      40.005  27.906  28.199  1.00  0.00    -0.014 A 
BRANCH  42  43
ATOM     43  C   UNL A   1      40.007  29.186  28.913  1.00  0.00     0.031 A 
ATOM     44  C   UNL A   1      38.928  30.198  28.922  1.00  0.00     0.074 A 
ATOM     45  C   UNL A   1      41.043  29.242  29.786  1.00  0.00     0.049 A 
ATOM     46  N   UNL A   1      39.056  31.343  29.500  1.00  0.00    -0.248 NA
ATOM     47  C   UNL A   1      37.615  30.048  28.315  1.00  0.00     0.031 C 
ATOM     48  C   UNL A   1      41.315  30.095  30.923  1.00  0.00     0.029 A 
ATOM     49  N   UNL A   1      42.208  28.465  29.679  1.00  0.00    -0.354 N 
ATOM     50  C   UNL A   1      37.823  31.965  29.565  1.00  0.00     0.074 A 
ATOM     51  C   UNL A   1      36.961  31.130  28.767  1.00  0.00     0.031 C 
ATOM     52  C   UNL A   1      42.641  30.043  31.175  1.00  0.00     0.029 A 
ATOM     53  C   UNL A   1      43.263  29.258  30.109  1.00  0.00     0.049 A 
ATOM     54  H   UNL A   1      42.265  27.536  29.362  1.00  0.00     0.167 HD
ATOM     55  C   UNL A   1      37.699  33.060  30.376  1.00  0.00     0.037 A 
ATOM     56  C   UNL A   1      44.092  29.700  29.114  1.00  0.00     0.037 A 
ATOM     57  C   UNL A   1      39.026  33.457  30.856  1.00  0.00     0.049 A 
ATOM     58  C   UNL A   1      43.935  31.188  28.886  1.00  0.00     0.074 A 
ATOM     59  C   UNL A   1      39.755  33.191  32.001  1.00  0.00     0.029 A 
ATOM     60  N   UNL A   1      39.924  33.953  29.932  1.00  0.00    -0.354 N 
ATOM     61  N   UNL A   1      42.991  31.914  29.421  1.00  0.00    -0.248 NA
ATOM     62  C   UNL A   1      44.809  31.972  28.020  1.00  0.00     0.031 C 
ATOM     63  C   UNL A   1      41.131  33.436  31.704  1.00  0.00     0.029 A 
ATOM     64  C   UNL A   1      41.223  33.870  30.392  1.00  0.00     0.049 A 
ATOM     65  H   UNL A   1      39.669  34.321  29.056  1.00  0.00     0.167 HD
ATOM     66  C   UNL A   1      43.122  33.210  29.031  1.00  0.00     0.074 A 
ATOM     67  C   UNL A   1      44.260  33.195  28.126  1.00  0.00     0.031 C 
ATOM     68  C   UNL A   1      42.305  34.206  29.479  1.00  0.00     0.037 A 
BRANCH  55  69
ATOM     69  C   UNL A   1      36.427  33.714  30.893  1.00  0.00     0.058 A 
ATOM     70  C   UNL A   1      35.464  34.188  29.965  1.00  0.00     0.135 A 
ATOM     71  C   UNL A   1      36.089  33.949  32.242  1.00  0.00     0.135 A 
ATOM     72  F   UNL A   1      35.612  34.010  28.646  1.00  0.00    -0.206 F 
ATOM     73  C   UNL A   1      34.311  34.883  30.333  1.00  0.00     0.059 A 
ATOM     74  C   UNL A   1      34.943  34.661  32.635  1.00  0.00     0.059 A 
ATOM     75  F   UNL A   1      36.836  33.474  33.244  1.00  0.00    -0.206 F 
ATOM     76  C   UNL A   1      34.063  35.135  31.670  1.00  0.00     0.060 A 
BRANCH  76  77
ATOM     77  S   UNL A   1      32.590  36.080  32.104  1.00  0.00     0.124 S 
ATOM     78  O   UNL A   1      33.051  36.856  33.251  1.00  0.00    -0.237 OA
ATOM     79  O   UNL A   1      32.342  36.842  30.884  1.00  0.00    -0.237 OA
ATOM     80  O   UNL A   1      31.600  35.051  32.410  1.00  0.00    -0.744 OA
ENDBRANCH  76  77
ENDBRANCH  55  69
BRANCH  56  81
ATOM     81  C   UNL A   1      44.322  28.654  28.044  1.00  0.00     0.058 A 
ATOM     82  C   UNL A   1      45.055  27.491  28.390  1.00  0.00     0.135 A 
ATOM     83  C   UNL A   1      43.580  28.588  26.854  1.00  0.00     0.135 A 
ATOM     84  F   UNL A   1      45.774  27.463  29.525  1.00  0.00    -0.206 F 
ATOM     85  C   UNL A   1      44.969  26.303  27.664  1.00  0.00     0.059 A 
ATOM     86  C   UNL A   1      43.505  27.411  26.091  1.00  0.00     0.059 A 
ATOM     87  F   UNL A   1      42.841  29.634  26.457  1.00  0.00    -0.206 F 
ATOM     88  C   UNL A   1      44.175  26.264  26.524  1.00  0.00     0.060 A 
BRANCH  88  89
ATOM     89  S   UNL A   1      43.915  24.661  25.718  1.00  0.00     0.124 S 
ATOM     90  O   UNL A   1      42.832  24.967  24.791  1.00  0.00    -0.237 OA
ATOM     91  O   UNL A   1      45.218  24.413  25.106  1.00  0.00    -0.237 OA
ATOM     92  O   UNL A   1      43.568  23.784  26.831  1.00  0.00    -0.744 OA
ENDBRANCH  88  89
ENDBRANCH  56  81
BRANCH  68  93
ATOM     93  C   UNL A   1      42.508  35.624  29.066  1.00  0.00     0.058 A 
ATOM     94  C   UNL A   1      43.335  36.484  29.802  1.00  0.00     0.135 A 
ATOM     95  C   UNL A   1      41.807  36.187  27.981  1.00  0.00     0.135 A 
ATOM     96  F   UNL A   1      43.983  36.045  30.895  1.00  0.00    -0.206 F 
ATOM     97  C   UNL A   1      43.521  37.811  29.436  1.00  0.00     0.059 A 
ATOM     98  C   UNL A   1      41.926  37.526  27.637  1.00  0.00     0.059 A 
ATOM     99  F   UNL A   1      41.014  35.442  27.196  1.00  0.00    -0.206 F 
ATOM    100  C   UNL A   1      42.816  38.319  28.347  1.00  0.00     0.060 A 
BRANCH 100 101
ATOM    101  S   UNL A   1      43.078  40.029  27.854  1.00  0.00     0.124 S 
ATOM    102  O   UNL A   1      43.788  40.586  29.001  1.00  0.00    -0.237 OA
ATOM    103  O   UNL A   1      43.872  39.856  26.641  1.00  0.00    -0.237 OA
ATOM    104  O   UNL A   1      41.723  40.533  27.655  1.00  0.00    -0.744 OA
ENDBRANCH 100 101
ENDBRANCH  68  93
ENDBRANCH  42  43
ENDBRANCH  35  37
ENDBRANCH  34  35
ENDBRANCH  33  34
ENDBRANCH   1  33
TORSDOF 19
ENDMDL
