MODEL 1
REMARK VINA RESULT:     -10.9      0.000      0.000
REMARK SMILES C[NH2+][C@@]1(C(=O)OCCOC(=O)c2ccc(-c3c4nc(c(-c5c(F)cc(S(=O)(=O)[O-])cc5F)c5ccc([nH]5)c(-c5c(F)cc(S(=O)(=O)[O-])cc5F)c5nc(c(-c6c(F)cc(S(=O)(=O)[O-])cc6F)c6ccc3[nH]6)C=C5)C=C4)cc2)CC[C@H]([NH+]2CC[NH+](C)CC2)C1
REMARK SMILES IDX 8 1 7 2 6 3 4 4 5 5 3 6 78 7 88 8 79 9 80 10 2 11 1 12 81 15
REMARK SMILES IDX 82 16 87 17 83 19 86 20 84 21 85 22 9 24 10 25 11 26 12 27
REMARK SMILES IDX 13 28 77 29 14 30 76 31 15 32 16 33 17 34 70 35 18 36 75 37
REMARK SMILES IDX 69 38 71 39 19 40 74 41 68 42 67 43 20 45 54 46 33 47 53 48
REMARK SMILES IDX 34 49 37 50 52 51 72 52 35 53 36 54 51 56 73 57 38 58 21 59
REMARK SMILES IDX 22 60 31 61 23 62 24 63 30 64 32 65 25 66 26 67 27 68 28 69
REMARK SMILES IDX 29 70 55 71 56 72 65 73 57 74 58 75 64 76 66 77 59 78 60 79
REMARK SMILES IDX 61 80 62 81 63 82 39 83 40 84 49 85 41 86 42 87 48 88 50 89
REMARK SMILES IDX 43 90 44 91 45 92 46 93 47 94
REMARK H PARENT 2 13 2 14 81 18 84 23 71 44 37 55
REMARK Flexibility Score: inf
ROOT
ATOM      1  C   UNL A   1      33.191  30.465  26.944  1.00  0.00     0.275 C 
ENDROOT
BRANCH   1   2
ATOM      2  C   UNL A   1      31.995  29.522  26.825  1.00  0.00     0.274 C 
BRANCH   2   3
ATOM      3  O   UNL A   1      32.210  28.597  25.733  1.00  0.00    -0.457 OA
BRANCH   3   4
ATOM      4  C   UNL A   1      31.420  28.763  24.637  1.00  0.00     0.368 C 
ATOM      5  O   UNL A   1      30.699  29.742  24.468  1.00  0.00    -0.245 OA
BRANCH   4   6
ATOM      6  C   UNL A   1      31.552  27.608  23.588  1.00  0.00     0.200 C 
ATOM      7  C   UNL A   1      30.133  27.123  23.239  1.00  0.00     0.087 C 
ATOM      8  C   UNL A   1      32.208  26.323  24.141  1.00  0.00     0.146 C 
ATOM      9  C   UNL A   1      29.767  26.227  24.410  1.00  0.00     0.072 C 
ATOM     10  C   UNL A   1      31.059  25.458  24.717  1.00  0.00     0.191 C 
BRANCH   6  11
ATOM     11  N   UNL A   1      32.123  28.159  22.339  1.00  0.00    -0.334 N 
ATOM     12  C   UNL A   1      33.499  28.612  22.413  1.00  0.00     0.331 C 
ATOM     13  H   UNL A   1      32.071  27.433  21.625  1.00  0.00     0.347 HD
ATOM     14  H   UNL A   1      31.571  28.991  22.128  1.00  0.00     0.347 HD
ENDBRANCH   6  11
BRANCH  10  15
ATOM     15  N   UNL A   1      31.269  24.879  26.049  1.00  0.00    -0.323 N 
ATOM     16  C   UNL A   1      32.665  24.496  26.326  1.00  0.00     0.324 C 
ATOM     17  C   UNL A   1      30.391  23.784  26.479  1.00  0.00     0.324 C 
ATOM     18  H   UNL A   1      30.998  25.684  26.612  1.00  0.00     0.348 HD
ATOM     19  C   UNL A   1      33.090  23.099  25.808  1.00  0.00     0.324 C 
ATOM     20  C   UNL A   1      30.751  22.393  25.921  1.00  0.00     0.324 C 
ATOM     21  N   UNL A   1      32.155  22.005  26.137  1.00  0.00    -0.328 N 
ATOM     22  C   UNL A   1      32.473  20.812  25.352  1.00  0.00     0.333 C 
ATOM     23  H   UNL A   1      32.268  21.800  27.129  1.00  0.00     0.348 HD
ENDBRANCH  10  15
ENDBRANCH   4   6
ENDBRANCH   3   4
ENDBRANCH   2   3
ENDBRANCH   1   2
BRANCH   1  24
ATOM     24  O   UNL A   1      34.078  29.896  27.919  1.00  0.00    -0.458 OA
BRANCH  24  25
ATOM     25  C   UNL A   1      34.882  30.767  28.561  1.00  0.00     0.338 C 
ATOM     26  O   UNL A   1      34.571  31.785  29.155  1.00  0.00    -0.246 OA
BRANCH  25  27
ATOM     27  C   UNL A   1      36.226  30.178  28.573  1.00  0.00     0.060 A 
ATOM     28  C   UNL A   1      36.705  29.671  29.784  1.00  0.00     0.016 A 
ATOM     29  C   UNL A   1      37.036  30.210  27.443  1.00  0.00     0.016 A 
ATOM     30  C   UNL A   1      38.031  29.275  29.894  1.00  0.00     0.010 A 
ATOM     31  C   UNL A   1      38.341  29.719  27.536  1.00  0.00     0.010 A 
ATOM     32  C   UNL A   1      38.863  29.280  28.769  1.00  0.00    -0.014 A 
BRANCH  32  33
ATOM     33  C   UNL A   1      40.291  28.883  28.883  1.00  0.00     0.031 A 
ATOM     34  C   UNL A   1      41.303  29.891  29.356  1.00  0.00     0.074 A 
ATOM     35  C   UNL A   1      40.689  27.634  28.572  1.00  0.00     0.049 A 
ATOM     36  N   UNL A   1      42.605  29.865  29.255  1.00  0.00    -0.248 NA
ATOM     37  C   UNL A   1      40.774  31.101  30.007  1.00  0.00     0.031 C 
ATOM     38  C   UNL A   1      39.811  26.533  28.170  1.00  0.00     0.029 A 
ATOM     39  N   UNL A   1      41.945  27.080  28.544  1.00  0.00    -0.354 N 
ATOM     40  C   UNL A   1      43.047  31.086  29.749  1.00  0.00     0.074 A 
ATOM     41  C   UNL A   1      41.875  31.821  30.176  1.00  0.00     0.031 C 
ATOM     42  C   UNL A   1      40.549  25.430  27.968  1.00  0.00     0.029 A 
ATOM     43  C   UNL A   1      41.958  25.770  28.127  1.00  0.00     0.049 A 
ATOM     44  H   UNL A   1      42.758  27.573  28.799  1.00  0.00     0.167 HD
ATOM     45  C   UNL A   1      44.316  31.554  29.819  1.00  0.00     0.037 A 
ATOM     46  C   UNL A   1      42.988  24.950  27.845  1.00  0.00     0.037 A 
ATOM     47  C   UNL A   1      45.476  30.780  29.460  1.00  0.00     0.049 A 
ATOM     48  C   UNL A   1      44.389  25.479  27.945  1.00  0.00     0.074 A 
ATOM     49  C   UNL A   1      46.807  31.157  29.481  1.00  0.00     0.029 A 
ATOM     50  N   UNL A   1      45.442  29.456  29.045  1.00  0.00    -0.354 N 
ATOM     51  N   UNL A   1      44.791  26.679  28.291  1.00  0.00    -0.248 NA
ATOM     52  C   UNL A   1      45.473  24.556  27.587  1.00  0.00     0.031 C 
ATOM     53  C   UNL A   1      47.578  30.062  29.066  1.00  0.00     0.029 A 
ATOM     54  C   UNL A   1      46.727  28.998  28.814  1.00  0.00     0.049 A 
ATOM     55  H   UNL A   1      44.623  28.922  28.932  1.00  0.00     0.167 HD
ATOM     56  C   UNL A   1      46.175  26.659  28.183  1.00  0.00     0.074 A 
ATOM     57  C   UNL A   1      46.543  25.320  27.766  1.00  0.00     0.031 C 
ATOM     58  C   UNL A   1      47.063  27.662  28.397  1.00  0.00     0.037 A 
BRANCH  45  59
ATOM     59  C   UNL A   1      44.510  32.979  30.253  1.00  0.00     0.058 A 
ATOM     60  C   UNL A   1      44.417  34.053  29.356  1.00  0.00     0.135 A 
ATOM     61  C   UNL A   1      44.781  33.270  31.600  1.00  0.00     0.135 A 
ATOM     62  F   UNL A   1      44.183  33.827  28.054  1.00  0.00    -0.206 F 
ATOM     63  C   UNL A   1      44.607  35.366  29.776  1.00  0.00     0.059 A 
ATOM     64  C   UNL A   1      44.955  34.576  32.046  1.00  0.00     0.059 A 
ATOM     65  F   UNL A   1      44.886  32.277  32.498  1.00  0.00    -0.206 F 
ATOM     66  C   UNL A   1      44.881  35.617  31.122  1.00  0.00     0.060 A 
BRANCH  66  67
ATOM     67  S   UNL A   1      45.128  37.323  31.660  1.00  0.00     0.124 S 
ATOM     68  O   UNL A   1      43.751  37.764  31.866  1.00  0.00    -0.237 OA
ATOM     69  O   UNL A   1      45.928  37.162  32.869  1.00  0.00    -0.237 OA
ATOM     70  O   UNL A   1      45.821  37.936  30.531  1.00  0.00    -0.744 OA
ENDBRANCH  66  67
ENDBRANCH  45  59
BRANCH  46  71
ATOM     71  C   UNL A   1      42.718  23.564  27.382  1.00  0.00     0.058 A 
ATOM     72  C   UNL A   1      42.772  23.236  26.021  1.00  0.00     0.135 A 
ATOM     73  C   UNL A   1      42.453  22.531  28.297  1.00  0.00     0.135 A 
ATOM     74  F   UNL A   1      43.011  24.190  25.110  1.00  0.00    -0.206 F 
ATOM     75  C   UNL A   1      42.581  21.929  25.581  1.00  0.00     0.059 A 
ATOM     76  C   UNL A   1      42.282  21.215  27.882  1.00  0.00     0.059 A 
ATOM     77  F   UNL A   1      42.404  22.795  29.612  1.00  0.00    -0.206 F 
ATOM     78  C   UNL A   1      42.344  20.924  26.521  1.00  0.00     0.060 A 
BRANCH  78  79
ATOM     79  S   UNL A   1      42.191  19.214  25.957  1.00  0.00     0.124 S 
ATOM     80  O   UNL A   1      43.018  19.227  24.757  1.00  0.00    -0.237 OA
ATOM     81  O   UNL A   1      42.720  18.462  27.090  1.00  0.00    -0.237 OA
ATOM     82  O   UNL A   1      40.755  19.067  25.738  1.00  0.00    -0.744 OA
ENDBRANCH  78  79
ENDBRANCH  46  71
BRANCH  58  83
ATOM     83  C   UNL A   1      48.512  27.338  28.193  1.00  0.00     0.058 A 
ATOM     84  C   UNL A   1      49.133  27.526  26.950  1.00  0.00     0.135 A 
ATOM     85  C   UNL A   1      49.294  26.868  29.260  1.00  0.00     0.135 A 
ATOM     86  F   UNL A   1      48.422  27.968  25.900  1.00  0.00    -0.206 F 
ATOM     87  C   UNL A   1      50.481  27.240  26.763  1.00  0.00     0.059 A 
ATOM     88  C   UNL A   1      50.647  26.590  29.100  1.00  0.00     0.059 A 
ATOM     89  F   UNL A   1      48.744  26.679  30.469  1.00  0.00    -0.206 F 
ATOM     90  C   UNL A   1      51.229  26.769  27.844  1.00  0.00     0.060 A 
BRANCH  90  91
ATOM     91  S   UNL A   1      52.984  26.419  27.601  1.00  0.00     0.124 S 
ATOM     92  O   UNL A   1      52.930  25.210  26.785  1.00  0.00    -0.237 OA
ATOM     93  O   UNL A   1      53.456  27.623  26.923  1.00  0.00    -0.237 OA
ATOM     94  O   UNL A   1      53.481  26.239  28.961  1.00  0.00    -0.744 OA
ENDBRANCH  90  91
ENDBRANCH  58  83
ENDBRANCH  32  33
ENDBRANCH  25  27
ENDBRANCH  24  25
ENDBRANCH   1  24
TORSDOF 16
ENDMDL
MODEL 2
REMARK VINA RESULT:     -10.9      1.580      2.290
REMARK SMILES C[NH2+][C@@]1(C(=O)OCCOC(=O)c2ccc(-c3c4nc(c(-c5c(F)cc(S(=O)(=O)[O-])cc5F)c5ccc([nH]5)c(-c5c(F)cc(S(=O)(=O)[O-])cc5F)c5nc(c(-c6c(F)cc(S(=O)(=O)[O-])cc6F)c6ccc3[nH]6)C=C5)C=C4)cc2)CC[C@H]([NH+]2CC[NH+](C)CC2)C1
REMARK SMILES IDX 8 1 7 2 6 3 4 4 5 5 3 6 78 7 88 8 79 9 80 10 2 11 1 12 81 15
REMARK SMILES IDX 82 16 87 17 83 19 86 20 84 21 85 22 9 24 10 25 11 26 12 27
REMARK SMILES IDX 13 28 77 29 14 30 76 31 15 32 16 33 17 34 70 35 18 36 75 37
REMARK SMILES IDX 69 38 71 39 19 40 74 41 68 42 67 43 20 45 54 46 33 47 53 48
REMARK SMILES IDX 34 49 37 50 52 51 72 52 35 53 36 54 51 56 73 57 38 58 21 59
REMARK SMILES IDX 22 60 31 61 23 62 24 63 30 64 32 65 25 66 26 67 27 68 28 69
REMARK SMILES IDX 29 70 55 71 56 72 65 73 57 74 58 75 64 76 66 77 59 78 60 79
REMARK SMILES IDX 61 80 62 81 63 82 39 83 40 84 49 85 41 86 42 87 48 88 50 89
REMARK SMILES IDX 43 90 44 91 45 92 46 93 47 94
REMARK H PARENT 2 13 2 14 81 18 84 23 71 44 37 55
REMARK Flexibility Score: inf
ROOT
ATOM      1  C   UNL A   1      34.068  30.494  27.433  1.00  0.00     0.275 C 
ENDROOT
BRANCH   1   2
ATOM      2  C   UNL A   1      33.912  29.234  26.584  1.00  0.00     0.274 C 
BRANCH   2   3
ATOM      3  O   UNL A   1      33.536  29.597  25.235  1.00  0.00    -0.457 OA
BRANCH   3   4
ATOM      4  C   UNL A   1      32.218  29.472  24.921  1.00  0.00     0.368 C 
ATOM      5  O   UNL A   1      31.326  30.079  25.505  1.00  0.00    -0.245 OA
BRANCH   4   6
ATOM      6  C   UNL A   1      31.949  28.517  23.710  1.00  0.00     0.200 C 
ATOM      7  C   UNL A   1      30.605  27.807  23.958  1.00  0.00     0.087 C 
ATOM      8  C   UNL A   1      32.931  27.328  23.612  1.00  0.00     0.146 C 
ATOM      9  C   UNL A   1      30.961  26.709  24.946  1.00  0.00     0.072 C 
ATOM     10  C   UNL A   1      32.315  26.182  24.453  1.00  0.00     0.191 C 
BRANCH   6  11
ATOM     11  N   UNL A   1      31.770  29.331  22.488  1.00  0.00    -0.334 N 
ATOM     12  C   UNL A   1      30.400  29.623  22.110  1.00  0.00     0.331 C 
ATOM     13  H   UNL A   1      32.250  30.220  22.633  1.00  0.00     0.347 HD
ATOM     14  H   UNL A   1      32.152  28.772  21.726  1.00  0.00     0.347 HD
ENDBRANCH   6  11
BRANCH  10  15
ATOM     15  N   UNL A   1      33.213  25.485  25.382  1.00  0.00    -0.323 N 
ATOM     16  C   UNL A   1      34.401  24.892  24.741  1.00  0.00     0.324 C 
ATOM     17  C   UNL A   1      32.635  24.495  26.300  1.00  0.00     0.324 C 
ATOM     18  H   UNL A   1      33.476  26.279  25.966  1.00  0.00     0.348 HD
ATOM     19  C   UNL A   1      34.193  23.490  24.116  1.00  0.00     0.324 C 
ATOM     20  C   UNL A   1      32.353  23.112  25.684  1.00  0.00     0.324 C 
ATOM     21  N   UNL A   1      33.509  22.517  24.990  1.00  0.00    -0.328 N 
ATOM     22  C   UNL A   1      33.084  21.350  24.217  1.00  0.00     0.333 C 
ATOM     23  H   UNL A   1      34.179  22.228  25.702  1.00  0.00     0.348 HD
ENDBRANCH  10  15
ENDBRANCH   4   6
ENDBRANCH   3   4
ENDBRANCH   2   3
ENDBRANCH   1   2
BRANCH   1  24
ATOM     24  O   UNL A   1      35.468  30.804  27.471  1.00  0.00    -0.458 OA
BRANCH  24  25
ATOM     25  C   UNL A   1      36.036  30.812  28.694  1.00  0.00     0.338 C 
ATOM     26  O   UNL A   1      35.543  31.163  29.752  1.00  0.00    -0.246 OA
BRANCH  25  27
ATOM     27  C   UNL A   1      37.337  30.146  28.565  1.00  0.00     0.060 A 
ATOM     28  C   UNL A   1      38.058  29.892  29.735  1.00  0.00     0.016 A 
ATOM     29  C   UNL A   1      37.881  29.863  27.317  1.00  0.00     0.016 A 
ATOM     30  C   UNL A   1      39.367  29.438  29.658  1.00  0.00     0.010 A 
ATOM     31  C   UNL A   1      39.164  29.315  27.251  1.00  0.00     0.010 A 
ATOM     32  C   UNL A   1      39.934  29.129  28.417  1.00  0.00    -0.014 A 
BRANCH  32  33
ATOM     33  C   UNL A   1      41.343  28.666  28.323  1.00  0.00     0.031 A 
ATOM     34  C   UNL A   1      42.460  29.656  28.514  1.00  0.00     0.074 A 
ATOM     35  C   UNL A   1      41.633  27.375  28.071  1.00  0.00     0.049 A 
ATOM     36  N   UNL A   1      43.722  29.550  28.195  1.00  0.00    -0.248 NA
ATOM     37  C   UNL A   1      42.101  30.947  29.125  1.00  0.00     0.031 C 
ATOM     38  C   UNL A   1      40.657  26.291  27.936  1.00  0.00     0.029 A 
ATOM     39  N   UNL A   1      42.842  26.753  27.884  1.00  0.00    -0.354 N 
ATOM     40  C   UNL A   1      44.290  30.785  28.484  1.00  0.00     0.074 A 
ATOM     41  C   UNL A   1      43.241  31.618  29.031  1.00  0.00     0.031 C 
ATOM     42  C   UNL A   1      41.305  25.137  27.719  1.00  0.00     0.029 A 
ATOM     43  C   UNL A   1      42.732  25.412  27.600  1.00  0.00     0.049 A 
ATOM     44  H   UNL A   1      43.706  27.222  27.945  1.00  0.00     0.167 HD
ATOM     45  C   UNL A   1      45.568  31.187  28.289  1.00  0.00     0.037 A 
ATOM     46  C   UNL A   1      43.664  24.515  27.228  1.00  0.00     0.037 A 
ATOM     47  C   UNL A   1      46.618  30.322  27.814  1.00  0.00     0.049 A 
ATOM     48  C   UNL A   1      45.080  24.973  27.035  1.00  0.00     0.074 A 
ATOM     49  C   UNL A   1      47.945  30.627  27.569  1.00  0.00     0.029 A 
ATOM     50  N   UNL A   1      46.460  28.970  27.543  1.00  0.00    -0.354 N 
ATOM     51  N   UNL A   1      45.582  26.176  27.187  1.00  0.00    -0.248 NA
ATOM     52  C   UNL A   1      46.049  23.965  26.588  1.00  0.00     0.031 C 
ATOM     53  C   UNL A   1      48.588  29.459  27.138  1.00  0.00     0.029 A 
ATOM     54  C   UNL A   1      47.667  28.424  27.141  1.00  0.00     0.049 A 
ATOM     55  H   UNL A   1      45.615  28.474  27.625  1.00  0.00     0.167 HD
ATOM     56  C   UNL A   1      46.924  26.071  26.846  1.00  0.00     0.074 A 
ATOM     57  C   UNL A   1      47.162  24.683  26.505  1.00  0.00     0.031 C 
ATOM     58  C   UNL A   1      47.873  27.040  26.805  1.00  0.00     0.037 A 
BRANCH  45  59
ATOM     59  C   UNL A   1      45.890  32.633  28.541  1.00  0.00     0.058 A 
ATOM     60  C   UNL A   1      46.378  33.087  29.775  1.00  0.00     0.135 A 
ATOM     61  C   UNL A   1      45.716  33.577  27.516  1.00  0.00     0.135 A 
ATOM     62  F   UNL A   1      46.539  32.229  30.795  1.00  0.00    -0.206 F 
ATOM     63  C   UNL A   1      46.663  34.432  29.991  1.00  0.00     0.059 A 
ATOM     64  C   UNL A   1      46.013  34.924  27.704  1.00  0.00     0.059 A 
ATOM     65  F   UNL A   1      45.245  33.196  26.318  1.00  0.00    -0.206 F 
ATOM     66  C   UNL A   1      46.472  35.343  28.950  1.00  0.00     0.060 A 
BRANCH  66  67
ATOM     67  S   UNL A   1      46.843  37.087  29.238  1.00  0.00     0.124 S 
ATOM     68  O   UNL A   1      45.732  37.737  28.549  1.00  0.00    -0.237 OA
ATOM     69  O   UNL A   1      46.825  37.179  30.694  1.00  0.00    -0.237 OA
ATOM     70  O   UNL A   1      48.153  37.261  28.619  1.00  0.00    -0.744 OA
ENDBRANCH  66  67
ENDBRANCH  45  59
BRANCH  46  71
ATOM     71  C   UNL A   1      43.265  23.109  26.956  1.00  0.00     0.058 A 
ATOM     72  C   UNL A   1      43.205  22.619  25.646  1.00  0.00     0.135 A 
ATOM     73  C   UNL A   1      42.987  22.218  28.006  1.00  0.00     0.135 A 
ATOM     74  F   UNL A   1      43.452  23.435  24.611  1.00  0.00    -0.206 F 
ATOM     75  C   UNL A   1      42.892  21.288  25.382  1.00  0.00     0.059 A 
ATOM     76  C   UNL A   1      42.694  20.880  27.767  1.00  0.00     0.059 A 
ATOM     77  F   UNL A   1      43.043  22.639  29.279  1.00  0.00    -0.206 F 
ATOM     78  C   UNL A   1      42.645  20.425  26.451  1.00  0.00     0.060 A 
BRANCH  78  79
ATOM     79  S   UNL A   1      42.332  18.678  26.113  1.00  0.00     0.124 S 
ATOM     80  O   UNL A   1      40.920  18.698  25.751  1.00  0.00    -0.237 OA
ATOM     81  O   UNL A   1      43.266  18.396  25.028  1.00  0.00    -0.237 OA
ATOM     82  O   UNL A   1      42.651  18.034  27.384  1.00  0.00    -0.744 OA
ENDBRANCH  78  79
ENDBRANCH  46  71
BRANCH  58  83
ATOM     83  C   UNL A   1      49.251  26.620  26.389  1.00  0.00     0.058 A 
ATOM     84  C   UNL A   1      50.137  26.025  27.297  1.00  0.00     0.135 A 
ATOM     85  C   UNL A   1      49.673  26.784  25.060  1.00  0.00     0.135 A 
ATOM     86  F   UNL A   1      49.777  25.854  28.579  1.00  0.00    -0.206 F 
ATOM     87  C   UNL A   1      51.410  25.621  26.908  1.00  0.00     0.059 A 
ATOM     88  C   UNL A   1      50.935  26.374  24.646  1.00  0.00     0.059 A 
ATOM     89  F   UNL A   1      48.856  27.344  24.155  1.00  0.00    -0.206 F 
ATOM     90  C   UNL A   1      51.801  25.804  25.580  1.00  0.00     0.060 A 
BRANCH  90  91
ATOM     91  S   UNL A   1      53.447  25.259  25.075  1.00  0.00     0.124 S 
ATOM     92  O   UNL A   1      53.446  25.603  23.657  1.00  0.00    -0.237 OA
ATOM     93  O   UNL A   1      54.321  26.063  25.924  1.00  0.00    -0.237 OA
ATOM     94  O   UNL A   1      53.435  23.831  25.376  1.00  0.00    -0.744 OA
ENDBRANCH  90  91
ENDBRANCH  58  83
ENDBRANCH  32  33
ENDBRANCH  25  27
ENDBRANCH  24  25
ENDBRANCH   1  24
TORSDOF 16
ENDMDL
MODEL 3
REMARK VINA RESULT:     -10.8      1.158      1.963
REMARK SMILES C[NH2+][C@@]1(C(=O)OCCOC(=O)c2ccc(-c3c4nc(c(-c5c(F)cc(S(=O)(=O)[O-])cc5F)c5ccc([nH]5)c(-c5c(F)cc(S(=O)(=O)[O-])cc5F)c5nc(c(-c6c(F)cc(S(=O)(=O)[O-])cc6F)c6ccc3[nH]6)C=C5)C=C4)cc2)CC[C@H]([NH+]2CC[NH+](C)CC2)C1
REMARK SMILES IDX 8 1 7 2 6 3 4 4 5 5 3 6 78 7 88 8 79 9 80 10 2 11 1 12 81 15
REMARK SMILES IDX 82 16 87 17 83 19 86 20 84 21 85 22 9 24 10 25 11 26 12 27
REMARK SMILES IDX 13 28 77 29 14 30 76 31 15 32 16 33 17 34 70 35 18 36 75 37
REMARK SMILES IDX 69 38 71 39 19 40 74 41 68 42 67 43 20 45 54 46 33 47 53 48
REMARK SMILES IDX 34 49 37 50 52 51 72 52 35 53 36 54 51 56 73 57 38 58 21 59
REMARK SMILES IDX 22 60 31 61 23 62 24 63 30 64 32 65 25 66 26 67 27 68 28 69
REMARK SMILES IDX 29 70 55 71 56 72 65 73 57 74 58 75 64 76 66 77 59 78 60 79
REMARK SMILES IDX 61 80 62 81 63 82 39 83 40 84 49 85 41 86 42 87 48 88 50 89
REMARK SMILES IDX 43 90 44 91 45 92 46 93 47 94
REMARK H PARENT 2 13 2 14 81 18 84 23 71 44 37 55
REMARK Flexibility Score: inf
ROOT
ATOM      1  C   UNL A   1      32.452  28.631  27.434  1.00  0.00     0.275 C 
ENDROOT
BRANCH   1   2
ATOM      2  C   UNL A   1      32.143  28.093  26.038  1.00  0.00     0.274 C 
BRANCH   2   3
ATOM      3  O   UNL A   1      31.759  26.701  26.124  1.00  0.00    -0.457 OA
BRANCH   3   4
ATOM      4  C   UNL A   1      30.973  26.227  25.120  1.00  0.00     0.368 C 
ATOM      5  O   UNL A   1      29.751  26.337  25.112  1.00  0.00    -0.245 OA
BRANCH   4   6
ATOM      6  C   UNL A   1      31.778  25.571  23.948  1.00  0.00     0.200 C 
ATOM      7  C   UNL A   1      30.934  24.414  23.384  1.00  0.00     0.087 C 
ATOM      8  C   UNL A   1      33.067  24.845  24.396  1.00  0.00     0.146 C 
ATOM      9  C   UNL A   1      31.163  23.290  24.380  1.00  0.00     0.072 C 
ATOM     10  C   UNL A   1      32.656  23.387  24.723  1.00  0.00     0.191 C 
BRANCH   6  11
ATOM     11  N   UNL A   1      31.919  26.556  22.853  1.00  0.00    -0.334 N 
ATOM     12  C   UNL A   1      32.062  26.009  21.517  1.00  0.00     0.331 C 
ATOM     13  H   UNL A   1      31.090  27.150  22.860  1.00  0.00     0.347 HD
ATOM     14  H   UNL A   1      32.789  27.053  23.041  1.00  0.00     0.347 HD
ENDBRANCH   6  11
BRANCH  10  15
ATOM     15  N   UNL A   1      33.158  22.824  25.982  1.00  0.00    -0.323 N 
ATOM     16  C   UNL A   1      34.422  23.423  26.448  1.00  0.00     0.324 C 
ATOM     17  C   UNL A   1      33.262  21.364  26.100  1.00  0.00     0.324 C 
ATOM     18  H   UNL A   1      32.385  23.093  26.590  1.00  0.00     0.348 HD
ATOM     19  C   UNL A   1      35.711  22.825  25.833  1.00  0.00     0.324 C 
ATOM     20  C   UNL A   1      34.502  20.736  25.434  1.00  0.00     0.324 C 
ATOM     21  N   UNL A   1      35.777  21.351  25.842  1.00  0.00    -0.328 N 
ATOM     22  C   UNL A   1      36.859  20.884  24.974  1.00  0.00     0.333 C 
ATOM     23  H   UNL A   1      35.963  21.063  26.802  1.00  0.00     0.348 HD
ENDBRANCH  10  15
ENDBRANCH   4   6
ENDBRANCH   3   4
ENDBRANCH   2   3
ENDBRANCH   1   2
BRANCH   1  24
ATOM     24  O   UNL A   1      33.878  28.748  27.532  1.00  0.00    -0.458 OA
BRANCH  24  25
ATOM     25  C   UNL A   1      34.348  29.975  27.835  1.00  0.00     0.338 C 
ATOM     26  O   UNL A   1      33.720  31.011  27.971  1.00  0.00    -0.246 OA
BRANCH  25  27
ATOM     27  C   UNL A   1      35.772  29.820  28.154  1.00  0.00     0.060 A 
ATOM     28  C   UNL A   1      36.697  30.062  27.135  1.00  0.00     0.016 A 
ATOM     29  C   UNL A   1      36.186  29.356  29.398  1.00  0.00     0.016 A 
ATOM     30  C   UNL A   1      38.037  29.751  27.327  1.00  0.00     0.010 A 
ATOM     31  C   UNL A   1      37.548  29.138  29.616  1.00  0.00     0.010 A 
ATOM     32  C   UNL A   1      38.483  29.299  28.574  1.00  0.00    -0.014 A 
BRANCH  32  33
ATOM     33  C   UNL A   1      39.911  28.940  28.781  1.00  0.00     0.031 A 
ATOM     34  C   UNL A   1      40.862  29.972  29.323  1.00  0.00     0.074 A 
ATOM     35  C   UNL A   1      40.362  27.703  28.493  1.00  0.00     0.049 A 
ATOM     36  N   UNL A   1      42.168  29.981  29.308  1.00  0.00    -0.248 NA
ATOM     37  C   UNL A   1      40.259  31.164  29.942  1.00  0.00     0.031 C 
ATOM     38  C   UNL A   1      39.542  26.581  28.031  1.00  0.00     0.029 A 
ATOM     39  N   UNL A   1      41.631  27.184  28.547  1.00  0.00    -0.354 N 
ATOM     40  C   UNL A   1      42.543  31.211  29.834  1.00  0.00     0.074 A 
ATOM     41  C   UNL A   1      41.327  31.913  30.185  1.00  0.00     0.031 C 
ATOM     42  C   UNL A   1      40.321  25.500  27.874  1.00  0.00     0.029 A 
ATOM     43  C   UNL A   1      41.708  25.876  28.127  1.00  0.00     0.049 A 
ATOM     44  H   UNL A   1      42.413  27.697  28.856  1.00  0.00     0.167 HD
ATOM     45  C   UNL A   1      43.792  31.712  29.989  1.00  0.00     0.037 A 
ATOM     46  C   UNL A   1      42.775  25.085  27.911  1.00  0.00     0.037 A 
ATOM     47  C   UNL A   1      44.994  30.971  29.705  1.00  0.00     0.049 A 
ATOM     48  C   UNL A   1      44.151  25.650  28.106  1.00  0.00     0.074 A 
ATOM     49  C   UNL A   1      46.310  31.384  29.815  1.00  0.00     0.029 A 
ATOM     50  N   UNL A   1      45.022  29.649  29.285  1.00  0.00    -0.354 N 
ATOM     51  N   UNL A   1      44.498  26.859  28.481  1.00  0.00    -0.248 NA
ATOM     52  C   UNL A   1      45.282  24.759  27.817  1.00  0.00     0.031 C 
ATOM     53  C   UNL A   1      47.135  30.312  29.448  1.00  0.00     0.029 A 
ATOM     54  C   UNL A   1      46.332  29.226  29.138  1.00  0.00     0.049 A 
ATOM     55  H   UNL A   1      44.227  29.094  29.116  1.00  0.00     0.167 HD
ATOM     56  C   UNL A   1      45.886  26.877  28.465  1.00  0.00     0.074 A 
ATOM     57  C   UNL A   1      46.316  25.551  28.068  1.00  0.00     0.031 C 
ATOM     58  C   UNL A   1      46.730  27.902  28.740  1.00  0.00     0.037 A 
BRANCH  45  59
ATOM     59  C   UNL A   1      43.918  33.140  30.439  1.00  0.00     0.058 A 
ATOM     60  C   UNL A   1      43.981  34.208  29.532  1.00  0.00     0.135 A 
ATOM     61  C   UNL A   1      43.964  33.440  31.811  1.00  0.00     0.135 A 
ATOM     62  F   UNL A   1      43.964  33.973  28.210  1.00  0.00    -0.206 F 
ATOM     63  C   UNL A   1      44.105  35.523  29.968  1.00  0.00     0.059 A 
ATOM     64  C   UNL A   1      44.068  34.749  32.269  1.00  0.00     0.059 A 
ATOM     65  F   UNL A   1      43.915  32.454  32.720  1.00  0.00    -0.206 F 
ATOM     66  C   UNL A   1      44.153  35.783  31.339  1.00  0.00     0.060 A 
BRANCH  66  67
ATOM     67  S   UNL A   1      44.316  37.493  31.898  1.00  0.00     0.124 S 
ATOM     68  O   UNL A   1      45.760  37.600  32.089  1.00  0.00    -0.237 OA
ATOM     69  O   UNL A   1      43.768  38.247  30.776  1.00  0.00    -0.237 OA
ATOM     70  O   UNL A   1      43.517  37.526  33.120  1.00  0.00    -0.744 OA
ENDBRANCH  66  67
ENDBRANCH  45  59
BRANCH  46  71
ATOM     71  C   UNL A   1      42.574  23.694  27.427  1.00  0.00     0.058 A 
ATOM     72  C   UNL A   1      42.666  23.386  26.064  1.00  0.00     0.135 A 
ATOM     73  C   UNL A   1      42.338  22.640  28.325  1.00  0.00     0.135 A 
ATOM     74  F   UNL A   1      42.878  24.361  25.169  1.00  0.00    -0.206 F 
ATOM     75  C   UNL A   1      42.540  22.078  25.605  1.00  0.00     0.059 A 
ATOM     76  C   UNL A   1      42.232  21.323  27.892  1.00  0.00     0.059 A 
ATOM     77  F   UNL A   1      42.254  22.885  29.643  1.00  0.00    -0.206 F 
ATOM     78  C   UNL A   1      42.330  21.052  26.529  1.00  0.00     0.060 A 
BRANCH  78  79
ATOM     79  S   UNL A   1      42.261  19.344  25.943  1.00  0.00     0.124 S 
ATOM     80  O   UNL A   1      40.832  19.170  25.716  1.00  0.00    -0.237 OA
ATOM     81  O   UNL A   1      43.097  19.390  24.748  1.00  0.00    -0.237 OA
ATOM     82  O   UNL A   1      42.823  18.590  27.059  1.00  0.00    -0.744 OA
ENDBRANCH  78  79
ENDBRANCH  46  71
BRANCH  58  83
ATOM     83  C   UNL A   1      48.198  27.618  28.630  1.00  0.00     0.058 A 
ATOM     84  C   UNL A   1      48.898  26.990  29.671  1.00  0.00     0.135 A 
ATOM     85  C   UNL A   1      48.902  27.945  27.461  1.00  0.00     0.135 A 
ATOM     86  F   UNL A   1      48.267  26.664  30.810  1.00  0.00    -0.206 F 
ATOM     87  C   UNL A   1      50.256  26.711  29.565  1.00  0.00     0.059 A 
ATOM     88  C   UNL A   1      50.257  27.663  27.327  1.00  0.00     0.059 A 
ATOM     89  F   UNL A   1      48.271  28.541  26.437  1.00  0.00    -0.206 F 
ATOM     90  C   UNL A   1      50.928  27.056  28.390  1.00  0.00     0.060 A 
BRANCH  90  91
ATOM     91  S   UNL A   1      52.687  26.673  28.249  1.00  0.00     0.124 S 
ATOM     92  O   UNL A   1      53.223  27.939  27.758  1.00  0.00    -0.237 OA
ATOM     93  O   UNL A   1      53.046  26.321  29.620  1.00  0.00    -0.237 OA
ATOM     94  O   UNL A   1      52.716  25.567  27.297  1.00  0.00    -0.744 OA
ENDBRANCH  90  91
ENDBRANCH  58  83
ENDBRANCH  32  33
ENDBRANCH  25  27
ENDBRANCH  24  25
ENDBRANCH   1  24
TORSDOF 16
ENDMDL
