MODEL 1
REMARK VINA RESULT:     -11.2      0.000      0.000
REMARK SMILES COc1cc(/C=C2/SC(=O)N(c3ccc(C)c(C)c3)C2=O)ccc1OCCC(=O)OCCOC(=O)c1ccc(-c2c3nc(c(-c4c(F)cc(S(=O)(=O)[O-])cc4F)c4ccc([nH]4)c(-c4c(F)cc(S(=O)(=O)[O-])cc4F)c4nc(c(-c5c(F)cc(S(=O)(=O)[O-])cc5F)c5ccc2[nH]5)C=C4)C=C3)cc1
REMARK SMILES IDX 31 1 30 2 28 3 29 4 27 5 26 6 25 7 24 8 3 9 4 10 5 11 23 12
REMARK SMILES IDX 22 13 2 14 1 15 6 16 7 17 8 18 20 19 9 20 11 21 21 22 10 23
REMARK SMILES IDX 12 24 13 25 19 26 14 27 17 28 15 29 18 30 16 31 32 32 33 33
REMARK SMILES IDX 34 34 35 35 36 36 37 37 101 38 38 39 100 40 39 41 40 42
REMARK SMILES IDX 41 43 94 44 42 45 99 46 93 47 95 48 43 49 98 50 92 51 91 52
REMARK SMILES IDX 44 54 78 55 57 56 77 57 58 58 61 59 76 60 96 61 59 62 60 63
REMARK SMILES IDX 75 65 97 66 62 67 45 68 46 69 55 70 47 71 48 72 54 73 56 74
REMARK SMILES IDX 49 75 50 76 51 77 52 78 53 79 79 80 80 81 89 82 81 83 82 84
REMARK SMILES IDX 88 85 90 86 83 87 84 88 85 89 86 90 87 91 63 92 64 93 73 94
REMARK SMILES IDX 65 95 66 96 72 97 74 98 67 99 68 100 69 101 70 102 71 103
REMARK H PARENT 95 53 61 64
REMARK Flexibility Score: inf
ROOT
ATOM      1  C   UNL A   1      39.181  21.872  26.056  1.00  0.00     0.274 C 
ENDROOT
BRANCH   1   2
ATOM      2  O   UNL A   1      38.066  22.660  25.580  1.00  0.00    -0.462 OA
BRANCH   2   3
ATOM      3  C   UNL A   1      37.249  22.103  24.650  1.00  0.00     0.309 C 
ATOM      4  O   UNL A   1      37.146  22.501  23.497  1.00  0.00    -0.252 OA
BRANCH   3   5
ATOM      5  C   UNL A   1      36.356  21.019  25.222  1.00  0.00     0.164 C 
BRANCH   5   6
ATOM      6  C   UNL A   1      35.032  21.449  25.848  1.00  0.00     0.241 C 
BRANCH   6   7
ATOM      7  O   UNL A   1      33.861  20.973  25.166  1.00  0.00    -0.489 OA
BRANCH   7   8
ATOM      8  C   UNL A   1      33.091  21.950  24.600  1.00  0.00     0.161 A 
ATOM      9  C   UNL A   1      32.032  22.599  25.239  1.00  0.00     0.161 A 
ATOM     10  C   UNL A   1      31.427  23.700  24.626  1.00  0.00     0.058 A 
ATOM     11  C   UNL A   1      31.851  24.119  23.352  1.00  0.00    -0.020 A 
ATOM     12  C   UNL A   1      33.438  22.296  23.293  1.00  0.00     0.051 A 
ATOM     13  C   UNL A   1      32.826  23.382  22.671  1.00  0.00     0.012 A 
BRANCH   9  14
ATOM     14  O   UNL A   1      31.522  22.067  26.394  1.00  0.00    -0.493 OA
ATOM     15  C   UNL A   1      32.162  22.554  27.568  1.00  0.00     0.278 C 
ENDBRANCH   9  14
BRANCH  11  16
ATOM     16  C   UNL A   1      31.214  25.244  22.656  1.00  0.00     0.029 C 
ATOM     17  C   UNL A   1      31.302  26.510  23.085  1.00  0.00     0.083 C 
ATOM     18  S   UNL A   1      30.443  27.838  22.410  1.00  0.00    -0.022 SA
ATOM     19  C   UNL A   1      32.076  26.956  24.270  1.00  0.00     0.272 C 
ATOM     20  C   UNL A   1      30.975  28.938  23.688  1.00  0.00     0.298 C 
ATOM     21  N   UNL A   1      31.912  28.310  24.470  1.00  0.00    -0.236 N 
ATOM     22  O   UNL A   1      32.677  26.194  25.017  1.00  0.00    -0.268 OA
ATOM     23  O   UNL A   1      30.520  30.065  23.789  1.00  0.00    -0.260 OA
BRANCH  21  24
ATOM     24  C   UNL A   1      32.528  28.889  25.602  1.00  0.00     0.053 A 
ATOM     25  C   UNL A   1      31.870  29.920  26.282  1.00  0.00     0.027 A 
ATOM     26  C   UNL A   1      33.859  28.602  25.910  1.00  0.00     0.030 A 
ATOM     27  C   UNL A   1      32.539  30.675  27.236  1.00  0.00     0.006 A 
ATOM     28  C   UNL A   1      34.566  29.408  26.820  1.00  0.00    -0.046 A 
ATOM     29  C   UNL A   1      33.895  30.443  27.503  1.00  0.00    -0.048 A 
ATOM     30  C   UNL A   1      36.045  29.188  26.974  1.00  0.00     0.044 C 
ATOM     31  C   UNL A   1      34.567  31.371  28.477  1.00  0.00     0.044 C 
ENDBRANCH  21  24
ENDBRANCH  11  16
ENDBRANCH   7   8
ENDBRANCH   6   7
ENDBRANCH   5   6
ENDBRANCH   3   5
ENDBRANCH   2   3
ENDBRANCH   1   2
BRANCH   1  32
ATOM     32  C   UNL A   1      40.352  22.695  26.596  1.00  0.00     0.275 C 
BRANCH  32  33
ATOM     33  O   UNL A   1      39.984  24.073  26.683  1.00  0.00    -0.458 OA
BRANCH  33  34
ATOM     34  C   UNL A   1      41.020  24.943  26.739  1.00  0.00     0.338 C 
ATOM     35  O   UNL A   1      41.973  24.983  25.980  1.00  0.00    -0.246 OA
BRANCH  34  36
ATOM     36  C   UNL A   1      40.806  25.885  27.860  1.00  0.00     0.060 A 
ATOM     37  C   UNL A   1      39.679  25.787  28.686  1.00  0.00     0.016 A 
ATOM     38  C   UNL A   1      41.734  26.907  28.065  1.00  0.00     0.016 A 
ATOM     39  C   UNL A   1      39.477  26.708  29.710  1.00  0.00     0.010 A 
ATOM     40  C   UNL A   1      41.570  27.781  29.139  1.00  0.00     0.010 A 
ATOM     41  C   UNL A   1      40.443  27.687  29.972  1.00  0.00    -0.014 A 
BRANCH  41  42
ATOM     42  C   UNL A   1      40.322  28.585  31.146  1.00  0.00     0.031 A 
ATOM     43  C   UNL A   1      39.315  29.699  31.140  1.00  0.00     0.074 A 
ATOM     44  C   UNL A   1      41.179  28.434  32.174  1.00  0.00     0.049 A 
ATOM     45  N   UNL A   1      39.176  30.695  31.976  1.00  0.00    -0.248 NA
ATOM     46  C   UNL A   1      38.355  29.709  30.026  1.00  0.00     0.031 C 
ATOM     47  C   UNL A   1      42.191  27.378  32.280  1.00  0.00     0.029 A 
ATOM     48  N   UNL A   1      41.351  29.169  33.317  1.00  0.00    -0.354 N 
ATOM     49  C   UNL A   1      38.142  31.475  31.467  1.00  0.00     0.074 A 
ATOM     50  C   UNL A   1      37.711  30.848  30.236  1.00  0.00     0.031 C 
ATOM     51  C   UNL A   1      42.855  27.516  33.437  1.00  0.00     0.029 A 
ATOM     52  C   UNL A   1      42.370  28.710  34.118  1.00  0.00     0.049 A 
ATOM     53  H   UNL A   1      40.797  29.951  33.544  1.00  0.00     0.167 HD
ATOM     54  C   UNL A   1      37.609  32.608  31.986  1.00  0.00     0.037 A 
ATOM     55  C   UNL A   1      42.876  29.211  35.259  1.00  0.00     0.037 A 
ATOM     56  C   UNL A   1      38.058  33.202  33.221  1.00  0.00     0.049 A 
ATOM     57  C   UNL A   1      42.290  30.483  35.802  1.00  0.00     0.074 A 
ATOM     58  C   UNL A   1      37.583  34.333  33.861  1.00  0.00     0.029 A 
ATOM     59  N   UNL A   1      39.096  32.708  34.004  1.00  0.00    -0.354 N 
ATOM     60  N   UNL A   1      41.315  31.214  35.312  1.00  0.00    -0.248 NA
ATOM     61  C   UNL A   1      42.874  31.004  37.042  1.00  0.00     0.031 C 
ATOM     62  C   UNL A   1      38.365  34.548  35.003  1.00  0.00     0.029 A 
ATOM     63  C   UNL A   1      39.289  33.519  35.109  1.00  0.00     0.049 A 
ATOM     64  H   UNL A   1      39.618  31.898  33.801  1.00  0.00     0.167 HD
ATOM     65  C   UNL A   1      41.147  32.268  36.200  1.00  0.00     0.074 A 
ATOM     66  C   UNL A   1      42.120  32.074  37.260  1.00  0.00     0.031 C 
ATOM     67  C   UNL A   1      40.267  33.299  36.150  1.00  0.00     0.037 A 
BRANCH  54  68
ATOM     68  C   UNL A   1      36.519  33.287  31.194  1.00  0.00     0.058 A 
ATOM     69  C   UNL A   1      36.793  34.053  30.047  1.00  0.00     0.135 A 
ATOM     70  C   UNL A   1      35.178  33.199  31.604  1.00  0.00     0.135 A 
ATOM     71  F   UNL A   1      38.056  34.183  29.608  1.00  0.00    -0.206 F 
ATOM     72  C   UNL A   1      35.795  34.756  29.380  1.00  0.00     0.059 A 
ATOM     73  C   UNL A   1      34.156  33.866  30.931  1.00  0.00     0.059 A 
ATOM     74  F   UNL A   1      34.847  32.476  32.686  1.00  0.00    -0.206 F 
ATOM     75  C   UNL A   1      34.479  34.666  29.837  1.00  0.00     0.060 A 
BRANCH  75  76
ATOM     76  S   UNL A   1      33.204  35.631  28.999  1.00  0.00     0.124 S 
ATOM     77  O   UNL A   1      32.428  34.579  28.346  1.00  0.00    -0.237 OA
ATOM     78  O   UNL A   1      32.542  36.309  30.108  1.00  0.00    -0.237 OA
ATOM     79  O   UNL A   1      33.964  36.496  28.102  1.00  0.00    -0.744 OA
ENDBRANCH  75  76
ENDBRANCH  54  68
BRANCH  55  80
ATOM     80  C   UNL A   1      43.964  28.484  35.966  1.00  0.00     0.058 A 
ATOM     81  C   UNL A   1      43.662  27.430  36.840  1.00  0.00     0.135 A 
ATOM     82  C   UNL A   1      45.319  28.764  35.727  1.00  0.00     0.135 A 
ATOM     83  F   UNL A   1      42.382  27.126  37.106  1.00  0.00    -0.206 F 
ATOM     84  C   UNL A   1      44.660  26.676  37.448  1.00  0.00     0.059 A 
ATOM     85  C   UNL A   1      46.337  28.008  36.302  1.00  0.00     0.059 A 
ATOM     86  F   UNL A   1      45.663  29.751  34.885  1.00  0.00    -0.206 F 
ATOM     87  C   UNL A   1      45.996  26.965  37.163  1.00  0.00     0.060 A 
BRANCH  87  88
ATOM     88  S   UNL A   1      47.277  25.920  37.890  1.00  0.00     0.124 S 
ATOM     89  O   UNL A   1      46.919  25.952  39.303  1.00  0.00    -0.237 OA
ATOM     90  O   UNL A   1      47.059  24.650  37.205  1.00  0.00    -0.237 OA
ATOM     91  O   UNL A   1      48.515  26.609  37.537  1.00  0.00    -0.744 OA
ENDBRANCH  87  88
ENDBRANCH  55  80
BRANCH  67  92
ATOM     92  C   UNL A   1      40.291  34.270  37.297  1.00  0.00     0.058 A 
ATOM     93  C   UNL A   1      41.135  35.390  37.305  1.00  0.00     0.135 A 
ATOM     94  C   UNL A   1      39.423  34.093  38.387  1.00  0.00     0.135 A 
ATOM     95  F   UNL A   1      41.992  35.598  36.292  1.00  0.00    -0.206 F 
ATOM     96  C   UNL A   1      41.136  36.289  38.366  1.00  0.00     0.059 A 
ATOM     97  C   UNL A   1      39.386  34.995  39.443  1.00  0.00     0.059 A 
ATOM     98  F   UNL A   1      38.589  33.041  38.424  1.00  0.00    -0.206 F 
ATOM     99  C   UNL A   1      40.255  36.084  39.430  1.00  0.00     0.060 A 
BRANCH  99 100
ATOM    100  S   UNL A   1      40.244  37.276  40.784  1.00  0.00     0.124 S 
ATOM    101  O   UNL A   1      41.561  37.065  41.373  1.00  0.00    -0.237 OA
ATOM    102  O   UNL A   1      40.058  38.542  40.082  1.00  0.00    -0.237 OA
ATOM    103  O   UNL A   1      39.113  36.849  41.603  1.00  0.00    -0.744 OA
ENDBRANCH  99 100
ENDBRANCH  67  92
ENDBRANCH  41  42
ENDBRANCH  34  36
ENDBRANCH  33  34
ENDBRANCH  32  33
ENDBRANCH   1  32
TORSDOF 20
ENDMDL
MODEL 2
REMARK VINA RESULT:     -11.1      1.651      8.242
REMARK SMILES COc1cc(/C=C2/SC(=O)N(c3ccc(C)c(C)c3)C2=O)ccc1OCCC(=O)OCCOC(=O)c1ccc(-c2c3nc(c(-c4c(F)cc(S(=O)(=O)[O-])cc4F)c4ccc([nH]4)c(-c4c(F)cc(S(=O)(=O)[O-])cc4F)c4nc(c(-c5c(F)cc(S(=O)(=O)[O-])cc5F)c5ccc2[nH]5)C=C4)C=C3)cc1
REMARK SMILES IDX 31 1 30 2 28 3 29 4 27 5 26 6 25 7 24 8 3 9 4 10 5 11 23 12
REMARK SMILES IDX 22 13 2 14 1 15 6 16 7 17 8 18 20 19 9 20 11 21 21 22 10 23
REMARK SMILES IDX 12 24 13 25 19 26 14 27 17 28 15 29 18 30 16 31 32 32 33 33
REMARK SMILES IDX 34 34 35 35 36 36 37 37 101 38 38 39 100 40 39 41 40 42
REMARK SMILES IDX 41 43 94 44 42 45 99 46 93 47 95 48 43 49 98 50 92 51 91 52
REMARK SMILES IDX 44 54 78 55 57 56 77 57 58 58 61 59 76 60 96 61 59 62 60 63
REMARK SMILES IDX 75 65 97 66 62 67 45 68 46 69 55 70 47 71 48 72 54 73 56 74
REMARK SMILES IDX 49 75 50 76 51 77 52 78 53 79 79 80 80 81 89 82 81 83 82 84
REMARK SMILES IDX 88 85 90 86 83 87 84 88 85 89 86 90 87 91 63 92 64 93 73 94
REMARK SMILES IDX 65 95 66 96 72 97 74 98 67 99 68 100 69 101 70 102 71 103
REMARK H PARENT 95 53 61 64
REMARK Flexibility Score: inf
ROOT
ATOM      1  C   UNL A   1      42.406  23.031  26.355  1.00  0.00     0.274 C 
ENDROOT
BRANCH   1   2
ATOM      2  O   UNL A   1      40.961  22.959  26.393  1.00  0.00    -0.462 OA
BRANCH   2   3
ATOM      3  C   UNL A   1      40.398  21.885  27.003  1.00  0.00     0.309 C 
ATOM      4  O   UNL A   1      40.753  21.445  28.089  1.00  0.00    -0.252 OA
BRANCH   3   5
ATOM      5  C   UNL A   1      39.373  21.183  26.135  1.00  0.00     0.164 C 
BRANCH   5   6
ATOM      6  C   UNL A   1      38.167  21.992  25.666  1.00  0.00     0.241 C 
BRANCH   6   7
ATOM      7  O   UNL A   1      36.923  21.273  25.662  1.00  0.00    -0.489 OA
BRANCH   7   8
ATOM      8  C   UNL A   1      36.013  21.709  24.740  1.00  0.00     0.161 A 
ATOM      9  C   UNL A   1      34.645  21.428  24.779  1.00  0.00     0.161 A 
ATOM     10  C   UNL A   1      33.785  22.068  23.882  1.00  0.00     0.058 A 
ATOM     11  C   UNL A   1      34.301  22.949  22.915  1.00  0.00    -0.020 A 
ATOM     12  C   UNL A   1      36.537  22.497  23.715  1.00  0.00     0.051 A 
ATOM     13  C   UNL A   1      35.685  23.123  22.807  1.00  0.00     0.012 A 
BRANCH   9  14
ATOM     14  O   UNL A   1      34.190  20.438  25.609  1.00  0.00    -0.493 OA
ATOM     15  C   UNL A   1      33.529  19.385  24.918  1.00  0.00     0.278 C 
ENDBRANCH   9  14
BRANCH  11  16
ATOM     16  C   UNL A   1      33.437  23.608  21.928  1.00  0.00     0.029 C 
ATOM     17  C   UNL A   1      32.932  24.836  22.107  1.00  0.00     0.083 C 
ATOM     18  S   UNL A   1      31.784  25.588  21.069  1.00  0.00    -0.022 SA
ATOM     19  C   UNL A   1      33.205  25.707  23.278  1.00  0.00     0.272 C 
ATOM     20  C   UNL A   1      31.565  26.957  22.167  1.00  0.00     0.298 C 
ATOM     21  N   UNL A   1      32.487  26.881  23.181  1.00  0.00    -0.236 N 
ATOM     22  O   UNL A   1      33.885  25.366  24.237  1.00  0.00    -0.268 OA
ATOM     23  O   UNL A   1      30.697  27.792  21.978  1.00  0.00    -0.260 OA
BRANCH  21  24
ATOM     24  C   UNL A   1      32.579  27.799  24.251  1.00  0.00     0.053 A 
ATOM     25  C   UNL A   1      33.622  28.733  24.259  1.00  0.00     0.027 A 
ATOM     26  C   UNL A   1      31.789  27.641  25.391  1.00  0.00     0.030 A 
ATOM     27  C   UNL A   1      33.892  29.479  25.398  1.00  0.00     0.006 A 
ATOM     28  C   UNL A   1      32.101  28.338  26.572  1.00  0.00    -0.046 A 
ATOM     29  C   UNL A   1      33.151  29.279  26.571  1.00  0.00    -0.048 A 
ATOM     30  C   UNL A   1      31.350  27.993  27.828  1.00  0.00     0.044 C 
ATOM     31  C   UNL A   1      33.573  30.057  27.785  1.00  0.00     0.044 C 
ENDBRANCH  21  24
ENDBRANCH  11  16
ENDBRANCH   7   8
ENDBRANCH   6   7
ENDBRANCH   5   6
ENDBRANCH   3   5
ENDBRANCH   2   3
ENDBRANCH   1   2
BRANCH   1  32
ATOM     32  C   UNL A   1      42.964  23.924  25.246  1.00  0.00     0.275 C 
BRANCH  32  33
ATOM     33  O   UNL A   1      42.615  25.288  25.492  1.00  0.00    -0.458 OA
BRANCH  33  34
ATOM     34  C   UNL A   1      43.638  26.081  25.890  1.00  0.00     0.338 C 
ATOM     35  O   UNL A   1      44.740  26.155  25.373  1.00  0.00    -0.246 OA
BRANCH  34  36
ATOM     36  C   UNL A   1      43.204  26.894  27.048  1.00  0.00     0.060 A 
ATOM     37  C   UNL A   1      42.400  26.348  28.058  1.00  0.00     0.016 A 
ATOM     38  C   UNL A   1      43.580  28.236  27.106  1.00  0.00     0.016 A 
ATOM     39  C   UNL A   1      41.970  27.141  29.118  1.00  0.00     0.010 A 
ATOM     40  C   UNL A   1      43.214  29.007  28.208  1.00  0.00     0.010 A 
ATOM     41  C   UNL A   1      42.409  28.466  29.224  1.00  0.00    -0.014 A 
BRANCH  41  42
ATOM     42  C   UNL A   1      42.084  29.284  30.418  1.00  0.00     0.031 A 
ATOM     43  C   UNL A   1      42.951  29.208  31.641  1.00  0.00     0.074 A 
ATOM     44  C   UNL A   1      40.961  30.028  30.411  1.00  0.00     0.049 A 
ATOM     45  N   UNL A   1      42.742  29.694  32.837  1.00  0.00    -0.248 NA
ATOM     46  C   UNL A   1      44.209  28.459  31.507  1.00  0.00     0.031 C 
ATOM     47  C   UNL A   1      40.053  30.176  29.270  1.00  0.00     0.029 A 
ATOM     48  N   UNL A   1      40.381  30.789  31.393  1.00  0.00    -0.354 N 
ATOM     49  C   UNL A   1      43.819  29.273  33.611  1.00  0.00     0.074 A 
ATOM     50  C   UNL A   1      44.663  28.470  32.752  1.00  0.00     0.031 C 
ATOM     51  C   UNL A   1      39.050  31.000  29.606  1.00  0.00     0.029 A 
ATOM     52  C   UNL A   1      39.201  31.379  31.005  1.00  0.00     0.049 A 
ATOM     53  H   UNL A   1      40.772  30.903  32.289  1.00  0.00     0.167 HD
ATOM     54  C   UNL A   1      44.071  29.536  34.917  1.00  0.00     0.037 A 
ATOM     55  C   UNL A   1      38.324  32.118  31.708  1.00  0.00     0.037 A 
ATOM     56  C   UNL A   1      43.211  30.348  35.742  1.00  0.00     0.049 A 
ATOM     57  C   UNL A   1      38.608  32.375  33.160  1.00  0.00     0.074 A 
ATOM     58  C   UNL A   1      43.370  30.706  37.069  1.00  0.00     0.029 A 
ATOM     59  N   UNL A   1      42.021  30.927  35.313  1.00  0.00    -0.354 N 
ATOM     60  N   UNL A   1      39.627  31.970  33.882  1.00  0.00    -0.248 NA
ATOM     61  C   UNL A   1      37.624  33.176  33.895  1.00  0.00     0.031 C 
ATOM     62  C   UNL A   1      42.254  31.460  37.453  1.00  0.00     0.029 A 
ATOM     63  C   UNL A   1      41.428  31.624  36.352  1.00  0.00     0.049 A 
ATOM     64  H   UNL A   1      41.655  30.852  34.402  1.00  0.00     0.167 HD
ATOM     65  C   UNL A   1      39.424  32.493  35.152  1.00  0.00     0.074 A 
ATOM     66  C   UNL A   1      38.185  33.247  35.095  1.00  0.00     0.031 C 
ATOM     67  C   UNL A   1      40.192  32.367  36.264  1.00  0.00     0.037 A 
BRANCH  54  68
ATOM     68  C   UNL A   1      45.298  28.905  35.526  1.00  0.00     0.058 A 
ATOM     69  C   UNL A   1      45.262  27.646  36.149  1.00  0.00     0.135 A 
ATOM     70  C   UNL A   1      46.529  29.584  35.517  1.00  0.00     0.135 A 
ATOM     71  F   UNL A   1      44.114  26.950  36.198  1.00  0.00    -0.206 F 
ATOM     72  C   UNL A   1      46.374  27.115  36.794  1.00  0.00     0.059 A 
ATOM     73  C   UNL A   1      47.666  29.056  36.127  1.00  0.00     0.059 A 
ATOM     74  F   UNL A   1      46.634  30.787  34.931  1.00  0.00    -0.206 F 
ATOM     75  C   UNL A   1      47.570  27.834  36.789  1.00  0.00     0.060 A 
BRANCH  75  76
ATOM     76  S   UNL A   1      48.988  27.162  37.682  1.00  0.00     0.124 S 
ATOM     77  O   UNL A   1      50.074  27.426  36.741  1.00  0.00    -0.237 OA
ATOM     78  O   UNL A   1      49.000  27.962  38.902  1.00  0.00    -0.237 OA
ATOM     79  O   UNL A   1      48.644  25.755  37.861  1.00  0.00    -0.744 OA
ENDBRANCH  75  76
ENDBRANCH  54  68
BRANCH  55  80
ATOM     80  C   UNL A   1      37.129  32.687  31.029  1.00  0.00     0.058 A 
ATOM     81  C   UNL A   1      37.183  33.962  30.447  1.00  0.00     0.135 A 
ATOM     82  C   UNL A   1      35.944  31.950  30.874  1.00  0.00     0.135 A 
ATOM     83  F   UNL A   1      38.292  34.709  30.571  1.00  0.00    -0.206 F 
ATOM     84  C   UNL A   1      36.111  34.484  29.732  1.00  0.00     0.059 A 
ATOM     85  C   UNL A   1      34.866  32.440  30.141  1.00  0.00     0.059 A 
ATOM     86  F   UNL A   1      35.846  30.717  31.396  1.00  0.00    -0.206 F 
ATOM     87  C   UNL A   1      34.960  33.711  29.573  1.00  0.00     0.060 A 
BRANCH  87  88
ATOM     88  S   UNL A   1      33.611  34.367  28.567  1.00  0.00     0.124 S 
ATOM     89  O   UNL A   1      34.284  35.431  27.830  1.00  0.00    -0.237 OA
ATOM     90  O   UNL A   1      33.219  33.198  27.786  1.00  0.00    -0.237 OA
ATOM     91  O   UNL A   1      32.634  34.806  29.558  1.00  0.00    -0.744 OA
ENDBRANCH  87  88
ENDBRANCH  55  80
BRANCH  67  92
ATOM     92  C   UNL A   1      39.732  33.099  37.494  1.00  0.00     0.058 A 
ATOM     93  C   UNL A   1      38.706  32.604  38.312  1.00  0.00     0.135 A 
ATOM     94  C   UNL A   1      40.360  34.295  37.878  1.00  0.00     0.135 A 
ATOM     95  F   UNL A   1      38.066  31.470  37.983  1.00  0.00    -0.206 F 
ATOM     96  C   UNL A   1      38.300  33.282  39.456  1.00  0.00     0.059 A 
ATOM     97  C   UNL A   1      39.992  34.973  39.033  1.00  0.00     0.059 A 
ATOM     98  F   UNL A   1      41.353  34.806  37.133  1.00  0.00    -0.206 F 
ATOM     99  C   UNL A   1      38.952  34.466  39.810  1.00  0.00     0.060 A 
BRANCH  99 100
ATOM    100  S   UNL A   1      38.438  35.319  41.314  1.00  0.00     0.124 S 
ATOM    101  O   UNL A   1      38.545  36.717  40.911  1.00  0.00    -0.237 OA
ATOM    102  O   UNL A   1      37.082  34.817  41.509  1.00  0.00    -0.237 OA
ATOM    103  O   UNL A   1      39.412  34.874  42.307  1.00  0.00    -0.744 OA
ENDBRANCH  99 100
ENDBRANCH  67  92
ENDBRANCH  41  42
ENDBRANCH  34  36
ENDBRANCH  33  34
ENDBRANCH  32  33
ENDBRANCH   1  32
TORSDOF 20
ENDMDL
MODEL 3
REMARK VINA RESULT:     -11.0      6.639     11.779
REMARK SMILES COc1cc(/C=C2/SC(=O)N(c3ccc(C)c(C)c3)C2=O)ccc1OCCC(=O)OCCOC(=O)c1ccc(-c2c3nc(c(-c4c(F)cc(S(=O)(=O)[O-])cc4F)c4ccc([nH]4)c(-c4c(F)cc(S(=O)(=O)[O-])cc4F)c4nc(c(-c5c(F)cc(S(=O)(=O)[O-])cc5F)c5ccc2[nH]5)C=C4)C=C3)cc1
REMARK SMILES IDX 31 1 30 2 28 3 29 4 27 5 26 6 25 7 24 8 3 9 4 10 5 11 23 12
REMARK SMILES IDX 22 13 2 14 1 15 6 16 7 17 8 18 20 19 9 20 11 21 21 22 10 23
REMARK SMILES IDX 12 24 13 25 19 26 14 27 17 28 15 29 18 30 16 31 32 32 33 33
REMARK SMILES IDX 34 34 35 35 36 36 37 37 101 38 38 39 100 40 39 41 40 42
REMARK SMILES IDX 41 43 94 44 42 45 99 46 93 47 95 48 43 49 98 50 92 51 91 52
REMARK SMILES IDX 44 54 78 55 57 56 77 57 58 58 61 59 76 60 96 61 59 62 60 63
REMARK SMILES IDX 75 65 97 66 62 67 45 68 46 69 55 70 47 71 48 72 54 73 56 74
REMARK SMILES IDX 49 75 50 76 51 77 52 78 53 79 79 80 80 81 89 82 81 83 82 84
REMARK SMILES IDX 88 85 90 86 83 87 84 88 85 89 86 90 87 91 63 92 64 93 73 94
REMARK SMILES IDX 65 95 66 96 72 97 74 98 67 99 68 100 69 101 70 102 71 103
REMARK H PARENT 95 53 61 64
REMARK Flexibility Score: inf
ROOT
ATOM      1  C   UNL A   1      33.773  30.752  27.613  1.00  0.00     0.274 C 
ENDROOT
BRANCH   1   2
ATOM      2  O   UNL A   1      33.140  30.532  26.331  1.00  0.00    -0.462 OA
BRANCH   2   3
ATOM      3  C   UNL A   1      33.062  29.255  25.876  1.00  0.00     0.309 C 
ATOM      4  O   UNL A   1      33.901  28.728  25.156  1.00  0.00    -0.252 OA
BRANCH   3   5
ATOM      5  C   UNL A   1      31.749  28.583  26.225  1.00  0.00     0.164 C 
BRANCH   5   6
ATOM      6  C   UNL A   1      30.949  27.954  25.088  1.00  0.00     0.241 C 
BRANCH   6   7
ATOM      7  O   UNL A   1      30.847  26.522  25.143  1.00  0.00    -0.489 OA
BRANCH   7   8
ATOM      8  C   UNL A   1      32.024  25.857  24.940  1.00  0.00     0.161 A 
ATOM      9  C   UNL A   1      32.665  25.734  23.704  1.00  0.00     0.161 A 
ATOM     10  C   UNL A   1      33.948  25.181  23.646  1.00  0.00     0.058 A 
ATOM     11  C   UNL A   1      34.566  24.706  24.816  1.00  0.00    -0.020 A 
ATOM     12  C   UNL A   1      32.589  25.288  26.082  1.00  0.00     0.051 A 
ATOM     13  C   UNL A   1      33.860  24.720  26.024  1.00  0.00     0.012 A 
BRANCH   9  14
ATOM     14  O   UNL A   1      31.976  26.041  22.561  1.00  0.00    -0.493 OA
ATOM     15  C   UNL A   1      32.522  25.435  21.396  1.00  0.00     0.278 C 
ENDBRANCH   9  14
BRANCH  11  16
ATOM     16  C   UNL A   1      35.893  24.080  24.792  1.00  0.00     0.029 C 
ATOM     17  C   UNL A   1      36.073  22.752  24.769  1.00  0.00     0.083 C 
ATOM     18  S   UNL A   1      37.595  21.964  24.910  1.00  0.00    -0.022 SA
ATOM     19  C   UNL A   1      34.982  21.746  24.718  1.00  0.00     0.272 C 
ATOM     20  C   UNL A   1      36.849  20.363  25.013  1.00  0.00     0.298 C 
ATOM     21  N   UNL A   1      35.504  20.470  24.764  1.00  0.00    -0.236 N 
ATOM     22  O   UNL A   1      33.792  22.030  24.746  1.00  0.00    -0.268 OA
ATOM     23  O   UNL A   1      37.506  19.371  25.276  1.00  0.00    -0.260 OA
BRANCH  21  24
ATOM     24  C   UNL A   1      34.595  19.389  24.794  1.00  0.00     0.053 A 
ATOM     25  C   UNL A   1      33.374  19.545  25.461  1.00  0.00     0.027 A 
ATOM     26  C   UNL A   1      34.988  18.120  24.366  1.00  0.00     0.030 A 
ATOM     27  C   UNL A   1      32.569  18.445  25.725  1.00  0.00     0.006 A 
ATOM     28  C   UNL A   1      34.215  16.991  24.694  1.00  0.00    -0.046 A 
ATOM     29  C   UNL A   1      32.985  17.156  25.364  1.00  0.00    -0.048 A 
ATOM     30  C   UNL A   1      34.771  15.628  24.388  1.00  0.00     0.044 C 
ATOM     31  C   UNL A   1      32.100  16.013  25.775  1.00  0.00     0.044 C 
ENDBRANCH  21  24
ENDBRANCH  11  16
ENDBRANCH   7   8
ENDBRANCH   6   7
ENDBRANCH   5   6
ENDBRANCH   3   5
ENDBRANCH   2   3
ENDBRANCH   1   2
BRANCH   1  32
ATOM     32  C   UNL A   1      35.095  30.006  27.800  1.00  0.00     0.275 C 
BRANCH  32  33
ATOM     33  O   UNL A   1      35.935  30.717  28.712  1.00  0.00    -0.458 OA
BRANCH  33  34
ATOM     34  C   UNL A   1      36.434  29.977  29.731  1.00  0.00     0.338 C 
ATOM     35  O   UNL A   1      35.815  29.567  30.698  1.00  0.00    -0.246 OA
BRANCH  34  36
ATOM     36  C   UNL A   1      37.866  29.701  29.478  1.00  0.00     0.060 A 
ATOM     37  C   UNL A   1      38.761  29.483  30.534  1.00  0.00     0.016 A 
ATOM     38  C   UNL A   1      38.327  29.696  28.161  1.00  0.00     0.016 A 
ATOM     39  C   UNL A   1      40.111  29.265  30.275  1.00  0.00     0.010 A 
ATOM     40  C   UNL A   1      39.664  29.400  27.901  1.00  0.00     0.010 A 
ATOM     41  C   UNL A   1      40.566  29.179  28.954  1.00  0.00    -0.014 A 
BRANCH  41  42
ATOM     42  C   UNL A   1      41.969  28.804  28.653  1.00  0.00     0.031 A 
ATOM     43  C   UNL A   1      43.049  29.846  28.675  1.00  0.00     0.074 A 
ATOM     44  C   UNL A   1      42.239  27.537  28.283  1.00  0.00     0.049 A 
ATOM     45  N   UNL A   1      44.289  29.765  28.268  1.00  0.00    -0.248 NA
ATOM     46  C   UNL A   1      42.673  31.168  29.200  1.00  0.00     0.031 C 
ATOM     47  C   UNL A   1      41.261  26.445  28.235  1.00  0.00     0.029 A 
ATOM     48  N   UNL A   1      43.405  26.951  27.864  1.00  0.00    -0.354 N 
ATOM     49  C   UNL A   1      44.830  31.034  28.445  1.00  0.00     0.074 A 
ATOM     50  C   UNL A   1      43.773  31.871  28.971  1.00  0.00     0.031 C 
ATOM     51  C   UNL A   1      41.875  25.319  27.842  1.00  0.00     0.029 A 
ATOM     52  C   UNL A   1      43.267  25.623  27.538  1.00  0.00     0.049 A 
ATOM     53  H   UNL A   1      44.260  27.436  27.804  1.00  0.00     0.167 HD
ATOM     54  C   UNL A   1      46.094  31.454  28.190  1.00  0.00     0.037 A 
ATOM     55  C   UNL A   1      44.156  24.755  27.023  1.00  0.00     0.037 A 
ATOM     56  C   UNL A   1      47.126  30.590  27.673  1.00  0.00     0.049 A 
ATOM     57  C   UNL A   1      45.542  25.247  26.720  1.00  0.00     0.074 A 
ATOM     58  C   UNL A   1      48.448  30.890  27.395  1.00  0.00     0.029 A 
ATOM     59  N   UNL A   1      46.946  29.248  27.351  1.00  0.00    -0.354 N 
ATOM     60  N   UNL A   1      46.043  26.448  26.889  1.00  0.00    -0.248 NA
ATOM     61  C   UNL A   1      46.480  24.274  26.150  1.00  0.00     0.031 C 
ATOM     62  C   UNL A   1      49.051  29.744  26.861  1.00  0.00     0.029 A 
ATOM     63  C   UNL A   1      48.125  28.712  26.862  1.00  0.00     0.049 A 
ATOM     64  H   UNL A   1      46.102  28.752  27.457  1.00  0.00     0.167 HD
ATOM     65  C   UNL A   1      47.366  26.371  26.474  1.00  0.00     0.074 A 
ATOM     66  C   UNL A   1      47.585  25.000  26.051  1.00  0.00     0.031 C 
ATOM     67  C   UNL A   1      48.315  27.341  26.449  1.00  0.00     0.037 A 
BRANCH  54  68
ATOM     68  C   UNL A   1      46.401  32.911  28.428  1.00  0.00     0.058 A 
ATOM     69  C   UNL A   1      46.857  33.387  29.669  1.00  0.00     0.135 A 
ATOM     70  C   UNL A   1      46.207  33.857  27.407  1.00  0.00     0.135 A 
ATOM     71  F   UNL A   1      47.055  32.534  30.688  1.00  0.00    -0.206 F 
ATOM     72  C   UNL A   1      47.044  34.745  29.910  1.00  0.00     0.059 A 
ATOM     73  C   UNL A   1      46.421  35.219  27.614  1.00  0.00     0.059 A 
ATOM     74  F   UNL A   1      45.781  33.468  26.195  1.00  0.00    -0.206 F 
ATOM     75  C   UNL A   1      46.811  35.656  28.879  1.00  0.00     0.060 A 
BRANCH  75  76
ATOM     76  S   UNL A   1      46.999  37.418  29.222  1.00  0.00     0.124 S 
ATOM     77  O   UNL A   1      46.342  37.532  30.522  1.00  0.00    -0.237 OA
ATOM     78  O   UNL A   1      48.448  37.584  29.230  1.00  0.00    -0.237 OA
ATOM     79  O   UNL A   1      46.303  38.059  28.111  1.00  0.00    -0.744 OA
ENDBRANCH  75  76
ENDBRANCH  54  68
BRANCH  55  80
ATOM     80  C   UNL A   1      43.760  23.337  26.803  1.00  0.00     0.058 A 
ATOM     81  C   UNL A   1      43.577  22.475  27.894  1.00  0.00     0.135 A 
ATOM     82  C   UNL A   1      43.479  22.837  25.522  1.00  0.00     0.135 A 
ATOM     83  F   UNL A   1      43.837  22.904  29.139  1.00  0.00    -0.206 F 
ATOM     84  C   UNL A   1      43.125  21.171  27.725  1.00  0.00     0.059 A 
ATOM     85  C   UNL A   1      43.001  21.544  25.328  1.00  0.00     0.059 A 
ATOM     86  F   UNL A   1      43.621  23.627  24.446  1.00  0.00    -0.206 F 
ATOM     87  C   UNL A   1      42.827  20.718  26.439  1.00  0.00     0.060 A 
BRANCH  87  88
ATOM     88  S   UNL A   1      42.155  19.052  26.246  1.00  0.00     0.124 S 
ATOM     89  O   UNL A   1      40.791  19.332  25.813  1.00  0.00    -0.237 OA
ATOM     90  O   UNL A   1      43.042  18.482  25.236  1.00  0.00    -0.237 OA
ATOM     91  O   UNL A   1      42.289  18.477  27.581  1.00  0.00    -0.744 OA
ENDBRANCH  87  88
ENDBRANCH  55  80
BRANCH  67  92
ATOM     92  C   UNL A   1      49.687  26.937  25.988  1.00  0.00     0.058 A 
ATOM     93  C   UNL A   1      50.111  27.124  24.664  1.00  0.00     0.135 A 
ATOM     94  C   UNL A   1      50.604  26.390  26.901  1.00  0.00     0.135 A 
ATOM     95  F   UNL A   1      49.268  27.632  23.750  1.00  0.00    -0.206 F 
ATOM     96  C   UNL A   1      51.389  26.760  24.254  1.00  0.00     0.059 A 
ATOM     97  C   UNL A   1      51.895  26.048  26.521  1.00  0.00     0.059 A 
ATOM     98  F   UNL A   1      50.249  26.198  28.182  1.00  0.00    -0.206 F 
ATOM     99  C   UNL A   1      52.275  26.225  25.191  1.00  0.00     0.060 A 
BRANCH  99 100
ATOM    100  S   UNL A   1      53.942  25.788  24.654  1.00  0.00     0.124 S 
ATOM    101  O   UNL A   1      53.903  26.160  23.244  1.00  0.00    -0.237 OA
ATOM    102  O   UNL A   1      54.774  26.628  25.509  1.00  0.00    -0.237 OA
ATOM    103  O   UNL A   1      54.021  24.356  24.925  1.00  0.00    -0.744 OA
ENDBRANCH  99 100
ENDBRANCH  67  92
ENDBRANCH  41  42
ENDBRANCH  34  36
ENDBRANCH  33  34
ENDBRANCH  32  33
ENDBRANCH   1  32
TORSDOF 20
ENDMDL
