MODEL 1
REMARK VINA RESULT:     -11.0      0.000      0.000
REMARK SMILES C/C(=N/OCc1ccccc1Nc1c(Cl)cccc1Cl)C(=O)OCCOC(=O)c1ccc(-c2c3nc(c(-c4c(F)cc(S(=O)(=O)[O-])cc4F)c4ccc([nH]4)c(-c4c(F)cc(S(=O)(=O)[O-])cc4F)c4nc(c(-c5c(F)cc(S(=O)(=O)[O-])cc5F)c5ccc2[nH]5)C=C4)C=C3)cc1
REMARK SMILES IDX 24 1 23 2 21 3 22 4 2 5 1 6 3 7 4 8 5 9 6 10 7 11 11 12 8 13
REMARK SMILES IDX 10 14 9 15 12 16 13 18 14 19 19 20 15 21 16 22 18 23 20 24
REMARK SMILES IDX 17 25 25 26 26 27 27 28 28 29 29 30 30 31 94 32 31 33 93 34
REMARK SMILES IDX 32 35 33 36 34 37 87 38 35 39 92 40 86 41 88 42 36 43 91 44
REMARK SMILES IDX 85 45 84 46 37 48 71 49 50 50 70 51 51 52 54 53 69 54 89 55
REMARK SMILES IDX 52 56 53 57 68 59 90 60 55 61 38 62 39 63 48 64 40 65 41 66
REMARK SMILES IDX 47 67 49 68 42 69 43 70 44 71 45 72 46 73 72 74 73 75 82 76
REMARK SMILES IDX 74 77 75 78 81 79 83 80 76 81 77 82 78 83 79 84 80 85 56 86
REMARK SMILES IDX 57 87 66 88 58 89 59 90 65 91 67 92 60 93 61 94 62 95 63 96
REMARK SMILES IDX 64 97
REMARK H PARENT 12 17 88 47 54 58
REMARK Flexibility Score: inf
ROOT
ATOM      1  C   UNL A   1      35.362  22.820  25.668  1.00  0.00     0.275 C 
ENDROOT
BRANCH   1   2
ATOM      2  O   UNL A   1      34.186  22.862  24.840  1.00  0.00    -0.458 OA
BRANCH   2   3
ATOM      3  C   UNL A   1      33.547  24.043  24.774  1.00  0.00     0.355 C 
ATOM      4  O   UNL A   1      33.062  24.691  25.683  1.00  0.00    -0.245 OA
BRANCH   3   5
ATOM      5  C   UNL A   1      33.495  24.536  23.339  1.00  0.00     0.161 C 
ATOM      6  C   UNL A   1      33.301  23.508  22.269  1.00  0.00     0.079 C 
ATOM      7  N   UNL A   1      33.713  25.774  23.012  1.00  0.00    -0.084 NA
BRANCH   7   8
ATOM      8  O   UNL A   1      34.025  26.552  24.137  1.00  0.00    -0.390 OA
BRANCH   8   9
ATOM      9  C   UNL A   1      33.817  27.929  23.818  1.00  0.00     0.302 C 
BRANCH   9  10
ATOM     10  C   UNL A   1      33.356  28.821  24.960  1.00  0.00     0.016 A 
ATOM     11  C   UNL A   1      34.186  28.806  26.101  1.00  0.00     0.009 A 
ATOM     12  C   UNL A   1      32.186  29.622  24.975  1.00  0.00     0.045 A 
ATOM     13  C   UNL A   1      33.876  29.556  27.231  1.00  0.00     0.001 A 
ATOM     14  C   UNL A   1      31.893  30.366  26.128  1.00  0.00     0.026 A 
ATOM     15  C   UNL A   1      32.726  30.333  27.245  1.00  0.00     0.002 A 
BRANCH  12  16
ATOM     16  N   UNL A   1      31.338  29.686  23.861  1.00  0.00    -0.353 N 
ATOM     17  H   UNL A   1      31.788  29.962  23.030  1.00  0.00     0.167 HD
BRANCH  16  18
ATOM     18  C   UNL A   1      29.959  29.430  23.708  1.00  0.00     0.076 A 
ATOM     19  C   UNL A   1      29.485  28.119  23.487  1.00  0.00     0.066 A 
ATOM     20  C   UNL A   1      29.037  30.483  23.550  1.00  0.00     0.066 A 
ATOM     21  Cl  UNL A   1      30.528  26.748  23.658  1.00  0.00    -0.082 Cl
ATOM     22  C   UNL A   1      28.152  27.873  23.135  1.00  0.00     0.023 A 
ATOM     23  C   UNL A   1      27.699  30.235  23.218  1.00  0.00     0.023 A 
ATOM     24  Cl  UNL A   1      29.520  32.135  23.748  1.00  0.00    -0.082 Cl
ATOM     25  C   UNL A   1      27.259  28.932  23.000  1.00  0.00     0.003 A 
ENDBRANCH  16  18
ENDBRANCH  12  16
ENDBRANCH   9  10
ENDBRANCH   8   9
ENDBRANCH   7   8
ENDBRANCH   3   5
ENDBRANCH   2   3
ENDBRANCH   1   2
BRANCH   1  26
ATOM     26  C   UNL A   1      36.608  22.853  24.786  1.00  0.00     0.275 C 
BRANCH  26  27
ATOM     27  O   UNL A   1      37.538  23.836  25.279  1.00  0.00    -0.458 OA
BRANCH  27  28
ATOM     28  C   UNL A   1      38.619  23.327  25.911  1.00  0.00     0.338 C 
ATOM     29  O   UNL A   1      39.110  22.218  25.769  1.00  0.00    -0.246 OA
BRANCH  28  30
ATOM     30  C   UNL A   1      39.232  24.353  26.760  1.00  0.00     0.060 A 
ATOM     31  C   UNL A   1      38.864  24.424  28.102  1.00  0.00     0.016 A 
ATOM     32  C   UNL A   1      40.026  25.344  26.191  1.00  0.00     0.016 A 
ATOM     33  C   UNL A   1      39.198  25.542  28.857  1.00  0.00     0.010 A 
ATOM     34  C   UNL A   1      40.460  26.408  26.987  1.00  0.00     0.010 A 
ATOM     35  C   UNL A   1      40.026  26.535  28.320  1.00  0.00    -0.014 A 
BRANCH  35  36
ATOM     36  C   UNL A   1      40.445  27.697  29.148  1.00  0.00     0.031 A 
ATOM     37  C   UNL A   1      41.729  27.643  29.933  1.00  0.00     0.074 A 
ATOM     38  C   UNL A   1      39.658  28.791  29.215  1.00  0.00     0.049 A 
ATOM     39  N   UNL A   1      42.155  28.443  30.876  1.00  0.00    -0.248 NA
ATOM     40  C   UNL A   1      42.647  26.533  29.630  1.00  0.00     0.031 C 
ATOM     41  C   UNL A   1      38.410  28.986  28.472  1.00  0.00     0.029 A 
ATOM     42  N   UNL A   1      39.784  29.941  29.953  1.00  0.00    -0.354 N 
ATOM     43  C   UNL A   1      43.359  27.906  31.318  1.00  0.00     0.074 A 
ATOM     44  C   UNL A   1      43.595  26.707  30.542  1.00  0.00     0.031 C 
ATOM     45  C   UNL A   1      37.898  30.188  28.774  1.00  0.00     0.029 A 
ATOM     46  C   UNL A   1      38.723  30.804  29.805  1.00  0.00     0.049 A 
ATOM     47  H   UNL A   1      40.557  30.131  30.532  1.00  0.00     0.167 HD
ATOM     48  C   UNL A   1      44.186  28.372  32.284  1.00  0.00     0.037 A 
ATOM     49  C   UNL A   1      38.411  31.937  30.464  1.00  0.00     0.037 A 
ATOM     50  C   UNL A   1      43.958  29.595  33.014  1.00  0.00     0.049 A 
ATOM     51  C   UNL A   1      39.320  32.412  31.560  1.00  0.00     0.074 A 
ATOM     52  C   UNL A   1      44.746  30.171  33.994  1.00  0.00     0.029 A 
ATOM     53  N   UNL A   1      42.864  30.432  32.838  1.00  0.00    -0.354 N 
ATOM     54  N   UNL A   1      40.436  31.876  31.992  1.00  0.00    -0.248 NA
ATOM     55  C   UNL A   1      38.922  33.633  32.269  1.00  0.00     0.031 C 
ATOM     56  C   UNL A   1      44.107  31.333  34.443  1.00  0.00     0.029 A 
ATOM     57  C   UNL A   1      42.947  31.509  33.705  1.00  0.00     0.049 A 
ATOM     58  H   UNL A   1      42.137  30.282  32.192  1.00  0.00     0.167 HD
ATOM     59  C   UNL A   1      40.884  32.705  33.013  1.00  0.00     0.074 A 
ATOM     60  C   UNL A   1      39.925  33.786  33.121  1.00  0.00     0.031 C 
ATOM     61  C   UNL A   1      41.986  32.581  33.792  1.00  0.00     0.037 A 
BRANCH  48  62
ATOM     62  C   UNL A   1      45.396  27.549  32.638  1.00  0.00     0.058 A 
ATOM     63  C   UNL A   1      45.355  26.542  33.615  1.00  0.00     0.135 A 
ATOM     64  C   UNL A   1      46.606  27.742  31.951  1.00  0.00     0.135 A 
ATOM     65  F   UNL A   1      44.230  26.322  34.314  1.00  0.00    -0.206 F 
ATOM     66  C   UNL A   1      46.476  25.773  33.915  1.00  0.00     0.059 A 
ATOM     67  C   UNL A   1      47.732  26.967  32.216  1.00  0.00     0.059 A 
ATOM     68  F   UNL A   1      46.703  28.693  31.007  1.00  0.00    -0.206 F 
ATOM     69  C   UNL A   1      47.661  25.992  33.209  1.00  0.00     0.060 A 
BRANCH  69  70
ATOM     70  S   UNL A   1      49.103  24.982  33.603  1.00  0.00     0.124 S 
ATOM     71  O   UNL A   1      49.776  24.916  32.310  1.00  0.00    -0.237 OA
ATOM     72  O   UNL A   1      49.774  25.779  34.625  1.00  0.00    -0.237 OA
ATOM     73  O   UNL A   1      48.524  23.727  34.073  1.00  0.00    -0.744 OA
ENDBRANCH  69  70
ENDBRANCH  48  62
BRANCH  49  74
ATOM     74  C   UNL A   1      37.156  32.663  30.132  1.00  0.00     0.058 A 
ATOM     75  C   UNL A   1      37.147  33.691  29.178  1.00  0.00     0.135 A 
ATOM     76  C   UNL A   1      35.936  32.326  30.741  1.00  0.00     0.135 A 
ATOM     77  F   UNL A   1      38.288  34.054  28.572  1.00  0.00    -0.206 F 
ATOM     78  C   UNL A   1      35.976  34.365  28.846  1.00  0.00     0.059 A 
ATOM     79  C   UNL A   1      34.748  32.964  30.404  1.00  0.00     0.059 A 
ATOM     80  F   UNL A   1      35.887  31.339  31.650  1.00  0.00    -0.206 F 
ATOM     81  C   UNL A   1      34.780  33.990  29.462  1.00  0.00     0.060 A 
BRANCH  81  82
ATOM     82  S   UNL A   1      33.257  34.832  28.981  1.00  0.00     0.124 S 
ATOM     83  O   UNL A   1      32.695  33.894  28.018  1.00  0.00    -0.237 OA
ATOM     84  O   UNL A   1      32.551  34.939  30.255  1.00  0.00    -0.237 OA
ATOM     85  O   UNL A   1      33.734  36.097  28.430  1.00  0.00    -0.744 OA
ENDBRANCH  81  82
ENDBRANCH  49  74
BRANCH  61  86
ATOM     86  C   UNL A   1      42.237  33.661  34.805  1.00  0.00     0.058 A 
ATOM     87  C   UNL A   1      41.798  33.546  36.133  1.00  0.00     0.135 A 
ATOM     88  C   UNL A   1      42.971  34.806  34.453  1.00  0.00     0.135 A 
ATOM     89  F   UNL A   1      41.082  32.476  36.517  1.00  0.00    -0.206 F 
ATOM     90  C   UNL A   1      42.062  34.536  37.073  1.00  0.00     0.059 A 
ATOM     91  C   UNL A   1      43.269  35.795  35.382  1.00  0.00     0.059 A 
ATOM     92  F   UNL A   1      43.419  34.961  33.197  1.00  0.00    -0.206 F 
ATOM     93  C   UNL A   1      42.802  35.656  36.689  1.00  0.00     0.060 A 
BRANCH  93  94
ATOM     94  S   UNL A   1      43.171  36.914  37.929  1.00  0.00     0.124 S 
ATOM     95  O   UNL A   1      43.856  37.924  37.129  1.00  0.00    -0.237 OA
ATOM     96  O   UNL A   1      41.842  37.279  38.408  1.00  0.00    -0.237 OA
ATOM     97  O   UNL A   1      44.007  36.206  38.893  1.00  0.00    -0.744 OA
ENDBRANCH  93  94
ENDBRANCH  61  86
ENDBRANCH  35  36
ENDBRANCH  28  30
ENDBRANCH  27  28
ENDBRANCH  26  27
ENDBRANCH   1  26
TORSDOF 19
ENDMDL
MODEL 2
REMARK VINA RESULT:     -10.9      5.081      8.157
REMARK SMILES C/C(=N/OCc1ccccc1Nc1c(Cl)cccc1Cl)C(=O)OCCOC(=O)c1ccc(-c2c3nc(c(-c4c(F)cc(S(=O)(=O)[O-])cc4F)c4ccc([nH]4)c(-c4c(F)cc(S(=O)(=O)[O-])cc4F)c4nc(c(-c5c(F)cc(S(=O)(=O)[O-])cc5F)c5ccc2[nH]5)C=C4)C=C3)cc1
REMARK SMILES IDX 24 1 23 2 21 3 22 4 2 5 1 6 3 7 4 8 5 9 6 10 7 11 11 12 8 13
REMARK SMILES IDX 10 14 9 15 12 16 13 18 14 19 19 20 15 21 16 22 18 23 20 24
REMARK SMILES IDX 17 25 25 26 26 27 27 28 28 29 29 30 30 31 94 32 31 33 93 34
REMARK SMILES IDX 32 35 33 36 34 37 87 38 35 39 92 40 86 41 88 42 36 43 91 44
REMARK SMILES IDX 85 45 84 46 37 48 71 49 50 50 70 51 51 52 54 53 69 54 89 55
REMARK SMILES IDX 52 56 53 57 68 59 90 60 55 61 38 62 39 63 48 64 40 65 41 66
REMARK SMILES IDX 47 67 49 68 42 69 43 70 44 71 45 72 46 73 72 74 73 75 82 76
REMARK SMILES IDX 74 77 75 78 81 79 83 80 76 81 77 82 78 83 79 84 80 85 56 86
REMARK SMILES IDX 57 87 66 88 58 89 59 90 65 91 67 92 60 93 61 94 62 95 63 96
REMARK SMILES IDX 64 97
REMARK H PARENT 12 17 88 47 54 58
REMARK Flexibility Score: inf
ROOT
ATOM      1  C   UNL A   1      42.008  21.308  26.405  1.00  0.00     0.275 C 
ENDROOT
BRANCH   1   2
ATOM      2  O   UNL A   1      43.409  21.627  26.484  1.00  0.00    -0.458 OA
BRANCH   2   3
ATOM      3  C   UNL A   1      43.981  22.079  25.354  1.00  0.00     0.355 C 
ATOM      4  O   UNL A   1      43.443  22.569  24.379  1.00  0.00    -0.245 OA
BRANCH   3   5
ATOM      5  C   UNL A   1      45.489  21.916  25.423  1.00  0.00     0.161 C 
ATOM      6  C   UNL A   1      46.054  20.596  25.000  1.00  0.00     0.079 C 
ATOM      7  N   UNL A   1      46.273  22.822  25.924  1.00  0.00    -0.084 NA
BRANCH   7   8
ATOM      8  O   UNL A   1      45.543  23.920  26.405  1.00  0.00    -0.390 OA
BRANCH   8   9
ATOM      9  C   UNL A   1      46.284  24.543  27.455  1.00  0.00     0.302 C 
BRANCH   9  10
ATOM     10  C   UNL A   1      45.771  25.895  27.928  1.00  0.00     0.016 A 
ATOM     11  C   UNL A   1      45.341  26.762  26.901  1.00  0.00     0.009 A 
ATOM     12  C   UNL A   1      45.713  26.342  29.272  1.00  0.00     0.045 A 
ATOM     13  C   UNL A   1      44.869  28.039  27.184  1.00  0.00     0.001 A 
ATOM     14  C   UNL A   1      45.236  27.636  29.532  1.00  0.00     0.026 A 
ATOM     15  C   UNL A   1      44.821  28.477  28.501  1.00  0.00     0.002 A 
BRANCH  12  16
ATOM     16  N   UNL A   1      46.111  25.513  30.330  1.00  0.00    -0.353 N 
ATOM     17  H   UNL A   1      46.991  25.091  30.199  1.00  0.00     0.167 HD
BRANCH  16  18
ATOM     18  C   UNL A   1      45.486  25.170  31.548  1.00  0.00     0.076 A 
ATOM     19  C   UNL A   1      46.003  25.623  32.780  1.00  0.00     0.066 A 
ATOM     20  C   UNL A   1      44.469  24.197  31.594  1.00  0.00     0.066 A 
ATOM     21  Cl  UNL A   1      47.250  26.821  32.844  1.00  0.00    -0.082 Cl
ATOM     22  C   UNL A   1      45.518  25.133  34.000  1.00  0.00     0.023 A 
ATOM     23  C   UNL A   1      43.971  23.722  32.814  1.00  0.00     0.023 A 
ATOM     24  Cl  UNL A   1      43.795  23.534  30.142  1.00  0.00    -0.082 Cl
ATOM     25  C   UNL A   1      44.502  24.182  34.016  1.00  0.00     0.003 A 
ENDBRANCH  16  18
ENDBRANCH  12  16
ENDBRANCH   9  10
ENDBRANCH   8   9
ENDBRANCH   7   8
ENDBRANCH   3   5
ENDBRANCH   2   3
ENDBRANCH   1   2
BRANCH   1  26
ATOM     26  C   UNL A   1      41.273  21.942  27.583  1.00  0.00     0.275 C 
BRANCH  26  27
ATOM     27  O   UNL A   1      41.505  23.363  27.606  1.00  0.00    -0.458 OA
BRANCH  27  28
ATOM     28  C   UNL A   1      40.464  24.115  27.187  1.00  0.00     0.338 C 
ATOM     29  O   UNL A   1      39.635  23.829  26.337  1.00  0.00    -0.246 OA
BRANCH  28  30
ATOM     30  C   UNL A   1      40.375  25.339  27.988  1.00  0.00     0.060 A 
ATOM     31  C   UNL A   1      41.487  26.177  28.062  1.00  0.00     0.016 A 
ATOM     32  C   UNL A   1      39.266  25.562  28.798  1.00  0.00     0.016 A 
ATOM     33  C   UNL A   1      41.540  27.178  29.023  1.00  0.00     0.010 A 
ATOM     34  C   UNL A   1      39.276  26.646  29.680  1.00  0.00     0.010 A 
ATOM     35  C   UNL A   1      40.425  27.447  29.825  1.00  0.00    -0.014 A 
BRANCH  35  36
ATOM     36  C   UNL A   1      40.451  28.566  30.805  1.00  0.00     0.031 A 
ATOM     37  C   UNL A   1      41.404  28.530  31.970  1.00  0.00     0.074 A 
ATOM     38  C   UNL A   1      39.600  29.603  30.662  1.00  0.00     0.049 A 
ATOM     39  N   UNL A   1      41.429  29.280  33.041  1.00  0.00    -0.248 NA
ATOM     40  C   UNL A   1      42.458  27.502  31.935  1.00  0.00     0.031 C 
ATOM     41  C   UNL A   1      38.656  29.780  29.555  1.00  0.00     0.029 A 
ATOM     42  N   UNL A   1      39.381  30.700  31.458  1.00  0.00    -0.354 N 
ATOM     43  C   UNL A   1      42.459  28.783  33.832  1.00  0.00     0.074 A 
ATOM     44  C   UNL A   1      43.034  27.662  33.119  1.00  0.00     0.031 C 
ATOM     45  C   UNL A   1      37.977  30.922  29.730  1.00  0.00     0.029 A 
ATOM     46  C   UNL A   1      38.362  31.507  31.007  1.00  0.00     0.049 A 
ATOM     47  H   UNL A   1      39.903  30.890  32.270  1.00  0.00     0.167 HD
ATOM     48  C   UNL A   1      42.880  29.223  35.042  1.00  0.00     0.037 A 
ATOM     49  C   UNL A   1      37.759  32.566  31.582  1.00  0.00     0.037 A 
ATOM     50  C   UNL A   1      42.325  30.371  35.716  1.00  0.00     0.049 A 
ATOM     51  C   UNL A   1      38.214  33.010  32.942  1.00  0.00     0.074 A 
ATOM     52  C   UNL A   1      42.696  30.917  36.932  1.00  0.00     0.029 A 
ATOM     53  N   UNL A   1      41.286  31.152  35.228  1.00  0.00    -0.354 N 
ATOM     54  N   UNL A   1      39.164  32.509  33.694  1.00  0.00    -0.248 NA
ATOM     55  C   UNL A   1      37.506  34.147  33.540  1.00  0.00     0.031 C 
ATOM     56  C   UNL A   1      41.852  32.001  37.201  1.00  0.00     0.029 A 
ATOM     57  C   UNL A   1      40.991  32.163  36.127  1.00  0.00     0.049 A 
ATOM     58  H   UNL A   1      40.828  31.009  34.369  1.00  0.00     0.167 HD
ATOM     59  C   UNL A   1      39.181  33.283  34.847  1.00  0.00     0.074 A 
ATOM     60  C   UNL A   1      38.156  34.295  34.685  1.00  0.00     0.031 C 
ATOM     61  C   UNL A   1      39.972  33.166  35.943  1.00  0.00     0.037 A 
BRANCH  48  62
ATOM     62  C   UNL A   1      43.968  28.448  35.738  1.00  0.00     0.058 A 
ATOM     63  C   UNL A   1      45.329  28.720  35.531  1.00  0.00     0.135 A 
ATOM     64  C   UNL A   1      43.637  27.446  36.666  1.00  0.00     0.135 A 
ATOM     65  F   UNL A   1      45.705  29.657  34.645  1.00  0.00    -0.206 F 
ATOM     66  C   UNL A   1      46.324  28.011  36.200  1.00  0.00     0.059 A 
ATOM     67  C   UNL A   1      44.613  26.743  37.366  1.00  0.00     0.059 A 
ATOM     68  F   UNL A   1      42.350  27.143  36.903  1.00  0.00    -0.206 F 
ATOM     69  C   UNL A   1      45.955  27.024  37.117  1.00  0.00     0.060 A 
BRANCH  69  70
ATOM     70  S   UNL A   1      47.255  26.119  37.982  1.00  0.00     0.124 S 
ATOM     71  O   UNL A   1      47.667  25.157  36.965  1.00  0.00    -0.237 OA
ATOM     72  O   UNL A   1      48.219  27.171  38.286  1.00  0.00    -0.237 OA
ATOM     73  O   UNL A   1      46.566  25.553  39.138  1.00  0.00    -0.744 OA
ENDBRANCH  69  70
ENDBRANCH  48  62
BRANCH  49  74
ATOM     74  C   UNL A   1      36.629  33.239  30.888  1.00  0.00     0.058 A 
ATOM     75  C   UNL A   1      35.313  33.102  31.350  1.00  0.00     0.135 A 
ATOM     76  C   UNL A   1      36.846  34.055  29.765  1.00  0.00     0.135 A 
ATOM     77  F   UNL A   1      35.053  32.329  32.415  1.00  0.00    -0.206 F 
ATOM     78  C   UNL A   1      34.250  33.742  30.720  1.00  0.00     0.059 A 
ATOM     79  C   UNL A   1      35.805  34.729  29.137  1.00  0.00     0.059 A 
ATOM     80  F   UNL A   1      38.090  34.232  29.291  1.00  0.00    -0.206 F 
ATOM     81  C   UNL A   1      34.508  34.558  29.617  1.00  0.00     0.060 A 
BRANCH  81  82
ATOM     82  S   UNL A   1      33.129  35.429  28.842  1.00  0.00     0.124 S 
ATOM     83  O   UNL A   1      32.532  34.373  28.034  1.00  0.00    -0.237 OA
ATOM     84  O   UNL A   1      32.352  35.863  30.000  1.00  0.00    -0.237 OA
ATOM     85  O   UNL A   1      33.785  36.501  28.100  1.00  0.00    -0.744 OA
ENDBRANCH  81  82
ENDBRANCH  49  74
BRANCH  61  86
ATOM     86  C   UNL A   1      39.785  34.180  37.036  1.00  0.00     0.058 A 
ATOM     87  C   UNL A   1      38.934  33.943  38.126  1.00  0.00     0.135 A 
ATOM     88  C   UNL A   1      40.507  35.384  37.016  1.00  0.00     0.135 A 
ATOM     89  F   UNL A   1      38.213  32.812  38.187  1.00  0.00    -0.206 F 
ATOM     90  C   UNL A   1      38.791  34.873  39.150  1.00  0.00     0.059 A 
ATOM     91  C   UNL A   1      40.401  36.316  38.042  1.00  0.00     0.059 A 
ATOM     92  F   UNL A   1      41.340  35.656  35.998  1.00  0.00    -0.206 F 
ATOM     93  C   UNL A   1      39.532  36.055  39.101  1.00  0.00     0.060 A 
BRANCH  93  94
ATOM     94  S   UNL A   1      39.368  37.235  40.458  1.00  0.00     0.124 S 
ATOM     95  O   UNL A   1      40.763  37.551  40.744  1.00  0.00    -0.237 OA
ATOM     96  O   UNL A   1      38.588  38.306  39.845  1.00  0.00    -0.237 OA
ATOM     97  O   UNL A   1      38.673  36.471  41.490  1.00  0.00    -0.744 OA
ENDBRANCH  93  94
ENDBRANCH  61  86
ENDBRANCH  35  36
ENDBRANCH  28  30
ENDBRANCH  27  28
ENDBRANCH  26  27
ENDBRANCH   1  26
TORSDOF 19
ENDMDL
MODEL 3
REMARK VINA RESULT:     -10.8      3.746      9.755
REMARK SMILES C/C(=N/OCc1ccccc1Nc1c(Cl)cccc1Cl)C(=O)OCCOC(=O)c1ccc(-c2c3nc(c(-c4c(F)cc(S(=O)(=O)[O-])cc4F)c4ccc([nH]4)c(-c4c(F)cc(S(=O)(=O)[O-])cc4F)c4nc(c(-c5c(F)cc(S(=O)(=O)[O-])cc5F)c5ccc2[nH]5)C=C4)C=C3)cc1
REMARK SMILES IDX 24 1 23 2 21 3 22 4 2 5 1 6 3 7 4 8 5 9 6 10 7 11 11 12 8 13
REMARK SMILES IDX 10 14 9 15 12 16 13 18 14 19 19 20 15 21 16 22 18 23 20 24
REMARK SMILES IDX 17 25 25 26 26 27 27 28 28 29 29 30 30 31 94 32 31 33 93 34
REMARK SMILES IDX 32 35 33 36 34 37 87 38 35 39 92 40 86 41 88 42 36 43 91 44
REMARK SMILES IDX 85 45 84 46 37 48 71 49 50 50 70 51 51 52 54 53 69 54 89 55
REMARK SMILES IDX 52 56 53 57 68 59 90 60 55 61 38 62 39 63 48 64 40 65 41 66
REMARK SMILES IDX 47 67 49 68 42 69 43 70 44 71 45 72 46 73 72 74 73 75 82 76
REMARK SMILES IDX 74 77 75 78 81 79 83 80 76 81 77 82 78 83 79 84 80 85 56 86
REMARK SMILES IDX 57 87 66 88 58 89 59 90 65 91 67 92 60 93 61 94 62 95 63 96
REMARK SMILES IDX 64 97
REMARK H PARENT 12 17 88 47 54 58
REMARK Flexibility Score: inf
ROOT
ATOM      1  C   UNL A   1      32.384  28.064  25.824  1.00  0.00     0.275 C 
ENDROOT
BRANCH   1   2
ATOM      2  O   UNL A   1      31.979  29.076  24.884  1.00  0.00    -0.458 OA
BRANCH   2   3
ATOM      3  C   UNL A   1      32.366  28.891  23.609  1.00  0.00     0.355 C 
ATOM      4  O   UNL A   1      33.487  28.962  23.142  1.00  0.00    -0.245 OA
BRANCH   3   5
ATOM      5  C   UNL A   1      31.170  28.547  22.739  1.00  0.00     0.161 C 
ATOM      6  C   UNL A   1      30.185  29.641  22.465  1.00  0.00     0.079 C 
ATOM      7  N   UNL A   1      30.925  27.341  22.324  1.00  0.00    -0.084 NA
BRANCH   7   8
ATOM      8  O   UNL A   1      31.877  26.431  22.809  1.00  0.00    -0.390 OA
BRANCH   8   9
ATOM      9  C   UNL A   1      31.314  25.119  22.789  1.00  0.00     0.302 C 
BRANCH   9  10
ATOM     10  C   UNL A   1      31.016  24.494  24.144  1.00  0.00     0.016 A 
ATOM     11  C   UNL A   1      30.167  25.255  24.976  1.00  0.00     0.009 A 
ATOM     12  C   UNL A   1      31.523  23.262  24.626  1.00  0.00     0.045 A 
ATOM     13  C   UNL A   1      29.826  24.818  26.252  1.00  0.00     0.001 A 
ATOM     14  C   UNL A   1      31.168  22.845  25.917  1.00  0.00     0.026 A 
ATOM     15  C   UNL A   1      30.331  23.615  26.724  1.00  0.00     0.002 A 
BRANCH  12  16
ATOM     16  N   UNL A   1      32.355  22.460  23.831  1.00  0.00    -0.353 N 
ATOM     17  H   UNL A   1      31.988  22.263  22.939  1.00  0.00     0.167 HD
BRANCH  16  18
ATOM     18  C   UNL A   1      33.621  21.884  24.070  1.00  0.00     0.076 A 
ATOM     19  C   UNL A   1      33.737  20.555  24.529  1.00  0.00     0.066 A 
ATOM     20  C   UNL A   1      34.788  22.672  24.073  1.00  0.00     0.066 A 
ATOM     21  Cl  UNL A   1      32.369  19.495  24.564  1.00  0.00    -0.082 Cl
ATOM     22  C   UNL A   1      34.965  20.036  24.960  1.00  0.00     0.023 A 
ATOM     23  C   UNL A   1      36.019  22.146  24.486  1.00  0.00     0.023 A 
ATOM     24  Cl  UNL A   1      34.753  24.331  23.578  1.00  0.00    -0.082 Cl
ATOM     25  C   UNL A   1      36.106  20.832  24.939  1.00  0.00     0.003 A 
ENDBRANCH  16  18
ENDBRANCH  12  16
ENDBRANCH   9  10
ENDBRANCH   8   9
ENDBRANCH   7   8
ENDBRANCH   3   5
ENDBRANCH   2   3
ENDBRANCH   1   2
BRANCH   1  26
ATOM     26  C   UNL A   1      32.524  28.685  27.212  1.00  0.00     0.275 C 
BRANCH  26  27
ATOM     27  O   UNL A   1      33.909  28.713  27.605  1.00  0.00    -0.458 OA
BRANCH  27  28
ATOM     28  C   UNL A   1      34.399  29.945  27.866  1.00  0.00     0.338 C 
ATOM     29  O   UNL A   1      33.781  30.998  27.908  1.00  0.00    -0.246 OA
BRANCH  28  30
ATOM     30  C   UNL A   1      35.820  29.856  28.216  1.00  0.00     0.060 A 
ATOM     31  C   UNL A   1      36.773  30.085  27.226  1.00  0.00     0.016 A 
ATOM     32  C   UNL A   1      36.199  29.376  29.466  1.00  0.00     0.016 A 
ATOM     33  C   UNL A   1      38.099  29.733  27.442  1.00  0.00     0.010 A 
ATOM     34  C   UNL A   1      37.553  29.137  29.720  1.00  0.00     0.010 A 
ATOM     35  C   UNL A   1      38.514  29.283  28.701  1.00  0.00    -0.014 A 
BRANCH  35  36
ATOM     36  C   UNL A   1      39.947  28.975  28.958  1.00  0.00     0.031 A 
ATOM     37  C   UNL A   1      40.867  30.041  29.490  1.00  0.00     0.074 A 
ATOM     38  C   UNL A   1      40.426  27.743  28.688  1.00  0.00     0.049 A 
ATOM     39  N   UNL A   1      42.172  30.042  29.568  1.00  0.00    -0.248 NA
ATOM     40  C   UNL A   1      40.237  31.276  29.984  1.00  0.00     0.031 C 
ATOM     41  C   UNL A   1      39.631  26.609  28.208  1.00  0.00     0.029 A 
ATOM     42  N   UNL A   1      41.701  27.240  28.767  1.00  0.00    -0.354 N 
ATOM     43  C   UNL A   1      42.524  31.293  30.064  1.00  0.00     0.074 A 
ATOM     44  C   UNL A   1      41.293  32.027  30.266  1.00  0.00     0.031 C 
ATOM     45  C   UNL A   1      40.429  25.542  28.056  1.00  0.00     0.029 A 
ATOM     46  C   UNL A   1      41.803  25.940  28.328  1.00  0.00     0.049 A 
ATOM     47  H   UNL A   1      42.466  27.758  29.104  1.00  0.00     0.167 HD
ATOM     48  C   UNL A   1      43.762  31.779  30.322  1.00  0.00     0.037 A 
ATOM     49  C   UNL A   1      42.885  25.168  28.109  1.00  0.00     0.037 A 
ATOM     50  C   UNL A   1      44.974  31.016  30.158  1.00  0.00     0.049 A 
ATOM     51  C   UNL A   1      44.249  25.743  28.362  1.00  0.00     0.074 A 
ATOM     52  C   UNL A   1      46.277  31.404  30.417  1.00  0.00     0.029 A 
ATOM     53  N   UNL A   1      45.031  29.706  29.701  1.00  0.00    -0.354 N 
ATOM     54  N   UNL A   1      44.569  26.938  28.796  1.00  0.00    -0.248 NA
ATOM     55  C   UNL A   1      45.398  24.874  28.079  1.00  0.00     0.031 C 
ATOM     56  C   UNL A   1      47.126  30.346  30.073  1.00  0.00     0.029 A 
ATOM     57  C   UNL A   1      46.348  29.279  29.651  1.00  0.00     0.049 A 
ATOM     58  H   UNL A   1      44.251  29.161  29.450  1.00  0.00     0.167 HD
ATOM     59  C   UNL A   1      45.957  26.959  28.857  1.00  0.00     0.074 A 
ATOM     60  C   UNL A   1      46.413  25.651  28.429  1.00  0.00     0.031 C 
ATOM     61  C   UNL A   1      46.781  27.969  29.230  1.00  0.00     0.037 A 
BRANCH  48  62
ATOM     62  C   UNL A   1      43.879  33.211  30.775  1.00  0.00     0.058 A 
ATOM     63  C   UNL A   1      43.829  34.286  29.875  1.00  0.00     0.135 A 
ATOM     64  C   UNL A   1      43.997  33.510  32.143  1.00  0.00     0.135 A 
ATOM     65  F   UNL A   1      43.732  34.059  28.555  1.00  0.00    -0.206 F 
ATOM     66  C   UNL A   1      43.916  35.606  30.311  1.00  0.00     0.059 A 
ATOM     67  C   UNL A   1      44.058  34.822  32.604  1.00  0.00     0.059 A 
ATOM     68  F   UNL A   1      44.051  32.520  33.049  1.00  0.00    -0.206 F 
ATOM     69  C   UNL A   1      44.029  35.864  31.679  1.00  0.00     0.060 A 
BRANCH  69  70
ATOM     70  S   UNL A   1      44.132  37.579  32.230  1.00  0.00     0.124 S 
ATOM     71  O   UNL A   1      43.798  38.300  31.006  1.00  0.00    -0.237 OA
ATOM     72  O   UNL A   1      43.128  37.628  33.288  1.00  0.00    -0.237 OA
ATOM     73  O   UNL A   1      45.516  37.712  32.678  1.00  0.00    -0.744 OA
ENDBRANCH  69  70
ENDBRANCH  48  62
BRANCH  49  74
ATOM     74  C   UNL A   1      42.715  23.790  27.577  1.00  0.00     0.058 A 
ATOM     75  C   UNL A   1      42.825  23.527  26.204  1.00  0.00     0.135 A 
ATOM     76  C   UNL A   1      42.465  22.704  28.432  1.00  0.00     0.135 A 
ATOM     77  F   UNL A   1      43.056  24.532  25.345  1.00  0.00    -0.206 F 
ATOM     78  C   UNL A   1      42.685  22.240  25.696  1.00  0.00     0.059 A 
ATOM     79  C   UNL A   1      42.352  21.404  27.952  1.00  0.00     0.059 A 
ATOM     80  F   UNL A   1      42.366  22.899  29.756  1.00  0.00    -0.206 F 
ATOM     81  C   UNL A   1      42.454  21.184  26.580  1.00  0.00     0.060 A 
BRANCH  81  82
ATOM     82  S   UNL A   1      42.332  19.509  25.916  1.00  0.00     0.124 S 
ATOM     83  O   UNL A   1      40.898  19.389  25.686  1.00  0.00    -0.237 OA
ATOM     84  O   UNL A   1      43.166  19.592  24.720  1.00  0.00    -0.237 OA
ATOM     85  O   UNL A   1      42.872  18.682  26.991  1.00  0.00    -0.744 OA
ENDBRANCH  81  82
ENDBRANCH  49  74
BRANCH  61  86
ATOM     86  C   UNL A   1      48.257  27.689  29.229  1.00  0.00     0.058 A 
ATOM     87  C   UNL A   1      48.899  27.105  30.331  1.00  0.00     0.135 A 
ATOM     88  C   UNL A   1      49.029  27.965  28.089  1.00  0.00     0.135 A 
ATOM     89  F   UNL A   1      48.207  26.832  31.450  1.00  0.00    -0.206 F 
ATOM     90  C   UNL A   1      50.259  26.819  30.310  1.00  0.00     0.059 A 
ATOM     91  C   UNL A   1      50.385  27.663  28.036  1.00  0.00     0.059 A 
ATOM     92  F   UNL A   1      48.461  28.519  27.005  1.00  0.00    -0.206 F 
ATOM     93  C   UNL A   1      50.994  27.099  29.156  1.00  0.00     0.060 A 
BRANCH  93  94
ATOM     94  S   UNL A   1      52.751  26.686  29.128  1.00  0.00     0.124 S 
ATOM     95  O   UNL A   1      53.363  28.009  29.081  1.00  0.00    -0.237 OA
ATOM     96  O   UNL A   1      52.918  25.954  30.380  1.00  0.00    -0.237 OA
ATOM     97  O   UNL A   1      52.892  25.885  27.916  1.00  0.00    -0.744 OA
ENDBRANCH  93  94
ENDBRANCH  61  86
ENDBRANCH  35  36
ENDBRANCH  28  30
ENDBRANCH  27  28
ENDBRANCH  26  27
ENDBRANCH   1  26
TORSDOF 19
ENDMDL
