MODEL 1
REMARK VINA RESULT:     -11.3      0.000      0.000
REMARK SMILES COc1ccc(/C=C2/SC(=S)N(c3ccc(C(=O)OCCOC(=O)c4ccc(-c5c6nc(c(-c7c(F)cc(S(=O)(=O)[O-])cc7F)c7ccc([nH]7)c(-c7c(F)cc(S(=O)(=O)[O-])cc7F)c7nc(c(-c8c(F)cc(S(=O)(=O)[O-])cc8F)c8ccc5[nH]8)C=C7)C=C6)cc4)c(O)c3)C2=O)cc1OC
REMARK SMILES IDX 20 1 19 2 17 3 18 4 16 5 13 6 14 7 93 8 15 9 91 10 12 11
REMARK SMILES IDX 7 12 8 13 9 14 94 15 10 16 95 17 11 18 6 19 3 20 4 21 97 22
REMARK SMILES IDX 5 23 96 24 2 25 1 26 98 27 99 28 92 29 21 31 22 32 23 33
REMARK SMILES IDX 24 34 25 35 26 36 90 37 27 38 89 39 28 40 29 41 30 42 83 43
REMARK SMILES IDX 31 44 88 45 82 46 84 47 32 48 87 49 81 50 80 51 33 53 67 54
REMARK SMILES IDX 46 55 66 56 47 57 50 58 65 59 85 60 48 61 49 62 64 64 86 65
REMARK SMILES IDX 51 66 34 67 35 68 44 69 36 70 37 71 43 72 45 73 38 74 39 75
REMARK SMILES IDX 40 76 41 77 42 78 68 79 69 80 78 81 70 82 71 83 77 84 79 85
REMARK SMILES IDX 72 86 73 87 74 88 75 89 76 90 52 91 53 92 62 93 54 94 55 95
REMARK SMILES IDX 61 96 63 97 56 98 57 99 58 100 59 101 60 102
REMARK H PARENT 92 30 84 52 50 63
REMARK Flexibility Score: inf
ROOT
ATOM      1  C   UNL A   1      34.704  32.524  30.196  1.00  0.00     0.275 C 
ENDROOT
BRANCH   1   2
ATOM      2  O   UNL A   1      34.564  31.565  29.128  1.00  0.00    -0.458 OA
BRANCH   2   3
ATOM      3  C   UNL A   1      33.807  31.969  28.078  1.00  0.00     0.342 C 
ATOM      4  O   UNL A   1      33.461  33.117  27.838  1.00  0.00    -0.246 OA
BRANCH   3   5
ATOM      5  C   UNL A   1      33.525  30.865  27.134  1.00  0.00     0.101 A 
ATOM      6  C   UNL A   1      32.756  28.739  25.438  1.00  0.00     0.054 A 
ATOM      7  C   UNL A   1      31.837  29.725  25.806  1.00  0.00     0.028 A 
ATOM      8  C   UNL A   1      34.074  28.835  25.916  1.00  0.00     0.073 A 
ATOM      9  C   UNL A   1      32.210  30.747  26.672  1.00  0.00     0.022 A 
ATOM     10  C   UNL A   1      34.459  29.902  26.747  1.00  0.00     0.132 A 
BRANCH   6  11
ATOM     11  N   UNL A   1      32.316  27.670  24.597  1.00  0.00    -0.261 N 
ATOM     12  C   UNL A   1      32.848  24.263  23.344  1.00  0.00     0.029 C 
ATOM     13  C   UNL A   1      32.464  25.528  23.587  1.00  0.00     0.081 C 
ATOM     14  S   UNL A   1      31.081  26.233  22.838  1.00  0.00    -0.054 SA
ATOM     15  C   UNL A   1      33.088  26.511  24.520  1.00  0.00     0.270 C 
ATOM     16  C   UNL A   1      31.213  27.733  23.760  1.00  0.00     0.152 C 
ATOM     17  O   UNL A   1      34.126  26.296  25.131  1.00  0.00    -0.268 OA
ATOM     18  S   UNL A   1      30.146  28.993  23.482  1.00  0.00    -0.051 S 
BRANCH  12  19
ATOM     19  C   UNL A   1      33.934  23.545  24.026  1.00  0.00    -0.020 A 
ATOM     20  C   UNL A   1      35.997  22.182  25.357  1.00  0.00     0.160 A 
ATOM     21  C   UNL A   1      36.253  22.875  24.166  1.00  0.00     0.051 A 
ATOM     22  C   UNL A   1      34.710  22.171  25.900  1.00  0.00     0.161 A 
ATOM     23  C   UNL A   1      35.225  23.547  23.497  1.00  0.00     0.012 A 
ATOM     24  C   UNL A   1      33.685  22.825  25.205  1.00  0.00     0.058 A 
BRANCH  20  25
ATOM     25  O   UNL A   1      37.064  21.606  25.989  1.00  0.00    -0.493 OA
ATOM     26  C   UNL A   1      38.274  22.323  25.753  1.00  0.00     0.278 C 
ENDBRANCH  20  25
BRANCH  22  27
ATOM     27  O   UNL A   1      34.280  21.576  27.055  1.00  0.00    -0.493 OA
ATOM     28  C   UNL A   1      33.343  22.287  27.854  1.00  0.00     0.278 C 
ENDBRANCH  22  27
ENDBRANCH  12  19
ENDBRANCH   6  11
BRANCH  10  29
ATOM     29  O   UNL A   1      35.742  29.962  27.214  1.00  0.00    -0.507 OA
ATOM     30  H   UNL A   1      36.045  29.330  27.836  1.00  0.00     0.293 HD
ENDBRANCH  10  29
ENDBRANCH   3   5
ENDBRANCH   2   3
ENDBRANCH   1   2
BRANCH   1  31
ATOM     31  C   UNL A   1      35.480  31.939  31.375  1.00  0.00     0.275 C 
BRANCH  31  32
ATOM     32  O   UNL A   1      36.158  30.733  30.981  1.00  0.00    -0.458 OA
BRANCH  32  33
ATOM     33  C   UNL A   1      37.157  30.337  31.804  1.00  0.00     0.338 C 
ATOM     34  O   UNL A   1      37.175  30.381  33.021  1.00  0.00    -0.246 OA
BRANCH  33  35
ATOM     35  C   UNL A   1      38.270  29.785  31.017  1.00  0.00     0.060 A 
ATOM     36  C   UNL A   1      39.302  29.138  31.686  1.00  0.00     0.016 A 
ATOM     37  C   UNL A   1      38.387  30.066  29.659  1.00  0.00     0.016 A 
ATOM     38  C   UNL A   1      40.514  28.902  31.039  1.00  0.00     0.010 A 
ATOM     39  C   UNL A   1      39.556  29.700  28.977  1.00  0.00     0.010 A 
ATOM     40  C   UNL A   1      40.659  29.162  29.667  1.00  0.00    -0.014 A 
BRANCH  40  41
ATOM     41  C   UNL A   1      41.957  28.902  28.966  1.00  0.00     0.031 A 
ATOM     42  C   UNL A   1      42.246  27.543  28.368  1.00  0.00     0.074 A 
ATOM     43  C   UNL A   1      42.887  29.874  28.855  1.00  0.00     0.049 A 
ATOM     44  N   UNL A   1      43.376  27.059  27.915  1.00  0.00    -0.248 NA
ATOM     45  C   UNL A   1      41.121  26.597  28.288  1.00  0.00     0.031 C 
ATOM     46  C   UNL A   1      42.746  31.246  29.347  1.00  0.00     0.029 A 
ATOM     47  N   UNL A   1      44.141  29.859  28.289  1.00  0.00    -0.354 N 
ATOM     48  C   UNL A   1      43.115  25.737  27.563  1.00  0.00     0.074 A 
ATOM     49  C   UNL A   1      41.719  25.495  27.858  1.00  0.00     0.031 C 
ATOM     50  C   UNL A   1      43.839  31.951  29.019  1.00  0.00     0.029 A 
ATOM     51  C   UNL A   1      44.807  31.060  28.392  1.00  0.00     0.049 A 
ATOM     52  H   UNL A   1      44.525  29.066  27.851  1.00  0.00     0.167 HD
ATOM     53  C   UNL A   1      43.960  24.813  27.042  1.00  0.00     0.037 A 
ATOM     54  C   UNL A   1      46.070  31.403  28.071  1.00  0.00     0.037 A 
ATOM     55  C   UNL A   1      45.330  25.080  26.681  1.00  0.00     0.049 A 
ATOM     56  C   UNL A   1      46.994  30.363  27.508  1.00  0.00     0.074 A 
ATOM     57  C   UNL A   1      46.260  24.217  26.125  1.00  0.00     0.029 A 
ATOM     58  N   UNL A   1      45.961  26.307  26.820  1.00  0.00    -0.354 N 
ATOM     59  N   UNL A   1      46.749  29.102  27.245  1.00  0.00    -0.248 NA
ATOM     60  C   UNL A   1      48.371  30.784  27.219  1.00  0.00     0.031 C 
ATOM     61  C   UNL A   1      47.462  24.913  25.958  1.00  0.00     0.029 A 
ATOM     62  C   UNL A   1      47.270  26.222  26.369  1.00  0.00     0.049 A 
ATOM     63  H   UNL A   1      45.542  27.121  27.184  1.00  0.00     0.167 HD
ATOM     64  C   UNL A   1      47.938  28.580  26.751  1.00  0.00     0.074 A 
ATOM     65  C   UNL A   1      48.896  29.666  26.734  1.00  0.00     0.031 C 
ATOM     66  C   UNL A   1      48.213  27.313  26.354  1.00  0.00     0.037 A 
BRANCH  53  67
ATOM     67  C   UNL A   1      43.440  23.410  26.857  1.00  0.00     0.058 A 
ATOM     68  C   UNL A   1      43.164  22.873  25.591  1.00  0.00     0.135 A 
ATOM     69  C   UNL A   1      43.243  22.578  27.973  1.00  0.00     0.135 A 
ATOM     70  F   UNL A   1      43.326  23.622  24.489  1.00  0.00    -0.206 F 
ATOM     71  C   UNL A   1      42.677  21.577  25.438  1.00  0.00     0.059 A 
ATOM     72  C   UNL A   1      42.784  21.269  27.843  1.00  0.00     0.059 A 
ATOM     73  F   UNL A   1      43.497  23.034  29.210  1.00  0.00    -0.206 F 
ATOM     74  C   UNL A   1      42.486  20.783  26.571  1.00  0.00     0.060 A 
BRANCH  74  75
ATOM     75  S   UNL A   1      41.849  19.108  26.359  1.00  0.00     0.124 S 
ATOM     76  O   UNL A   1      41.911  18.597  27.725  1.00  0.00    -0.237 OA
ATOM     77  O   UNL A   1      40.508  19.345  25.833  1.00  0.00    -0.237 OA
ATOM     78  O   UNL A   1      42.788  18.502  25.419  1.00  0.00    -0.744 OA
ENDBRANCH  74  75
ENDBRANCH  53  67
BRANCH  54  79
ATOM     79  C   UNL A   1      46.540  32.792  28.325  1.00  0.00     0.058 A 
ATOM     80  C   UNL A   1      47.167  33.135  29.531  1.00  0.00     0.135 A 
ATOM     81  C   UNL A   1      46.409  33.795  27.349  1.00  0.00     0.135 A 
ATOM     82  F   UNL A   1      47.304  32.217  30.500  1.00  0.00    -0.206 F 
ATOM     83  C   UNL A   1      47.651  34.419  29.762  1.00  0.00     0.059 A 
ATOM     84  C   UNL A   1      46.911  35.077  27.544  1.00  0.00     0.059 A 
ATOM     85  F   UNL A   1      45.826  33.516  26.172  1.00  0.00    -0.206 F 
ATOM     86  C   UNL A   1      47.526  35.382  28.757  1.00  0.00     0.060 A 
BRANCH  86  87
ATOM     87  S   UNL A   1      48.224  37.023  29.034  1.00  0.00     0.124 S 
ATOM     88  O   UNL A   1      47.674  37.360  30.341  1.00  0.00    -0.237 OA
ATOM     89  O   UNL A   1      49.660  36.759  28.995  1.00  0.00    -0.237 OA
ATOM     90  O   UNL A   1      47.709  37.801  27.910  1.00  0.00    -0.744 OA
ENDBRANCH  86  87
ENDBRANCH  54  79
BRANCH  66  91
ATOM     91  C   UNL A   1      49.597  27.040  25.837  1.00  0.00     0.058 A 
ATOM     92  C   UNL A   1      49.939  27.263  24.495  1.00  0.00     0.135 A 
ATOM     93  C   UNL A   1      50.602  26.583  26.704  1.00  0.00     0.135 A 
ATOM     94  F   UNL A   1      49.012  27.691  23.622  1.00  0.00    -0.206 F 
ATOM     95  C   UNL A   1      51.226  27.023  24.024  1.00  0.00     0.059 A 
ATOM     96  C   UNL A   1      51.902  26.359  26.260  1.00  0.00     0.059 A 
ATOM     97  F   UNL A   1      50.329  26.361  27.999  1.00  0.00    -0.206 F 
ATOM     98  C   UNL A   1      52.201  26.570  24.915  1.00  0.00     0.060 A 
BRANCH  98  99
ATOM     99  S   UNL A   1      53.874  26.287  24.300  1.00  0.00     0.124 S 
ATOM    100  O   UNL A   1      54.173  24.971  24.853  1.00  0.00    -0.237 OA
ATOM    101  O   UNL A   1      53.689  26.339  22.852  1.00  0.00    -0.237 OA
ATOM    102  O   UNL A   1      54.636  27.395  24.867  1.00  0.00    -0.744 OA
ENDBRANCH  98  99
ENDBRANCH  66  91
ENDBRANCH  40  41
ENDBRANCH  33  35
ENDBRANCH  32  33
ENDBRANCH  31  32
ENDBRANCH   1  31
TORSDOF 19
ENDMDL
MODEL 2
REMARK VINA RESULT:     -11.2      4.048     10.339
REMARK SMILES COc1ccc(/C=C2/SC(=S)N(c3ccc(C(=O)OCCOC(=O)c4ccc(-c5c6nc(c(-c7c(F)cc(S(=O)(=O)[O-])cc7F)c7ccc([nH]7)c(-c7c(F)cc(S(=O)(=O)[O-])cc7F)c7nc(c(-c8c(F)cc(S(=O)(=O)[O-])cc8F)c8ccc5[nH]8)C=C7)C=C6)cc4)c(O)c3)C2=O)cc1OC
REMARK SMILES IDX 20 1 19 2 17 3 18 4 16 5 13 6 14 7 93 8 15 9 91 10 12 11
REMARK SMILES IDX 7 12 8 13 9 14 94 15 10 16 95 17 11 18 6 19 3 20 4 21 97 22
REMARK SMILES IDX 5 23 96 24 2 25 1 26 98 27 99 28 92 29 21 31 22 32 23 33
REMARK SMILES IDX 24 34 25 35 26 36 90 37 27 38 89 39 28 40 29 41 30 42 83 43
REMARK SMILES IDX 31 44 88 45 82 46 84 47 32 48 87 49 81 50 80 51 33 53 67 54
REMARK SMILES IDX 46 55 66 56 47 57 50 58 65 59 85 60 48 61 49 62 64 64 86 65
REMARK SMILES IDX 51 66 34 67 35 68 44 69 36 70 37 71 43 72 45 73 38 74 39 75
REMARK SMILES IDX 40 76 41 77 42 78 68 79 69 80 78 81 70 82 71 83 77 84 79 85
REMARK SMILES IDX 72 86 73 87 74 88 75 89 76 90 52 91 53 92 62 93 54 94 55 95
REMARK SMILES IDX 61 96 63 97 56 98 57 99 58 100 59 101 60 102
REMARK H PARENT 92 30 84 52 50 63
REMARK Flexibility Score: inf
ROOT
ATOM      1  C   UNL A   1      34.517  33.807  30.261  1.00  0.00     0.275 C 
ENDROOT
BRANCH   1   2
ATOM      2  O   UNL A   1      35.804  34.329  30.650  1.00  0.00    -0.458 OA
BRANCH   2   3
ATOM      3  C   UNL A   1      35.986  34.497  31.983  1.00  0.00     0.342 C 
ATOM      4  O   UNL A   1      35.117  34.765  32.801  1.00  0.00    -0.246 OA
BRANCH   3   5
ATOM      5  C   UNL A   1      37.372  34.189  32.402  1.00  0.00     0.101 A 
ATOM      6  C   UNL A   1      39.948  33.667  33.440  1.00  0.00     0.054 A 
ATOM      7  C   UNL A   1      38.804  33.348  34.177  1.00  0.00     0.028 A 
ATOM      8  C   UNL A   1      39.789  34.237  32.165  1.00  0.00     0.073 A 
ATOM      9  C   UNL A   1      37.540  33.644  33.679  1.00  0.00     0.022 A 
ATOM     10  C   UNL A   1      38.507  34.482  31.644  1.00  0.00     0.132 A 
BRANCH   6  11
ATOM     11  N   UNL A   1      41.230  33.405  34.014  1.00  0.00    -0.261 N 
ATOM     12  C   UNL A   1      44.037  31.083  34.456  1.00  0.00     0.029 C 
ATOM     13  C   UNL A   1      43.135  32.079  34.509  1.00  0.00     0.081 C 
ATOM     14  S   UNL A   1      43.411  33.529  35.398  1.00  0.00    -0.054 SA
ATOM     15  C   UNL A   1      41.811  32.151  33.825  1.00  0.00     0.270 C 
ATOM     16  C   UNL A   1      41.912  34.281  34.843  1.00  0.00     0.152 C 
ATOM     17  O   UNL A   1      41.333  31.226  33.182  1.00  0.00    -0.268 OA
ATOM     18  S   UNL A   1      41.470  35.797  35.400  1.00  0.00    -0.051 S 
BRANCH  12  19
ATOM     19  C   UNL A   1      43.939  29.873  33.630  1.00  0.00    -0.020 A 
ATOM     20  C   UNL A   1      43.759  27.542  32.073  1.00  0.00     0.160 A 
ATOM     21  C   UNL A   1      44.377  28.692  31.565  1.00  0.00     0.051 A 
ATOM     22  C   UNL A   1      43.234  27.542  33.368  1.00  0.00     0.161 A 
ATOM     23  C   UNL A   1      44.460  29.857  32.335  1.00  0.00     0.012 A 
ATOM     24  C   UNL A   1      43.299  28.724  34.117  1.00  0.00     0.058 A 
BRANCH  20  25
ATOM     25  O   UNL A   1      43.775  26.422  31.289  1.00  0.00    -0.493 OA
ATOM     26  C   UNL A   1      44.930  25.621  31.530  1.00  0.00     0.278 C 
ENDBRANCH  20  25
BRANCH  22  27
ATOM     27  O   UNL A   1      42.622  26.516  34.037  1.00  0.00    -0.493 OA
ATOM     28  C   UNL A   1      43.362  25.861  35.060  1.00  0.00     0.278 C 
ENDBRANCH  22  27
ENDBRANCH  12  19
ENDBRANCH   6  11
BRANCH  10  29
ATOM     29  O   UNL A   1      38.380  35.055  30.409  1.00  0.00    -0.507 OA
ATOM     30  H   UNL A   1      37.530  35.185  30.038  1.00  0.00     0.293 HD
ENDBRANCH  10  29
ENDBRANCH   3   5
ENDBRANCH   2   3
ENDBRANCH   1   2
BRANCH   1  31
ATOM     31  C   UNL A   1      34.647  32.443  29.586  1.00  0.00     0.275 C 
BRANCH  31  32
ATOM     32  O   UNL A   1      36.027  32.041  29.528  1.00  0.00    -0.458 OA
BRANCH  32  33
ATOM     33  C   UNL A   1      36.412  31.164  30.484  1.00  0.00     0.338 C 
ATOM     34  O   UNL A   1      35.867  30.944  31.550  1.00  0.00    -0.246 OA
BRANCH  33  35
ATOM     35  C   UNL A   1      37.615  30.439  30.048  1.00  0.00     0.060 A 
ATOM     36  C   UNL A   1      38.456  29.901  31.015  1.00  0.00     0.016 A 
ATOM     37  C   UNL A   1      38.008  30.452  28.713  1.00  0.00     0.016 A 
ATOM     38  C   UNL A   1      39.750  29.510  30.676  1.00  0.00     0.010 A 
ATOM     39  C   UNL A   1      39.258  29.929  28.356  1.00  0.00     0.010 A 
ATOM     40  C   UNL A   1      40.172  29.500  29.337  1.00  0.00    -0.014 A 
BRANCH  40  41
ATOM     41  C   UNL A   1      41.558  29.072  28.968  1.00  0.00     0.031 A 
ATOM     42  C   UNL A   1      42.702  30.061  29.007  1.00  0.00     0.074 A 
ATOM     43  C   UNL A   1      41.811  27.799  28.596  1.00  0.00     0.049 A 
ATOM     44  N   UNL A   1      43.916  29.947  28.527  1.00  0.00    -0.248 NA
ATOM     45  C   UNL A   1      42.439  31.358  29.652  1.00  0.00     0.031 C 
ATOM     46  C   UNL A   1      40.824  26.718  28.540  1.00  0.00     0.029 A 
ATOM     47  N   UNL A   1      42.978  27.194  28.194  1.00  0.00    -0.354 N 
ATOM     48  C   UNL A   1      44.535  31.174  28.750  1.00  0.00     0.074 A 
ATOM     49  C   UNL A   1      43.561  32.020  29.405  1.00  0.00     0.031 C 
ATOM     50  C   UNL A   1      41.433  25.578  28.181  1.00  0.00     0.029 A 
ATOM     51  C   UNL A   1      42.828  25.864  27.872  1.00  0.00     0.049 A 
ATOM     52  H   UNL A   1      43.840  27.667  28.141  1.00  0.00     0.167 HD
ATOM     53  C   UNL A   1      45.798  31.558  28.438  1.00  0.00     0.037 A 
ATOM     54  C   UNL A   1      43.692  24.978  27.339  1.00  0.00     0.037 A 
ATOM     55  C   UNL A   1      46.788  30.689  27.853  1.00  0.00     0.049 A 
ATOM     56  C   UNL A   1      45.082  25.426  26.988  1.00  0.00     0.074 A 
ATOM     57  C   UNL A   1      48.101  30.977  27.521  1.00  0.00     0.029 A 
ATOM     58  N   UNL A   1      46.581  29.355  27.531  1.00  0.00    -0.354 N 
ATOM     59  N   UNL A   1      45.628  26.607  27.143  1.00  0.00    -0.248 NA
ATOM     60  C   UNL A   1      45.964  24.429  26.368  1.00  0.00     0.031 C 
ATOM     61  C   UNL A   1      48.678  29.828  26.968  1.00  0.00     0.029 A 
ATOM     62  C   UNL A   1      47.739  28.811  26.996  1.00  0.00     0.049 A 
ATOM     63  H   UNL A   1      45.737  28.866  27.664  1.00  0.00     0.167 HD
ATOM     64  C   UNL A   1      46.922  26.494  26.649  1.00  0.00     0.074 A 
ATOM     65  C   UNL A   1      47.083  25.124  26.208  1.00  0.00     0.031 C 
ATOM     66  C   UNL A   1      47.887  27.443  26.564  1.00  0.00     0.037 A 
BRANCH  53  67
ATOM     67  C   UNL A   1      46.179  32.995  28.693  1.00  0.00     0.058 A 
ATOM     68  C   UNL A   1      46.003  33.999  27.730  1.00  0.00     0.135 A 
ATOM     69  C   UNL A   1      46.702  33.374  29.941  1.00  0.00     0.135 A 
ATOM     70  F   UNL A   1      45.514  33.695  26.517  1.00  0.00    -0.206 F 
ATOM     71  C   UNL A   1      46.367  35.320  27.979  1.00  0.00     0.059 A 
ATOM     72  C   UNL A   1      47.046  34.694  30.223  1.00  0.00     0.059 A 
ATOM     73  F   UNL A   1      46.886  32.458  30.905  1.00  0.00    -0.206 F 
ATOM     74  C   UNL A   1      46.892  35.658  29.229  1.00  0.00     0.060 A 
BRANCH  74  75
ATOM     75  S   UNL A   1      47.364  37.373  29.536  1.00  0.00     0.124 S 
ATOM     76  O   UNL A   1      46.087  38.061  29.374  1.00  0.00    -0.237 OA
ATOM     77  O   UNL A   1      47.884  37.318  30.898  1.00  0.00    -0.237 OA
ATOM     78  O   UNL A   1      48.358  37.644  28.500  1.00  0.00    -0.744 OA
ENDBRANCH  74  75
ENDBRANCH  53  67
BRANCH  54  79
ATOM     79  C   UNL A   1      43.241  23.587  27.063  1.00  0.00     0.058 A 
ATOM     80  C   UNL A   1      42.938  23.170  25.759  1.00  0.00     0.135 A 
ATOM     81  C   UNL A   1      43.144  22.635  28.092  1.00  0.00     0.135 A 
ATOM     82  F   UNL A   1      43.002  24.043  24.743  1.00  0.00    -0.206 F 
ATOM     83  C   UNL A   1      42.558  21.859  25.483  1.00  0.00     0.059 A 
ATOM     84  C   UNL A   1      42.796  21.313  27.838  1.00  0.00     0.059 A 
ATOM     85  F   UNL A   1      43.434  22.981  29.357  1.00  0.00    -0.206 F 
ATOM     86  C   UNL A   1      42.499  20.935  26.529  1.00  0.00     0.060 A 
BRANCH  86  87
ATOM     87  S   UNL A   1      42.080  19.221  26.152  1.00  0.00     0.124 S 
ATOM     88  O   UNL A   1      42.504  18.540  27.370  1.00  0.00    -0.237 OA
ATOM     89  O   UNL A   1      40.639  19.296  25.931  1.00  0.00    -0.237 OA
ATOM     90  O   UNL A   1      42.874  18.936  24.959  1.00  0.00    -0.744 OA
ENDBRANCH  86  87
ENDBRANCH  54  79
BRANCH  66  91
ATOM     91  C   UNL A   1      49.214  27.023  25.999  1.00  0.00     0.058 A 
ATOM     92  C   UNL A   1      49.521  27.183  24.640  1.00  0.00     0.135 A 
ATOM     93  C   UNL A   1      50.205  26.486  26.837  1.00  0.00     0.135 A 
ATOM     94  F   UNL A   1      48.605  27.683  23.794  1.00  0.00    -0.206 F 
ATOM     95  C   UNL A   1      50.758  26.806  24.125  1.00  0.00     0.059 A 
ATOM     96  C   UNL A   1      51.456  26.124  26.349  1.00  0.00     0.059 A 
ATOM     97  F   UNL A   1      49.964  26.319  28.148  1.00  0.00    -0.206 F 
ATOM     98  C   UNL A   1      51.719  26.277  24.988  1.00  0.00     0.060 A 
BRANCH  98  99
ATOM     99  S   UNL A   1      53.329  25.816  24.315  1.00  0.00     0.124 S 
ATOM    100  O   UNL A   1      54.193  26.843  24.885  1.00  0.00    -0.237 OA
ATOM    101  O   UNL A   1      53.515  24.467  24.842  1.00  0.00    -0.237 OA
ATOM    102  O   UNL A   1      53.127  25.894  22.871  1.00  0.00    -0.744 OA
ENDBRANCH  98  99
ENDBRANCH  66  91
ENDBRANCH  40  41
ENDBRANCH  33  35
ENDBRANCH  32  33
ENDBRANCH  31  32
ENDBRANCH   1  31
TORSDOF 19
ENDMDL
MODEL 3
REMARK VINA RESULT:     -11.2      0.988      8.070
REMARK SMILES COc1ccc(/C=C2/SC(=S)N(c3ccc(C(=O)OCCOC(=O)c4ccc(-c5c6nc(c(-c7c(F)cc(S(=O)(=O)[O-])cc7F)c7ccc([nH]7)c(-c7c(F)cc(S(=O)(=O)[O-])cc7F)c7nc(c(-c8c(F)cc(S(=O)(=O)[O-])cc8F)c8ccc5[nH]8)C=C7)C=C6)cc4)c(O)c3)C2=O)cc1OC
REMARK SMILES IDX 20 1 19 2 17 3 18 4 16 5 13 6 14 7 93 8 15 9 91 10 12 11
REMARK SMILES IDX 7 12 8 13 9 14 94 15 10 16 95 17 11 18 6 19 3 20 4 21 97 22
REMARK SMILES IDX 5 23 96 24 2 25 1 26 98 27 99 28 92 29 21 31 22 32 23 33
REMARK SMILES IDX 24 34 25 35 26 36 90 37 27 38 89 39 28 40 29 41 30 42 83 43
REMARK SMILES IDX 31 44 88 45 82 46 84 47 32 48 87 49 81 50 80 51 33 53 67 54
REMARK SMILES IDX 46 55 66 56 47 57 50 58 65 59 85 60 48 61 49 62 64 64 86 65
REMARK SMILES IDX 51 66 34 67 35 68 44 69 36 70 37 71 43 72 45 73 38 74 39 75
REMARK SMILES IDX 40 76 41 77 42 78 68 79 69 80 78 81 70 82 71 83 77 84 79 85
REMARK SMILES IDX 72 86 73 87 74 88 75 89 76 90 52 91 53 92 62 93 54 94 55 95
REMARK SMILES IDX 61 96 63 97 56 98 57 99 58 100 59 101 60 102
REMARK H PARENT 92 30 84 52 50 63
REMARK Flexibility Score: inf
ROOT
ATOM      1  C   UNL A   1      34.305  32.677  28.161  1.00  0.00     0.275 C 
ENDROOT
BRANCH   1   2
ATOM      2  O   UNL A   1      33.551  31.475  27.900  1.00  0.00    -0.458 OA
BRANCH   2   3
ATOM      3  C   UNL A   1      32.364  31.657  27.272  1.00  0.00     0.342 C 
ATOM      4  O   UNL A   1      31.737  32.705  27.204  1.00  0.00    -0.246 OA
BRANCH   3   5
ATOM      5  C   UNL A   1      31.930  30.450  26.533  1.00  0.00     0.101 A 
ATOM      6  C   UNL A   1      31.337  28.050  25.165  1.00  0.00     0.054 A 
ATOM      7  C   UNL A   1      32.129  28.037  26.316  1.00  0.00     0.028 A 
ATOM      8  C   UNL A   1      30.828  29.279  24.713  1.00  0.00     0.073 A 
ATOM      9  C   UNL A   1      32.452  29.225  26.963  1.00  0.00     0.022 A 
ATOM     10  C   UNL A   1      31.112  30.471  25.403  1.00  0.00     0.132 A 
BRANCH   6  11
ATOM     11  N   UNL A   1      31.082  26.815  24.493  1.00  0.00    -0.261 N 
ATOM     12  C   UNL A   1      32.335  23.552  23.377  1.00  0.00     0.029 C 
ATOM     13  C   UNL A   1      31.656  24.688  23.609  1.00  0.00     0.081 C 
ATOM     14  S   UNL A   1      30.025  24.911  23.097  1.00  0.00    -0.054 SA
ATOM     15  C   UNL A   1      32.125  25.900  24.342  1.00  0.00     0.270 C 
ATOM     16  C   UNL A   1      29.882  26.487  23.881  1.00  0.00     0.152 C 
ATOM     17  O   UNL A   1      33.268  26.040  24.754  1.00  0.00    -0.268 OA
ATOM     18  S   UNL A   1      28.473  27.378  23.736  1.00  0.00    -0.051 S 
BRANCH  12  19
ATOM     19  C   UNL A   1      33.677  23.230  23.881  1.00  0.00    -0.020 A 
ATOM     20  C   UNL A   1      36.233  22.621  24.873  1.00  0.00     0.160 A 
ATOM     21  C   UNL A   1      36.084  23.312  23.663  1.00  0.00     0.051 A 
ATOM     22  C   UNL A   1      35.107  22.236  25.605  1.00  0.00     0.161 A 
ATOM     23  C   UNL A   1      34.812  23.608  23.163  1.00  0.00     0.012 A 
ATOM     24  C   UNL A   1      33.839  22.515  25.078  1.00  0.00     0.058 A 
BRANCH  20  25
ATOM     25  O   UNL A   1      37.506  22.426  25.332  1.00  0.00    -0.493 OA
ATOM     26  C   UNL A   1      37.955  21.092  25.107  1.00  0.00     0.278 C 
ENDBRANCH  20  25
BRANCH  22  27
ATOM     27  O   UNL A   1      35.056  21.583  26.807  1.00  0.00    -0.493 OA
ATOM     28  C   UNL A   1      34.088  22.018  27.754  1.00  0.00     0.278 C 
ENDBRANCH  22  27
ENDBRANCH  12  19
ENDBRANCH   6  11
BRANCH  10  29
ATOM     29  O   UNL A   1      30.620  31.655  24.931  1.00  0.00    -0.507 OA
ATOM     30  H   UNL A   1      29.828  32.009  25.287  1.00  0.00     0.293 HD
ENDBRANCH  10  29
ENDBRANCH   3   5
ENDBRANCH   2   3
ENDBRANCH   1   2
BRANCH   1  31
ATOM     31  C   UNL A   1      35.804  32.448  27.977  1.00  0.00     0.275 C 
BRANCH  31  32
ATOM     32  O   UNL A   1      36.485  32.541  29.241  1.00  0.00    -0.458 OA
BRANCH  32  33
ATOM     33  C   UNL A   1      36.489  31.407  29.978  1.00  0.00     0.338 C 
ATOM     34  O   UNL A   1      35.623  31.015  30.740  1.00  0.00    -0.246 OA
BRANCH  33  35
ATOM     35  C   UNL A   1      37.714  30.637  29.713  1.00  0.00     0.060 A 
ATOM     36  C   UNL A   1      38.651  30.504  30.730  1.00  0.00     0.016 A 
ATOM     37  C   UNL A   1      38.021  30.213  28.423  1.00  0.00     0.016 A 
ATOM     38  C   UNL A   1      39.948  30.086  30.436  1.00  0.00     0.010 A 
ATOM     39  C   UNL A   1      39.283  29.662  28.160  1.00  0.00     0.010 A 
ATOM     40  C   UNL A   1      40.285  29.639  29.149  1.00  0.00    -0.014 A 
BRANCH  40  41
ATOM     41  C   UNL A   1      41.674  29.181  28.830  1.00  0.00     0.031 A 
ATOM     42  C   UNL A   1      42.833  30.151  28.885  1.00  0.00     0.074 A 
ATOM     43  C   UNL A   1      41.915  27.896  28.490  1.00  0.00     0.049 A 
ATOM     44  N   UNL A   1      44.059  30.005  28.445  1.00  0.00    -0.248 NA
ATOM     45  C   UNL A   1      42.574  31.464  29.496  1.00  0.00     0.031 C 
ATOM     46  C   UNL A   1      40.911  26.831  28.426  1.00  0.00     0.029 A 
ATOM     47  N   UNL A   1      43.083  27.263  28.136  1.00  0.00    -0.354 N 
ATOM     48  C   UNL A   1      44.693  31.226  28.663  1.00  0.00     0.074 A 
ATOM     49  C   UNL A   1      43.715  32.102  29.271  1.00  0.00     0.031 C 
ATOM     50  C   UNL A   1      41.510  25.674  28.107  1.00  0.00     0.029 A 
ATOM     51  C   UNL A   1      42.919  25.930  27.836  1.00  0.00     0.049 A 
ATOM     52  H   UNL A   1      43.954  27.720  28.101  1.00  0.00     0.167 HD
ATOM     53  C   UNL A   1      45.971  31.582  28.382  1.00  0.00     0.037 A 
ATOM     54  C   UNL A   1      43.783  25.018  27.346  1.00  0.00     0.037 A 
ATOM     55  C   UNL A   1      46.963  30.684  27.844  1.00  0.00     0.049 A 
ATOM     56  C   UNL A   1      45.190  25.435  27.029  1.00  0.00     0.074 A 
ATOM     57  C   UNL A   1      48.291  30.943  27.546  1.00  0.00     0.029 A 
ATOM     58  N   UNL A   1      46.742  29.348  27.542  1.00  0.00    -0.354 N 
ATOM     59  N   UNL A   1      45.753  26.610  27.178  1.00  0.00    -0.248 NA
ATOM     60  C   UNL A   1      46.073  24.411  26.457  1.00  0.00     0.031 C 
ATOM     61  C   UNL A   1      48.863  29.774  27.034  1.00  0.00     0.029 A 
ATOM     62  C   UNL A   1      47.906  28.773  27.053  1.00  0.00     0.049 A 
ATOM     63  H   UNL A   1      45.886  28.877  27.658  1.00  0.00     0.167 HD
ATOM     64  C   UNL A   1      47.058  26.465  26.727  1.00  0.00     0.074 A 
ATOM     65  C   UNL A   1      47.208  25.084  26.317  1.00  0.00     0.031 C 
ATOM     66  C   UNL A   1      48.042  27.395  26.652  1.00  0.00     0.037 A 
BRANCH  53  67
ATOM     67  C   UNL A   1      46.370  33.017  28.620  1.00  0.00     0.058 A 
ATOM     68  C   UNL A   1      46.909  33.451  29.840  1.00  0.00     0.135 A 
ATOM     69  C   UNL A   1      46.235  33.966  27.593  1.00  0.00     0.135 A 
ATOM     70  F   UNL A   1      47.055  32.592  30.860  1.00  0.00    -0.206 F 
ATOM     71  C   UNL A   1      47.266  34.782  30.046  1.00  0.00     0.059 A 
ATOM     72  C   UNL A   1      46.612  35.296  27.767  1.00  0.00     0.059 A 
ATOM     73  F   UNL A   1      45.732  33.607  26.401  1.00  0.00    -0.206 F 
ATOM     74  C   UNL A   1      47.109  35.699  29.004  1.00  0.00     0.060 A 
BRANCH  74  75
ATOM     75  S   UNL A   1      47.570  37.421  29.288  1.00  0.00     0.124 S 
ATOM     76  O   UNL A   1      48.894  37.274  29.885  1.00  0.00    -0.237 OA
ATOM     77  O   UNL A   1      47.543  37.981  27.941  1.00  0.00    -0.237 OA
ATOM     78  O   UNL A   1      46.528  37.909  30.187  1.00  0.00    -0.744 OA
ENDBRANCH  74  75
ENDBRANCH  53  67
BRANCH  54  79
ATOM     79  C   UNL A   1      43.316  23.630  27.084  1.00  0.00     0.058 A 
ATOM     80  C   UNL A   1      42.857  23.249  25.815  1.00  0.00     0.135 A 
ATOM     81  C   UNL A   1      43.356  22.647  28.087  1.00  0.00     0.135 A 
ATOM     82  F   UNL A   1      42.786  24.154  24.827  1.00  0.00    -0.206 F 
ATOM     83  C   UNL A   1      42.460  21.942  25.546  1.00  0.00     0.059 A 
ATOM     84  C   UNL A   1      42.994  21.328  27.835  1.00  0.00     0.059 A 
ATOM     85  F   UNL A   1      43.797  22.957  29.316  1.00  0.00    -0.206 F 
ATOM     86  C   UNL A   1      42.540  20.986  26.561  1.00  0.00     0.060 A 
BRANCH  86  87
ATOM     87  S   UNL A   1      42.096  19.278  26.184  1.00  0.00     0.124 S 
ATOM     88  O   UNL A   1      42.377  18.614  27.451  1.00  0.00    -0.237 OA
ATOM     89  O   UNL A   1      40.686  19.397  25.826  1.00  0.00    -0.237 OA
ATOM     90  O   UNL A   1      42.987  18.936  25.079  1.00  0.00    -0.744 OA
ENDBRANCH  86  87
ENDBRANCH  54  79
BRANCH  66  91
ATOM     91  C   UNL A   1      49.378  26.941  26.137  1.00  0.00     0.058 A 
ATOM     92  C   UNL A   1      49.709  27.021  24.776  1.00  0.00     0.135 A 
ATOM     93  C   UNL A   1      50.353  26.453  27.022  1.00  0.00     0.135 A 
ATOM     94  F   UNL A   1      48.809  27.472  23.886  1.00  0.00    -0.206 F 
ATOM     95  C   UNL A   1      50.954  26.613  24.305  1.00  0.00     0.059 A 
ATOM     96  C   UNL A   1      51.612  26.061  26.577  1.00  0.00     0.059 A 
ATOM     97  F   UNL A   1      50.089  26.362  28.335  1.00  0.00    -0.206 F 
ATOM     98  C   UNL A   1      51.898  26.134  25.215  1.00  0.00     0.060 A 
BRANCH  98  99
ATOM     99  S   UNL A   1      53.519  25.632  24.598  1.00  0.00     0.124 S 
ATOM    100  O   UNL A   1      53.429  26.007  23.192  1.00  0.00    -0.237 OA
ATOM    101  O   UNL A   1      54.427  26.435  25.412  1.00  0.00    -0.237 OA
ATOM    102  O   UNL A   1      53.553  24.197  24.865  1.00  0.00    -0.744 OA
ENDBRANCH  98  99
ENDBRANCH  66  91
ENDBRANCH  40  41
ENDBRANCH  33  35
ENDBRANCH  32  33
ENDBRANCH  31  32
ENDBRANCH   1  31
TORSDOF 19
ENDMDL
