MODEL 1
REMARK VINA RESULT:     -12.0      0.000      0.000
REMARK SMILES CCc1cc(C(=O)c2[nH]c3cc(Cl)ccc3c2CC(=O)OCCOC(=O)c2ccc(-c3c4nc(c(-c5c(F)cc(S(=O)(=O)[O-])cc5F)c5ccc([nH]5)c(-c5c(F)cc(S(=O)(=O)[O-])cc5F)c5nc(c(-c6c(F)cc(S(=O)(=O)[O-])cc6F)c6ccc3[nH]6)C=C5)C=C4)cc2)ncc1Cl
REMARK SMILES IDX 22 1 21 2 19 3 20 4 18 5 17 6 8 7 9 8 10 9 16 11 11 12 15 13
REMARK SMILES IDX 12 14 14 15 13 16 6 17 7 18 5 19 3 20 4 21 95 22 94 23 96 24
REMARK SMILES IDX 93 25 2 26 1 27 23 28 24 29 25 30 26 31 27 32 28 33 92 34
REMARK SMILES IDX 29 35 91 36 30 37 31 38 32 39 85 40 33 41 90 42 84 43 86 44
REMARK SMILES IDX 34 45 89 46 83 47 82 48 35 50 69 51 48 52 68 53 49 54 52 55
REMARK SMILES IDX 67 56 87 57 50 58 51 59 66 61 88 62 53 63 36 64 37 65 46 66
REMARK SMILES IDX 38 67 39 68 45 69 47 70 40 71 41 72 42 73 43 74 44 75 70 76
REMARK SMILES IDX 71 77 80 78 72 79 73 80 79 81 81 82 74 83 75 84 76 85 77 86
REMARK SMILES IDX 78 87 54 88 55 89 64 90 56 91 57 92 63 93 65 94 58 95 59 96
REMARK SMILES IDX 60 97 61 98 62 99
REMARK H PARENT 9 10 86 49 52 60
REMARK Flexibility Score: inf
ROOT
ATOM      1  C   UNL A   1      33.553  29.790  26.534  1.00  0.00     0.274 C 
ENDROOT
BRANCH   1   2
ATOM      2  O   UNL A   1      32.365  29.124  27.010  1.00  0.00    -0.462 OA
BRANCH   2   3
ATOM      3  C   UNL A   1      32.262  27.800  26.730  1.00  0.00     0.310 C 
ATOM      4  O   UNL A   1      31.199  27.188  26.659  1.00  0.00    -0.252 OA
BRANCH   3   5
ATOM      5  C   UNL A   1      33.574  27.151  26.341  1.00  0.00     0.161 C 
BRANCH   5   6
ATOM      6  C   UNL A   1      33.544  26.188  25.198  1.00  0.00     0.000 A 
ATOM      7  C   UNL A   1      33.182  26.438  23.878  1.00  0.00     0.093 A 
ATOM      8  N   UNL A   1      33.351  25.264  23.183  1.00  0.00    -0.351 N 
ATOM      9  C   UNL A   1      33.587  24.224  24.041  1.00  0.00     0.048 A 
ATOM     10  H   UNL A   1      33.308  25.182  22.204  1.00  0.00     0.167 HD
ATOM     11  C   UNL A   1      33.785  24.776  25.304  1.00  0.00     0.004 A 
ATOM     12  C   UNL A   1      33.644  22.848  23.788  1.00  0.00     0.047 A 
ATOM     13  C   UNL A   1      34.110  23.909  26.370  1.00  0.00     0.012 A 
ATOM     14  C   UNL A   1      33.929  22.013  24.869  1.00  0.00     0.043 A 
ATOM     15  C   UNL A   1      34.174  22.528  26.139  1.00  0.00     0.021 A 
ATOM     16  Cl  UNL A   1      33.972  20.309  24.619  1.00  0.00    -0.084 Cl
BRANCH   7  17
ATOM     17  C   UNL A   1      32.721  27.620  23.167  1.00  0.00     0.227 C 
ATOM     18  O   UNL A   1      33.519  28.312  22.535  1.00  0.00    -0.285 OA
BRANCH  17  19
ATOM     19  C   UNL A   1      31.239  27.806  22.933  1.00  0.00     0.113 A 
ATOM     20  C   UNL A   1      29.366  29.320  22.600  1.00  0.00    -0.026 A 
ATOM     21  C   UNL A   1      30.741  29.039  22.494  1.00  0.00     0.037 A 
ATOM     22  C   UNL A   1      28.541  28.314  23.129  1.00  0.00     0.062 A 
ATOM     23  C   UNL A   1      29.111  27.100  23.492  1.00  0.00     0.132 A 
ATOM     24  Cl  UNL A   1      26.857  28.547  23.409  1.00  0.00    -0.082 Cl
ATOM     25  N   UNL A   1      30.434  26.825  23.410  1.00  0.00    -0.251 NA
BRANCH  20  26
ATOM     26  C   UNL A   1      28.795  30.692  22.291  1.00  0.00     0.034 C 
ATOM     27  C   UNL A   1      28.551  31.624  23.472  1.00  0.00     0.009 C 
ENDBRANCH  20  26
ENDBRANCH  17  19
ENDBRANCH   7  17
ENDBRANCH   5   6
ENDBRANCH   3   5
ENDBRANCH   2   3
ENDBRANCH   1   2
BRANCH   1  28
ATOM     28  C   UNL A   1      34.266  30.510  27.682  1.00  0.00     0.275 C 
BRANCH  28  29
ATOM     29  O   UNL A   1      35.184  29.628  28.357  1.00  0.00    -0.458 OA
BRANCH  29  30
ATOM     30  C   UNL A   1      36.062  30.259  29.159  1.00  0.00     0.338 C 
ATOM     31  O   UNL A   1      35.803  31.093  30.023  1.00  0.00    -0.246 OA
BRANCH  30  32
ATOM     32  C   UNL A   1      37.426  29.785  28.946  1.00  0.00     0.060 A 
ATOM     33  C   UNL A   1      38.254  29.578  30.050  1.00  0.00     0.016 A 
ATOM     34  C   UNL A   1      37.931  29.710  27.647  1.00  0.00     0.016 A 
ATOM     35  C   UNL A   1      39.613  29.353  29.857  1.00  0.00     0.010 A 
ATOM     36  C   UNL A   1      39.277  29.396  27.455  1.00  0.00     0.010 A 
ATOM     37  C   UNL A   1      40.131  29.229  28.558  1.00  0.00    -0.014 A 
BRANCH  37  38
ATOM     38  C   UNL A   1      41.546  28.835  28.365  1.00  0.00     0.031 A 
ATOM     39  C   UNL A   1      42.654  29.844  28.420  1.00  0.00     0.074 A 
ATOM     40  C   UNL A   1      41.815  27.538  28.120  1.00  0.00     0.049 A 
ATOM     41  N   UNL A   1      43.931  29.680  28.191  1.00  0.00    -0.248 NA
ATOM     42  C   UNL A   1      42.281  31.221  28.778  1.00  0.00     0.031 C 
ATOM     43  C   UNL A   1      40.816  26.468  28.051  1.00  0.00     0.029 A 
ATOM     44  N   UNL A   1      43.003  26.900  27.879  1.00  0.00    -0.354 N 
ATOM     45  C   UNL A   1      44.514  30.928  28.364  1.00  0.00     0.074 A 
ATOM     46  C   UNL A   1      43.448  31.847  28.704  1.00  0.00     0.031 C 
ATOM     47  C   UNL A   1      41.433  25.306  27.797  1.00  0.00     0.029 A 
ATOM     48  C   UNL A   1      42.857  25.559  27.622  1.00  0.00     0.049 A 
ATOM     49  H   UNL A   1      43.874  27.357  27.889  1.00  0.00     0.167 HD
ATOM     50  C   UNL A   1      45.820  31.273  28.249  1.00  0.00     0.037 A 
ATOM     51  C   UNL A   1      43.762  24.639  27.240  1.00  0.00     0.037 A 
ATOM     52  C   UNL A   1      46.869  30.349  27.900  1.00  0.00     0.049 A 
ATOM     53  C   UNL A   1      45.186  25.057  27.048  1.00  0.00     0.074 A 
ATOM     54  C   UNL A   1      48.227  30.590  27.781  1.00  0.00     0.029 A 
ATOM     55  N   UNL A   1      46.673  29.009  27.601  1.00  0.00    -0.354 N 
ATOM     56  N   UNL A   1      45.724  26.240  27.224  1.00  0.00    -0.248 NA
ATOM     57  C   UNL A   1      46.123  24.026  26.589  1.00  0.00     0.031 C 
ATOM     58  C   UNL A   1      48.847  29.402  27.373  1.00  0.00     0.029 A 
ATOM     59  C   UNL A   1      47.880  28.415  27.268  1.00  0.00     0.049 A 
ATOM     60  H   UNL A   1      45.804  28.548  27.621  1.00  0.00     0.167 HD
ATOM     61  C   UNL A   1      47.063  26.100  26.889  1.00  0.00     0.074 A 
ATOM     62  C   UNL A   1      47.257  24.710  26.522  1.00  0.00     0.031 C 
ATOM     63  C   UNL A   1      48.042  27.037  26.881  1.00  0.00     0.037 A 
BRANCH  50  64
ATOM     64  C   UNL A   1      46.184  32.712  28.477  1.00  0.00     0.058 A 
ATOM     65  C   UNL A   1      46.180  33.647  27.431  1.00  0.00     0.135 A 
ATOM     66  C   UNL A   1      46.501  33.171  29.766  1.00  0.00     0.135 A 
ATOM     67  F   UNL A   1      45.898  33.257  26.178  1.00  0.00    -0.206 F 
ATOM     68  C   UNL A   1      46.490  34.987  27.652  1.00  0.00     0.059 A 
ATOM     69  C   UNL A   1      46.799  34.509  30.013  1.00  0.00     0.059 A 
ATOM     70  F   UNL A   1      46.523  32.316  30.800  1.00  0.00    -0.206 F 
ATOM     71  C   UNL A   1      46.801  35.408  28.947  1.00  0.00     0.060 A 
BRANCH  71  72
ATOM     72  S   UNL A   1      47.188  37.149  29.226  1.00  0.00     0.124 S 
ATOM     73  O   UNL A   1      46.967  37.271  30.664  1.00  0.00    -0.237 OA
ATOM     74  O   UNL A   1      48.578  37.238  28.790  1.00  0.00    -0.237 OA
ATOM     75  O   UNL A   1      46.226  37.851  28.383  1.00  0.00    -0.744 OA
ENDBRANCH  71  72
ENDBRANCH  50  64
BRANCH  51  76
ATOM     76  C   UNL A   1      43.312  23.252  26.972  1.00  0.00     0.058 A 
ATOM     77  C   UNL A   1      43.143  22.790  25.661  1.00  0.00     0.135 A 
ATOM     78  C   UNL A   1      43.121  22.341  28.023  1.00  0.00     0.135 A 
ATOM     79  F   UNL A   1      43.314  23.627  24.627  1.00  0.00    -0.206 F 
ATOM     80  C   UNL A   1      42.807  21.466  25.398  1.00  0.00     0.059 A 
ATOM     81  C   UNL A   1      42.805  21.009  27.784  1.00  0.00     0.059 A 
ATOM     82  F   UNL A   1      43.292  22.737  29.295  1.00  0.00    -0.206 F 
ATOM     83  C   UNL A   1      42.647  20.581  26.467  1.00  0.00     0.060 A 
BRANCH  83  84
ATOM     84  S   UNL A   1      42.306  18.842  26.122  1.00  0.00     0.124 S 
ATOM     85  O   UNL A   1      42.620  18.223  27.404  1.00  0.00    -0.237 OA
ATOM     86  O   UNL A   1      40.894  18.866  25.754  1.00  0.00    -0.237 OA
ATOM     87  O   UNL A   1      43.222  18.536  25.028  1.00  0.00    -0.744 OA
ENDBRANCH  83  84
ENDBRANCH  51  76
BRANCH  63  88
ATOM     88  C   UNL A   1      49.403  26.583  26.448  1.00  0.00     0.058 A 
ATOM     89  C   UNL A   1      50.266  25.928  27.339  1.00  0.00     0.135 A 
ATOM     90  C   UNL A   1      49.841  26.789  25.132  1.00  0.00     0.135 A 
ATOM     91  F   UNL A   1      49.892  25.720  28.612  1.00  0.00    -0.206 F 
ATOM     92  C   UNL A   1      51.531  25.509  26.944  1.00  0.00     0.059 A 
ATOM     93  C   UNL A   1      51.097  26.363  24.711  1.00  0.00     0.059 A 
ATOM     94  F   UNL A   1      49.048  27.407  24.243  1.00  0.00    -0.206 F 
ATOM     95  C   UNL A   1      51.939  25.736  25.629  1.00  0.00     0.060 A 
BRANCH  95  96
ATOM     96  S   UNL A   1      53.577  25.176  25.116  1.00  0.00     0.124 S 
ATOM     97  O   UNL A   1      54.435  26.186  25.726  1.00  0.00    -0.237 OA
ATOM     98  O   UNL A   1      53.655  23.842  25.702  1.00  0.00    -0.237 OA
ATOM     99  O   UNL A   1      53.502  25.209  23.659  1.00  0.00    -0.744 OA
ENDBRANCH  95  96
ENDBRANCH  63  88
ENDBRANCH  37  38
ENDBRANCH  30  32
ENDBRANCH  29  30
ENDBRANCH  28  29
ENDBRANCH   1  28
TORSDOF 18
ENDMDL
MODEL 2
REMARK VINA RESULT:     -11.8      6.590     11.581
REMARK SMILES CCc1cc(C(=O)c2[nH]c3cc(Cl)ccc3c2CC(=O)OCCOC(=O)c2ccc(-c3c4nc(c(-c5c(F)cc(S(=O)(=O)[O-])cc5F)c5ccc([nH]5)c(-c5c(F)cc(S(=O)(=O)[O-])cc5F)c5nc(c(-c6c(F)cc(S(=O)(=O)[O-])cc6F)c6ccc3[nH]6)C=C5)C=C4)cc2)ncc1Cl
REMARK SMILES IDX 22 1 21 2 19 3 20 4 18 5 17 6 8 7 9 8 10 9 16 11 11 12 15 13
REMARK SMILES IDX 12 14 14 15 13 16 6 17 7 18 5 19 3 20 4 21 95 22 94 23 96 24
REMARK SMILES IDX 93 25 2 26 1 27 23 28 24 29 25 30 26 31 27 32 28 33 92 34
REMARK SMILES IDX 29 35 91 36 30 37 31 38 32 39 85 40 33 41 90 42 84 43 86 44
REMARK SMILES IDX 34 45 89 46 83 47 82 48 35 50 69 51 48 52 68 53 49 54 52 55
REMARK SMILES IDX 67 56 87 57 50 58 51 59 66 61 88 62 53 63 36 64 37 65 46 66
REMARK SMILES IDX 38 67 39 68 45 69 47 70 40 71 41 72 42 73 43 74 44 75 70 76
REMARK SMILES IDX 71 77 80 78 72 79 73 80 79 81 81 82 74 83 75 84 76 85 77 86
REMARK SMILES IDX 78 87 54 88 55 89 64 90 56 91 57 92 63 93 65 94 58 95 59 96
REMARK SMILES IDX 60 97 61 98 62 99
REMARK H PARENT 9 10 86 49 52 60
REMARK Flexibility Score: inf
ROOT
ATOM      1  C   UNL A   1      37.897  22.231  25.690  1.00  0.00     0.274 C 
ENDROOT
BRANCH   1   2
ATOM      2  O   UNL A   1      36.936  22.947  26.494  1.00  0.00    -0.462 OA
BRANCH   2   3
ATOM      3  C   UNL A   1      35.846  23.428  25.846  1.00  0.00     0.310 C 
ATOM      4  O   UNL A   1      35.866  23.895  24.709  1.00  0.00    -0.252 OA
BRANCH   3   5
ATOM      5  C   UNL A   1      34.542  23.192  26.580  1.00  0.00     0.161 C 
BRANCH   5   6
ATOM      6  C   UNL A   1      33.507  22.370  25.881  1.00  0.00     0.000 A 
ATOM      7  C   UNL A   1      32.143  22.621  25.775  1.00  0.00     0.093 A 
ATOM      8  N   UNL A   1      31.605  21.615  25.008  1.00  0.00    -0.351 N 
ATOM      9  C   UNL A   1      32.520  20.617  24.809  1.00  0.00     0.048 A 
ATOM     10  H   UNL A   1      30.689  21.613  24.650  1.00  0.00     0.167 HD
ATOM     11  C   UNL A   1      33.743  21.086  25.281  1.00  0.00     0.004 A 
ATOM     12  C   UNL A   1      32.352  19.347  24.245  1.00  0.00     0.047 A 
ATOM     13  C   UNL A   1      34.878  20.260  25.136  1.00  0.00     0.012 A 
ATOM     14  C   UNL A   1      33.485  18.537  24.151  1.00  0.00     0.043 A 
ATOM     15  C   UNL A   1      34.734  18.984  24.573  1.00  0.00     0.021 A 
ATOM     16  Cl  UNL A   1      33.325  16.949  23.500  1.00  0.00    -0.084 Cl
BRANCH   7  17
ATOM     17  C   UNL A   1      31.272  23.676  26.269  1.00  0.00     0.227 C 
ATOM     18  O   UNL A   1      30.583  23.491  27.272  1.00  0.00    -0.285 OA
BRANCH  17  19
ATOM     19  C   UNL A   1      31.462  25.085  25.757  1.00  0.00     0.113 A 
ATOM     20  C   UNL A   1      31.695  27.456  26.247  1.00  0.00    -0.026 A 
ATOM     21  C   UNL A   1      31.845  26.110  26.632  1.00  0.00     0.037 A 
ATOM     22  C   UNL A   1      31.181  27.706  24.965  1.00  0.00     0.062 A 
ATOM     23  C   UNL A   1      30.875  26.629  24.142  1.00  0.00     0.132 A 
ATOM     24  Cl  UNL A   1      30.850  29.298  24.392  1.00  0.00    -0.082 Cl
ATOM     25  N   UNL A   1      31.000  25.332  24.507  1.00  0.00    -0.251 NA
BRANCH  20  26
ATOM     26  C   UNL A   1      31.942  28.603  27.209  1.00  0.00     0.034 C 
ATOM     27  C   UNL A   1      33.324  29.248  27.180  1.00  0.00     0.009 C 
ENDBRANCH  20  26
ENDBRANCH  17  19
ENDBRANCH   7  17
ENDBRANCH   5   6
ENDBRANCH   3   5
ENDBRANCH   2   3
ENDBRANCH   1   2
BRANCH   1  28
ATOM     28  C   UNL A   1      39.326  22.624  26.077  1.00  0.00     0.275 C 
BRANCH  28  29
ATOM     29  O   UNL A   1      39.410  24.027  26.391  1.00  0.00    -0.458 OA
BRANCH  29  30
ATOM     30  C   UNL A   1      40.642  24.435  26.753  1.00  0.00     0.338 C 
ATOM     31  O   UNL A   1      41.713  24.007  26.331  1.00  0.00    -0.246 OA
BRANCH  30  32
ATOM     32  C   UNL A   1      40.587  25.547  27.696  1.00  0.00     0.060 A 
ATOM     33  C   UNL A   1      41.700  26.378  27.833  1.00  0.00     0.016 A 
ATOM     34  C   UNL A   1      39.498  25.659  28.562  1.00  0.00     0.016 A 
ATOM     35  C   UNL A   1      41.751  27.290  28.883  1.00  0.00     0.010 A 
ATOM     36  C   UNL A   1      39.516  26.635  29.559  1.00  0.00     0.010 A 
ATOM     37  C   UNL A   1      40.647  27.448  29.735  1.00  0.00    -0.014 A 
BRANCH  37  38
ATOM     38  C   UNL A   1      40.650  28.529  30.750  1.00  0.00     0.031 A 
ATOM     39  C   UNL A   1      41.601  28.510  31.910  1.00  0.00     0.074 A 
ATOM     40  C   UNL A   1      39.760  29.530  30.613  1.00  0.00     0.049 A 
ATOM     41  N   UNL A   1      41.679  29.329  32.926  1.00  0.00    -0.248 NA
ATOM     42  C   UNL A   1      42.597  27.427  31.935  1.00  0.00     0.031 C 
ATOM     43  C   UNL A   1      38.792  29.654  29.520  1.00  0.00     0.029 A 
ATOM     44  N   UNL A   1      39.518  30.627  31.396  1.00  0.00    -0.354 N 
ATOM     45  C   UNL A   1      42.719  28.860  33.718  1.00  0.00     0.074 A 
ATOM     46  C   UNL A   1      43.236  27.672  33.071  1.00  0.00     0.031 C 
ATOM     47  C   UNL A   1      38.071  30.768  29.695  1.00  0.00     0.029 A 
ATOM     48  C   UNL A   1      38.479  31.401  30.943  1.00  0.00     0.049 A 
ATOM     49  H   UNL A   1      40.039  30.839  32.205  1.00  0.00     0.167 HD
ATOM     50  C   UNL A   1      43.195  29.374  34.877  1.00  0.00     0.037 A 
ATOM     51  C   UNL A   1      37.886  32.476  31.492  1.00  0.00     0.037 A 
ATOM     52  C   UNL A   1      42.664  30.553  35.513  1.00  0.00     0.049 A 
ATOM     53  C   UNL A   1      38.382  32.985  32.810  1.00  0.00     0.074 A 
ATOM     54  C   UNL A   1      43.089  31.172  36.676  1.00  0.00     0.029 A 
ATOM     55  N   UNL A   1      41.579  31.281  35.047  1.00  0.00    -0.354 N 
ATOM     56  N   UNL A   1      39.372  32.535  33.542  1.00  0.00    -0.248 NA
ATOM     57  C   UNL A   1      37.671  34.132  33.386  1.00  0.00     0.031 C 
ATOM     58  C   UNL A   1      42.237  32.255  36.931  1.00  0.00     0.029 A 
ATOM     59  C   UNL A   1      41.301  32.327  35.912  1.00  0.00     0.049 A 
ATOM     60  H   UNL A   1      41.080  31.083  34.222  1.00  0.00     0.167 HD
ATOM     61  C   UNL A   1      39.401  33.339  34.672  1.00  0.00     0.074 A 
ATOM     62  C   UNL A   1      38.342  34.318  34.515  1.00  0.00     0.031 C 
ATOM     63  C   UNL A   1      40.226  33.271  35.746  1.00  0.00     0.037 A 
BRANCH  50  64
ATOM     64  C   UNL A   1      44.331  28.655  35.545  1.00  0.00     0.058 A 
ATOM     65  C   UNL A   1      45.669  28.974  35.267  1.00  0.00     0.135 A 
ATOM     66  C   UNL A   1      44.079  27.662  36.505  1.00  0.00     0.135 A 
ATOM     67  F   UNL A   1      45.965  29.905  34.347  1.00  0.00    -0.206 F 
ATOM     68  C   UNL A   1      46.720  28.323  35.910  1.00  0.00     0.059 A 
ATOM     69  C   UNL A   1      45.113  27.010  37.172  1.00  0.00     0.059 A 
ATOM     70  F   UNL A   1      42.816  27.317  36.804  1.00  0.00    -0.206 F 
ATOM     71  C   UNL A   1      46.431  27.340  36.860  1.00  0.00     0.060 A 
BRANCH  71  72
ATOM     72  S   UNL A   1      47.800  26.513  37.699  1.00  0.00     0.124 S 
ATOM     73  O   UNL A   1      48.471  25.854  36.583  1.00  0.00    -0.237 OA
ATOM     74  O   UNL A   1      48.522  27.629  38.302  1.00  0.00    -0.237 OA
ATOM     75  O   UNL A   1      47.131  25.623  38.643  1.00  0.00    -0.744 OA
ENDBRANCH  71  72
ENDBRANCH  50  64
BRANCH  51  76
ATOM     76  C   UNL A   1      36.728  33.093  30.802  1.00  0.00     0.058 A 
ATOM     77  C   UNL A   1      35.421  32.892  31.266  1.00  0.00     0.135 A 
ATOM     78  C   UNL A   1      36.915  33.960  29.714  1.00  0.00     0.135 A 
ATOM     79  F   UNL A   1      35.196  32.070  32.302  1.00  0.00    -0.206 F 
ATOM     80  C   UNL A   1      34.337  33.537  30.679  1.00  0.00     0.059 A 
ATOM     81  C   UNL A   1      35.851  34.631  29.125  1.00  0.00     0.059 A 
ATOM     82  F   UNL A   1      38.153  34.197  29.249  1.00  0.00    -0.206 F 
ATOM     83  C   UNL A   1      34.564  34.410  29.613  1.00  0.00     0.060 A 
BRANCH  83  84
ATOM     84  S   UNL A   1      33.169  35.320  28.915  1.00  0.00     0.124 S 
ATOM     85  O   UNL A   1      33.851  36.378  28.179  1.00  0.00    -0.237 OA
ATOM     86  O   UNL A   1      32.507  34.304  28.103  1.00  0.00    -0.237 OA
ATOM     87  O   UNL A   1      32.427  35.746  30.096  1.00  0.00    -0.744 OA
ENDBRANCH  83  84
ENDBRANCH  51  76
BRANCH  63  88
ATOM     88  C   UNL A   1      39.998  34.277  36.833  1.00  0.00     0.058 A 
ATOM     89  C   UNL A   1      40.584  35.550  36.776  1.00  0.00     0.135 A 
ATOM     90  C   UNL A   1      39.178  33.973  37.930  1.00  0.00     0.135 A 
ATOM     91  F   UNL A   1      41.386  35.880  35.751  1.00  0.00    -0.206 F 
ATOM     92  C   UNL A   1      40.380  36.485  37.784  1.00  0.00     0.059 A 
ATOM     93  C   UNL A   1      38.947  34.900  38.941  1.00  0.00     0.059 A 
ATOM     94  F   UNL A   1      38.593  32.769  38.025  1.00  0.00    -0.206 F 
ATOM     95  C   UNL A   1      39.564  36.149  38.865  1.00  0.00     0.060 A 
BRANCH  95  96
ATOM     96  S   UNL A   1      39.290  37.372  40.164  1.00  0.00     0.124 S 
ATOM     97  O   UNL A   1      40.651  37.823  40.432  1.00  0.00    -0.237 OA
ATOM     98  O   UNL A   1      38.419  38.342  39.509  1.00  0.00    -0.237 OA
ATOM     99  O   UNL A   1      38.662  36.596  41.229  1.00  0.00    -0.744 OA
ENDBRANCH  95  96
ENDBRANCH  63  88
ENDBRANCH  37  38
ENDBRANCH  30  32
ENDBRANCH  29  30
ENDBRANCH  28  29
ENDBRANCH   1  28
TORSDOF 18
ENDMDL
MODEL 3
REMARK VINA RESULT:     -11.7      1.022      3.650
REMARK SMILES CCc1cc(C(=O)c2[nH]c3cc(Cl)ccc3c2CC(=O)OCCOC(=O)c2ccc(-c3c4nc(c(-c5c(F)cc(S(=O)(=O)[O-])cc5F)c5ccc([nH]5)c(-c5c(F)cc(S(=O)(=O)[O-])cc5F)c5nc(c(-c6c(F)cc(S(=O)(=O)[O-])cc6F)c6ccc3[nH]6)C=C5)C=C4)cc2)ncc1Cl
REMARK SMILES IDX 22 1 21 2 19 3 20 4 18 5 17 6 8 7 9 8 10 9 16 11 11 12 15 13
REMARK SMILES IDX 12 14 14 15 13 16 6 17 7 18 5 19 3 20 4 21 95 22 94 23 96 24
REMARK SMILES IDX 93 25 2 26 1 27 23 28 24 29 25 30 26 31 27 32 28 33 92 34
REMARK SMILES IDX 29 35 91 36 30 37 31 38 32 39 85 40 33 41 90 42 84 43 86 44
REMARK SMILES IDX 34 45 89 46 83 47 82 48 35 50 69 51 48 52 68 53 49 54 52 55
REMARK SMILES IDX 67 56 87 57 50 58 51 59 66 61 88 62 53 63 36 64 37 65 46 66
REMARK SMILES IDX 38 67 39 68 45 69 47 70 40 71 41 72 42 73 43 74 44 75 70 76
REMARK SMILES IDX 71 77 80 78 72 79 73 80 79 81 81 82 74 83 75 84 76 85 77 86
REMARK SMILES IDX 78 87 54 88 55 89 64 90 56 91 57 92 63 93 65 94 58 95 59 96
REMARK SMILES IDX 60 97 61 98 62 99
REMARK H PARENT 9 10 86 49 52 60
REMARK Flexibility Score: inf
ROOT
ATOM      1  C   UNL A   1      33.229  30.825  27.515  1.00  0.00     0.274 C 
ENDROOT
BRANCH   1   2
ATOM      2  O   UNL A   1      33.138  30.470  26.119  1.00  0.00    -0.462 OA
BRANCH   2   3
ATOM      3  C   UNL A   1      32.979  29.151  25.842  1.00  0.00     0.310 C 
ATOM      4  O   UNL A   1      33.873  28.312  25.928  1.00  0.00    -0.252 OA
BRANCH   3   5
ATOM      5  C   UNL A   1      31.545  28.750  25.569  1.00  0.00     0.161 C 
BRANCH   5   6
ATOM      6  C   UNL A   1      31.073  28.831  24.153  1.00  0.00     0.000 A 
ATOM      7  C   UNL A   1      31.470  28.050  23.072  1.00  0.00     0.093 A 
ATOM      8  N   UNL A   1      30.737  28.461  21.984  1.00  0.00    -0.351 N 
ATOM      9  C   UNL A   1      30.057  29.615  22.268  1.00  0.00     0.048 A 
ATOM     10  H   UNL A   1      30.705  27.992  21.121  1.00  0.00     0.167 HD
ATOM     11  C   UNL A   1      30.187  29.838  23.636  1.00  0.00     0.004 A 
ATOM     12  C   UNL A   1      29.338  30.463  21.418  1.00  0.00     0.047 A 
ATOM     13  C   UNL A   1      29.519  30.945  24.200  1.00  0.00     0.012 A 
ATOM     14  C   UNL A   1      28.720  31.572  21.998  1.00  0.00     0.043 A 
ATOM     15  C   UNL A   1      28.792  31.808  23.368  1.00  0.00     0.021 A 
ATOM     16  Cl  UNL A   1      27.856  32.670  20.989  1.00  0.00    -0.084 Cl
BRANCH   7  17
ATOM     17  C   UNL A   1      32.420  26.961  22.913  1.00  0.00     0.227 C 
ATOM     18  O   UNL A   1      33.463  27.136  22.282  1.00  0.00    -0.285 OA
BRANCH  17  19
ATOM     19  C   UNL A   1      32.288  25.737  23.789  1.00  0.00     0.113 A 
ATOM     20  C   UNL A   1      33.356  23.855  24.900  1.00  0.00    -0.026 A 
ATOM     21  C   UNL A   1      33.421  25.160  24.377  1.00  0.00     0.037 A 
ATOM     22  C   UNL A   1      32.120  23.192  24.826  1.00  0.00     0.062 A 
ATOM     23  C   UNL A   1      31.033  23.858  24.273  1.00  0.00     0.132 A 
ATOM     24  Cl  UNL A   1      31.912  21.559  25.335  1.00  0.00    -0.082 Cl
ATOM     25  N   UNL A   1      31.088  25.106  23.753  1.00  0.00    -0.251 NA
BRANCH  20  26
ATOM     26  C   UNL A   1      34.586  23.123  25.402  1.00  0.00     0.034 C 
ATOM     27  C   UNL A   1      35.278  22.178  24.426  1.00  0.00     0.009 C 
ENDBRANCH  20  26
ENDBRANCH  17  19
ENDBRANCH   7  17
ENDBRANCH   5   6
ENDBRANCH   3   5
ENDBRANCH   2   3
ENDBRANCH   1   2
BRANCH   1  28
ATOM     28  C   UNL A   1      34.577  31.486  27.818  1.00  0.00     0.275 C 
BRANCH  28  29
ATOM     29  O   UNL A   1      35.633  30.507  27.873  1.00  0.00    -0.458 OA
BRANCH  29  30
ATOM     30  C   UNL A   1      36.307  30.493  29.039  1.00  0.00     0.338 C 
ATOM     31  O   UNL A   1      35.872  30.801  30.146  1.00  0.00    -0.246 OA
BRANCH  30  32
ATOM     32  C   UNL A   1      37.663  29.981  28.872  1.00  0.00     0.060 A 
ATOM     33  C   UNL A   1      38.526  29.968  29.970  1.00  0.00     0.016 A 
ATOM     34  C   UNL A   1      38.128  29.674  27.592  1.00  0.00     0.016 A 
ATOM     35  C   UNL A   1      39.878  29.705  29.777  1.00  0.00     0.010 A 
ATOM     36  C   UNL A   1      39.467  29.323  27.418  1.00  0.00     0.010 A 
ATOM     37  C   UNL A   1      40.355  29.350  28.506  1.00  0.00    -0.014 A 
BRANCH  37  38
ATOM     38  C   UNL A   1      41.763  28.919  28.342  1.00  0.00     0.031 A 
ATOM     39  C   UNL A   1      42.895  29.901  28.422  1.00  0.00     0.074 A 
ATOM     40  C   UNL A   1      42.005  27.617  28.103  1.00  0.00     0.049 A 
ATOM     41  N   UNL A   1      44.172  29.704  28.220  1.00  0.00    -0.248 NA
ATOM     42  C   UNL A   1      42.550  31.287  28.772  1.00  0.00     0.031 C 
ATOM     43  C   UNL A   1      40.980  26.572  28.012  1.00  0.00     0.029 A 
ATOM     44  N   UNL A   1      43.180  26.948  27.887  1.00  0.00    -0.354 N 
ATOM     45  C   UNL A   1      44.783  30.937  28.405  1.00  0.00     0.074 A 
ATOM     46  C   UNL A   1      43.734  31.883  28.723  1.00  0.00     0.031 C 
ATOM     47  C   UNL A   1      41.572  25.395  27.771  1.00  0.00     0.029 A 
ATOM     48  C   UNL A   1      43.007  25.611  27.626  1.00  0.00     0.049 A 
ATOM     49  H   UNL A   1      44.063  27.383  27.915  1.00  0.00     0.167 HD
ATOM     50  C   UNL A   1      46.099  31.249  28.318  1.00  0.00     0.037 A 
ATOM     51  C   UNL A   1      43.895  24.669  27.264  1.00  0.00     0.037 A 
ATOM     52  C   UNL A   1      47.132  30.298  27.991  1.00  0.00     0.049 A 
ATOM     53  C   UNL A   1      45.334  25.051  27.102  1.00  0.00     0.074 A 
ATOM     54  C   UNL A   1      48.497  30.505  27.901  1.00  0.00     0.029 A 
ATOM     55  N   UNL A   1      46.908  28.963  27.687  1.00  0.00    -0.354 N 
ATOM     56  N   UNL A   1      45.897  26.220  27.290  1.00  0.00    -0.248 NA
ATOM     57  C   UNL A   1      46.253  23.995  26.662  1.00  0.00     0.031 C 
ATOM     58  C   UNL A   1      49.096  29.301  27.505  1.00  0.00     0.029 A 
ATOM     59  C   UNL A   1      48.106  28.339  27.380  1.00  0.00     0.049 A 
ATOM     60  H   UNL A   1      46.027  28.524  27.689  1.00  0.00     0.167 HD
ATOM     61  C   UNL A   1      47.239  26.045  26.983  1.00  0.00     0.074 A 
ATOM     62  C   UNL A   1      47.406  24.651  26.619  1.00  0.00     0.031 C 
ATOM     63  C   UNL A   1      48.242  26.957  26.996  1.00  0.00     0.037 A 
BRANCH  50  64
ATOM     64  C   UNL A   1      46.495  32.678  28.554  1.00  0.00     0.058 A 
ATOM     65  C   UNL A   1      46.536  33.613  27.508  1.00  0.00     0.135 A 
ATOM     66  C   UNL A   1      46.797  33.128  29.849  1.00  0.00     0.135 A 
ATOM     67  F   UNL A   1      46.269  33.230  26.250  1.00  0.00    -0.206 F 
ATOM     68  C   UNL A   1      46.875  34.945  27.736  1.00  0.00     0.059 A 
ATOM     69  C   UNL A   1      47.124  34.458  30.103  1.00  0.00     0.059 A 
ATOM     70  F   UNL A   1      46.776  32.273  30.883  1.00  0.00    -0.206 F 
ATOM     71  C   UNL A   1      47.170  35.357  29.038  1.00  0.00     0.060 A 
BRANCH  71  72
ATOM     72  S   UNL A   1      47.595  37.088  29.326  1.00  0.00     0.124 S 
ATOM     73  O   UNL A   1      48.988  36.981  29.749  1.00  0.00    -0.237 OA
ATOM     74  O   UNL A   1      47.377  37.690  28.014  1.00  0.00    -0.237 OA
ATOM     75  O   UNL A   1      46.655  37.501  30.364  1.00  0.00    -0.744 OA
ENDBRANCH  71  72
ENDBRANCH  50  64
BRANCH  51  76
ATOM     76  C   UNL A   1      43.416  23.293  26.985  1.00  0.00     0.058 A 
ATOM     77  C   UNL A   1      43.328  22.812  25.673  1.00  0.00     0.135 A 
ATOM     78  C   UNL A   1      43.114  22.410  28.034  1.00  0.00     0.135 A 
ATOM     79  F   UNL A   1      43.606  23.623  24.641  1.00  0.00    -0.206 F 
ATOM     80  C   UNL A   1      42.965  21.496  25.407  1.00  0.00     0.059 A 
ATOM     81  C   UNL A   1      42.768  21.085  27.794  1.00  0.00     0.059 A 
ATOM     82  F   UNL A   1      43.204  22.824  29.308  1.00  0.00    -0.206 F 
ATOM     83  C   UNL A   1      42.694  20.639  26.476  1.00  0.00     0.060 A 
BRANCH  83  84
ATOM     84  S   UNL A   1      42.315  18.906  26.135  1.00  0.00     0.124 S 
ATOM     85  O   UNL A   1      43.259  18.607  25.065  1.00  0.00    -0.237 OA
ATOM     86  O   UNL A   1      42.586  18.267  27.420  1.00  0.00    -0.237 OA
ATOM     87  O   UNL A   1      40.909  18.944  25.750  1.00  0.00    -0.744 OA
ENDBRANCH  83  84
ENDBRANCH  51  76
BRANCH  63  88
ATOM     88  C   UNL A   1      49.599  26.468  26.591  1.00  0.00     0.058 A 
ATOM     89  C   UNL A   1      50.492  25.943  27.537  1.00  0.00     0.135 A 
ATOM     90  C   UNL A   1      50.005  26.511  25.249  1.00  0.00     0.135 A 
ATOM     91  F   UNL A   1      50.150  25.894  28.835  1.00  0.00    -0.206 F 
ATOM     92  C   UNL A   1      51.754  25.493  27.168  1.00  0.00     0.059 A 
ATOM     93  C   UNL A   1      51.258  26.051  24.856  1.00  0.00     0.059 A 
ATOM     94  F   UNL A   1      49.183  27.001  24.308  1.00  0.00    -0.206 F 
ATOM     95  C   UNL A   1      52.130  25.556  25.826  1.00  0.00     0.060 A 
BRANCH  95  96
ATOM     96  S   UNL A   1      53.764  24.956  25.349  1.00  0.00     0.124 S 
ATOM     97  O   UNL A   1      53.525  23.522  25.228  1.00  0.00    -0.237 OA
ATOM     98  O   UNL A   1      54.010  25.664  24.097  1.00  0.00    -0.237 OA
ATOM     99  O   UNL A   1      54.610  25.362  26.467  1.00  0.00    -0.744 OA
ENDBRANCH  95  96
ENDBRANCH  63  88
ENDBRANCH  37  38
ENDBRANCH  30  32
ENDBRANCH  29  30
ENDBRANCH  28  29
ENDBRANCH   1  28
TORSDOF 18
ENDMDL
