MODEL 1
REMARK VINA RESULT:     -12.3      0.000      0.000
REMARK SMILES O=C(OCCOC(=O)[C@H]1CC2(CC[NH+](C(=O)c3cccc(O)c3)CC2)CN1C(=O)C1CC1)c1ccc(-c2c3nc(c(-c4c(F)cc(S(=O)(=O)[O-])cc4F)c4ccc([nH]4)c(-c4c(F)cc(S(=O)(=O)[O-])cc4F)c4nc(c(-c5c(F)cc(S(=O)(=O)[O-])cc5F)c5ccc2[nH]5)C=C4)C=C3)cc1
REMARK SMILES IDX 4 1 3 2 2 3 1 4 33 5 34 6 98 7 35 8 97 9 36 10 37 11 38 12
REMARK SMILES IDX 91 13 39 14 96 15 90 16 92 17 40 18 95 19 89 20 88 21 41 23
REMARK SMILES IDX 75 24 54 25 74 26 55 27 58 28 73 29 93 30 56 31 57 32 72 34
REMARK SMILES IDX 94 35 59 36 42 37 43 38 52 39 44 40 45 41 51 42 53 43 46 44
REMARK SMILES IDX 47 45 48 46 49 47 50 48 76 49 77 50 86 51 78 52 79 53 85 54
REMARK SMILES IDX 87 55 80 56 81 57 82 58 83 59 84 60 60 61 61 62 70 63 62 64
REMARK SMILES IDX 63 65 69 66 71 67 64 68 65 69 66 70 67 71 68 72 5 73 6 74
REMARK SMILES IDX 7 75 8 76 9 77 10 78 27 79 11 80 26 81 12 82 25 83 13 84
REMARK SMILES IDX 24 85 14 86 28 88 29 89 30 90 31 91 32 92 15 93 16 94 17 95
REMARK SMILES IDX 18 96 23 97 19 98 21 99 20 100 22 101
REMARK H PARENT 92 22 58 33 14 87 22 102
REMARK Flexibility Score: inf
ROOT
ATOM      1  C   UNL A   1      37.443  21.775  24.810  1.00  0.00     0.275 C 
ENDROOT
BRANCH   1   2
ATOM      2  O   UNL A   1      37.897  22.727  25.800  1.00  0.00    -0.458 OA
BRANCH   2   3
ATOM      3  C   UNL A   1      39.095  22.824  26.432  1.00  0.00     0.338 C 
ATOM      4  O   UNL A   1      39.725  21.807  26.710  1.00  0.00    -0.246 OA
BRANCH   3   5
ATOM      5  C   UNL A   1      39.585  24.120  26.970  1.00  0.00     0.060 A 
ATOM      6  C   UNL A   1      40.355  25.011  26.228  1.00  0.00     0.016 A 
ATOM      7  C   UNL A   1      39.260  24.443  28.300  1.00  0.00     0.016 A 
ATOM      8  C   UNL A   1      40.673  26.263  26.742  1.00  0.00     0.010 A 
ATOM      9  C   UNL A   1      39.590  25.697  28.824  1.00  0.00     0.010 A 
ATOM     10  C   UNL A   1      40.276  26.627  28.030  1.00  0.00    -0.014 A 
BRANCH  10  11
ATOM     11  C   UNL A   1      40.756  27.924  28.563  1.00  0.00     0.031 A 
ATOM     12  C   UNL A   1      42.239  28.118  28.661  1.00  0.00     0.074 A 
ATOM     13  C   UNL A   1      39.897  28.948  28.758  1.00  0.00     0.049 A 
ATOM     14  N   UNL A   1      42.902  29.196  28.968  1.00  0.00    -0.248 NA
ATOM     15  C   UNL A   1      43.091  26.977  28.271  1.00  0.00     0.031 C 
ATOM     16  C   UNL A   1      38.459  28.899  28.474  1.00  0.00     0.029 A 
ATOM     17  N   UNL A   1      40.082  30.227  29.229  1.00  0.00    -0.354 N 
ATOM     18  C   UNL A   1      44.227  28.908  28.670  1.00  0.00     0.074 A 
ATOM     19  C   UNL A   1      44.300  27.513  28.307  1.00  0.00     0.031 C 
ATOM     20  C   UNL A   1      37.897  30.070  28.809  1.00  0.00     0.029 A 
ATOM     21  C   UNL A   1      38.909  30.940  29.397  1.00  0.00     0.049 A 
ATOM     22  H   UNL A   1      40.971  30.600  29.428  1.00  0.00     0.167 HD
ATOM     23  C   UNL A   1      45.264  29.770  28.607  1.00  0.00     0.037 A 
ATOM     24  C   UNL A   1      38.684  32.127  30.011  1.00  0.00     0.037 A 
ATOM     25  C   UNL A   1      45.162  31.137  29.035  1.00  0.00     0.049 A 
ATOM     26  C   UNL A   1      39.932  32.862  30.466  1.00  0.00     0.074 A 
ATOM     27  C   UNL A   1      46.142  32.108  29.079  1.00  0.00     0.029 A 
ATOM     28  N   UNL A   1      43.996  31.712  29.526  1.00  0.00    -0.354 N 
ATOM     29  N   UNL A   1      41.185  32.596  30.161  1.00  0.00    -0.248 NA
ATOM     30  C   UNL A   1      39.770  34.045  31.319  1.00  0.00     0.031 C 
ATOM     31  C   UNL A   1      45.579  33.256  29.650  1.00  0.00     0.029 A 
ATOM     32  C   UNL A   1      44.236  33.018  29.908  1.00  0.00     0.049 A 
ATOM     33  H   UNL A   1      43.126  31.257  29.591  1.00  0.00     0.167 HD
ATOM     34  C   UNL A   1      41.938  33.653  30.659  1.00  0.00     0.074 A 
ATOM     35  C   UNL A   1      41.008  34.522  31.352  1.00  0.00     0.031 C 
ATOM     36  C   UNL A   1      43.263  33.905  30.506  1.00  0.00     0.037 A 
BRANCH  23  37
ATOM     37  C   UNL A   1      46.548  29.252  28.025  1.00  0.00     0.058 A 
ATOM     38  C   UNL A   1      46.752  29.238  26.633  1.00  0.00     0.135 A 
ATOM     39  C   UNL A   1      47.574  28.752  28.840  1.00  0.00     0.135 A 
ATOM     40  F   UNL A   1      45.790  29.674  25.804  1.00  0.00    -0.206 F 
ATOM     41  C   UNL A   1      47.919  28.732  26.071  1.00  0.00     0.059 A 
ATOM     42  C   UNL A   1      48.759  28.260  28.298  1.00  0.00     0.059 A 
ATOM     43  F   UNL A   1      47.424  28.723  30.173  1.00  0.00    -0.206 F 
ATOM     44  C   UNL A   1      48.918  28.245  26.913  1.00  0.00     0.060 A 
BRANCH  44  45
ATOM     45  S   UNL A   1      50.427  27.594  26.163  1.00  0.00     0.124 S 
ATOM     46  O   UNL A   1      50.517  28.393  24.946  1.00  0.00    -0.237 OA
ATOM     47  O   UNL A   1      51.429  27.882  27.185  1.00  0.00    -0.237 OA
ATOM     48  O   UNL A   1      50.125  26.180  25.963  1.00  0.00    -0.744 OA
ENDBRANCH  44  45
ENDBRANCH  23  37
BRANCH  24  49
ATOM     49  C   UNL A   1      37.290  32.626  30.330  1.00  0.00     0.058 A 
ATOM     50  C   UNL A   1      36.492  33.404  29.480  1.00  0.00     0.135 A 
ATOM     51  C   UNL A   1      36.756  32.426  31.613  1.00  0.00     0.135 A 
ATOM     52  F   UNL A   1      36.878  33.629  28.215  1.00  0.00    -0.206 F 
ATOM     53  C   UNL A   1      35.314  34.030  29.923  1.00  0.00     0.059 A 
ATOM     54  C   UNL A   1      35.564  32.973  32.071  1.00  0.00     0.059 A 
ATOM     55  F   UNL A   1      37.451  31.725  32.503  1.00  0.00    -0.206 F 
ATOM     56  C   UNL A   1      34.878  33.832  31.235  1.00  0.00     0.060 A 
BRANCH  56  57
ATOM     57  S   UNL A   1      33.558  34.855  31.917  1.00  0.00     0.124 S 
ATOM     58  O   UNL A   1      32.991  33.945  32.914  1.00  0.00    -0.237 OA
ATOM     59  O   UNL A   1      34.288  36.010  32.424  1.00  0.00    -0.237 OA
ATOM     60  O   UNL A   1      32.692  35.118  30.771  1.00  0.00    -0.744 OA
ENDBRANCH  56  57
ENDBRANCH  24  49
BRANCH  36  61
ATOM     61  C   UNL A   1      43.739  35.279  30.881  1.00  0.00     0.058 A 
ATOM     62  C   UNL A   1      44.307  35.580  32.125  1.00  0.00     0.135 A 
ATOM     63  C   UNL A   1      43.655  36.308  29.926  1.00  0.00     0.135 A 
ATOM     64  F   UNL A   1      44.404  34.635  33.072  1.00  0.00    -0.206 F 
ATOM     65  C   UNL A   1      44.746  36.867  32.423  1.00  0.00     0.059 A 
ATOM     66  C   UNL A   1      44.121  37.589  30.188  1.00  0.00     0.059 A 
ATOM     67  F   UNL A   1      43.134  36.065  28.712  1.00  0.00    -0.206 F 
ATOM     68  C   UNL A   1      44.649  37.863  31.447  1.00  0.00     0.060 A 
BRANCH  68  69
ATOM     69  S   UNL A   1      45.240  39.523  31.832  1.00  0.00     0.124 S 
ATOM     70  O   UNL A   1      46.686  39.327  31.836  1.00  0.00    -0.237 OA
ATOM     71  O   UNL A   1      44.709  40.310  30.723  1.00  0.00    -0.237 OA
ATOM     72  O   UNL A   1      44.641  39.806  33.134  1.00  0.00    -0.744 OA
ENDBRANCH  68  69
ENDBRANCH  36  61
ENDBRANCH  10  11
ENDBRANCH   3   5
ENDBRANCH   2   3
ENDBRANCH   1   2
BRANCH   1  73
ATOM     73  C   UNL A   1      35.924  21.706  24.587  1.00  0.00     0.274 C 
BRANCH  73  74
ATOM     74  O   UNL A   1      35.224  22.660  25.395  1.00  0.00    -0.461 OA
BRANCH  74  75
ATOM     75  C   UNL A   1      34.251  22.175  26.235  1.00  0.00     0.328 C 
ATOM     76  O   UNL A   1      34.459  21.550  27.261  1.00  0.00    -0.250 OA
BRANCH  75  77
ATOM     77  C   UNL A   1      32.877  22.599  25.684  1.00  0.00     0.195 C 
ATOM     78  C   UNL A   1      32.786  24.132  25.644  1.00  0.00     0.046 C 
ATOM     79  N   UNL A   1      32.458  22.171  24.356  1.00  0.00    -0.328 N 
ATOM     80  C   UNL A   1      31.873  24.510  24.449  1.00  0.00     0.001 C 
ATOM     81  C   UNL A   1      31.613  23.176  23.746  1.00  0.00     0.128 C 
ATOM     82  C   UNL A   1      32.574  25.477  23.472  1.00  0.00     0.071 C 
ATOM     83  C   UNL A   1      30.530  25.145  24.889  1.00  0.00     0.071 C 
ATOM     84  C   UNL A   1      32.702  26.872  24.066  1.00  0.00     0.271 C 
ATOM     85  C   UNL A   1      30.631  26.599  25.350  1.00  0.00     0.271 C 
ATOM     86  N   UNL A   1      31.393  27.424  24.422  1.00  0.00    -0.267 N 
ATOM     87  H   UNL A   1      32.077  27.260  25.110  1.00  0.00     0.357 HD
BRANCH  79  88
ATOM     88  C   UNL A   1      32.319  20.887  23.850  1.00  0.00     0.226 C 
ATOM     89  O   UNL A   1      32.096  20.692  22.656  1.00  0.00    -0.275 OA
BRANCH  88  90
ATOM     90  C   UNL A   1      32.462  19.676  24.695  1.00  0.00     0.079 C 
ATOM     91  C   UNL A   1      32.428  18.226  24.323  1.00  0.00     0.014 C 
ATOM     92  C   UNL A   1      33.751  18.886  24.492  1.00  0.00     0.014 C 
ENDBRANCH  88  90
ENDBRANCH  79  88
BRANCH  86  93
ATOM     93  C   UNL A   1      30.986  28.767  24.284  1.00  0.00     0.344 C 
ATOM     94  O   UNL A   1      31.491  29.678  24.941  1.00  0.00    -0.226 OA
BRANCH  93  95
ATOM     95  C   UNL A   1      29.921  29.161  23.321  1.00  0.00     0.083 A 
ATOM     96  C   UNL A   1      30.177  30.037  22.262  1.00  0.00     0.018 A 
ATOM     97  C   UNL A   1      28.636  28.614  23.473  1.00  0.00     0.064 A 
ATOM     98  C   UNL A   1      29.132  30.457  21.434  1.00  0.00     0.005 A 
ATOM     99  C   UNL A   1      27.598  29.065  22.661  1.00  0.00     0.116 A 
ATOM    100  C   UNL A   1      27.837  29.986  21.646  1.00  0.00     0.046 A 
BRANCH  99 101
ATOM    101  O   UNL A   1      26.324  28.652  22.928  1.00  0.00    -0.508 OA
ATOM    102  H   UNL A   1      25.699  28.581  22.234  1.00  0.00     0.293 HD
ENDBRANCH  99 101
ENDBRANCH  93  95
ENDBRANCH  86  93
ENDBRANCH  75  77
ENDBRANCH  74  75
ENDBRANCH  73  74
ENDBRANCH   1  73
TORSDOF 19
ENDMDL
MODEL 2
REMARK VINA RESULT:     -12.1      4.282     10.565
REMARK SMILES O=C(OCCOC(=O)[C@H]1CC2(CC[NH+](C(=O)c3cccc(O)c3)CC2)CN1C(=O)C1CC1)c1ccc(-c2c3nc(c(-c4c(F)cc(S(=O)(=O)[O-])cc4F)c4ccc([nH]4)c(-c4c(F)cc(S(=O)(=O)[O-])cc4F)c4nc(c(-c5c(F)cc(S(=O)(=O)[O-])cc5F)c5ccc2[nH]5)C=C4)C=C3)cc1
REMARK SMILES IDX 4 1 3 2 2 3 1 4 33 5 34 6 98 7 35 8 97 9 36 10 37 11 38 12
REMARK SMILES IDX 91 13 39 14 96 15 90 16 92 17 40 18 95 19 89 20 88 21 41 23
REMARK SMILES IDX 75 24 54 25 74 26 55 27 58 28 73 29 93 30 56 31 57 32 72 34
REMARK SMILES IDX 94 35 59 36 42 37 43 38 52 39 44 40 45 41 51 42 53 43 46 44
REMARK SMILES IDX 47 45 48 46 49 47 50 48 76 49 77 50 86 51 78 52 79 53 85 54
REMARK SMILES IDX 87 55 80 56 81 57 82 58 83 59 84 60 60 61 61 62 70 63 62 64
REMARK SMILES IDX 63 65 69 66 71 67 64 68 65 69 66 70 67 71 68 72 5 73 6 74
REMARK SMILES IDX 7 75 8 76 9 77 10 78 27 79 11 80 26 81 12 82 25 83 13 84
REMARK SMILES IDX 24 85 14 86 28 88 29 89 30 90 31 91 32 92 15 93 16 94 17 95
REMARK SMILES IDX 18 96 23 97 19 98 21 99 20 100 22 101
REMARK H PARENT 92 22 58 33 14 87 22 102
REMARK Flexibility Score: inf
ROOT
ATOM      1  C   UNL A   1      32.337  29.925  27.226  1.00  0.00     0.275 C 
ENDROOT
BRANCH   1   2
ATOM      2  O   UNL A   1      33.697  29.700  27.664  1.00  0.00    -0.458 OA
BRANCH   2   3
ATOM      3  C   UNL A   1      34.715  30.583  27.837  1.00  0.00     0.338 C 
ATOM      4  O   UNL A   1      34.589  31.745  27.459  1.00  0.00    -0.246 OA
BRANCH   3   5
ATOM      5  C   UNL A   1      36.054  30.141  28.304  1.00  0.00     0.060 A 
ATOM      6  C   UNL A   1      36.282  29.606  29.569  1.00  0.00     0.016 A 
ATOM      7  C   UNL A   1      37.139  30.288  27.421  1.00  0.00     0.016 A 
ATOM      8  C   UNL A   1      37.530  29.091  29.901  1.00  0.00     0.010 A 
ATOM      9  C   UNL A   1      38.399  29.782  27.757  1.00  0.00     0.010 A 
ATOM     10  C   UNL A   1      38.591  29.151  28.994  1.00  0.00    -0.014 A 
BRANCH  10  11
ATOM     11  C   UNL A   1      39.925  28.700  29.456  1.00  0.00     0.031 A 
ATOM     12  C   UNL A   1      40.592  29.515  30.523  1.00  0.00     0.074 A 
ATOM     13  C   UNL A   1      40.415  27.501  29.075  1.00  0.00     0.049 A 
ATOM     14  N   UNL A   1      41.688  29.260  31.179  1.00  0.00    -0.248 NA
ATOM     15  C   UNL A   1      39.885  30.729  30.979  1.00  0.00     0.031 C 
ATOM     16  C   UNL A   1      39.717  26.551  28.204  1.00  0.00     0.029 A 
ATOM     17  N   UNL A   1      41.599  26.860  29.358  1.00  0.00    -0.354 N 
ATOM     18  C   UNL A   1      41.723  30.190  32.209  1.00  0.00     0.074 A 
ATOM     19  C   UNL A   1      40.630  31.110  32.005  1.00  0.00     0.031 C 
ATOM     20  C   UNL A   1      40.496  25.477  27.998  1.00  0.00     0.029 A 
ATOM     21  C   UNL A   1      41.779  25.679  28.661  1.00  0.00     0.049 A 
ATOM     22  H   UNL A   1      42.258  27.211  29.999  1.00  0.00     0.167 HD
ATOM     23  C   UNL A   1      42.540  30.200  33.283  1.00  0.00     0.037 A 
ATOM     24  C   UNL A   1      42.877  24.895  28.533  1.00  0.00     0.037 A 
ATOM     25  C   UNL A   1      43.654  29.303  33.418  1.00  0.00     0.049 A 
ATOM     26  C   UNL A   1      44.058  25.295  29.398  1.00  0.00     0.074 A 
ATOM     27  C   UNL A   1      44.596  29.234  34.423  1.00  0.00     0.029 A 
ATOM     28  N   UNL A   1      43.985  28.330  32.482  1.00  0.00    -0.354 N 
ATOM     29  N   UNL A   1      44.079  26.163  30.389  1.00  0.00    -0.248 NA
ATOM     30  C   UNL A   1      45.346  24.632  29.168  1.00  0.00     0.031 C 
ATOM     31  C   UNL A   1      45.530  28.254  34.066  1.00  0.00     0.029 A 
ATOM     32  C   UNL A   1      45.138  27.674  32.868  1.00  0.00     0.049 A 
ATOM     33  H   UNL A   1      43.472  28.135  31.664  1.00  0.00     0.167 HD
ATOM     34  C   UNL A   1      45.328  26.041  30.985  1.00  0.00     0.074 A 
ATOM     35  C   UNL A   1      46.061  25.071  30.196  1.00  0.00     0.031 C 
ATOM     36  C   UNL A   1      45.800  26.634  32.112  1.00  0.00     0.037 A 
BRANCH  23  37
ATOM     37  C   UNL A   1      42.217  31.175  34.378  1.00  0.00     0.058 A 
ATOM     38  C   UNL A   1      41.314  30.833  35.402  1.00  0.00     0.135 A 
ATOM     39  C   UNL A   1      42.784  32.457  34.410  1.00  0.00     0.135 A 
ATOM     40  F   UNL A   1      40.717  29.630  35.403  1.00  0.00    -0.206 F 
ATOM     41  C   UNL A   1      40.974  31.732  36.407  1.00  0.00     0.059 A 
ATOM     42  C   UNL A   1      42.472  33.366  35.419  1.00  0.00     0.059 A 
ATOM     43  F   UNL A   1      43.634  32.843  33.447  1.00  0.00    -0.206 F 
ATOM     44  C   UNL A   1      41.559  32.997  36.407  1.00  0.00     0.060 A 
BRANCH  44  45
ATOM     45  S   UNL A   1      41.107  34.150  37.722  1.00  0.00     0.124 S 
ATOM     46  O   UNL A   1      40.029  34.905  37.091  1.00  0.00    -0.237 OA
ATOM     47  O   UNL A   1      40.703  33.249  38.797  1.00  0.00    -0.237 OA
ATOM     48  O   UNL A   1      42.338  34.896  37.960  1.00  0.00    -0.744 OA
ENDBRANCH  44  45
ENDBRANCH  23  37
BRANCH  24  49
ATOM     49  C   UNL A   1      42.963  23.778  27.513  1.00  0.00     0.058 A 
ATOM     50  C   UNL A   1      42.517  22.464  27.708  1.00  0.00     0.135 A 
ATOM     51  C   UNL A   1      43.649  23.990  26.306  1.00  0.00     0.135 A 
ATOM     52  F   UNL A   1      41.813  22.150  28.806  1.00  0.00    -0.206 F 
ATOM     53  C   UNL A   1      42.838  21.424  26.819  1.00  0.00     0.059 A 
ATOM     54  C   UNL A   1      43.932  23.003  25.370  1.00  0.00     0.059 A 
ATOM     55  F   UNL A   1      44.137  25.197  26.040  1.00  0.00    -0.206 F 
ATOM     56  C   UNL A   1      43.578  21.702  25.667  1.00  0.00     0.060 A 
BRANCH  56  57
ATOM     57  S   UNL A   1      44.263  20.356  24.681  1.00  0.00     0.124 S 
ATOM     58  O   UNL A   1      43.164  19.390  24.733  1.00  0.00    -0.237 OA
ATOM     59  O   UNL A   1      44.508  21.002  23.398  1.00  0.00    -0.237 OA
ATOM     60  O   UNL A   1      45.459  19.957  25.418  1.00  0.00    -0.744 OA
ENDBRANCH  56  57
ENDBRANCH  24  49
BRANCH  36  61
ATOM     61  C   UNL A   1      47.065  26.074  32.694  1.00  0.00     0.058 A 
ATOM     62  C   UNL A   1      48.334  26.595  32.413  1.00  0.00     0.135 A 
ATOM     63  C   UNL A   1      46.977  25.001  33.599  1.00  0.00     0.135 A 
ATOM     64  F   UNL A   1      48.472  27.614  31.551  1.00  0.00    -0.206 F 
ATOM     65  C   UNL A   1      49.479  26.051  32.987  1.00  0.00     0.059 A 
ATOM     66  C   UNL A   1      48.102  24.467  34.213  1.00  0.00     0.059 A 
ATOM     67  F   UNL A   1      45.781  24.477  33.914  1.00  0.00    -0.206 F 
ATOM     68  C   UNL A   1      49.351  24.988  33.886  1.00  0.00     0.060 A 
BRANCH  68  69
ATOM     69  S   UNL A   1      50.837  24.300  34.643  1.00  0.00     0.124 S 
ATOM     70  O   UNL A   1      51.845  25.284  34.259  1.00  0.00    -0.237 OA
ATOM     71  O   UNL A   1      50.484  24.273  36.059  1.00  0.00    -0.237 OA
ATOM     72  O   UNL A   1      50.967  22.990  34.011  1.00  0.00    -0.744 OA
ENDBRANCH  68  69
ENDBRANCH  36  61
ENDBRANCH  10  11
ENDBRANCH   3   5
ENDBRANCH   2   3
ENDBRANCH   1   2
BRANCH   1  73
ATOM     73  C   UNL A   1      31.732  28.839  26.322  1.00  0.00     0.274 C 
BRANCH  73  74
ATOM     74  O   UNL A   1      32.743  27.998  25.751  1.00  0.00    -0.461 OA
BRANCH  74  75
ATOM     75  C   UNL A   1      33.020  28.171  24.417  1.00  0.00     0.328 C 
ATOM     76  O   UNL A   1      33.527  29.166  23.930  1.00  0.00    -0.250 OA
BRANCH  75  77
ATOM     77  C   UNL A   1      32.630  26.882  23.668  1.00  0.00     0.195 C 
ATOM     78  C   UNL A   1      33.499  25.715  24.160  1.00  0.00     0.046 C 
ATOM     79  N   UNL A   1      31.265  26.381  23.739  1.00  0.00    -0.328 N 
ATOM     80  C   UNL A   1      32.644  24.426  24.054  1.00  0.00     0.001 C 
ATOM     81  C   UNL A   1      31.255  24.934  23.662  1.00  0.00     0.128 C 
ATOM     82  C   UNL A   1      32.557  23.680  25.402  1.00  0.00     0.071 C 
ATOM     83  C   UNL A   1      33.166  23.439  22.981  1.00  0.00     0.071 C 
ATOM     84  C   UNL A   1      33.875  23.009  25.753  1.00  0.00     0.271 C 
ATOM     85  C   UNL A   1      34.412  22.651  23.387  1.00  0.00     0.271 C 
ATOM     86  N   UNL A   1      34.287  22.062  24.714  1.00  0.00    -0.267 N 
ATOM     87  H   UNL A   1      34.835  22.852  24.926  1.00  0.00     0.357 HD
BRANCH  79  88
ATOM     88  C   UNL A   1      30.079  27.005  23.380  1.00  0.00     0.226 C 
ATOM     89  O   UNL A   1      28.991  26.573  23.755  1.00  0.00    -0.275 OA
BRANCH  88  90
ATOM     90  C   UNL A   1      30.044  28.242  22.561  1.00  0.00     0.079 C 
ATOM     91  C   UNL A   1      28.924  29.201  22.303  1.00  0.00     0.014 C 
ATOM     92  C   UNL A   1      29.928  29.543  23.347  1.00  0.00     0.014 C 
ENDBRANCH  88  90
ENDBRANCH  79  88
BRANCH  86  93
ATOM     93  C   UNL A   1      34.917  20.817  24.919  1.00  0.00     0.344 C 
ATOM     94  O   UNL A   1      36.052  20.724  25.388  1.00  0.00    -0.226 OA
BRANCH  93  95
ATOM     95  C   UNL A   1      34.235  19.538  24.584  1.00  0.00     0.083 A 
ATOM     96  C   UNL A   1      32.885  19.498  24.223  1.00  0.00     0.018 A 
ATOM     97  C   UNL A   1      34.980  18.346  24.608  1.00  0.00     0.064 A 
ATOM     98  C   UNL A   1      32.255  18.270  24.005  1.00  0.00     0.005 A 
ATOM     99  C   UNL A   1      34.333  17.127  24.420  1.00  0.00     0.116 A 
ATOM    100  C   UNL A   1      32.975  17.082  24.123  1.00  0.00     0.046 A 
BRANCH  99 101
ATOM    101  O   UNL A   1      35.034  15.971  24.612  1.00  0.00    -0.508 OA
ATOM    102  H   UNL A   1      35.787  15.967  25.168  1.00  0.00     0.293 HD
ENDBRANCH  99 101
ENDBRANCH  93  95
ENDBRANCH  86  93
ENDBRANCH  75  77
ENDBRANCH  74  75
ENDBRANCH  73  74
ENDBRANCH   1  73
TORSDOF 19
ENDMDL
MODEL 3
REMARK VINA RESULT:     -12.1      5.202      8.930
REMARK SMILES O=C(OCCOC(=O)[C@H]1CC2(CC[NH+](C(=O)c3cccc(O)c3)CC2)CN1C(=O)C1CC1)c1ccc(-c2c3nc(c(-c4c(F)cc(S(=O)(=O)[O-])cc4F)c4ccc([nH]4)c(-c4c(F)cc(S(=O)(=O)[O-])cc4F)c4nc(c(-c5c(F)cc(S(=O)(=O)[O-])cc5F)c5ccc2[nH]5)C=C4)C=C3)cc1
REMARK SMILES IDX 4 1 3 2 2 3 1 4 33 5 34 6 98 7 35 8 97 9 36 10 37 11 38 12
REMARK SMILES IDX 91 13 39 14 96 15 90 16 92 17 40 18 95 19 89 20 88 21 41 23
REMARK SMILES IDX 75 24 54 25 74 26 55 27 58 28 73 29 93 30 56 31 57 32 72 34
REMARK SMILES IDX 94 35 59 36 42 37 43 38 52 39 44 40 45 41 51 42 53 43 46 44
REMARK SMILES IDX 47 45 48 46 49 47 50 48 76 49 77 50 86 51 78 52 79 53 85 54
REMARK SMILES IDX 87 55 80 56 81 57 82 58 83 59 84 60 60 61 61 62 70 63 62 64
REMARK SMILES IDX 63 65 69 66 71 67 64 68 65 69 66 70 67 71 68 72 5 73 6 74
REMARK SMILES IDX 7 75 8 76 9 77 10 78 27 79 11 80 26 81 12 82 25 83 13 84
REMARK SMILES IDX 24 85 14 86 28 88 29 89 30 90 31 91 32 92 15 93 16 94 17 95
REMARK SMILES IDX 18 96 23 97 19 98 21 99 20 100 22 101
REMARK H PARENT 92 22 58 33 14 87 22 102
REMARK Flexibility Score: inf
ROOT
ATOM      1  C   UNL A   1      38.278  23.129  26.109  1.00  0.00     0.275 C 
ENDROOT
BRANCH   1   2
ATOM      2  O   UNL A   1      39.215  23.789  26.991  1.00  0.00    -0.458 OA
BRANCH   2   3
ATOM      3  C   UNL A   1      39.870  24.970  26.843  1.00  0.00     0.338 C 
ATOM      4  O   UNL A   1      40.555  25.169  25.843  1.00  0.00    -0.246 OA
BRANCH   3   5
ATOM      5  C   UNL A   1      39.934  25.965  27.945  1.00  0.00     0.060 A 
ATOM      6  C   UNL A   1      38.921  26.127  28.886  1.00  0.00     0.016 A 
ATOM      7  C   UNL A   1      41.074  26.786  28.022  1.00  0.00     0.016 A 
ATOM      8  C   UNL A   1      39.096  26.982  29.968  1.00  0.00     0.010 A 
ATOM      9  C   UNL A   1      41.247  27.657  29.103  1.00  0.00     0.010 A 
ATOM     10  C   UNL A   1      40.265  27.735  30.101  1.00  0.00    -0.014 A 
BRANCH  10  11
ATOM     11  C   UNL A   1      40.334  28.719  31.206  1.00  0.00     0.031 A 
ATOM     12  C   UNL A   1      39.592  30.009  31.022  1.00  0.00     0.074 A 
ATOM     13  C   UNL A   1      40.872  28.379  32.397  1.00  0.00     0.049 A 
ATOM     14  N   UNL A   1      39.393  30.966  31.884  1.00  0.00    -0.248 NA
ATOM     15  C   UNL A   1      38.905  30.208  29.731  1.00  0.00     0.031 C 
ATOM     16  C   UNL A   1      41.421  27.059  32.720  1.00  0.00     0.029 A 
ATOM     17  N   UNL A   1      41.051  29.090  33.561  1.00  0.00    -0.354 N 
ATOM     18  C   UNL A   1      38.449  31.796  31.296  1.00  0.00     0.074 A 
ATOM     19  C   UNL A   1      38.230  31.326  29.950  1.00  0.00     0.031 C 
ATOM     20  C   UNL A   1      41.903  27.069  33.972  1.00  0.00     0.029 A 
ATOM     21  C   UNL A   1      41.767  28.409  34.530  1.00  0.00     0.049 A 
ATOM     22  H   UNL A   1      40.702  30.000  33.692  1.00  0.00     0.167 HD
ATOM     23  C   UNL A   1      37.757  32.799  31.877  1.00  0.00     0.037 A 
ATOM     24  C   UNL A   1      42.296  28.847  35.699  1.00  0.00     0.037 A 
ATOM     25  C   UNL A   1      38.048  33.276  33.200  1.00  0.00     0.049 A 
ATOM     26  C   UNL A   1      41.932  30.272  36.077  1.00  0.00     0.074 A 
ATOM     27  C   UNL A   1      37.466  34.316  33.896  1.00  0.00     0.029 A 
ATOM     28  N   UNL A   1      39.041  32.745  34.016  1.00  0.00    -0.354 N 
ATOM     29  N   UNL A   1      41.020  31.047  35.527  1.00  0.00    -0.248 NA
ATOM     30  C   UNL A   1      42.627  30.890  37.210  1.00  0.00     0.031 C 
ATOM     31  C   UNL A   1      38.147  34.450  35.112  1.00  0.00     0.029 A 
ATOM     32  C   UNL A   1      39.114  33.457  35.198  1.00  0.00     0.049 A 
ATOM     33  H   UNL A   1      39.608  31.975  33.786  1.00  0.00     0.167 HD
ATOM     34  C   UNL A   1      40.933  32.175  36.335  1.00  0.00     0.074 A 
ATOM     35  C   UNL A   1      41.940  32.014  37.366  1.00  0.00     0.031 C 
ATOM     36  C   UNL A   1      40.063  33.215  36.262  1.00  0.00     0.037 A 
BRANCH  23  37
ATOM     37  C   UNL A   1      36.619  33.387  31.094  1.00  0.00     0.058 A 
ATOM     38  C   UNL A   1      36.862  34.275  30.030  1.00  0.00     0.135 A 
ATOM     39  C   UNL A   1      35.284  33.090  31.403  1.00  0.00     0.135 A 
ATOM     40  F   UNL A   1      38.120  34.621  29.711  1.00  0.00    -0.206 F 
ATOM     41  C   UNL A   1      35.823  34.859  29.312  1.00  0.00     0.059 A 
ATOM     42  C   UNL A   1      34.229  33.647  30.684  1.00  0.00     0.059 A 
ATOM     43  F   UNL A   1      34.995  32.265  32.421  1.00  0.00    -0.206 F 
ATOM     44  C   UNL A   1      34.508  34.537  29.647  1.00  0.00     0.060 A 
BRANCH  44  45
ATOM     45  S   UNL A   1      33.172  35.303  28.703  1.00  0.00     0.124 S 
ATOM     46  O   UNL A   1      33.918  36.138  27.767  1.00  0.00    -0.237 OA
ATOM     47  O   UNL A   1      32.501  34.145  28.121  1.00  0.00    -0.237 OA
ATOM     48  O   UNL A   1      32.410  36.025  29.716  1.00  0.00    -0.744 OA
ENDBRANCH  44  45
ENDBRANCH  23  37
BRANCH  24  49
ATOM     49  C   UNL A   1      43.276  28.021  36.507  1.00  0.00     0.058 A 
ATOM     50  C   UNL A   1      44.670  28.163  36.483  1.00  0.00     0.135 A 
ATOM     51  C   UNL A   1      42.811  26.931  37.260  1.00  0.00     0.135 A 
ATOM     52  F   UNL A   1      45.229  29.192  35.830  1.00  0.00    -0.206 F 
ATOM     53  C   UNL A   1      45.529  27.217  37.068  1.00  0.00     0.059 A 
ATOM     54  C   UNL A   1      43.625  26.009  37.908  1.00  0.00     0.059 A 
ATOM     55  F   UNL A   1      41.505  26.694  37.322  1.00  0.00    -0.206 F 
ATOM     56  C   UNL A   1      44.991  26.124  37.751  1.00  0.00     0.060 A 
BRANCH  56  57
ATOM     57  S   UNL A   1      46.051  24.747  38.237  1.00  0.00     0.124 S 
ATOM     58  O   UNL A   1      45.615  24.540  39.620  1.00  0.00    -0.237 OA
ATOM     59  O   UNL A   1      45.686  23.716  37.275  1.00  0.00    -0.237 OA
ATOM     60  O   UNL A   1      47.403  25.281  38.099  1.00  0.00    -0.744 OA
ENDBRANCH  56  57
ENDBRANCH  24  49
BRANCH  36  61
ATOM     61  C   UNL A   1      39.995  34.127  37.451  1.00  0.00     0.058 A 
ATOM     62  C   UNL A   1      40.748  35.303  37.559  1.00  0.00     0.135 A 
ATOM     63  C   UNL A   1      39.103  33.816  38.493  1.00  0.00     0.135 A 
ATOM     64  F   UNL A   1      41.617  35.641  36.595  1.00  0.00    -0.206 F 
ATOM     65  C   UNL A   1      40.642  36.126  38.677  1.00  0.00     0.059 A 
ATOM     66  C   UNL A   1      38.954  34.641  39.599  1.00  0.00     0.059 A 
ATOM     67  F   UNL A   1      38.347  32.708  38.429  1.00  0.00    -0.206 F 
ATOM     68  C   UNL A   1      39.742  35.786  39.690  1.00  0.00     0.060 A 
BRANCH  68  69
ATOM     69  S   UNL A   1      39.594  36.868  41.126  1.00  0.00     0.124 S 
ATOM     70  O   UNL A   1      38.834  36.029  42.048  1.00  0.00    -0.237 OA
ATOM     71  O   UNL A   1      40.989  37.105  41.485  1.00  0.00    -0.237 OA
ATOM     72  O   UNL A   1      38.881  38.031  40.605  1.00  0.00    -0.744 OA
ENDBRANCH  68  69
ENDBRANCH  36  61
ENDBRANCH  10  11
ENDBRANCH   3   5
ENDBRANCH   2   3
ENDBRANCH   1   2
BRANCH   1  73
ATOM     73  C   UNL A   1      36.833  23.651  26.148  1.00  0.00     0.274 C 
BRANCH  73  74
ATOM     74  O   UNL A   1      36.443  24.230  24.897  1.00  0.00    -0.461 OA
BRANCH  74  75
ATOM     75  C   UNL A   1      35.451  23.590  24.193  1.00  0.00     0.328 C 
ATOM     76  O   UNL A   1      35.580  23.110  23.081  1.00  0.00    -0.250 OA
BRANCH  75  77
ATOM     77  C   UNL A   1      34.185  23.544  25.070  1.00  0.00     0.195 C 
ATOM     78  C   UNL A   1      33.149  24.543  24.534  1.00  0.00     0.046 C 
ATOM     79  N   UNL A   1      33.448  22.297  25.225  1.00  0.00    -0.328 N 
ATOM     80  C   UNL A   1      31.745  23.963  24.842  1.00  0.00     0.001 C 
ATOM     81  C   UNL A   1      32.035  22.565  25.393  1.00  0.00     0.128 C 
ATOM     82  C   UNL A   1      30.879  23.843  23.570  1.00  0.00     0.071 C 
ATOM     83  C   UNL A   1      30.962  24.791  25.891  1.00  0.00     0.071 C 
ATOM     84  C   UNL A   1      30.420  25.207  23.079  1.00  0.00     0.271 C 
ATOM     85  C   UNL A   1      30.372  26.099  25.363  1.00  0.00     0.271 C 
ATOM     86  N   UNL A   1      29.655  25.917  24.107  1.00  0.00    -0.267 N 
ATOM     87  H   UNL A   1      30.507  26.277  23.770  1.00  0.00     0.357 HD
BRANCH  79  88
ATOM     88  C   UNL A   1      33.885  21.072  25.707  1.00  0.00     0.226 C 
ATOM     89  O   UNL A   1      34.210  20.929  26.885  1.00  0.00    -0.275 OA
BRANCH  88  90
ATOM     90  C   UNL A   1      33.956  19.858  24.857  1.00  0.00     0.079 C 
ATOM     91  C   UNL A   1      33.399  18.487  25.080  1.00  0.00     0.014 C 
ATOM     92  C   UNL A   1      32.639  19.431  24.218  1.00  0.00     0.014 C 
ENDBRANCH  88  90
ENDBRANCH  79  88
BRANCH  86  93
ATOM     93  C   UNL A   1      28.526  26.735  23.894  1.00  0.00     0.344 C 
ATOM     94  O   UNL A   1      27.395  26.398  24.244  1.00  0.00    -0.226 OA
BRANCH  93  95
ATOM     95  C   UNL A   1      28.645  28.064  23.236  1.00  0.00     0.083 A 
ATOM     96  C   UNL A   1      27.538  28.904  23.074  1.00  0.00     0.018 A 
ATOM     97  C   UNL A   1      29.907  28.490  22.790  1.00  0.00     0.064 A 
ATOM     98  C   UNL A   1      27.668  30.104  22.369  1.00  0.00     0.005 A 
ATOM     99  C   UNL A   1      30.016  29.672  22.061  1.00  0.00     0.116 A 
ATOM    100  C   UNL A   1      28.905  30.478  21.844  1.00  0.00     0.046 A 
BRANCH  99 101
ATOM    101  O   UNL A   1      31.217  29.988  21.491  1.00  0.00    -0.508 OA
ATOM    102  H   UNL A   1      31.835  30.512  21.961  1.00  0.00     0.293 HD
ENDBRANCH  99 101
ENDBRANCH  93  95
ENDBRANCH  86  93
ENDBRANCH  75  77
ENDBRANCH  74  75
ENDBRANCH  73  74
ENDBRANCH   1  73
TORSDOF 19
ENDMDL
