MODEL 1
REMARK VINA RESULT:     -11.6      0.000      0.000
REMARK SMILES C[C@H]1CC[C@@](C[C@@H]2CSc3ccccc32)(C(=O)OCCOC(=O)c2ccc(-c3c4nc(c(-c5c(F)cc(S(=O)(=O)[O-])cc5F)c5ccc([nH]5)c(-c5c(F)cc(S(=O)(=O)[O-])cc5F)c5nc(c(-c6c(F)cc(S(=O)(=O)[O-])cc6F)c6ccc3[nH]6)C=C5)C=C4)cc2)CC1
REMARK SMILES IDX 20 1 19 2 18 3 16 4 17 5 5 6 1 7 2 8 91 9 3 10 90 11 4 12
REMARK SMILES IDX 6 13 7 14 8 15 15 16 9 17 10 18 14 19 11 20 13 21 12 22
REMARK SMILES IDX 21 23 22 24 23 25 24 26 25 27 89 28 26 29 88 30 27 31 28 32
REMARK SMILES IDX 29 33 82 34 30 35 87 36 81 37 83 38 31 39 86 40 80 41 79 42
REMARK SMILES IDX 32 44 66 45 45 46 65 47 46 48 49 49 64 50 84 51 47 52 48 53
REMARK SMILES IDX 63 55 85 56 50 57 33 58 34 59 43 60 35 61 36 62 42 63 44 64
REMARK SMILES IDX 37 65 38 66 39 67 40 68 41 69 67 70 68 71 77 72 69 73 70 74
REMARK SMILES IDX 76 75 78 76 71 77 72 78 73 79 74 80 75 81 51 82 52 83 61 84
REMARK SMILES IDX 53 85 54 86 60 87 62 88 55 89 56 90 57 91 58 92 59 93
REMARK H PARENT 83 43 49 54
REMARK Flexibility Score: inf
ROOT
ATOM      1  C   UNL A   1      32.267  29.821  27.242  1.00  0.00     0.275 C 
ENDROOT
BRANCH   1   2
ATOM      2  C   UNL A   1      31.551  28.606  26.669  1.00  0.00     0.274 C 
BRANCH   2   3
ATOM      3  O   UNL A   1      32.262  27.392  26.996  1.00  0.00    -0.462 OA
BRANCH   3   4
ATOM      4  C   UNL A   1      31.803  26.244  26.430  1.00  0.00     0.312 C 
ATOM      5  O   UNL A   1      30.752  25.699  26.751  1.00  0.00    -0.252 OA
BRANCH   4   6
ATOM      6  C   UNL A   1      32.802  25.603  25.449  1.00  0.00     0.069 C 
ATOM      7  C   UNL A   1      33.613  28.743  22.357  1.00  0.00     0.007 C 
ATOM      8  C   UNL A   1      33.624  27.433  23.143  1.00  0.00    -0.014 C 
ATOM      9  C   UNL A   1      32.223  26.842  23.219  1.00  0.00     0.004 C 
ATOM     10  C   UNL A   1      34.130  27.658  24.564  1.00  0.00     0.004 C 
ATOM     11  C   UNL A   1      32.156  25.547  24.026  1.00  0.00     0.019 C 
ATOM     12  C   UNL A   1      34.152  26.347  25.347  1.00  0.00     0.019 C 
BRANCH   6  13
ATOM     13  C   UNL A   1      32.939  24.100  25.919  1.00  0.00     0.028 C 
BRANCH  13  14
ATOM     14  C   UNL A   1      32.988  22.905  24.932  1.00  0.00     0.032 C 
ATOM     15  C   UNL A   1      32.193  21.647  25.324  1.00  0.00     0.083 C 
ATOM     16  C   UNL A   1      34.391  22.481  24.584  1.00  0.00    -0.030 A 
ATOM     17  S   UNL A   1      33.369  20.302  25.681  1.00  0.00    -0.125 SA
ATOM     18  C   UNL A   1      34.731  21.189  24.987  1.00  0.00     0.011 A 
ATOM     19  C   UNL A   1      35.355  23.322  24.028  1.00  0.00     0.005 A 
ATOM     20  C   UNL A   1      36.045  20.750  24.928  1.00  0.00     0.015 A 
ATOM     21  C   UNL A   1      36.676  22.886  23.961  1.00  0.00     0.000 A 
ATOM     22  C   UNL A   1      37.023  21.612  24.425  1.00  0.00     0.001 A 
ENDBRANCH  13  14
ENDBRANCH   6  13
ENDBRANCH   4   6
ENDBRANCH   3   4
ENDBRANCH   2   3
ENDBRANCH   1   2
BRANCH   1  23
ATOM     23  O   UNL A   1      33.647  29.482  27.429  1.00  0.00    -0.458 OA
BRANCH  23  24
ATOM     24  C   UNL A   1      34.429  30.451  27.958  1.00  0.00     0.338 C 
ATOM     25  O   UNL A   1      34.092  31.584  28.253  1.00  0.00    -0.246 OA
BRANCH  24  26
ATOM     26  C   UNL A   1      35.790  29.917  28.180  1.00  0.00     0.060 A 
ATOM     27  C   UNL A   1      36.741  30.030  27.170  1.00  0.00     0.016 A 
ATOM     28  C   UNL A   1      36.169  29.429  29.431  1.00  0.00     0.016 A 
ATOM     29  C   UNL A   1      38.063  29.653  27.422  1.00  0.00     0.010 A 
ATOM     30  C   UNL A   1      37.514  29.200  29.720  1.00  0.00     0.010 A 
ATOM     31  C   UNL A   1      38.481  29.279  28.715  1.00  0.00    -0.014 A 
BRANCH  31  32
ATOM     32  C   UNL A   1      39.918  28.986  28.987  1.00  0.00     0.031 A 
ATOM     33  C   UNL A   1      40.542  27.666  28.599  1.00  0.00     0.074 A 
ATOM     34  C   UNL A   1      40.684  29.930  29.577  1.00  0.00     0.049 A 
ATOM     35  N   UNL A   1      41.809  27.329  28.593  1.00  0.00    -0.248 NA
ATOM     36  C   UNL A   1      39.641  26.568  28.214  1.00  0.00     0.031 C 
ATOM     37  C   UNL A   1      40.190  31.190  30.141  1.00  0.00     0.029 A 
ATOM     38  N   UNL A   1      42.044  30.004  29.751  1.00  0.00    -0.354 N 
ATOM     39  C   UNL A   1      41.845  25.992  28.216  1.00  0.00     0.074 A 
ATOM     40  C   UNL A   1      40.477  25.550  28.089  1.00  0.00     0.031 C 
ATOM     41  C   UNL A   1      41.236  31.957  30.490  1.00  0.00     0.029 A 
ATOM     42  C   UNL A   1      42.470  31.239  30.189  1.00  0.00     0.049 A 
ATOM     43  H   UNL A   1      42.655  29.251  29.580  1.00  0.00     0.167 HD
ATOM     44  C   UNL A   1      42.918  25.210  27.941  1.00  0.00     0.037 A 
ATOM     45  C   UNL A   1      43.710  31.758  30.277  1.00  0.00     0.037 A 
ATOM     46  C   UNL A   1      44.277  25.668  28.000  1.00  0.00     0.049 A 
ATOM     47  C   UNL A   1      44.885  30.927  29.843  1.00  0.00     0.074 A 
ATOM     48  C   UNL A   1      45.434  24.986  27.669  1.00  0.00     0.029 A 
ATOM     49  N   UNL A   1      44.658  26.940  28.400  1.00  0.00    -0.354 N 
ATOM     50  N   UNL A   1      44.898  29.698  29.385  1.00  0.00    -0.248 NA
ATOM     51  C   UNL A   1      46.212  31.554  29.924  1.00  0.00     0.031 C 
ATOM     52  C   UNL A   1      46.520  25.845  27.878  1.00  0.00     0.029 A 
ATOM     53  C   UNL A   1      46.033  27.066  28.318  1.00  0.00     0.049 A 
ATOM     54  H   UNL A   1      44.043  27.648  28.697  1.00  0.00     0.167 HD
ATOM     55  C   UNL A   1      46.229  29.410  29.108  1.00  0.00     0.074 A 
ATOM     56  C   UNL A   1      46.992  30.597  29.436  1.00  0.00     0.031 C 
ATOM     57  C   UNL A   1      46.770  28.263  28.633  1.00  0.00     0.037 A 
BRANCH  44  58
ATOM     58  C   UNL A   1      42.648  23.801  27.493  1.00  0.00     0.058 A 
ATOM     59  C   UNL A   1      42.523  22.754  28.422  1.00  0.00     0.135 A 
ATOM     60  C   UNL A   1      42.509  23.487  26.132  1.00  0.00     0.135 A 
ATOM     61  F   UNL A   1      42.664  22.998  29.735  1.00  0.00    -0.206 F 
ATOM     62  C   UNL A   1      42.310  21.442  28.017  1.00  0.00     0.059 A 
ATOM     63  C   UNL A   1      42.268  22.183  25.705  1.00  0.00     0.059 A 
ATOM     64  F   UNL A   1      42.616  24.448  25.201  1.00  0.00    -0.206 F 
ATOM     65  C   UNL A   1      42.189  21.165  26.655  1.00  0.00     0.060 A 
BRANCH  65  66
ATOM     66  S   UNL A   1      41.927  19.453  26.146  1.00  0.00     0.124 S 
ATOM     67  O   UNL A   1      42.365  18.726  27.333  1.00  0.00    -0.237 OA
ATOM     68  O   UNL A   1      40.494  19.420  25.878  1.00  0.00    -0.237 OA
ATOM     69  O   UNL A   1      42.784  19.314  24.973  1.00  0.00    -0.744 OA
ENDBRANCH  65  66
ENDBRANCH  44  58
BRANCH  45  70
ATOM     70  C   UNL A   1      43.889  33.177  30.680  1.00  0.00     0.058 A 
ATOM     71  C   UNL A   1      43.760  34.208  29.735  1.00  0.00     0.135 A 
ATOM     72  C   UNL A   1      44.150  33.538  32.009  1.00  0.00     0.135 A 
ATOM     73  F   UNL A   1      43.510  33.911  28.451  1.00  0.00    -0.206 F 
ATOM     74  C   UNL A   1      43.896  35.545  30.090  1.00  0.00     0.059 A 
ATOM     75  C   UNL A   1      44.272  34.872  32.393  1.00  0.00     0.059 A 
ATOM     76  F   UNL A   1      44.261  32.590  32.953  1.00  0.00    -0.206 F 
ATOM     77  C   UNL A   1      44.150  35.868  31.424  1.00  0.00     0.060 A 
BRANCH  77  78
ATOM     78  S   UNL A   1      44.266  37.611  31.886  1.00  0.00     0.124 S 
ATOM     79  O   UNL A   1      43.805  38.267  30.668  1.00  0.00    -0.237 OA
ATOM     80  O   UNL A   1      43.366  37.687  33.032  1.00  0.00    -0.237 OA
ATOM     81  O   UNL A   1      45.682  37.780  32.198  1.00  0.00    -0.744 OA
ENDBRANCH  77  78
ENDBRANCH  45  70
BRANCH  57  82
ATOM     82  C   UNL A   1      48.255  28.226  28.426  1.00  0.00     0.058 A 
ATOM     83  C   UNL A   1      49.116  27.772  29.434  1.00  0.00     0.135 A 
ATOM     84  C   UNL A   1      48.809  28.548  27.177  1.00  0.00     0.135 A 
ATOM     85  F   UNL A   1      48.632  27.456  30.646  1.00  0.00    -0.206 F 
ATOM     86  C   UNL A   1      50.482  27.636  29.211  1.00  0.00     0.059 A 
ATOM     87  C   UNL A   1      50.169  28.404  26.927  1.00  0.00     0.059 A 
ATOM     88  F   UNL A   1      48.021  28.980  26.179  1.00  0.00    -0.206 F 
ATOM     89  C   UNL A   1      50.998  27.947  27.952  1.00  0.00     0.060 A 
BRANCH  89  90
ATOM     90  S   UNL A   1      52.760  27.694  27.654  1.00  0.00     0.124 S 
ATOM     91  O   UNL A   1      53.156  26.952  28.846  1.00  0.00    -0.237 OA
ATOM     92  O   UNL A   1      52.761  26.935  26.407  1.00  0.00    -0.237 OA
ATOM     93  O   UNL A   1      53.286  29.052  27.554  1.00  0.00    -0.744 OA
ENDBRANCH  89  90
ENDBRANCH  57  82
ENDBRANCH  31  32
ENDBRANCH  24  26
ENDBRANCH  23  24
ENDBRANCH   1  23
TORSDOF 16
ENDMDL
MODEL 2
REMARK VINA RESULT:     -11.5      0.721      1.456
REMARK SMILES C[C@H]1CC[C@@](C[C@@H]2CSc3ccccc32)(C(=O)OCCOC(=O)c2ccc(-c3c4nc(c(-c5c(F)cc(S(=O)(=O)[O-])cc5F)c5ccc([nH]5)c(-c5c(F)cc(S(=O)(=O)[O-])cc5F)c5nc(c(-c6c(F)cc(S(=O)(=O)[O-])cc6F)c6ccc3[nH]6)C=C5)C=C4)cc2)CC1
REMARK SMILES IDX 20 1 19 2 18 3 16 4 17 5 5 6 1 7 2 8 91 9 3 10 90 11 4 12
REMARK SMILES IDX 6 13 7 14 8 15 15 16 9 17 10 18 14 19 11 20 13 21 12 22
REMARK SMILES IDX 21 23 22 24 23 25 24 26 25 27 89 28 26 29 88 30 27 31 28 32
REMARK SMILES IDX 29 33 82 34 30 35 87 36 81 37 83 38 31 39 86 40 80 41 79 42
REMARK SMILES IDX 32 44 66 45 45 46 65 47 46 48 49 49 64 50 84 51 47 52 48 53
REMARK SMILES IDX 63 55 85 56 50 57 33 58 34 59 43 60 35 61 36 62 42 63 44 64
REMARK SMILES IDX 37 65 38 66 39 67 40 68 41 69 67 70 68 71 77 72 69 73 70 74
REMARK SMILES IDX 76 75 78 76 71 77 72 78 73 79 74 80 75 81 51 82 52 83 61 84
REMARK SMILES IDX 53 85 54 86 60 87 62 88 55 89 56 90 57 91 58 92 59 93
REMARK H PARENT 83 43 49 54
REMARK Flexibility Score: inf
ROOT
ATOM      1  C   UNL A   1      32.527  30.024  27.205  1.00  0.00     0.275 C 
ENDROOT
BRANCH   1   2
ATOM      2  C   UNL A   1      31.809  28.745  27.614  1.00  0.00     0.274 C 
BRANCH   2   3
ATOM      3  O   UNL A   1      32.534  27.583  27.155  1.00  0.00    -0.462 OA
BRANCH   3   4
ATOM      4  C   UNL A   1      31.871  26.741  26.317  1.00  0.00     0.312 C 
ATOM      5  O   UNL A   1      30.885  26.089  26.645  1.00  0.00    -0.252 OA
BRANCH   4   6
ATOM      6  C   UNL A   1      32.565  26.565  24.954  1.00  0.00     0.069 C 
ATOM      7  C   UNL A   1      30.159  29.009  22.070  1.00  0.00     0.007 C 
ATOM      8  C   UNL A   1      31.215  28.082  22.669  1.00  0.00    -0.014 C 
ATOM      9  C   UNL A   1      30.561  26.860  23.298  1.00  0.00     0.004 C 
ATOM     10  C   UNL A   1      32.022  28.804  23.744  1.00  0.00     0.004 C 
ATOM     11  C   UNL A   1      31.561  25.908  23.951  1.00  0.00     0.019 C 
ATOM     12  C   UNL A   1      33.086  27.881  24.336  1.00  0.00     0.019 C 
BRANCH   6  13
ATOM     13  C   UNL A   1      33.695  25.487  25.199  1.00  0.00     0.028 C 
BRANCH  13  14
ATOM     14  C   UNL A   1      33.443  23.960  25.109  1.00  0.00     0.032 C 
ATOM     15  C   UNL A   1      32.841  23.281  26.352  1.00  0.00     0.083 C 
ATOM     16  C   UNL A   1      34.665  23.181  24.698  1.00  0.00    -0.030 A 
ATOM     17  S   UNL A   1      34.092  22.172  27.075  1.00  0.00    -0.125 SA
ATOM     18  C   UNL A   1      35.141  22.285  25.657  1.00  0.00     0.011 A 
ATOM     19  C   UNL A   1      35.382  23.400  23.522  1.00  0.00     0.005 A 
ATOM     20  C   UNL A   1      36.372  21.667  25.501  1.00  0.00     0.015 A 
ATOM     21  C   UNL A   1      36.618  22.779  23.357  1.00  0.00     0.000 A 
ATOM     22  C   UNL A   1      37.120  21.930  24.350  1.00  0.00     0.001 A 
ENDBRANCH  13  14
ENDBRANCH   6  13
ENDBRANCH   4   6
ENDBRANCH   3   4
ENDBRANCH   2   3
ENDBRANCH   1   2
BRANCH   1  23
ATOM     23  O   UNL A   1      33.939  29.789  27.277  1.00  0.00    -0.458 OA
BRANCH  23  24
ATOM     24  C   UNL A   1      34.628  30.571  28.138  1.00  0.00     0.338 C 
ATOM     25  O   UNL A   1      34.217  31.564  28.714  1.00  0.00    -0.246 OA
BRANCH  24  26
ATOM     26  C   UNL A   1      35.984  30.014  28.331  1.00  0.00     0.060 A 
ATOM     27  C   UNL A   1      36.908  30.094  27.293  1.00  0.00     0.016 A 
ATOM     28  C   UNL A   1      36.388  29.538  29.578  1.00  0.00     0.016 A 
ATOM     29  C   UNL A   1      38.230  29.696  27.515  1.00  0.00     0.010 A 
ATOM     30  C   UNL A   1      37.736  29.288  29.833  1.00  0.00     0.010 A 
ATOM     31  C   UNL A   1      38.676  29.333  28.801  1.00  0.00    -0.014 A 
BRANCH  31  32
ATOM     32  C   UNL A   1      40.115  29.017  29.037  1.00  0.00     0.031 A 
ATOM     33  C   UNL A   1      40.707  27.687  28.634  1.00  0.00     0.074 A 
ATOM     34  C   UNL A   1      40.910  29.948  29.608  1.00  0.00     0.049 A 
ATOM     35  N   UNL A   1      41.968  27.329  28.597  1.00  0.00    -0.248 NA
ATOM     36  C   UNL A   1      39.779  26.604  28.271  1.00  0.00     0.031 C 
ATOM     37  C   UNL A   1      40.451  31.215  30.185  1.00  0.00     0.029 A 
ATOM     38  N   UNL A   1      42.275  29.999  29.749  1.00  0.00    -0.354 N 
ATOM     39  C   UNL A   1      41.973  25.991  28.219  1.00  0.00     0.074 A 
ATOM     40  C   UNL A   1      40.595  25.572  28.126  1.00  0.00     0.031 C 
ATOM     41  C   UNL A   1      41.518  31.965  30.508  1.00  0.00     0.029 A 
ATOM     42  C   UNL A   1      42.731  31.227  30.176  1.00  0.00     0.049 A 
ATOM     43  H   UNL A   1      42.869  29.237  29.563  1.00  0.00     0.167 HD
ATOM     44  C   UNL A   1      43.025  25.192  27.918  1.00  0.00     0.037 A 
ATOM     45  C   UNL A   1      43.982  31.725  30.234  1.00  0.00     0.037 A 
ATOM     46  C   UNL A   1      44.393  25.628  27.943  1.00  0.00     0.049 A 
ATOM     47  C   UNL A   1      45.132  30.876  29.772  1.00  0.00     0.074 A 
ATOM     48  C   UNL A   1      45.531  24.928  27.584  1.00  0.00     0.029 A 
ATOM     49  N   UNL A   1      44.805  26.893  28.334  1.00  0.00    -0.354 N 
ATOM     50  N   UNL A   1      45.114  29.646  29.313  1.00  0.00    -0.248 NA
ATOM     51  C   UNL A   1      46.471  31.480  29.820  1.00  0.00     0.031 C 
ATOM     52  C   UNL A   1      46.635  25.769  27.767  1.00  0.00     0.029 A 
ATOM     53  C   UNL A   1      46.179  26.997  28.218  1.00  0.00     0.049 A 
ATOM     54  H   UNL A   1      44.209  27.612  28.646  1.00  0.00     0.167 HD
ATOM     55  C   UNL A   1      46.433  29.337  29.004  1.00  0.00     0.074 A 
ATOM     56  C   UNL A   1      47.223  30.511  29.313  1.00  0.00     0.031 C 
ATOM     57  C   UNL A   1      46.943  28.181  28.516  1.00  0.00     0.037 A 
BRANCH  44  58
ATOM     58  C   UNL A   1      42.722  23.788  27.476  1.00  0.00     0.058 A 
ATOM     59  C   UNL A   1      42.562  22.751  28.411  1.00  0.00     0.135 A 
ATOM     60  C   UNL A   1      42.585  23.470  26.116  1.00  0.00     0.135 A 
ATOM     61  F   UNL A   1      42.699  22.999  29.724  1.00  0.00    -0.206 F 
ATOM     62  C   UNL A   1      42.317  21.443  28.013  1.00  0.00     0.059 A 
ATOM     63  C   UNL A   1      42.313  22.170  25.696  1.00  0.00     0.059 A 
ATOM     64  F   UNL A   1      42.725  24.421  25.180  1.00  0.00    -0.206 F 
ATOM     65  C   UNL A   1      42.200  21.159  26.652  1.00  0.00     0.060 A 
BRANCH  65  66
ATOM     66  S   UNL A   1      41.896  19.452  26.151  1.00  0.00     0.124 S 
ATOM     67  O   UNL A   1      40.461  19.476  25.892  1.00  0.00    -0.237 OA
ATOM     68  O   UNL A   1      42.749  19.312  24.976  1.00  0.00    -0.237 OA
ATOM     69  O   UNL A   1      42.311  18.679  27.317  1.00  0.00    -0.744 OA
ENDBRANCH  65  66
ENDBRANCH  44  58
BRANCH  45  70
ATOM     70  C   UNL A   1      44.194  33.141  30.633  1.00  0.00     0.058 A 
ATOM     71  C   UNL A   1      44.478  33.470  31.968  1.00  0.00     0.135 A 
ATOM     72  C   UNL A   1      44.158  34.184  29.696  1.00  0.00     0.135 A 
ATOM     73  F   UNL A   1      44.523  32.507  32.899  1.00  0.00    -0.206 F 
ATOM     74  C   UNL A   1      44.706  34.784  32.363  1.00  0.00     0.059 A 
ATOM     75  C   UNL A   1      44.401  35.505  30.064  1.00  0.00     0.059 A 
ATOM     76  F   UNL A   1      43.912  33.917  28.403  1.00  0.00    -0.206 F 
ATOM     77  C   UNL A   1      44.668  35.795  31.402  1.00  0.00     0.060 A 
BRANCH  77  78
ATOM     78  S   UNL A   1      45.024  37.491  31.915  1.00  0.00     0.124 S 
ATOM     79  O   UNL A   1      45.936  37.273  33.033  1.00  0.00    -0.237 OA
ATOM     80  O   UNL A   1      45.617  38.060  30.709  1.00  0.00    -0.237 OA
ATOM     81  O   UNL A   1      43.709  38.017  32.266  1.00  0.00    -0.744 OA
ENDBRANCH  77  78
ENDBRANCH  45  70
BRANCH  57  82
ATOM     82  C   UNL A   1      48.422  28.120  28.272  1.00  0.00     0.058 A 
ATOM     83  C   UNL A   1      49.302  27.676  29.268  1.00  0.00     0.135 A 
ATOM     84  C   UNL A   1      48.947  28.408  27.003  1.00  0.00     0.135 A 
ATOM     85  F   UNL A   1      48.845  27.393  30.497  1.00  0.00    -0.206 F 
ATOM     86  C   UNL A   1      50.660  27.517  29.013  1.00  0.00     0.059 A 
ATOM     87  C   UNL A   1      50.299  28.241  26.722  1.00  0.00     0.059 A 
ATOM     88  F   UNL A   1      48.140  28.829  26.016  1.00  0.00    -0.206 F 
ATOM     89  C   UNL A   1      51.148  27.795  27.735  1.00  0.00     0.060 A 
BRANCH  89  90
ATOM     90  S   UNL A   1      52.898  27.512  27.398  1.00  0.00     0.124 S 
ATOM     91  O   UNL A   1      53.317  28.818  26.902  1.00  0.00    -0.237 OA
ATOM     92  O   UNL A   1      53.414  27.138  28.712  1.00  0.00    -0.237 OA
ATOM     93  O   UNL A   1      52.884  26.438  26.409  1.00  0.00    -0.744 OA
ENDBRANCH  89  90
ENDBRANCH  57  82
ENDBRANCH  31  32
ENDBRANCH  24  26
ENDBRANCH  23  24
ENDBRANCH   1  23
TORSDOF 16
ENDMDL
MODEL 3
REMARK VINA RESULT:     -11.3      1.046      1.982
REMARK SMILES C[C@H]1CC[C@@](C[C@@H]2CSc3ccccc32)(C(=O)OCCOC(=O)c2ccc(-c3c4nc(c(-c5c(F)cc(S(=O)(=O)[O-])cc5F)c5ccc([nH]5)c(-c5c(F)cc(S(=O)(=O)[O-])cc5F)c5nc(c(-c6c(F)cc(S(=O)(=O)[O-])cc6F)c6ccc3[nH]6)C=C5)C=C4)cc2)CC1
REMARK SMILES IDX 20 1 19 2 18 3 16 4 17 5 5 6 1 7 2 8 91 9 3 10 90 11 4 12
REMARK SMILES IDX 6 13 7 14 8 15 15 16 9 17 10 18 14 19 11 20 13 21 12 22
REMARK SMILES IDX 21 23 22 24 23 25 24 26 25 27 89 28 26 29 88 30 27 31 28 32
REMARK SMILES IDX 29 33 82 34 30 35 87 36 81 37 83 38 31 39 86 40 80 41 79 42
REMARK SMILES IDX 32 44 66 45 45 46 65 47 46 48 49 49 64 50 84 51 47 52 48 53
REMARK SMILES IDX 63 55 85 56 50 57 33 58 34 59 43 60 35 61 36 62 42 63 44 64
REMARK SMILES IDX 37 65 38 66 39 67 40 68 41 69 67 70 68 71 77 72 69 73 70 74
REMARK SMILES IDX 76 75 78 76 71 77 72 78 73 79 74 80 75 81 51 82 52 83 61 84
REMARK SMILES IDX 53 85 54 86 60 87 62 88 55 89 56 90 57 91 58 92 59 93
REMARK H PARENT 83 43 49 54
REMARK Flexibility Score: inf
ROOT
ATOM      1  C   UNL A   1      32.479  29.917  26.993  1.00  0.00     0.275 C 
ENDROOT
BRANCH   1   2
ATOM      2  C   UNL A   1      31.551  28.724  27.179  1.00  0.00     0.274 C 
BRANCH   2   3
ATOM      3  O   UNL A   1      32.031  27.582  26.436  1.00  0.00    -0.462 OA
BRANCH   3   4
ATOM      4  C   UNL A   1      31.094  26.699  25.999  1.00  0.00     0.312 C 
ATOM      5  O   UNL A   1      30.318  26.106  26.742  1.00  0.00    -0.252 OA
BRANCH   4   6
ATOM      6  C   UNL A   1      31.196  26.394  24.494  1.00  0.00     0.069 C 
ATOM      7  C   UNL A   1      28.816  29.604  22.467  1.00  0.00     0.007 C 
ATOM      8  C   UNL A   1      29.679  28.369  22.722  1.00  0.00    -0.014 C 
ATOM      9  C   UNL A   1      28.940  27.372  23.602  1.00  0.00     0.004 C 
ATOM     10  C   UNL A   1      30.981  28.753  23.418  1.00  0.00     0.004 C 
ATOM     11  C   UNL A   1      29.762  26.127  23.929  1.00  0.00     0.019 C 
ATOM     12  C   UNL A   1      31.850  27.521  23.664  1.00  0.00     0.019 C 
BRANCH   6  13
ATOM     13  C   UNL A   1      31.959  25.013  24.400  1.00  0.00     0.028 C 
BRANCH  13  14
ATOM     14  C   UNL A   1      33.448  24.838  24.797  1.00  0.00     0.032 C 
ATOM     15  C   UNL A   1      34.455  24.655  23.648  1.00  0.00     0.083 C 
ATOM     16  C   UNL A   1      33.671  23.731  25.794  1.00  0.00    -0.030 A 
ATOM     17  S   UNL A   1      35.119  22.961  23.720  1.00  0.00    -0.125 SA
ATOM     18  C   UNL A   1      34.450  22.671  25.330  1.00  0.00     0.011 A 
ATOM     19  C   UNL A   1      33.055  23.660  27.044  1.00  0.00     0.005 A 
ATOM     20  C   UNL A   1      34.554  21.496  26.058  1.00  0.00     0.015 A 
ATOM     21  C   UNL A   1      33.159  22.483  27.782  1.00  0.00     0.000 A 
ATOM     22  C   UNL A   1      33.890  21.399  27.284  1.00  0.00     0.001 A 
ENDBRANCH  13  14
ENDBRANCH   6  13
ENDBRANCH   4   6
ENDBRANCH   3   4
ENDBRANCH   2   3
ENDBRANCH   1   2
BRANCH   1  23
ATOM     23  O   UNL A   1      33.803  29.519  27.370  1.00  0.00    -0.458 OA
BRANCH  23  24
ATOM     24  C   UNL A   1      34.537  30.447  28.024  1.00  0.00     0.338 C 
ATOM     25  O   UNL A   1      34.157  31.534  28.423  1.00  0.00    -0.246 OA
BRANCH  24  26
ATOM     26  C   UNL A   1      35.906  29.929  28.238  1.00  0.00     0.060 A 
ATOM     27  C   UNL A   1      36.840  30.024  27.210  1.00  0.00     0.016 A 
ATOM     28  C   UNL A   1      36.308  29.476  29.495  1.00  0.00     0.016 A 
ATOM     29  C   UNL A   1      38.169  29.664  27.452  1.00  0.00     0.010 A 
ATOM     30  C   UNL A   1      37.659  29.265  29.768  1.00  0.00     0.010 A 
ATOM     31  C   UNL A   1      38.610  29.325  28.747  1.00  0.00    -0.014 A 
BRANCH  31  32
ATOM     32  C   UNL A   1      40.053  29.051  29.003  1.00  0.00     0.031 A 
ATOM     33  C   UNL A   1      40.684  27.731  28.628  1.00  0.00     0.074 A 
ATOM     34  C   UNL A   1      40.818  30.011  29.568  1.00  0.00     0.049 A 
ATOM     35  N   UNL A   1      41.954  27.406  28.610  1.00  0.00    -0.248 NA
ATOM     36  C   UNL A   1      39.789  26.618  28.273  1.00  0.00     0.031 C 
ATOM     37  C   UNL A   1      40.320  31.275  30.119  1.00  0.00     0.029 A 
ATOM     38  N   UNL A   1      42.180  30.101  29.722  1.00  0.00    -0.354 N 
ATOM     39  C   UNL A   1      41.998  26.062  28.254  1.00  0.00     0.074 A 
ATOM     40  C   UNL A   1      40.633  25.606  28.153  1.00  0.00     0.031 C 
ATOM     41  C   UNL A   1      41.363  32.058  30.441  1.00  0.00     0.029 A 
ATOM     42  C   UNL A   1      42.599  31.346  30.134  1.00  0.00     0.049 A 
ATOM     43  H   UNL A   1      42.795  29.351  29.555  1.00  0.00     0.167 HD
ATOM     44  C   UNL A   1      43.074  25.287  27.977  1.00  0.00     0.037 A 
ATOM     45  C   UNL A   1      43.836  31.878  30.197  1.00  0.00     0.037 A 
ATOM     46  C   UNL A   1      44.430  25.759  28.009  1.00  0.00     0.049 A 
ATOM     47  C   UNL A   1      45.013  31.052  29.761  1.00  0.00     0.074 A 
ATOM     48  C   UNL A   1      45.589  25.082  27.674  1.00  0.00     0.029 A 
ATOM     49  N   UNL A   1      44.805  27.040  28.384  1.00  0.00    -0.354 N 
ATOM     50  N   UNL A   1      45.031  29.815  29.321  1.00  0.00    -0.248 NA
ATOM     51  C   UNL A   1      46.335  31.692  29.813  1.00  0.00     0.031 C 
ATOM     52  C   UNL A   1      46.669  25.955  27.854  1.00  0.00     0.029 A 
ATOM     53  C   UNL A   1      46.176  27.178  28.281  1.00  0.00     0.049 A 
ATOM     54  H   UNL A   1      44.186  27.747  28.678  1.00  0.00     0.167 HD
ATOM     55  C   UNL A   1      46.361  29.535  29.031  1.00  0.00     0.074 A 
ATOM     56  C   UNL A   1      47.117  30.735  29.330  1.00  0.00     0.031 C 
ATOM     57  C   UNL A   1      46.907  28.386  28.567  1.00  0.00     0.037 A 
BRANCH  44  58
ATOM     58  C   UNL A   1      42.813  23.868  27.554  1.00  0.00     0.058 A 
ATOM     59  C   UNL A   1      42.665  23.529  26.199  1.00  0.00     0.135 A 
ATOM     60  C   UNL A   1      42.713  22.836  28.501  1.00  0.00     0.135 A 
ATOM     61  F   UNL A   1      42.736  24.481  25.254  1.00  0.00    -0.206 F 
ATOM     62  C   UNL A   1      42.388  22.228  25.799  1.00  0.00     0.059 A 
ATOM     63  C   UNL A   1      42.462  21.520  28.120  1.00  0.00     0.059 A 
ATOM     64  F   UNL A   1      42.848  23.102  29.809  1.00  0.00    -0.206 F 
ATOM     65  C   UNL A   1      42.282  21.230  26.768  1.00  0.00     0.060 A 
BRANCH  65  66
ATOM     66  S   UNL A   1      41.907  19.547  26.232  1.00  0.00     0.124 S 
ATOM     67  O   UNL A   1      42.350  18.770  27.385  1.00  0.00    -0.237 OA
ATOM     68  O   UNL A   1      40.464  19.599  26.021  1.00  0.00    -0.237 OA
ATOM     69  O   UNL A   1      42.708  19.390  25.023  1.00  0.00    -0.744 OA
ENDBRANCH  65  66
ENDBRANCH  44  58
BRANCH  45  70
ATOM     70  C   UNL A   1      44.006  33.306  30.575  1.00  0.00     0.058 A 
ATOM     71  C   UNL A   1      43.887  34.317  29.609  1.00  0.00     0.135 A 
ATOM     72  C   UNL A   1      44.251  33.693  31.900  1.00  0.00     0.135 A 
ATOM     73  F   UNL A   1      43.653  33.995  28.328  1.00  0.00    -0.206 F 
ATOM     74  C   UNL A   1      44.015  35.662  29.940  1.00  0.00     0.059 A 
ATOM     75  C   UNL A   1      44.365  35.033  32.260  1.00  0.00     0.059 A 
ATOM     76  F   UNL A   1      44.352  32.763  32.863  1.00  0.00    -0.206 F 
ATOM     77  C   UNL A   1      44.252  36.010  31.271  1.00  0.00     0.060 A 
BRANCH  77  78
ATOM     78  S   UNL A   1      44.359  37.762  31.700  1.00  0.00     0.124 S 
ATOM     79  O   UNL A   1      45.795  37.928  31.899  1.00  0.00    -0.237 OA
ATOM     80  O   UNL A   1      43.801  38.405  30.515  1.00  0.00    -0.237 OA
ATOM     81  O   UNL A   1      43.539  37.862  32.903  1.00  0.00    -0.744 OA
ENDBRANCH  77  78
ENDBRANCH  45  70
BRANCH  57  82
ATOM     82  C   UNL A   1      48.389  28.360  28.340  1.00  0.00     0.058 A 
ATOM     83  C   UNL A   1      48.933  28.638  27.079  1.00  0.00     0.135 A 
ATOM     84  C   UNL A   1      49.271  28.157  29.412  1.00  0.00     0.135 A 
ATOM     85  F   UNL A   1      48.128  28.835  26.023  1.00  0.00    -0.206 F 
ATOM     86  C   UNL A   1      50.308  28.719  26.887  1.00  0.00     0.059 A 
ATOM     87  C   UNL A   1      50.649  28.249  29.246  1.00  0.00     0.059 A 
ATOM     88  F   UNL A   1      48.794  27.895  30.640  1.00  0.00    -0.206 F 
ATOM     89  C   UNL A   1      51.157  28.530  27.978  1.00  0.00     0.060 A 
BRANCH  89  90
ATOM     90  S   UNL A   1      52.936  28.713  27.730  1.00  0.00     0.124 S 
ATOM     91  O   UNL A   1      53.468  27.782  28.719  1.00  0.00    -0.237 OA
ATOM     92  O   UNL A   1      53.100  28.318  26.335  1.00  0.00    -0.237 OA
ATOM     93  O   UNL A   1      53.173  30.127  28.006  1.00  0.00    -0.744 OA
ENDBRANCH  89  90
ENDBRANCH  57  82
ENDBRANCH  31  32
ENDBRANCH  24  26
ENDBRANCH  23  24
ENDBRANCH   1  23
TORSDOF 16
ENDMDL
