MODEL 1
REMARK VINA RESULT:     -12.1      0.000      0.000
REMARK SMILES C=C[C@@H]1[C@@H](O)C[C@H]2[C@]3(CC[C@]4(C)[C@@H]([C@H](C)CCC=C(C)C)CC[C@]24C)C[C@]13CCC(=O)OCCOC(=O)c1ccc(-c2c3nc(c(-c4c(F)cc(S(=O)(=O)[O-])cc4F)c4ccc([nH]4)c(-c4c(F)cc(S(=O)(=O)[O-])cc4F)c4nc(c(-c5c(F)cc(S(=O)(=O)[O-])cc5F)c5ccc2[nH]5)C=C4)C=C3)cc1
REMARK SMILES IDX 32 1 30 2 31 3 29 4 28 5 27 6 3 7 4 8 6 9 8 10 26 11 7 12
REMARK SMILES IDX 9 13 24 14 10 15 11 16 23 17 25 18 13 19 12 20 22 21 2 22
REMARK SMILES IDX 1 23 5 24 14 26 15 27 16 28 17 29 18 30 19 31 20 32 21 33
REMARK SMILES IDX 33 34 34 35 35 36 36 37 37 38 38 39 39 40 103 41 40 42
REMARK SMILES IDX 102 43 41 44 42 45 43 46 96 47 44 48 101 49 95 50 97 51
REMARK SMILES IDX 45 52 100 53 94 54 93 55 46 57 80 58 59 59 79 60 60 61 63 62
REMARK SMILES IDX 78 63 98 64 61 65 62 66 77 68 99 69 64 70 47 71 48 72 57 73
REMARK SMILES IDX 49 74 50 75 56 76 58 77 51 78 52 79 53 80 54 81 55 82 81 83
REMARK SMILES IDX 82 84 91 85 83 86 84 87 90 88 92 89 85 90 86 91 87 92 88 93
REMARK SMILES IDX 89 94 65 95 66 96 75 97 67 98 68 99 74 100 76 101 69 102
REMARK SMILES IDX 70 103 71 104 72 105 73 106
REMARK H PARENT 5 25 97 56 63 67
REMARK Flexibility Score: inf
ROOT
ATOM      1  O   UNL A   1      33.797  31.176  27.432  1.00  0.00    -0.462 OA
ENDROOT
BRANCH   1   2
ATOM      2  C   UNL A   1      32.520  30.896  27.089  1.00  0.00     0.305 C 
ATOM      3  O   UNL A   1      31.669  31.732  26.807  1.00  0.00    -0.252 OA
BRANCH   2   4
ATOM      4  C   UNL A   1      32.222  29.415  27.087  1.00  0.00     0.123 C 
BRANCH   4   5
ATOM      5  C   UNL A   1      32.862  28.606  25.959  1.00  0.00     0.020 C 
BRANCH   5   6
ATOM      6  C   UNL A   1      31.915  27.904  24.976  1.00  0.00    -0.014 C 
ATOM      7  C   UNL A   1      31.643  28.707  23.677  1.00  0.00     0.047 C 
ATOM      8  C   UNL A   1      31.854  27.897  22.379  1.00  0.00     0.122 C 
ATOM      9  C   UNL A   1      31.418  26.443  22.504  1.00  0.00     0.037 C 
ATOM     10  C   UNL A   1      32.029  26.350  24.973  1.00  0.00    -0.019 C 
ATOM     11  C   UNL A   1      30.767  27.010  25.448  1.00  0.00     0.016 C 
ATOM     12  C   UNL A   1      32.227  25.711  23.597  1.00  0.00     0.005 C 
ATOM     13  C   UNL A   1      32.774  25.628  26.085  1.00  0.00     0.008 C 
ATOM     14  C   UNL A   1      32.061  24.135  23.580  1.00  0.00    -0.023 C 
ATOM     15  C   UNL A   1      32.433  24.148  26.086  1.00  0.00     0.008 C 
ATOM     16  C   UNL A   1      32.822  23.430  24.788  1.00  0.00    -0.024 C 
ATOM     17  C   UNL A   1      32.835  23.561  22.368  1.00  0.00     0.008 C 
ATOM     18  C   UNL A   1      30.571  23.735  23.492  1.00  0.00     0.012 C 
ATOM     19  C   UNL A   1      34.328  23.584  24.367  1.00  0.00    -0.002 C 
ATOM     20  C   UNL A   1      32.418  21.946  24.943  1.00  0.00     0.012 C 
ATOM     21  C   UNL A   1      34.277  23.331  22.835  1.00  0.00     0.005 C 
BRANCH   7  22
ATOM     22  C   UNL A   1      30.275  29.379  23.683  1.00  0.00    -0.028 C 
ATOM     23  C   UNL A   1      30.043  30.666  23.975  1.00  0.00     0.004 C 
ENDBRANCH   7  22
BRANCH   8  24
ATOM     24  O   UNL A   1      33.230  27.929  21.970  1.00  0.00    -0.392 OA
ATOM     25  H   UNL A   1      33.539  28.848  21.948  1.00  0.00     0.210 HD
ENDBRANCH   8  24
BRANCH  19  26
ATOM     26  C   UNL A   1      35.543  22.845  25.017  1.00  0.00    -0.010 C 
ATOM     27  C   UNL A   1      36.820  23.648  25.269  1.00  0.00     0.008 C 
BRANCH  26  28
ATOM     28  C   UNL A   1      35.823  21.371  24.600  1.00  0.00     0.008 C 
BRANCH  28  29
ATOM     29  C   UNL A   1      35.229  20.128  25.280  1.00  0.00     0.027 C 
BRANCH  29  30
ATOM     30  C   UNL A   1      35.214  18.828  24.528  1.00  0.00    -0.028 C 
ATOM     31  C   UNL A   1      34.112  18.082  24.304  1.00  0.00    -0.080 C 
ATOM     32  C   UNL A   1      34.151  16.897  23.378  1.00  0.00     0.039 C 
ATOM     33  C   UNL A   1      32.767  18.366  24.916  1.00  0.00     0.039 C 
ENDBRANCH  29  30
ENDBRANCH  28  29
ENDBRANCH  26  28
ENDBRANCH  19  26
ENDBRANCH   5   6
ENDBRANCH   4   5
ENDBRANCH   2   4
ENDBRANCH   1   2
BRANCH   1  34
ATOM     34  C   UNL A   1      34.074  32.470  27.989  1.00  0.00     0.274 C 
BRANCH  34  35
ATOM     35  C   UNL A   1      34.886  32.312  29.273  1.00  0.00     0.275 C 
BRANCH  35  36
ATOM     36  O   UNL A   1      35.530  31.026  29.297  1.00  0.00    -0.458 OA
BRANCH  36  37
ATOM     37  C   UNL A   1      36.282  30.774  30.395  1.00  0.00     0.338 C 
ATOM     38  O   UNL A   1      35.937  30.816  31.562  1.00  0.00    -0.246 OA
BRANCH  37  39
ATOM     39  C   UNL A   1      37.586  30.258  29.959  1.00  0.00     0.060 A 
ATOM     40  C   UNL A   1      38.496  29.880  30.946  1.00  0.00     0.016 A 
ATOM     41  C   UNL A   1      37.938  30.201  28.613  1.00  0.00     0.016 A 
ATOM     42  C   UNL A   1      39.765  29.433  30.602  1.00  0.00     0.010 A 
ATOM     43  C   UNL A   1      39.216  29.748  28.264  1.00  0.00     0.010 A 
ATOM     44  C   UNL A   1      40.138  29.366  29.256  1.00  0.00    -0.014 A 
BRANCH  44  45
ATOM     45  C   UNL A   1      41.517  28.965  28.895  1.00  0.00     0.031 A 
ATOM     46  C   UNL A   1      42.607  29.998  28.896  1.00  0.00     0.074 A 
ATOM     47  C   UNL A   1      41.790  27.682  28.585  1.00  0.00     0.049 A 
ATOM     48  N   UNL A   1      43.832  29.908  28.453  1.00  0.00    -0.248 NA
ATOM     49  C   UNL A   1      42.268  31.313  29.468  1.00  0.00     0.031 C 
ATOM     50  C   UNL A   1      40.825  26.580  28.616  1.00  0.00     0.029 A 
ATOM     51  N   UNL A   1      42.956  27.089  28.174  1.00  0.00    -0.354 N 
ATOM     52  C   UNL A   1      44.397  31.163  28.648  1.00  0.00     0.074 A 
ATOM     53  C   UNL A   1      43.383  31.997  29.256  1.00  0.00     0.031 C 
ATOM     54  C   UNL A   1      41.437  25.450  28.231  1.00  0.00     0.029 A 
ATOM     55  C   UNL A   1      42.817  25.756  27.867  1.00  0.00     0.049 A 
ATOM     56  H   UNL A   1      43.812  27.573  28.104  1.00  0.00     0.167 HD
ATOM     57  C   UNL A   1      45.648  31.576  28.339  1.00  0.00     0.037 A 
ATOM     58  C   UNL A   1      43.691  24.893  27.312  1.00  0.00     0.037 A 
ATOM     59  C   UNL A   1      46.657  30.719  27.771  1.00  0.00     0.049 A 
ATOM     60  C   UNL A   1      45.064  25.387  26.945  1.00  0.00     0.074 A 
ATOM     61  C   UNL A   1      47.961  31.033  27.429  1.00  0.00     0.029 A 
ATOM     62  N   UNL A   1      46.476  29.376  27.472  1.00  0.00    -0.354 N 
ATOM     63  N   UNL A   1      45.577  26.585  27.099  1.00  0.00    -0.248 NA
ATOM     64  C   UNL A   1      45.975  24.419  26.318  1.00  0.00     0.031 C 
ATOM     65  C   UNL A   1      48.558  29.889  26.891  1.00  0.00     0.029 A 
ATOM     66  C   UNL A   1      47.640  28.851  26.938  1.00  0.00     0.049 A 
ATOM     67  H   UNL A   1      45.644  28.872  27.617  1.00  0.00     0.167 HD
ATOM     68  C   UNL A   1      46.874  26.511  26.605  1.00  0.00     0.074 A 
ATOM     69  C   UNL A   1      47.074  25.146  26.163  1.00  0.00     0.031 C 
ATOM     70  C   UNL A   1      47.815  27.483  26.520  1.00  0.00     0.037 A 
BRANCH  57  71
ATOM     71  C   UNL A   1      45.991  33.020  28.572  1.00  0.00     0.058 A 
ATOM     72  C   UNL A   1      45.770  34.006  27.599  1.00  0.00     0.135 A 
ATOM     73  C   UNL A   1      46.502  33.429  29.816  1.00  0.00     0.135 A 
ATOM     74  F   UNL A   1      45.306  33.665  26.386  1.00  0.00    -0.206 F 
ATOM     75  C   UNL A   1      46.051  35.346  27.846  1.00  0.00     0.059 A 
ATOM     76  C   UNL A   1      46.768  34.766  30.093  1.00  0.00     0.059 A 
ATOM     77  F   UNL A   1      46.739  32.525  30.779  1.00  0.00    -0.206 F 
ATOM     78  C   UNL A   1      46.546  35.717  29.099  1.00  0.00     0.060 A 
BRANCH  78  79
ATOM     79  S   UNL A   1      46.876  37.464  29.417  1.00  0.00     0.124 S 
ATOM     80  O   UNL A   1      45.567  37.932  29.858  1.00  0.00    -0.237 OA
ATOM     81  O   UNL A   1      47.909  37.405  30.447  1.00  0.00    -0.237 OA
ATOM     82  O   UNL A   1      47.318  37.968  28.119  1.00  0.00    -0.744 OA
ENDBRANCH  78  79
ENDBRANCH  57  71
BRANCH  58  83
ATOM     83  C   UNL A   1      43.279  23.494  27.016  1.00  0.00     0.058 A 
ATOM     84  C   UNL A   1      43.175  22.535  28.033  1.00  0.00     0.135 A 
ATOM     85  C   UNL A   1      42.997  23.084  25.702  1.00  0.00     0.135 A 
ATOM     86  F   UNL A   1      43.443  22.873  29.303  1.00  0.00    -0.206 F 
ATOM     87  C   UNL A   1      42.829  21.214  27.759  1.00  0.00     0.059 A 
ATOM     88  C   UNL A   1      42.623  21.777  25.406  1.00  0.00     0.059 A 
ATOM     89  F   UNL A   1      43.071  23.964  24.692  1.00  0.00    -0.206 F 
ATOM     90  C   UNL A   1      42.557  20.845  26.440  1.00  0.00     0.060 A 
BRANCH  90  91
ATOM     91  S   UNL A   1      42.085  19.137  26.092  1.00  0.00     0.124 S 
ATOM     92  O   UNL A   1      42.413  18.480  27.352  1.00  0.00    -0.237 OA
ATOM     93  O   UNL A   1      40.662  19.263  25.789  1.00  0.00    -0.237 OA
ATOM     94  O   UNL A   1      42.929  18.783  24.954  1.00  0.00    -0.744 OA
ENDBRANCH  90  91
ENDBRANCH  58  83
BRANCH  70  95
ATOM     95  C   UNL A   1      49.155  27.093  25.965  1.00  0.00     0.058 A 
ATOM     96  C   UNL A   1      49.453  27.226  24.600  1.00  0.00     0.135 A 
ATOM     97  C   UNL A   1      50.169  26.632  26.819  1.00  0.00     0.135 A 
ATOM     98  F   UNL A   1      48.514  27.657  23.743  1.00  0.00    -0.206 F 
ATOM     99  C   UNL A   1      50.706  26.893  24.097  1.00  0.00     0.059 A 
ATOM    100  C   UNL A   1      51.435  26.317  26.342  1.00  0.00     0.059 A 
ATOM    101  F   UNL A   1      49.936  26.499  28.135  1.00  0.00    -0.206 F 
ATOM    102  C   UNL A   1      51.691  26.439  24.976  1.00  0.00     0.060 A 
BRANCH 102 103
ATOM    103  S   UNL A   1      53.324  26.043  24.318  1.00  0.00     0.124 S 
ATOM    104  O   UNL A   1      54.161  27.024  24.999  1.00  0.00    -0.237 OA
ATOM    105  O   UNL A   1      53.505  24.656  24.736  1.00  0.00    -0.237 OA
ATOM    106  O   UNL A   1      53.166  26.241  22.880  1.00  0.00    -0.744 OA
ENDBRANCH 102 103
ENDBRANCH  70  95
ENDBRANCH  44  45
ENDBRANCH  37  39
ENDBRANCH  36  37
ENDBRANCH  35  36
ENDBRANCH  34  35
ENDBRANCH   1  34
TORSDOF 22
ENDMDL
MODEL 2
REMARK VINA RESULT:     -11.7      0.882      7.807
REMARK SMILES C=C[C@@H]1[C@@H](O)C[C@H]2[C@]3(CC[C@]4(C)[C@@H]([C@H](C)CCC=C(C)C)CC[C@]24C)C[C@]13CCC(=O)OCCOC(=O)c1ccc(-c2c3nc(c(-c4c(F)cc(S(=O)(=O)[O-])cc4F)c4ccc([nH]4)c(-c4c(F)cc(S(=O)(=O)[O-])cc4F)c4nc(c(-c5c(F)cc(S(=O)(=O)[O-])cc5F)c5ccc2[nH]5)C=C4)C=C3)cc1
REMARK SMILES IDX 32 1 30 2 31 3 29 4 28 5 27 6 3 7 4 8 6 9 8 10 26 11 7 12
REMARK SMILES IDX 9 13 24 14 10 15 11 16 23 17 25 18 13 19 12 20 22 21 2 22
REMARK SMILES IDX 1 23 5 24 14 26 15 27 16 28 17 29 18 30 19 31 20 32 21 33
REMARK SMILES IDX 33 34 34 35 35 36 36 37 37 38 38 39 39 40 103 41 40 42
REMARK SMILES IDX 102 43 41 44 42 45 43 46 96 47 44 48 101 49 95 50 97 51
REMARK SMILES IDX 45 52 100 53 94 54 93 55 46 57 80 58 59 59 79 60 60 61 63 62
REMARK SMILES IDX 78 63 98 64 61 65 62 66 77 68 99 69 64 70 47 71 48 72 57 73
REMARK SMILES IDX 49 74 50 75 56 76 58 77 51 78 52 79 53 80 54 81 55 82 81 83
REMARK SMILES IDX 82 84 91 85 83 86 84 87 90 88 92 89 85 90 86 91 87 92 88 93
REMARK SMILES IDX 89 94 65 95 66 96 75 97 67 98 68 99 74 100 76 101 69 102
REMARK SMILES IDX 70 103 71 104 72 105 73 106
REMARK H PARENT 5 25 97 56 63 67
REMARK Flexibility Score: inf
ROOT
ATOM      1  O   UNL A   1      34.474  30.884  27.545  1.00  0.00    -0.462 OA
ENDROOT
BRANCH   1   2
ATOM      2  C   UNL A   1      33.202  30.691  27.132  1.00  0.00     0.305 C 
ATOM      3  O   UNL A   1      32.365  31.575  26.998  1.00  0.00    -0.252 OA
BRANCH   2   4
ATOM      4  C   UNL A   1      32.890  29.240  26.846  1.00  0.00     0.123 C 
BRANCH   4   5
ATOM      5  C   UNL A   1      33.360  28.710  25.493  1.00  0.00     0.020 C 
BRANCH   5   6
ATOM      6  C   UNL A   1      32.350  27.898  24.670  1.00  0.00    -0.014 C 
ATOM      7  C   UNL A   1      32.025  28.512  23.283  1.00  0.00     0.047 C 
ATOM      8  C   UNL A   1      32.154  27.519  22.107  1.00  0.00     0.122 C 
ATOM      9  C   UNL A   1      31.699  26.110  22.462  1.00  0.00     0.037 C 
ATOM     10  C   UNL A   1      32.437  26.357  24.886  1.00  0.00    -0.019 C 
ATOM     11  C   UNL A   1      31.213  27.110  25.322  1.00  0.00     0.016 C 
ATOM     12  C   UNL A   1      32.552  25.523  23.609  1.00  0.00     0.005 C 
ATOM     13  C   UNL A   1      33.226  25.784  26.052  1.00  0.00     0.008 C 
ATOM     14  C   UNL A   1      32.357  23.965  23.828  1.00  0.00    -0.023 C 
ATOM     15  C   UNL A   1      32.859  24.328  26.284  1.00  0.00     0.008 C 
ATOM     16  C   UNL A   1      33.167  23.422  25.086  1.00  0.00    -0.024 C 
ATOM     17  C   UNL A   1      33.056  23.204  22.675  1.00  0.00     0.008 C 
ATOM     18  C   UNL A   1      30.857  23.594  23.872  1.00  0.00     0.012 C 
ATOM     19  C   UNL A   1      34.651  23.476  24.573  1.00  0.00    -0.002 C 
ATOM     20  C   UNL A   1      32.745  21.986  25.474  1.00  0.00     0.012 C 
ATOM     21  C   UNL A   1      34.516  23.007  23.098  1.00  0.00     0.005 C 
BRANCH   7  22
ATOM     22  C   UNL A   1      30.671  29.213  23.259  1.00  0.00    -0.028 C 
ATOM     23  C   UNL A   1      30.160  29.880  22.216  1.00  0.00     0.004 C 
ENDBRANCH   7  22
BRANCH   8  24
ATOM     24  O   UNL A   1      33.507  27.458  21.630  1.00  0.00    -0.392 OA
ATOM     25  H   UNL A   1      33.839  26.551  21.717  1.00  0.00     0.210 HD
ENDBRANCH   8  24
BRANCH  19  26
ATOM     26  C   UNL A   1      35.886  22.808  25.263  1.00  0.00    -0.010 C 
ATOM     27  C   UNL A   1      36.952  23.722  25.869  1.00  0.00     0.008 C 
BRANCH  26  28
ATOM     28  C   UNL A   1      36.481  21.517  24.627  1.00  0.00     0.008 C 
BRANCH  28  29
ATOM     29  C   UNL A   1      36.018  20.084  24.929  1.00  0.00     0.027 C 
BRANCH  29  30
ATOM     30  C   UNL A   1      34.609  19.690  24.591  1.00  0.00    -0.028 C 
ATOM     31  C   UNL A   1      34.173  18.418  24.472  1.00  0.00    -0.080 C 
ATOM     32  C   UNL A   1      32.709  18.109  24.324  1.00  0.00     0.039 C 
ATOM     33  C   UNL A   1      35.077  17.215  24.502  1.00  0.00     0.039 C 
ENDBRANCH  29  30
ENDBRANCH  28  29
ENDBRANCH  26  28
ENDBRANCH  19  26
ENDBRANCH   5   6
ENDBRANCH   4   5
ENDBRANCH   2   4
ENDBRANCH   1   2
BRANCH   1  34
ATOM     34  C   UNL A   1      34.839  32.193  28.006  1.00  0.00     0.274 C 
BRANCH  34  35
ATOM     35  C   UNL A   1      35.187  32.136  29.493  1.00  0.00     0.275 C 
BRANCH  35  36
ATOM     36  O   UNL A   1      35.987  30.972  29.769  1.00  0.00    -0.458 OA
BRANCH  36  37
ATOM     37  C   UNL A   1      36.991  31.156  30.659  1.00  0.00     0.338 C 
ATOM     38  O   UNL A   1      36.908  31.557  31.806  1.00  0.00    -0.246 OA
BRANCH  37  39
ATOM     39  C   UNL A   1      38.232  30.625  30.079  1.00  0.00     0.060 A 
ATOM     40  C   UNL A   1      39.318  30.437  30.935  1.00  0.00     0.016 A 
ATOM     41  C   UNL A   1      38.354  30.374  28.715  1.00  0.00     0.016 A 
ATOM     42  C   UNL A   1      40.536  29.987  30.442  1.00  0.00     0.010 A 
ATOM     43  C   UNL A   1      39.580  29.917  28.216  1.00  0.00     0.010 A 
ATOM     44  C   UNL A   1      40.678  29.726  29.075  1.00  0.00    -0.014 A 
BRANCH  44  45
ATOM     45  C   UNL A   1      41.999  29.322  28.538  1.00  0.00     0.031 A 
ATOM     46  C   UNL A   1      42.211  27.899  28.108  1.00  0.00     0.074 A 
ATOM     47  C   UNL A   1      42.989  30.228  28.424  1.00  0.00     0.049 A 
ATOM     48  N   UNL A   1      43.320  27.293  27.776  1.00  0.00    -0.248 NA
ATOM     49  C   UNL A   1      41.015  27.042  28.050  1.00  0.00     0.031 C 
ATOM     50  C   UNL A   1      42.876  31.652  28.748  1.00  0.00     0.029 A 
ATOM     51  N   UNL A   1      44.290  30.084  28.014  1.00  0.00    -0.354 N 
ATOM     52  C   UNL A   1      42.965  25.975  27.515  1.00  0.00     0.074 A 
ATOM     53  C   UNL A   1      41.537  25.869  27.721  1.00  0.00     0.031 C 
ATOM     54  C   UNL A   1      44.059  32.247  28.532  1.00  0.00     0.029 A 
ATOM     55  C   UNL A   1      45.030  31.239  28.117  1.00  0.00     0.049 A 
ATOM     56  H   UNL A   1      44.660  29.235  27.678  1.00  0.00     0.167 HD
ATOM     57  C   UNL A   1      43.766  24.949  27.144  1.00  0.00     0.037 A 
ATOM     58  C   UNL A   1      46.349  31.448  27.941  1.00  0.00     0.037 A 
ATOM     59  C   UNL A   1      45.180  25.083  26.904  1.00  0.00     0.049 A 
ATOM     60  C   UNL A   1      47.224  30.284  27.562  1.00  0.00     0.074 A 
ATOM     61  C   UNL A   1      46.084  24.110  26.514  1.00  0.00     0.029 A 
ATOM     62  N   UNL A   1      45.892  26.268  27.022  1.00  0.00    -0.354 N 
ATOM     63  N   UNL A   1      46.886  29.032  27.354  1.00  0.00    -0.248 NA
ATOM     64  C   UNL A   1      48.660  30.552  27.406  1.00  0.00     0.031 C 
ATOM     65  C   UNL A   1      47.349  24.700  26.429  1.00  0.00     0.029 A 
ATOM     66  C   UNL A   1      47.226  26.049  26.724  1.00  0.00     0.049 A 
ATOM     67  H   UNL A   1      45.507  27.136  27.279  1.00  0.00     0.167 HD
ATOM     68  C   UNL A   1      48.062  28.369  27.026  1.00  0.00     0.074 A 
ATOM     69  C   UNL A   1      49.118  29.360  27.046  1.00  0.00     0.031 C 
ATOM     70  C   UNL A   1      48.254  27.058  26.738  1.00  0.00     0.037 A 
BRANCH  57  71
ATOM     71  C   UNL A   1      43.149  23.586  27.006  1.00  0.00     0.058 A 
ATOM     72  C   UNL A   1      42.828  23.037  25.755  1.00  0.00     0.135 A 
ATOM     73  C   UNL A   1      42.924  22.797  28.146  1.00  0.00     0.135 A 
ATOM     74  F   UNL A   1      43.001  23.757  24.636  1.00  0.00    -0.206 F 
ATOM     75  C   UNL A   1      42.298  21.755  25.641  1.00  0.00     0.059 A 
ATOM     76  C   UNL A   1      42.417  21.505  28.054  1.00  0.00     0.059 A 
ATOM     77  F   UNL A   1      43.207  23.279  29.367  1.00  0.00    -0.206 F 
ATOM     78  C   UNL A   1      42.100  20.995  26.796  1.00  0.00     0.060 A 
BRANCH  78  79
ATOM     79  S   UNL A   1      41.441  19.321  26.629  1.00  0.00     0.124 S 
ATOM     80  O   UNL A   1      40.901  19.087  27.963  1.00  0.00    -0.237 OA
ATOM     81  O   UNL A   1      40.455  19.479  25.564  1.00  0.00    -0.237 OA
ATOM     82  O   UNL A   1      42.616  18.528  26.278  1.00  0.00    -0.744 OA
ENDBRANCH  78  79
ENDBRANCH  57  71
BRANCH  58  83
ATOM     83  C   UNL A   1      46.934  32.797  28.175  1.00  0.00     0.058 A 
ATOM     84  C   UNL A   1      46.991  33.753  27.151  1.00  0.00     0.135 A 
ATOM     85  C   UNL A   1      47.464  33.149  29.427  1.00  0.00     0.135 A 
ATOM     86  F   UNL A   1      46.507  33.463  25.935  1.00  0.00    -0.206 F 
ATOM     87  C   UNL A   1      47.572  35.003  27.351  1.00  0.00     0.059 A 
ATOM     88  C   UNL A   1      48.025  34.401  29.660  1.00  0.00     0.059 A 
ATOM     89  F   UNL A   1      47.426  32.275  30.445  1.00  0.00    -0.206 F 
ATOM     90  C   UNL A   1      48.089  35.316  28.611  1.00  0.00     0.060 A 
BRANCH  90  91
ATOM     91  S   UNL A   1      48.820  36.947  28.872  1.00  0.00     0.124 S 
ATOM     92  O   UNL A   1      50.187  36.598  29.240  1.00  0.00    -0.237 OA
ATOM     93  O   UNL A   1      48.651  37.576  27.565  1.00  0.00    -0.237 OA
ATOM     94  O   UNL A   1      48.001  37.512  29.941  1.00  0.00    -0.744 OA
ENDBRANCH  90  91
ENDBRANCH  58  83
BRANCH  70  95
ATOM     95  C   UNL A   1      49.650  26.632  26.383  1.00  0.00     0.058 A 
ATOM     96  C   UNL A   1      50.128  26.700  25.066  1.00  0.00     0.135 A 
ATOM     97  C   UNL A   1      50.534  26.202  27.385  1.00  0.00     0.135 A 
ATOM     98  F   UNL A   1      49.318  27.099  24.073  1.00  0.00    -0.206 F 
ATOM     99  C   UNL A   1      51.431  26.334  24.749  1.00  0.00     0.059 A 
ATOM    100  C   UNL A   1      51.849  25.854  27.094  1.00  0.00     0.059 A 
ATOM    101  F   UNL A   1      50.127  26.131  28.662  1.00  0.00    -0.206 F 
ATOM    102  C   UNL A   1      52.285  25.912  25.771  1.00  0.00     0.060 A 
BRANCH 102 103
ATOM    103  S   UNL A   1      53.985  25.473  25.354  1.00  0.00     0.124 S 
ATOM    104  O   UNL A   1      54.062  25.889  23.958  1.00  0.00    -0.237 OA
ATOM    105  O   UNL A   1      54.759  26.273  26.298  1.00  0.00    -0.237 OA
ATOM    106  O   UNL A   1      54.028  24.031  25.584  1.00  0.00    -0.744 OA
ENDBRANCH 102 103
ENDBRANCH  70  95
ENDBRANCH  44  45
ENDBRANCH  37  39
ENDBRANCH  36  37
ENDBRANCH  35  36
ENDBRANCH  34  35
ENDBRANCH   1  34
TORSDOF 22
ENDMDL
MODEL 3
REMARK VINA RESULT:     -11.5      6.268     11.631
REMARK SMILES C=C[C@@H]1[C@@H](O)C[C@H]2[C@]3(CC[C@]4(C)[C@@H]([C@H](C)CCC=C(C)C)CC[C@]24C)C[C@]13CCC(=O)OCCOC(=O)c1ccc(-c2c3nc(c(-c4c(F)cc(S(=O)(=O)[O-])cc4F)c4ccc([nH]4)c(-c4c(F)cc(S(=O)(=O)[O-])cc4F)c4nc(c(-c5c(F)cc(S(=O)(=O)[O-])cc5F)c5ccc2[nH]5)C=C4)C=C3)cc1
REMARK SMILES IDX 32 1 30 2 31 3 29 4 28 5 27 6 3 7 4 8 6 9 8 10 26 11 7 12
REMARK SMILES IDX 9 13 24 14 10 15 11 16 23 17 25 18 13 19 12 20 22 21 2 22
REMARK SMILES IDX 1 23 5 24 14 26 15 27 16 28 17 29 18 30 19 31 20 32 21 33
REMARK SMILES IDX 33 34 34 35 35 36 36 37 37 38 38 39 39 40 103 41 40 42
REMARK SMILES IDX 102 43 41 44 42 45 43 46 96 47 44 48 101 49 95 50 97 51
REMARK SMILES IDX 45 52 100 53 94 54 93 55 46 57 80 58 59 59 79 60 60 61 63 62
REMARK SMILES IDX 78 63 98 64 61 65 62 66 77 68 99 69 64 70 47 71 48 72 57 73
REMARK SMILES IDX 49 74 50 75 56 76 58 77 51 78 52 79 53 80 54 81 55 82 81 83
REMARK SMILES IDX 82 84 91 85 83 86 84 87 90 88 92 89 85 90 86 91 87 92 88 93
REMARK SMILES IDX 89 94 65 95 66 96 75 97 67 98 68 99 74 100 76 101 69 102
REMARK SMILES IDX 70 103 71 104 72 105 73 106
REMARK H PARENT 5 25 97 56 63 67
REMARK Flexibility Score: inf
ROOT
ATOM      1  O   UNL A   1      39.043  22.022  26.019  1.00  0.00    -0.462 OA
ENDROOT
BRANCH   1   2
ATOM      2  C   UNL A   1      37.822  22.577  25.857  1.00  0.00     0.305 C 
ATOM      3  O   UNL A   1      37.389  23.523  26.504  1.00  0.00    -0.252 OA
BRANCH   2   4
ATOM      4  C   UNL A   1      37.008  21.903  24.777  1.00  0.00     0.123 C 
BRANCH   4   5
ATOM      5  C   UNL A   1      36.019  22.796  24.030  1.00  0.00     0.020 C 
BRANCH   5   6
ATOM      6  C   UNL A   1      34.548  22.357  24.018  1.00  0.00    -0.014 C 
ATOM      7  C   UNL A   1      34.236  21.167  24.962  1.00  0.00     0.047 C 
ATOM      8  C   UNL A   1      33.037  21.407  25.906  1.00  0.00     0.122 C 
ATOM      9  C   UNL A   1      31.914  22.203  25.255  1.00  0.00     0.037 C 
ATOM     10  C   UNL A   1      33.532  23.518  23.795  1.00  0.00    -0.019 C 
ATOM     11  C   UNL A   1      33.683  22.442  22.759  1.00  0.00     0.016 C 
ATOM     12  C   UNL A   1      32.401  23.603  24.822  1.00  0.00     0.005 C 
ATOM     13  C   UNL A   1      34.008  24.878  23.310  1.00  0.00     0.008 C 
ATOM     14  C   UNL A   1      31.235  24.601  24.425  1.00  0.00    -0.023 C 
ATOM     15  C   UNL A   1      32.839  25.707  22.806  1.00  0.00     0.008 C 
ATOM     16  C   UNL A   1      31.784  25.993  23.882  1.00  0.00    -0.024 C 
ATOM     17  C   UNL A   1      30.503  25.054  25.713  1.00  0.00     0.008 C 
ATOM     18  C   UNL A   1      30.235  23.929  23.457  1.00  0.00     0.012 C 
ATOM     19  C   UNL A   1      32.333  26.667  25.191  1.00  0.00    -0.002 C 
ATOM     20  C   UNL A   1      30.672  26.840  23.223  1.00  0.00     0.012 C 
ATOM     21  C   UNL A   1      31.264  26.272  26.247  1.00  0.00     0.005 C 
BRANCH   7  22
ATOM     22  C   UNL A   1      34.080  19.851  24.208  1.00  0.00    -0.028 C 
ATOM     23  C   UNL A   1      32.965  19.108  24.164  1.00  0.00     0.004 C 
ENDBRANCH   7  22
BRANCH   8  24
ATOM     24  O   UNL A   1      33.450  22.091  27.099  1.00  0.00    -0.392 OA
ATOM     25  H   UNL A   1      34.067  22.802  26.867  1.00  0.00     0.210 HD
ENDBRANCH   8  24
BRANCH  19  26
ATOM     26  C   UNL A   1      32.748  28.167  25.346  1.00  0.00    -0.010 C 
ATOM     27  C   UNL A   1      33.789  28.728  24.376  1.00  0.00     0.008 C 
BRANCH  26  28
ATOM     28  C   UNL A   1      32.875  28.755  26.783  1.00  0.00     0.008 C 
BRANCH  28  29
ATOM     29  C   UNL A   1      32.417  30.157  27.212  1.00  0.00     0.027 C 
BRANCH  29  30
ATOM     30  C   UNL A   1      33.453  31.226  27.420  1.00  0.00    -0.028 C 
ATOM     31  C   UNL A   1      34.754  30.992  27.694  1.00  0.00    -0.080 C 
ATOM     32  C   UNL A   1      35.759  32.111  27.696  1.00  0.00     0.039 C 
ATOM     33  C   UNL A   1      35.318  29.629  27.990  1.00  0.00     0.039 C 
ENDBRANCH  29  30
ENDBRANCH  28  29
ENDBRANCH  26  28
ENDBRANCH  19  26
ENDBRANCH   5   6
ENDBRANCH   4   5
ENDBRANCH   2   4
ENDBRANCH   1   2
BRANCH   1  34
ATOM     34  C   UNL A   1      39.894  22.558  27.043  1.00  0.00     0.274 C 
BRANCH  34  35
ATOM     35  C   UNL A   1      40.853  23.578  26.433  1.00  0.00     0.275 C 
BRANCH  35  36
ATOM     36  O   UNL A   1      40.211  24.861  26.331  1.00  0.00    -0.458 OA
BRANCH  36  37
ATOM     37  C   UNL A   1      41.046  25.922  26.226  1.00  0.00     0.338 C 
ATOM     38  O   UNL A   1      41.643  26.308  25.237  1.00  0.00    -0.246 OA
BRANCH  37  39
ATOM     39  C   UNL A   1      41.003  26.676  27.487  1.00  0.00     0.060 A 
ATOM     40  C   UNL A   1      40.008  26.343  28.406  1.00  0.00     0.016 A 
ATOM     41  C   UNL A   1      41.877  27.730  27.740  1.00  0.00     0.016 A 
ATOM     42  C   UNL A   1      39.880  27.050  29.595  1.00  0.00     0.010 A 
ATOM     43  C   UNL A   1      41.752  28.442  28.938  1.00  0.00     0.010 A 
ATOM     44  C   UNL A   1      40.749  28.111  29.869  1.00  0.00    -0.014 A 
BRANCH  44  45
ATOM     45  C   UNL A   1      40.562  28.915  31.099  1.00  0.00     0.031 A 
ATOM     46  C   UNL A   1      39.480  29.956  31.137  1.00  0.00     0.074 A 
ATOM     47  C   UNL A   1      41.343  28.699  32.175  1.00  0.00     0.049 A 
ATOM     48  N   UNL A   1      39.253  30.879  32.033  1.00  0.00    -0.248 NA
ATOM     49  C   UNL A   1      38.531  29.963  30.011  1.00  0.00     0.031 C 
ATOM     50  C   UNL A   1      42.380  27.669  32.275  1.00  0.00     0.029 A 
ATOM     51  N   UNL A   1      41.395  29.340  33.387  1.00  0.00    -0.354 N 
ATOM     52  C   UNL A   1      38.168  31.606  31.558  1.00  0.00     0.074 A 
ATOM     53  C   UNL A   1      37.776  31.013  30.299  1.00  0.00     0.031 C 
ATOM     54  C   UNL A   1      42.970  27.755  33.478  1.00  0.00     0.029 A 
ATOM     55  C   UNL A   1      42.398  28.882  34.208  1.00  0.00     0.049 A 
ATOM     56  H   UNL A   1      40.774  30.060  33.643  1.00  0.00     0.167 HD
ATOM     57  C   UNL A   1      37.561  32.674  32.127  1.00  0.00     0.037 A 
ATOM     58  C   UNL A   1      42.837  29.350  35.394  1.00  0.00     0.037 A 
ATOM     59  C   UNL A   1      37.940  33.225  33.402  1.00  0.00     0.049 A 
ATOM     60  C   UNL A   1      42.168  30.561  35.987  1.00  0.00     0.074 A 
ATOM     61  C   UNL A   1      37.386  34.300  34.075  1.00  0.00     0.029 A 
ATOM     62  N   UNL A   1      38.963  32.736  34.202  1.00  0.00    -0.354 N 
ATOM     63  N   UNL A   1      41.166  31.264  35.513  1.00  0.00    -0.248 NA
ATOM     64  C   UNL A   1      42.694  31.052  37.268  1.00  0.00     0.031 C 
ATOM     65  C   UNL A   1      38.096  34.481  35.266  1.00  0.00     0.029 A 
ATOM     66  C   UNL A   1      39.064  33.494  35.356  1.00  0.00     0.049 A 
ATOM     67  H   UNL A   1      39.532  31.964  33.982  1.00  0.00     0.167 HD
ATOM     68  C   UNL A   1      40.931  32.268  36.445  1.00  0.00     0.074 A 
ATOM     69  C   UNL A   1      41.884  32.072  37.518  1.00  0.00     0.031 C 
ATOM     70  C   UNL A   1      40.013  33.266  36.415  1.00  0.00     0.037 A 
BRANCH  57  71
ATOM     71  C   UNL A   1      36.451  33.342  31.366  1.00  0.00     0.058 A 
ATOM     72  C   UNL A   1      35.104  33.185  31.723  1.00  0.00     0.135 A 
ATOM     73  C   UNL A   1      36.751  34.197  30.292  1.00  0.00     0.135 A 
ATOM     74  F   UNL A   1      34.762  32.362  32.726  1.00  0.00    -0.206 F 
ATOM     75  C   UNL A   1      34.090  33.846  31.036  1.00  0.00     0.059 A 
ATOM     76  C   UNL A   1      35.755  34.886  29.606  1.00  0.00     0.059 A 
ATOM     77  F   UNL A   1      38.023  34.376  29.905  1.00  0.00    -0.206 F 
ATOM     78  C   UNL A   1      34.426  34.698  29.982  1.00  0.00     0.060 A 
BRANCH  78  79
ATOM     79  S   UNL A   1      33.101  35.574  29.120  1.00  0.00     0.124 S 
ATOM     80  O   UNL A   1      32.533  34.510  28.301  1.00  0.00    -0.237 OA
ATOM     81  O   UNL A   1      32.266  36.040  30.223  1.00  0.00    -0.237 OA
ATOM     82  O   UNL A   1      33.807  36.622  28.388  1.00  0.00    -0.744 OA
ENDBRANCH  78  79
ENDBRANCH  57  71
BRANCH  58  83
ATOM     83  C   UNL A   1      43.998  28.711  36.071  1.00  0.00     0.058 A 
ATOM     84  C   UNL A   1      43.834  27.584  36.889  1.00  0.00     0.135 A 
ATOM     85  C   UNL A   1      45.296  29.229  35.925  1.00  0.00     0.135 A 
ATOM     86  F   UNL A   1      42.614  27.058  37.069  1.00  0.00    -0.206 F 
ATOM     87  C   UNL A   1      44.910  27.005  37.557  1.00  0.00     0.059 A 
ATOM     88  C   UNL A   1      46.390  28.651  36.560  1.00  0.00     0.059 A 
ATOM     89  F   UNL A   1      45.510  30.299  35.145  1.00  0.00    -0.206 F 
ATOM     90  C   UNL A   1      46.185  27.549  37.387  1.00  0.00     0.060 A 
BRANCH  90  91
ATOM     91  S   UNL A   1      47.581  26.779  38.237  1.00  0.00     0.124 S 
ATOM     92  O   UNL A   1      48.713  27.441  37.598  1.00  0.00    -0.237 OA
ATOM     93  O   UNL A   1      47.333  27.140  39.630  1.00  0.00    -0.237 OA
ATOM     94  O   UNL A   1      47.419  25.361  37.928  1.00  0.00    -0.744 OA
ENDBRANCH  90  91
ENDBRANCH  58  83
BRANCH  70  95
ATOM     95  C   UNL A   1      39.972  34.194  37.595  1.00  0.00     0.058 A 
ATOM     96  C   UNL A   1      40.691  35.399  37.610  1.00  0.00     0.135 A 
ATOM     97  C   UNL A   1      39.160  33.897  38.701  1.00  0.00     0.135 A 
ATOM     98  F   UNL A   1      41.486  35.723  36.579  1.00  0.00    -0.206 F 
ATOM     99  C   UNL A   1      40.625  36.269  38.693  1.00  0.00     0.059 A 
ATOM    100  C   UNL A   1      39.060  34.764  39.783  1.00  0.00     0.059 A 
ATOM    101  F   UNL A   1      38.444  32.762  38.730  1.00  0.00    -0.206 F 
ATOM    102  C   UNL A   1      39.805  35.942  39.775  1.00  0.00     0.060 A 
BRANCH 102 103
ATOM    103  S   UNL A   1      39.698  37.095  41.160  1.00  0.00     0.124 S 
ATOM    104  O   UNL A   1      41.107  37.346  41.442  1.00  0.00    -0.237 OA
ATOM    105  O   UNL A   1      38.959  38.213  40.583  1.00  0.00    -0.237 OA
ATOM    106  O   UNL A   1      38.978  36.335  42.178  1.00  0.00    -0.744 OA
ENDBRANCH 102 103
ENDBRANCH  70  95
ENDBRANCH  44  45
ENDBRANCH  37  39
ENDBRANCH  36  37
ENDBRANCH  35  36
ENDBRANCH  34  35
ENDBRANCH   1  34
TORSDOF 22
ENDMDL
