MODEL 1
REMARK VINA RESULT:     -12.0      0.000      0.000
REMARK SMILES CCCc1cc(-n2ccc(C(=O)OCCOC(=O)c3ccc(-c4c5nc(c(-c6c(F)cc(S(=O)(=O)[O-])cc6F)c6ccc([nH]6)c(-c6c(F)cc(S(=O)(=O)[O-])cc6F)c6nc(c(-c7c(F)cc(S(=O)(=O)[O-])cc7F)c7ccc4[nH]7)C=C6)C=C5)cc3)n2)nc(-c2ccc(C(F)(F)F)cc2)n1
REMARK SMILES IDX 14 1 13 2 11 3 12 4 10 5 7 6 8 7 85 8 9 9 6 10 4 11 5 12
REMARK SMILES IDX 98 13 87 14 86 15 3 16 2 17 1 18 88 19 89 20 97 21 90 22
REMARK SMILES IDX 96 23 91 24 92 25 93 26 94 27 95 28 15 29 16 30 17 31 18 32
REMARK SMILES IDX 19 33 20 34 84 35 21 36 83 37 22 38 23 39 24 40 77 41 25 42
REMARK SMILES IDX 82 43 76 44 78 45 26 46 81 47 75 48 74 49 27 51 61 52 40 53
REMARK SMILES IDX 60 54 41 55 44 56 59 57 79 58 42 59 43 60 58 62 80 63 45 64
REMARK SMILES IDX 28 65 29 66 38 67 30 68 31 69 37 70 39 71 32 72 33 73 34 74
REMARK SMILES IDX 35 75 36 76 62 77 63 78 72 79 64 80 65 81 71 82 73 83 66 84
REMARK SMILES IDX 67 85 68 86 69 87 70 88 46 89 47 90 56 91 48 92 49 93 55 94
REMARK SMILES IDX 57 95 50 96 51 97 52 98 53 99 54 100
REMARK H PARENT 78 50 44 61
REMARK Flexibility Score: inf
ROOT
ATOM      1  C   UNL A   1      42.225  19.571  26.774  1.00  0.00     0.275 C 
ENDROOT
BRANCH   1   2
ATOM      2  O   UNL A   1      41.352  20.556  26.193  1.00  0.00    -0.457 OA
BRANCH   2   3
ATOM      3  C   UNL A   1      40.112  20.121  25.810  1.00  0.00     0.358 C 
ATOM      4  O   UNL A   1      39.847  18.954  25.520  1.00  0.00    -0.244 OA
BRANCH   3   5
ATOM      5  C   UNL A   1      39.077  21.149  25.966  1.00  0.00     0.170 A 
ATOM      6  N   UNL A   1      37.211  22.160  25.711  1.00  0.00    -0.222 N 
ATOM      7  C   UNL A   1      38.106  23.141  26.071  1.00  0.00     0.118 A 
ATOM      8  N   UNL A   1      37.770  20.925  25.738  1.00  0.00    -0.159 NA
ATOM      9  C   UNL A   1      39.303  22.512  26.300  1.00  0.00     0.058 A 
BRANCH   6  10
ATOM     10  C   UNL A   1      35.839  22.338  25.391  1.00  0.00     0.157 A 
ATOM     11  C   UNL A   1      33.841  21.577  24.413  1.00  0.00     0.047 A 
ATOM     12  C   UNL A   1      35.154  21.321  24.756  1.00  0.00     0.073 A 
ATOM     13  N   UNL A   1      33.246  22.759  24.700  1.00  0.00    -0.233 NA
ATOM     14  C   UNL A   1      33.995  23.679  25.341  1.00  0.00     0.161 A 
ATOM     15  N   UNL A   1      35.270  23.516  25.707  1.00  0.00    -0.209 NA
BRANCH  11  16
ATOM     16  C   UNL A   1      32.985  20.513  23.764  1.00  0.00     0.056 C 
BRANCH  16  17
ATOM     17  C   UNL A   1      32.579  19.328  24.655  1.00  0.00     0.003 C 
ATOM     18  C   UNL A   1      33.378  18.050  24.430  1.00  0.00     0.004 C 
ENDBRANCH  16  17
ENDBRANCH  11  16
BRANCH  14  19
ATOM     19  C   UNL A   1      33.411  24.976  25.673  1.00  0.00     0.019 A 
ATOM     20  C   UNL A   1      32.119  25.078  26.205  1.00  0.00     0.012 A 
ATOM     21  C   UNL A   1      34.180  26.148  25.565  1.00  0.00     0.012 A 
ATOM     22  C   UNL A   1      31.625  26.309  26.653  1.00  0.00     0.014 A 
ATOM     23  C   UNL A   1      33.686  27.382  25.996  1.00  0.00     0.014 A 
ATOM     24  C   UNL A   1      32.407  27.471  26.561  1.00  0.00     0.056 A 
BRANCH  24  25
ATOM     25  C   UNL A   1      31.881  28.780  27.091  1.00  0.00     0.416 C 
ATOM     26  F   UNL A   1      30.861  28.613  27.980  1.00  0.00    -0.166 F 
ATOM     27  F   UNL A   1      32.833  29.499  27.749  1.00  0.00    -0.166 F 
ATOM     28  F   UNL A   1      31.395  29.610  26.124  1.00  0.00    -0.166 F 
ENDBRANCH  24  25
ENDBRANCH  14  19
ENDBRANCH   6  10
ENDBRANCH   3   5
ENDBRANCH   2   3
ENDBRANCH   1   2
BRANCH   1  29
ATOM     29  C   UNL A   1      43.186  18.989  25.744  1.00  0.00     0.275 C 
BRANCH  29  30
ATOM     30  O   UNL A   1      43.367  19.885  24.650  1.00  0.00    -0.458 OA
BRANCH  30  31
ATOM     31  C   UNL A   1      44.653  20.180  24.359  1.00  0.00     0.338 C 
ATOM     32  O   UNL A   1      45.551  19.389  24.125  1.00  0.00    -0.246 OA
BRANCH  31  33
ATOM     33  C   UNL A   1      44.888  21.608  24.583  1.00  0.00     0.060 A 
ATOM     34  C   UNL A   1      46.002  21.941  25.362  1.00  0.00     0.016 A 
ATOM     35  C   UNL A   1      43.839  22.507  24.354  1.00  0.00     0.016 A 
ATOM     36  C   UNL A   1      45.954  23.096  26.107  1.00  0.00     0.010 A 
ATOM     37  C   UNL A   1      43.775  23.637  25.128  1.00  0.00     0.010 A 
ATOM     38  C   UNL A   1      44.794  23.869  26.052  1.00  0.00    -0.014 A 
BRANCH  38  39
ATOM     39  C   UNL A   1      44.672  24.985  26.962  1.00  0.00     0.031 A 
ATOM     40  C   UNL A   1      45.737  25.998  26.779  1.00  0.00     0.074 A 
ATOM     41  C   UNL A   1      43.578  25.128  27.732  1.00  0.00     0.049 A 
ATOM     42  N   UNL A   1      46.659  26.358  27.607  1.00  0.00    -0.248 NA
ATOM     43  C   UNL A   1      45.910  26.538  25.418  1.00  0.00     0.031 C 
ATOM     44  C   UNL A   1      42.339  24.345  27.686  1.00  0.00     0.029 A 
ATOM     45  N   UNL A   1      43.277  26.109  28.617  1.00  0.00    -0.354 N 
ATOM     46  C   UNL A   1      47.376  27.349  26.941  1.00  0.00     0.074 A 
ATOM     47  C   UNL A   1      47.042  27.226  25.550  1.00  0.00     0.031 C 
ATOM     48  C   UNL A   1      41.357  25.039  28.305  1.00  0.00     0.029 A 
ATOM     49  C   UNL A   1      41.920  26.255  28.868  1.00  0.00     0.049 A 
ATOM     50  H   UNL A   1      43.963  26.670  29.047  1.00  0.00     0.167 HD
ATOM     51  C   UNL A   1      47.953  28.384  27.611  1.00  0.00     0.037 A 
ATOM     52  C   UNL A   1      41.328  27.371  29.368  1.00  0.00     0.037 A 
ATOM     53  C   UNL A   1      48.111  28.072  29.010  1.00  0.00     0.049 A 
ATOM     54  C   UNL A   1      42.413  28.207  29.966  1.00  0.00     0.074 A 
ATOM     55  C   UNL A   1      48.727  27.046  29.704  1.00  0.00     0.029 A 
ATOM     56  N   UNL A   1      47.255  28.668  29.908  1.00  0.00    -0.354 N 
ATOM     57  N   UNL A   1      43.099  27.873  31.026  1.00  0.00    -0.248 NA
ATOM     58  C   UNL A   1      43.050  29.195  29.104  1.00  0.00     0.031 C 
ATOM     59  C   UNL A   1      47.860  26.770  30.800  1.00  0.00     0.029 A 
ATOM     60  C   UNL A   1      46.804  27.679  30.746  1.00  0.00     0.049 A 
ATOM     61  H   UNL A   1      47.014  29.621  29.942  1.00  0.00     0.167 HD
ATOM     62  C   UNL A   1      44.400  28.285  30.759  1.00  0.00     0.074 A 
ATOM     63  C   UNL A   1      44.293  29.156  29.591  1.00  0.00     0.031 C 
ATOM     64  C   UNL A   1      45.478  27.660  31.321  1.00  0.00     0.037 A 
BRANCH  51  65
ATOM     65  C   UNL A   1      48.006  29.800  27.074  1.00  0.00     0.058 A 
ATOM     66  C   UNL A   1      49.219  30.512  27.155  1.00  0.00     0.135 A 
ATOM     67  C   UNL A   1      46.869  30.579  26.748  1.00  0.00     0.135 A 
ATOM     68  F   UNL A   1      50.366  29.878  27.451  1.00  0.00    -0.206 F 
ATOM     69  C   UNL A   1      49.282  31.899  27.022  1.00  0.00     0.059 A 
ATOM     70  C   UNL A   1      46.921  31.952  26.550  1.00  0.00     0.059 A 
ATOM     71  F   UNL A   1      45.631  30.080  26.700  1.00  0.00    -0.206 F 
ATOM     72  C   UNL A   1      48.120  32.611  26.742  1.00  0.00     0.060 A 
BRANCH  72  73
ATOM     73  S   UNL A   1      48.163  34.409  26.706  1.00  0.00     0.124 S 
ATOM     74  O   UNL A   1      47.914  34.672  25.293  1.00  0.00    -0.237 OA
ATOM     75  O   UNL A   1      47.082  34.754  27.623  1.00  0.00    -0.237 OA
ATOM     76  O   UNL A   1      49.507  34.722  27.181  1.00  0.00    -0.744 OA
ENDBRANCH  72  73
ENDBRANCH  51  65
BRANCH  52  77
ATOM     77  C   UNL A   1      39.996  27.937  29.005  1.00  0.00     0.058 A 
ATOM     78  C   UNL A   1      38.966  28.019  29.960  1.00  0.00     0.135 A 
ATOM     79  C   UNL A   1      39.784  28.655  27.809  1.00  0.00     0.135 A 
ATOM     80  F   UNL A   1      39.085  27.382  31.135  1.00  0.00    -0.206 F 
ATOM     81  C   UNL A   1      37.827  28.809  29.767  1.00  0.00     0.059 A 
ATOM     82  C   UNL A   1      38.648  29.432  27.586  1.00  0.00     0.059 A 
ATOM     83  F   UNL A   1      40.715  28.707  26.847  1.00  0.00    -0.206 F 
ATOM     84  C   UNL A   1      37.687  29.532  28.582  1.00  0.00     0.060 A 
BRANCH  84  85
ATOM     85  S   UNL A   1      36.322  30.703  28.402  1.00  0.00     0.124 S 
ATOM     86  O   UNL A   1      37.029  31.958  28.173  1.00  0.00    -0.237 OA
ATOM     87  O   UNL A   1      35.599  30.159  27.259  1.00  0.00    -0.237 OA
ATOM     88  O   UNL A   1      35.622  30.606  29.681  1.00  0.00    -0.744 OA
ENDBRANCH  84  85
ENDBRANCH  52  77
BRANCH  64  89
ATOM     89  C   UNL A   1      45.248  26.701  32.459  1.00  0.00     0.058 A 
ATOM     90  C   UNL A   1      44.807  25.376  32.305  1.00  0.00     0.135 A 
ATOM     91  C   UNL A   1      45.646  27.097  33.746  1.00  0.00     0.135 A 
ATOM     92  F   UNL A   1      44.523  24.879  31.092  1.00  0.00    -0.206 F 
ATOM     93  C   UNL A   1      44.714  24.501  33.388  1.00  0.00     0.059 A 
ATOM     94  C   UNL A   1      45.596  26.232  34.834  1.00  0.00     0.059 A 
ATOM     95  F   UNL A   1      46.142  28.329  33.948  1.00  0.00    -0.206 F 
ATOM     96  C   UNL A   1      45.112  24.938  34.652  1.00  0.00     0.060 A 
BRANCH  96  97
ATOM     97  S   UNL A   1      45.061  23.784  36.039  1.00  0.00     0.124 S 
ATOM     98  O   UNL A   1      46.280  24.123  36.764  1.00  0.00    -0.237 OA
ATOM     99  O   UNL A   1      43.809  24.138  36.701  1.00  0.00    -0.237 OA
ATOM    100  O   UNL A   1      45.063  22.473  35.392  1.00  0.00    -0.744 OA
ENDBRANCH  96  97
ENDBRANCH  64  89
ENDBRANCH  38  39
ENDBRANCH  31  33
ENDBRANCH  30  31
ENDBRANCH  29  30
ENDBRANCH   1  29
TORSDOF 19
ENDMDL
MODEL 2
REMARK VINA RESULT:     -11.9      3.452      9.699
REMARK SMILES CCCc1cc(-n2ccc(C(=O)OCCOC(=O)c3ccc(-c4c5nc(c(-c6c(F)cc(S(=O)(=O)[O-])cc6F)c6ccc([nH]6)c(-c6c(F)cc(S(=O)(=O)[O-])cc6F)c6nc(c(-c7c(F)cc(S(=O)(=O)[O-])cc7F)c7ccc4[nH]7)C=C6)C=C5)cc3)n2)nc(-c2ccc(C(F)(F)F)cc2)n1
REMARK SMILES IDX 14 1 13 2 11 3 12 4 10 5 7 6 8 7 85 8 9 9 6 10 4 11 5 12
REMARK SMILES IDX 98 13 87 14 86 15 3 16 2 17 1 18 88 19 89 20 97 21 90 22
REMARK SMILES IDX 96 23 91 24 92 25 93 26 94 27 95 28 15 29 16 30 17 31 18 32
REMARK SMILES IDX 19 33 20 34 84 35 21 36 83 37 22 38 23 39 24 40 77 41 25 42
REMARK SMILES IDX 82 43 76 44 78 45 26 46 81 47 75 48 74 49 27 51 61 52 40 53
REMARK SMILES IDX 60 54 41 55 44 56 59 57 79 58 42 59 43 60 58 62 80 63 45 64
REMARK SMILES IDX 28 65 29 66 38 67 30 68 31 69 37 70 39 71 32 72 33 73 34 74
REMARK SMILES IDX 35 75 36 76 62 77 63 78 72 79 64 80 65 81 71 82 73 83 66 84
REMARK SMILES IDX 67 85 68 86 69 87 70 88 46 89 47 90 56 91 48 92 49 93 55 94
REMARK SMILES IDX 57 95 50 96 51 97 52 98 53 99 54 100
REMARK H PARENT 78 50 44 61
REMARK Flexibility Score: inf
ROOT
ATOM      1  C   UNL A   1      32.274  30.142  26.073  1.00  0.00     0.275 C 
ENDROOT
BRANCH   1   2
ATOM      2  O   UNL A   1      31.848  28.801  26.370  1.00  0.00    -0.457 OA
BRANCH   2   3
ATOM      3  C   UNL A   1      31.336  28.079  25.325  1.00  0.00     0.358 C 
ATOM      4  O   UNL A   1      30.869  28.579  24.302  1.00  0.00    -0.244 OA
BRANCH   3   5
ATOM      5  C   UNL A   1      31.577  26.638  25.460  1.00  0.00     0.170 A 
ATOM      6  N   UNL A   1      32.611  24.770  25.380  1.00  0.00    -0.222 N 
ATOM      7  C   UNL A   1      31.276  24.444  25.321  1.00  0.00     0.118 A 
ATOM      8  N   UNL A   1      32.805  26.099  25.563  1.00  0.00    -0.159 NA
ATOM      9  C   UNL A   1      30.582  25.623  25.431  1.00  0.00     0.058 A 
BRANCH   6  10
ATOM     10  C   UNL A   1      33.708  23.870  25.320  1.00  0.00     0.157 A 
ATOM     11  C   UNL A   1      36.020  23.450  25.208  1.00  0.00     0.047 A 
ATOM     12  C   UNL A   1      34.995  24.369  25.334  1.00  0.00     0.073 A 
ATOM     13  N   UNL A   1      35.776  22.123  25.095  1.00  0.00    -0.233 NA
ATOM     14  C   UNL A   1      34.485  21.736  25.112  1.00  0.00     0.161 A 
ATOM     15  N   UNL A   1      33.436  22.555  25.228  1.00  0.00    -0.209 NA
BRANCH  11  16
ATOM     16  C   UNL A   1      37.466  23.885  25.268  1.00  0.00     0.056 C 
BRANCH  16  17
ATOM     17  C   UNL A   1      38.145  23.806  26.643  1.00  0.00     0.003 C 
ATOM     18  C   UNL A   1      39.351  24.720  26.819  1.00  0.00     0.004 C 
ENDBRANCH  16  17
ENDBRANCH  11  16
BRANCH  14  19
ATOM     19  C   UNL A   1      34.159  20.317  24.988  1.00  0.00     0.019 A 
ATOM     20  C   UNL A   1      35.130  19.375  24.625  1.00  0.00     0.012 A 
ATOM     21  C   UNL A   1      32.878  19.851  25.338  1.00  0.00     0.012 A 
ATOM     22  C   UNL A   1      34.842  18.006  24.649  1.00  0.00     0.014 A 
ATOM     23  C   UNL A   1      32.582  18.486  25.348  1.00  0.00     0.014 A 
ATOM     24  C   UNL A   1      33.568  17.547  25.019  1.00  0.00     0.056 A 
BRANCH  24  25
ATOM     25  C   UNL A   1      33.286  16.068  25.088  1.00  0.00     0.416 C 
ATOM     26  F   UNL A   1      32.909  15.551  23.885  1.00  0.00    -0.166 F 
ATOM     27  F   UNL A   1      34.373  15.346  25.478  1.00  0.00    -0.166 F 
ATOM     28  F   UNL A   1      32.290  15.739  25.959  1.00  0.00    -0.166 F 
ENDBRANCH  24  25
ENDBRANCH  14  19
ENDBRANCH   6  10
ENDBRANCH   3   5
ENDBRANCH   2   3
ENDBRANCH   1   2
BRANCH   1  29
ATOM     29  C   UNL A   1      33.027  30.769  27.241  1.00  0.00     0.275 C 
BRANCH  29  30
ATOM     30  O   UNL A   1      34.413  30.438  27.192  1.00  0.00    -0.458 OA
BRANCH  30  31
ATOM     31  C   UNL A   1      35.238  31.345  27.761  1.00  0.00     0.338 C 
ATOM     32  O   UNL A   1      35.305  32.535  27.505  1.00  0.00    -0.246 OA
BRANCH  31  33
ATOM     33  C   UNL A   1      36.222  30.652  28.595  1.00  0.00     0.060 A 
ATOM     34  C   UNL A   1      37.039  31.461  29.394  1.00  0.00     0.016 A 
ATOM     35  C   UNL A   1      36.551  29.327  28.289  1.00  0.00     0.016 A 
ATOM     36  C   UNL A   1      38.305  31.013  29.692  1.00  0.00     0.010 A 
ATOM     37  C   UNL A   1      37.826  28.899  28.552  1.00  0.00     0.010 A 
ATOM     38  C   UNL A   1      38.708  29.781  29.176  1.00  0.00    -0.014 A 
BRANCH  38  39
ATOM     39  C   UNL A   1      40.089  29.389  29.342  1.00  0.00     0.031 A 
ATOM     40  C   UNL A   1      40.494  29.287  30.762  1.00  0.00     0.074 A 
ATOM     41  C   UNL A   1      40.820  28.983  28.287  1.00  0.00     0.049 A 
ATOM     42  N   UNL A   1      41.371  29.984  31.404  1.00  0.00    -0.248 NA
ATOM     43  C   UNL A   1      39.669  28.421  31.625  1.00  0.00     0.031 C 
ATOM     44  C   UNL A   1      40.357  28.726  26.919  1.00  0.00     0.029 A 
ATOM     45  N   UNL A   1      42.107  28.561  28.250  1.00  0.00    -0.354 N 
ATOM     46  C   UNL A   1      41.367  29.466  32.697  1.00  0.00     0.074 A 
ATOM     47  C   UNL A   1      40.151  28.715  32.830  1.00  0.00     0.031 C 
ATOM     48  C   UNL A   1      41.271  27.959  26.283  1.00  0.00     0.029 A 
ATOM     49  C   UNL A   1      42.412  27.757  27.159  1.00  0.00     0.049 A 
ATOM     50  H   UNL A   1      42.769  28.803  28.937  1.00  0.00     0.167 HD
ATOM     51  C   UNL A   1      42.495  29.442  33.458  1.00  0.00     0.037 A 
ATOM     52  C   UNL A   1      43.460  26.896  27.086  1.00  0.00     0.037 A 
ATOM     53  C   UNL A   1      43.476  30.376  32.962  1.00  0.00     0.049 A 
ATOM     54  C   UNL A   1      44.411  27.275  28.175  1.00  0.00     0.074 A 
ATOM     55  C   UNL A   1      43.467  31.734  32.704  1.00  0.00     0.029 A 
ATOM     56  N   UNL A   1      44.564  29.875  32.284  1.00  0.00    -0.354 N 
ATOM     57  N   UNL A   1      45.092  28.390  28.201  1.00  0.00    -0.248 NA
ATOM     58  C   UNL A   1      44.246  26.622  29.468  1.00  0.00     0.031 C 
ATOM     59  C   UNL A   1      44.228  31.888  31.509  1.00  0.00     0.029 A 
ATOM     60  C   UNL A   1      44.707  30.630  31.146  1.00  0.00     0.049 A 
ATOM     61  H   UNL A   1      45.130  29.121  32.562  1.00  0.00     0.167 HD
ATOM     62  C   UNL A   1      45.087  28.785  29.533  1.00  0.00     0.074 A 
ATOM     63  C   UNL A   1      44.612  27.621  30.276  1.00  0.00     0.031 C 
ATOM     64  C   UNL A   1      45.188  30.101  29.890  1.00  0.00     0.037 A 
BRANCH  51  65
ATOM     65  C   UNL A   1      42.846  28.302  34.394  1.00  0.00     0.058 A 
ATOM     66  C   UNL A   1      43.130  28.595  35.743  1.00  0.00     0.135 A 
ATOM     67  C   UNL A   1      43.190  26.994  33.975  1.00  0.00     0.135 A 
ATOM     68  F   UNL A   1      42.842  29.803  36.255  1.00  0.00    -0.206 F 
ATOM     69  C   UNL A   1      43.791  27.696  36.580  1.00  0.00     0.059 A 
ATOM     70  C   UNL A   1      43.791  26.063  34.810  1.00  0.00     0.059 A 
ATOM     71  F   UNL A   1      43.056  26.572  32.714  1.00  0.00    -0.206 F 
ATOM     72  C   UNL A   1      44.137  26.440  36.094  1.00  0.00     0.060 A 
BRANCH  72  73
ATOM     73  S   UNL A   1      45.112  25.326  37.116  1.00  0.00     0.124 S 
ATOM     74  O   UNL A   1      44.636  24.026  36.654  1.00  0.00    -0.237 OA
ATOM     75  O   UNL A   1      46.474  25.682  36.736  1.00  0.00    -0.237 OA
ATOM     76  O   UNL A   1      44.727  25.695  38.474  1.00  0.00    -0.744 OA
ENDBRANCH  72  73
ENDBRANCH  51  65
BRANCH  52  77
ATOM     77  C   UNL A   1      43.494  25.555  26.432  1.00  0.00     0.058 A 
ATOM     78  C   UNL A   1      44.302  25.327  25.303  1.00  0.00     0.135 A 
ATOM     79  C   UNL A   1      42.958  24.404  27.047  1.00  0.00     0.135 A 
ATOM     80  F   UNL A   1      44.868  26.360  24.661  1.00  0.00    -0.206 F 
ATOM     81  C   UNL A   1      44.607  24.039  24.848  1.00  0.00     0.059 A 
ATOM     82  C   UNL A   1      43.231  23.112  26.600  1.00  0.00     0.059 A 
ATOM     83  F   UNL A   1      42.223  24.483  28.165  1.00  0.00    -0.206 F 
ATOM     84  C   UNL A   1      44.083  22.934  25.519  1.00  0.00     0.060 A 
BRANCH  84  85
ATOM     85  S   UNL A   1      44.623  21.271  25.064  1.00  0.00     0.124 S 
ATOM     86  O   UNL A   1      43.643  20.436  25.749  1.00  0.00    -0.237 OA
ATOM     87  O   UNL A   1      44.529  21.303  23.609  1.00  0.00    -0.237 OA
ATOM     88  O   UNL A   1      45.984  21.199  25.595  1.00  0.00    -0.744 OA
ENDBRANCH  84  85
ENDBRANCH  52  77
BRANCH  64  89
ATOM     89  C   UNL A   1      45.594  31.106  28.844  1.00  0.00     0.058 A 
ATOM     90  C   UNL A   1      44.717  31.672  27.903  1.00  0.00     0.135 A 
ATOM     91  C   UNL A   1      46.893  31.635  28.906  1.00  0.00     0.135 A 
ATOM     92  F   UNL A   1      43.426  31.311  27.858  1.00  0.00    -0.206 F 
ATOM     93  C   UNL A   1      45.128  32.678  27.027  1.00  0.00     0.059 A 
ATOM     94  C   UNL A   1      47.314  32.662  28.068  1.00  0.00     0.059 A 
ATOM     95  F   UNL A   1      47.759  31.186  29.830  1.00  0.00    -0.206 F 
ATOM     96  C   UNL A   1      46.430  33.168  27.118  1.00  0.00     0.060 A 
BRANCH  96  97
ATOM     97  S   UNL A   1      46.938  34.520  26.034  1.00  0.00     0.124 S 
ATOM     98  O   UNL A   1      46.923  35.662  26.942  1.00  0.00    -0.237 OA
ATOM     99  O   UNL A   1      48.257  34.087  25.582  1.00  0.00    -0.237 OA
ATOM    100  O   UNL A   1      45.908  34.532  24.998  1.00  0.00    -0.744 OA
ENDBRANCH  96  97
ENDBRANCH  64  89
ENDBRANCH  38  39
ENDBRANCH  31  33
ENDBRANCH  30  31
ENDBRANCH  29  30
ENDBRANCH   1  29
TORSDOF 19
ENDMDL
MODEL 3
REMARK VINA RESULT:     -11.8      3.314      9.591
REMARK SMILES CCCc1cc(-n2ccc(C(=O)OCCOC(=O)c3ccc(-c4c5nc(c(-c6c(F)cc(S(=O)(=O)[O-])cc6F)c6ccc([nH]6)c(-c6c(F)cc(S(=O)(=O)[O-])cc6F)c6nc(c(-c7c(F)cc(S(=O)(=O)[O-])cc7F)c7ccc4[nH]7)C=C6)C=C5)cc3)n2)nc(-c2ccc(C(F)(F)F)cc2)n1
REMARK SMILES IDX 14 1 13 2 11 3 12 4 10 5 7 6 8 7 85 8 9 9 6 10 4 11 5 12
REMARK SMILES IDX 98 13 87 14 86 15 3 16 2 17 1 18 88 19 89 20 97 21 90 22
REMARK SMILES IDX 96 23 91 24 92 25 93 26 94 27 95 28 15 29 16 30 17 31 18 32
REMARK SMILES IDX 19 33 20 34 84 35 21 36 83 37 22 38 23 39 24 40 77 41 25 42
REMARK SMILES IDX 82 43 76 44 78 45 26 46 81 47 75 48 74 49 27 51 61 52 40 53
REMARK SMILES IDX 60 54 41 55 44 56 59 57 79 58 42 59 43 60 58 62 80 63 45 64
REMARK SMILES IDX 28 65 29 66 38 67 30 68 31 69 37 70 39 71 32 72 33 73 34 74
REMARK SMILES IDX 35 75 36 76 62 77 63 78 72 79 64 80 65 81 71 82 73 83 66 84
REMARK SMILES IDX 67 85 68 86 69 87 70 88 46 89 47 90 56 91 48 92 49 93 55 94
REMARK SMILES IDX 57 95 50 96 51 97 52 98 53 99 54 100
REMARK H PARENT 78 50 44 61
REMARK Flexibility Score: inf
ROOT
ATOM      1  C   UNL A   1      31.991  30.483  26.027  1.00  0.00     0.275 C 
ENDROOT
BRANCH   1   2
ATOM      2  O   UNL A   1      31.626  29.128  25.710  1.00  0.00    -0.457 OA
BRANCH   2   3
ATOM      3  C   UNL A   1      31.124  28.911  24.454  1.00  0.00     0.358 C 
ATOM      4  O   UNL A   1      30.233  29.586  23.939  1.00  0.00    -0.244 OA
BRANCH   3   5
ATOM      5  C   UNL A   1      31.891  27.911  23.703  1.00  0.00     0.170 A 
ATOM      6  N   UNL A   1      32.927  26.089  23.286  1.00  0.00    -0.222 N 
ATOM      7  C   UNL A   1      33.453  27.010  22.410  1.00  0.00     0.118 A 
ATOM      8  N   UNL A   1      31.905  26.602  24.014  1.00  0.00    -0.159 NA
ATOM      9  C   UNL A   1      32.763  28.178  22.614  1.00  0.00     0.058 A 
BRANCH   6  10
ATOM     10  C   UNL A   1      33.319  24.730  23.427  1.00  0.00     0.157 A 
ATOM     11  C   UNL A   1      32.842  22.431  23.306  1.00  0.00     0.047 A 
ATOM     12  C   UNL A   1      32.429  23.731  23.087  1.00  0.00     0.073 A 
ATOM     13  N   UNL A   1      34.065  22.148  23.813  1.00  0.00    -0.233 NA
ATOM     14  C   UNL A   1      34.867  23.195  24.093  1.00  0.00     0.161 A 
ATOM     15  N   UNL A   1      34.548  24.480  23.914  1.00  0.00    -0.209 NA
BRANCH  11  16
ATOM     16  C   UNL A   1      31.968  21.261  22.917  1.00  0.00     0.056 C 
BRANCH  16  17
ATOM     17  C   UNL A   1      32.509  19.863  23.257  1.00  0.00     0.003 C 
ATOM     18  C   UNL A   1      32.365  19.455  24.718  1.00  0.00     0.004 C 
ENDBRANCH  16  17
ENDBRANCH  11  16
BRANCH  14  19
ATOM     19  C   UNL A   1      36.197  22.953  24.648  1.00  0.00     0.019 A 
ATOM     20  C   UNL A   1      36.830  23.902  25.461  1.00  0.00     0.012 A 
ATOM     21  C   UNL A   1      36.827  21.710  24.461  1.00  0.00     0.012 A 
ATOM     22  C   UNL A   1      38.038  23.602  26.102  1.00  0.00     0.014 A 
ATOM     23  C   UNL A   1      38.041  21.412  25.085  1.00  0.00     0.014 A 
ATOM     24  C   UNL A   1      38.651  22.351  25.927  1.00  0.00     0.056 A 
BRANCH  24  25
ATOM     25  C   UNL A   1      39.926  22.025  26.661  1.00  0.00     0.416 C 
ATOM     26  F   UNL A   1      40.099  22.790  27.775  1.00  0.00    -0.166 F 
ATOM     27  F   UNL A   1      39.968  20.732  27.088  1.00  0.00    -0.166 F 
ATOM     28  F   UNL A   1      41.052  22.203  25.913  1.00  0.00    -0.166 F 
ENDBRANCH  24  25
ENDBRANCH  14  19
ENDBRANCH   6  10
ENDBRANCH   3   5
ENDBRANCH   2   3
ENDBRANCH   1   2
BRANCH   1  29
ATOM     29  C   UNL A   1      32.766  30.569  27.338  1.00  0.00     0.275 C 
BRANCH  29  30
ATOM     30  O   UNL A   1      34.171  30.503  27.105  1.00  0.00    -0.458 OA
BRANCH  30  31
ATOM     31  C   UNL A   1      34.899  31.455  27.730  1.00  0.00     0.338 C 
ATOM     32  O   UNL A   1      34.896  32.651  27.496  1.00  0.00    -0.246 OA
BRANCH  31  33
ATOM     33  C   UNL A   1      35.885  30.817  28.605  1.00  0.00     0.060 A 
ATOM     34  C   UNL A   1      36.648  31.671  29.409  1.00  0.00     0.016 A 
ATOM     35  C   UNL A   1      36.272  29.499  28.335  1.00  0.00     0.016 A 
ATOM     36  C   UNL A   1      37.921  31.279  29.752  1.00  0.00     0.010 A 
ATOM     37  C   UNL A   1      37.555  29.126  28.642  1.00  0.00     0.010 A 
ATOM     38  C   UNL A   1      38.385  30.053  29.272  1.00  0.00    -0.014 A 
BRANCH  38  39
ATOM     39  C   UNL A   1      39.775  29.718  29.484  1.00  0.00     0.031 A 
ATOM     40  C   UNL A   1      40.126  29.592  30.917  1.00  0.00     0.074 A 
ATOM     41  C   UNL A   1      40.565  29.376  28.449  1.00  0.00     0.049 A 
ATOM     42  N   UNL A   1      40.944  30.308  31.613  1.00  0.00    -0.248 NA
ATOM     43  C   UNL A   1      39.308  28.664  31.720  1.00  0.00     0.031 C 
ATOM     44  C   UNL A   1      40.169  29.140  27.057  1.00  0.00     0.029 A 
ATOM     45  N   UNL A   1      41.870  29.013  28.454  1.00  0.00    -0.354 N 
ATOM     46  C   UNL A   1      40.912  29.752  32.890  1.00  0.00     0.074 A 
ATOM     47  C   UNL A   1      39.728  28.944  32.952  1.00  0.00     0.031 C 
ATOM     48  C   UNL A   1      41.142  28.433  26.438  1.00  0.00     0.029 A 
ATOM     49  C   UNL A   1      42.255  28.256  27.355  1.00  0.00     0.049 A 
ATOM     50  H   UNL A   1      42.493  29.264  29.174  1.00  0.00     0.167 HD
ATOM     51  C   UNL A   1      42.009  29.755  33.696  1.00  0.00     0.037 A 
ATOM     52  C   UNL A   1      43.343  27.445  27.301  1.00  0.00     0.037 A 
ATOM     53  C   UNL A   1      42.965  30.746  33.267  1.00  0.00     0.049 A 
ATOM     54  C   UNL A   1      44.232  27.833  28.438  1.00  0.00     0.074 A 
ATOM     55  C   UNL A   1      42.905  32.110  33.047  1.00  0.00     0.029 A 
ATOM     56  N   UNL A   1      44.101  30.314  32.621  1.00  0.00    -0.354 N 
ATOM     57  N   UNL A   1      44.859  28.976  28.524  1.00  0.00    -0.248 NA
ATOM     58  C   UNL A   1      44.044  27.136  29.705  1.00  0.00     0.031 C 
ATOM     59  C   UNL A   1      43.706  32.333  31.890  1.00  0.00     0.029 A 
ATOM     60  C   UNL A   1      44.256  31.108  31.512  1.00  0.00     0.049 A 
ATOM     61  H   UNL A   1      44.689  29.578  32.901  1.00  0.00     0.167 HD
ATOM     62  C   UNL A   1      44.783  29.331  29.865  1.00  0.00     0.074 A 
ATOM     63  C   UNL A   1      44.332  28.125  30.555  1.00  0.00     0.031 C 
ATOM     64  C   UNL A   1      44.810  30.639  30.262  1.00  0.00     0.037 A 
BRANCH  51  65
ATOM     65  C   UNL A   1      42.374  28.605  34.613  1.00  0.00     0.058 A 
ATOM     66  C   UNL A   1      42.665  28.881  35.965  1.00  0.00     0.135 A 
ATOM     67  C   UNL A   1      42.722  27.305  34.175  1.00  0.00     0.135 A 
ATOM     68  F   UNL A   1      42.373  30.080  36.496  1.00  0.00    -0.206 F 
ATOM     69  C   UNL A   1      43.338  27.975  36.784  1.00  0.00     0.059 A 
ATOM     70  C   UNL A   1      43.335  26.366  34.992  1.00  0.00     0.059 A 
ATOM     71  F   UNL A   1      42.582  26.900  32.909  1.00  0.00    -0.206 F 
ATOM     72  C   UNL A   1      43.688  26.727  36.278  1.00  0.00     0.060 A 
BRANCH  72  73
ATOM     73  S   UNL A   1      44.677  25.605  37.278  1.00  0.00     0.124 S 
ATOM     74  O   UNL A   1      46.017  26.138  37.063  1.00  0.00    -0.237 OA
ATOM     75  O   UNL A   1      44.111  25.808  38.607  1.00  0.00    -0.237 OA
ATOM     76  O   UNL A   1      44.410  24.301  36.680  1.00  0.00    -0.744 OA
ENDBRANCH  72  73
ENDBRANCH  51  65
BRANCH  52  77
ATOM     77  C   UNL A   1      43.465  26.127  26.612  1.00  0.00     0.058 A 
ATOM     78  C   UNL A   1      44.258  25.990  25.458  1.00  0.00     0.135 A 
ATOM     79  C   UNL A   1      43.035  24.923  27.209  1.00  0.00     0.135 A 
ATOM     80  F   UNL A   1      44.727  27.079  24.830  1.00  0.00    -0.206 F 
ATOM     81  C   UNL A   1      44.651  24.741  24.964  1.00  0.00     0.059 A 
ATOM     82  C   UNL A   1      43.396  23.667  26.723  1.00  0.00     0.059 A 
ATOM     83  F   UNL A   1      42.325  24.918  28.346  1.00  0.00    -0.206 F 
ATOM     84  C   UNL A   1      44.231  23.583  25.618  1.00  0.00     0.060 A 
BRANCH  84  85
ATOM     85  S   UNL A   1      44.887  21.978  25.107  1.00  0.00     0.124 S 
ATOM     86  O   UNL A   1      46.077  21.857  25.942  1.00  0.00    -0.237 OA
ATOM     87  O   UNL A   1      43.786  21.078  25.430  1.00  0.00    -0.237 OA
ATOM     88  O   UNL A   1      45.143  22.155  23.679  1.00  0.00    -0.744 OA
ENDBRANCH  84  85
ENDBRANCH  52  77
BRANCH  64  89
ATOM     89  C   UNL A   1      45.211  31.692  29.263  1.00  0.00     0.058 A 
ATOM     90  C   UNL A   1      46.540  32.039  28.965  1.00  0.00     0.135 A 
ATOM     91  C   UNL A   1      44.206  32.257  28.461  1.00  0.00     0.135 A 
ATOM     92  F   UNL A   1      47.565  31.454  29.600  1.00  0.00    -0.206 F 
ATOM     93  C   UNL A   1      46.852  32.948  27.953  1.00  0.00     0.059 A 
ATOM     94  C   UNL A   1      44.497  33.137  27.424  1.00  0.00     0.059 A 
ATOM     95  F   UNL A   1      42.922  31.913  28.649  1.00  0.00    -0.206 F 
ATOM     96  C   UNL A   1      45.823  33.492  27.185  1.00  0.00     0.060 A 
BRANCH  96  97
ATOM     97  S   UNL A   1      46.234  34.611  25.829  1.00  0.00     0.124 S 
ATOM     98  O   UNL A   1      45.242  34.248  24.822  1.00  0.00    -0.237 OA
ATOM     99  O   UNL A   1      46.067  35.926  26.440  1.00  0.00    -0.237 OA
ATOM    100  O   UNL A   1      47.614  34.258  25.502  1.00  0.00    -0.744 OA
ENDBRANCH  96  97
ENDBRANCH  64  89
ENDBRANCH  38  39
ENDBRANCH  31  33
ENDBRANCH  30  31
ENDBRANCH  29  30
ENDBRANCH   1  29
TORSDOF 19
ENDMDL
