MODEL 1
REMARK VINA RESULT:     -12.0      0.000      0.000
REMARK SMILES Cn1ncc(C(=O)OCCOC(=O)c2ccc(-c3c4nc(c(-c5c(F)cc(S(=O)(=O)[O-])cc5F)c5ccc([nH]5)c(-c5c(F)cc(S(=O)(=O)[O-])cc5F)c5nc(c(-c6c(F)cc(S(=O)(=O)[O-])cc6F)c6ccc3[nH]6)C=C5)C=C4)cc2)c1C(=O)NCC1CC[NH+](Cc2ccccc2)CC1
REMARK SMILES IDX 9 1 8 2 6 3 7 4 5 5 1 6 2 7 3 8 80 9 4 10 81 11 82 12 83 13
REMARK SMILES IDX 84 15 85 16 86 17 97 18 87 19 96 20 88 21 89 23 90 24 91 25
REMARK SMILES IDX 95 26 92 27 94 28 93 29 10 30 11 31 12 32 13 33 14 34 15 35
REMARK SMILES IDX 79 36 16 37 78 38 17 39 18 40 19 41 72 42 20 43 77 44 71 45
REMARK SMILES IDX 73 46 21 47 76 48 70 49 69 50 22 52 56 53 35 54 55 55 36 56
REMARK SMILES IDX 39 57 54 58 74 59 37 60 38 61 53 63 75 64 40 65 23 66 24 67
REMARK SMILES IDX 33 68 25 69 26 70 32 71 34 72 27 73 28 74 29 75 30 76 31 77
REMARK SMILES IDX 57 78 58 79 67 80 59 81 60 82 66 83 68 84 61 85 62 86 63 87
REMARK SMILES IDX 64 88 65 89 41 90 42 91 51 92 43 93 44 94 50 95 52 96 45 97
REMARK SMILES IDX 46 98 47 99 48 100 49 101
REMARK H PARENT 83 14 88 22 73 51 39 62
REMARK Flexibility Score: inf
ROOT
ATOM      1  C   UNL A   1      33.059  30.236  27.237  1.00  0.00     0.275 C 
ENDROOT
BRANCH   1   2
ATOM      2  O   UNL A   1      32.890  30.203  25.804  1.00  0.00    -0.458 OA
BRANCH   2   3
ATOM      3  C   UNL A   1      33.016  28.964  25.242  1.00  0.00     0.342 C 
ATOM      4  O   UNL A   1      34.028  28.274  25.342  1.00  0.00    -0.246 OA
BRANCH   3   5
ATOM      5  C   UNL A   1      31.810  28.411  24.646  1.00  0.00     0.111 A 
ATOM      6  C   UNL A   1      28.774  26.629  23.875  1.00  0.00     0.174 C 
ATOM      7  N   UNL A   1      29.963  27.406  24.063  1.00  0.00    -0.262 N 
ATOM      8  N   UNL A   1      30.155  28.319  23.099  1.00  0.00    -0.180 NA
ATOM      9  C   UNL A   1      30.907  27.411  25.072  1.00  0.00     0.140 A 
ATOM     10  C   UNL A   1      31.245  28.955  23.477  1.00  0.00     0.151 A 
BRANCH   9  11
ATOM     11  C   UNL A   1      31.036  26.660  26.314  1.00  0.00     0.270 C 
ATOM     12  O   UNL A   1      31.145  27.254  27.393  1.00  0.00    -0.268 OA
ATOM     13  N   UNL A   1      31.033  25.300  26.503  1.00  0.00    -0.350 N 
ATOM     14  H   UNL A   1      31.499  25.074  27.340  1.00  0.00     0.163 HD
BRANCH  13  15
ATOM     15  C   UNL A   1      30.554  24.092  25.851  1.00  0.00     0.120 C 
BRANCH  15  16
ATOM     16  C   UNL A   1      31.471  22.832  25.890  1.00  0.00     0.019 C 
ATOM     17  C   UNL A   1      32.530  22.864  27.005  1.00  0.00     0.067 C 
ATOM     18  C   UNL A   1      32.183  22.427  24.591  1.00  0.00     0.067 C 
ATOM     19  C   UNL A   1      33.772  23.675  26.630  1.00  0.00     0.262 C 
ATOM     20  C   UNL A   1      33.363  23.341  24.253  1.00  0.00     0.262 C 
ATOM     21  N   UNL A   1      34.338  23.273  25.343  1.00  0.00    -0.331 N 
ATOM     22  H   UNL A   1      34.581  22.288  25.450  1.00  0.00     0.348 HD
BRANCH  21  23
ATOM     23  C   UNL A   1      35.611  23.942  25.020  1.00  0.00     0.299 C 
BRANCH  23  24
ATOM     24  C   UNL A   1      36.888  23.231  25.415  1.00  0.00     0.006 A 
ATOM     25  C   UNL A   1      37.098  21.897  25.041  1.00  0.00     0.009 A 
ATOM     26  C   UNL A   1      37.874  23.876  26.179  1.00  0.00     0.009 A 
ATOM     27  C   UNL A   1      38.270  21.238  25.406  1.00  0.00     0.001 A 
ATOM     28  C   UNL A   1      39.066  23.234  26.502  1.00  0.00     0.001 A 
ATOM     29  C   UNL A   1      39.255  21.911  26.125  1.00  0.00     0.000 A 
ENDBRANCH  23  24
ENDBRANCH  21  23
ENDBRANCH  15  16
ENDBRANCH  13  15
ENDBRANCH   9  11
ENDBRANCH   3   5
ENDBRANCH   2   3
ENDBRANCH   1   2
BRANCH   1  30
ATOM     30  C   UNL A   1      34.311  31.003  27.660  1.00  0.00     0.275 C 
BRANCH  30  31
ATOM     31  O   UNL A   1      35.344  30.096  28.070  1.00  0.00    -0.458 OA
BRANCH  31  32
ATOM     32  C   UNL A   1      36.112  30.534  29.098  1.00  0.00     0.338 C 
ATOM     33  O   UNL A   1      35.763  31.210  30.047  1.00  0.00    -0.246 OA
BRANCH  32  34
ATOM     34  C   UNL A   1      37.502  30.097  28.916  1.00  0.00     0.060 A 
ATOM     35  C   UNL A   1      38.012  29.908  27.637  1.00  0.00     0.016 A 
ATOM     36  C   UNL A   1      38.268  29.780  30.037  1.00  0.00     0.016 A 
ATOM     37  C   UNL A   1      39.275  29.346  27.469  1.00  0.00     0.010 A 
ATOM     38  C   UNL A   1      39.578  29.326  29.870  1.00  0.00     0.010 A 
ATOM     39  C   UNL A   1      40.095  29.104  28.584  1.00  0.00    -0.014 A 
BRANCH  39  40
ATOM     40  C   UNL A   1      41.520  28.722  28.394  1.00  0.00     0.031 A 
ATOM     41  C   UNL A   1      42.619  29.746  28.481  1.00  0.00     0.074 A 
ATOM     42  C   UNL A   1      41.805  27.437  28.098  1.00  0.00     0.049 A 
ATOM     43  N   UNL A   1      43.886  29.621  28.180  1.00  0.00    -0.248 NA
ATOM     44  C   UNL A   1      42.246  31.090  28.949  1.00  0.00     0.031 C 
ATOM     45  C   UNL A   1      40.816  26.360  27.982  1.00  0.00     0.029 A 
ATOM     46  N   UNL A   1      42.998  26.810  27.845  1.00  0.00    -0.354 N 
ATOM     47  C   UNL A   1      44.454  30.874  28.377  1.00  0.00     0.074 A 
ATOM     48  C   UNL A   1      43.391  31.750  28.823  1.00  0.00     0.031 C 
ATOM     49  C   UNL A   1      41.445  25.202  27.740  1.00  0.00     0.029 A 
ATOM     50  C   UNL A   1      42.866  25.467  27.575  1.00  0.00     0.049 A 
ATOM     51  H   UNL A   1      43.866  27.276  27.856  1.00  0.00     0.167 HD
ATOM     52  C   UNL A   1      45.744  31.251  28.196  1.00  0.00     0.037 A 
ATOM     53  C   UNL A   1      43.775  24.554  27.188  1.00  0.00     0.037 A 
ATOM     54  C   UNL A   1      46.790  30.349  27.782  1.00  0.00     0.049 A 
ATOM     55  C   UNL A   1      45.191  25.001  26.984  1.00  0.00     0.074 A 
ATOM     56  C   UNL A   1      48.134  30.618  27.583  1.00  0.00     0.029 A 
ATOM     57  N   UNL A   1      46.611  28.998  27.510  1.00  0.00    -0.354 N 
ATOM     58  N   UNL A   1      45.705  26.197  27.147  1.00  0.00    -0.248 NA
ATOM     59  C   UNL A   1      46.146  23.987  26.524  1.00  0.00     0.031 C 
ATOM     60  C   UNL A   1      48.759  29.440  27.157  1.00  0.00     0.029 A 
ATOM     61  C   UNL A   1      47.815  28.425  27.132  1.00  0.00     0.049 A 
ATOM     62  H   UNL A   1      45.754  28.518  27.577  1.00  0.00     0.167 HD
ATOM     63  C   UNL A   1      47.047  26.080  26.811  1.00  0.00     0.074 A 
ATOM     64  C   UNL A   1      47.268  24.691  26.462  1.00  0.00     0.031 C 
ATOM     65  C   UNL A   1      48.006  27.038  26.785  1.00  0.00     0.037 A 
BRANCH  52  66
ATOM     66  C   UNL A   1      46.095  32.701  28.412  1.00  0.00     0.058 A 
ATOM     67  C   UNL A   1      46.535  33.186  29.653  1.00  0.00     0.135 A 
ATOM     68  C   UNL A   1      46.030  33.612  27.344  1.00  0.00     0.135 A 
ATOM     69  F   UNL A   1      46.606  32.365  30.713  1.00  0.00    -0.206 F 
ATOM     70  C   UNL A   1      46.875  34.525  29.834  1.00  0.00     0.059 A 
ATOM     71  C   UNL A   1      46.388  34.950  27.496  1.00  0.00     0.059 A 
ATOM     72  F   UNL A   1      45.618  33.205  26.132  1.00  0.00    -0.206 F 
ATOM     73  C   UNL A   1      46.797  35.400  28.750  1.00  0.00     0.060 A 
BRANCH  73  74
ATOM     74  S   UNL A   1      47.242  37.133  29.001  1.00  0.00     0.124 S 
ATOM     75  O   UNL A   1      48.168  37.036  30.124  1.00  0.00    -0.237 OA
ATOM     76  O   UNL A   1      47.838  37.492  27.719  1.00  0.00    -0.237 OA
ATOM     77  O   UNL A   1      45.964  37.774  29.295  1.00  0.00    -0.744 OA
ENDBRANCH  73  74
ENDBRANCH  52  66
BRANCH  53  78
ATOM     78  C   UNL A   1      43.351  23.152  26.930  1.00  0.00     0.058 A 
ATOM     79  C   UNL A   1      43.291  22.642  25.626  1.00  0.00     0.135 A 
ATOM     80  C   UNL A   1      43.044  22.279  27.988  1.00  0.00     0.135 A 
ATOM     81  F   UNL A   1      43.569  23.438  24.581  1.00  0.00    -0.206 F 
ATOM     82  C   UNL A   1      42.936  21.320  25.377  1.00  0.00     0.059 A 
ATOM     83  C   UNL A   1      42.718  20.946  27.766  1.00  0.00     0.059 A 
ATOM     84  F   UNL A   1      43.105  22.712  29.257  1.00  0.00    -0.206 F 
ATOM     85  C   UNL A   1      42.656  20.478  26.455  1.00  0.00     0.060 A 
BRANCH  85  86
ATOM     86  S   UNL A   1      42.250  18.749  26.127  1.00  0.00     0.124 S 
ATOM     87  O   UNL A   1      42.537  18.132  27.416  1.00  0.00    -0.237 OA
ATOM     88  O   UNL A   1      40.841  18.828  25.755  1.00  0.00    -0.237 OA
ATOM     89  O   UNL A   1      43.157  18.393  25.040  1.00  0.00    -0.744 OA
ENDBRANCH  85  86
ENDBRANCH  53  78
BRANCH  65  90
ATOM     90  C   UNL A   1      49.383  26.600  26.382  1.00  0.00     0.058 A 
ATOM     91  C   UNL A   1      50.254  25.988  27.296  1.00  0.00     0.135 A 
ATOM     92  C   UNL A   1      49.826  26.772  25.061  1.00  0.00     0.135 A 
ATOM     93  F   UNL A   1      49.881  25.814  28.573  1.00  0.00    -0.206 F 
ATOM     94  C   UNL A   1      51.530  25.581  26.919  1.00  0.00     0.059 A 
ATOM     95  C   UNL A   1      51.086  26.350  24.656  1.00  0.00     0.059 A 
ATOM     96  F   UNL A   1      49.025  27.348  24.150  1.00  0.00    -0.206 F 
ATOM     97  C   UNL A   1      51.936  25.765  25.596  1.00  0.00     0.060 A 
BRANCH  97  98
ATOM     98  S   UNL A   1      53.581  25.208  25.111  1.00  0.00     0.124 S 
ATOM     99  O   UNL A   1      54.431  25.981  26.010  1.00  0.00    -0.237 OA
ATOM    100  O   UNL A   1      53.517  23.774  25.377  1.00  0.00    -0.237 OA
ATOM    101  O   UNL A   1      53.662  25.574  23.700  1.00  0.00    -0.744 OA
ENDBRANCH  97  98
ENDBRANCH  65  90
ENDBRANCH  39  40
ENDBRANCH  32  34
ENDBRANCH  31  32
ENDBRANCH  30  31
ENDBRANCH   1  30
TORSDOF 19
ENDMDL
MODEL 2
REMARK VINA RESULT:     -11.9      7.019     12.851
REMARK SMILES Cn1ncc(C(=O)OCCOC(=O)c2ccc(-c3c4nc(c(-c5c(F)cc(S(=O)(=O)[O-])cc5F)c5ccc([nH]5)c(-c5c(F)cc(S(=O)(=O)[O-])cc5F)c5nc(c(-c6c(F)cc(S(=O)(=O)[O-])cc6F)c6ccc3[nH]6)C=C5)C=C4)cc2)c1C(=O)NCC1CC[NH+](Cc2ccccc2)CC1
REMARK SMILES IDX 9 1 8 2 6 3 7 4 5 5 1 6 2 7 3 8 80 9 4 10 81 11 82 12 83 13
REMARK SMILES IDX 84 15 85 16 86 17 97 18 87 19 96 20 88 21 89 23 90 24 91 25
REMARK SMILES IDX 95 26 92 27 94 28 93 29 10 30 11 31 12 32 13 33 14 34 15 35
REMARK SMILES IDX 79 36 16 37 78 38 17 39 18 40 19 41 72 42 20 43 77 44 71 45
REMARK SMILES IDX 73 46 21 47 76 48 70 49 69 50 22 52 56 53 35 54 55 55 36 56
REMARK SMILES IDX 39 57 54 58 74 59 37 60 38 61 53 63 75 64 40 65 23 66 24 67
REMARK SMILES IDX 33 68 25 69 26 70 32 71 34 72 27 73 28 74 29 75 30 76 31 77
REMARK SMILES IDX 57 78 58 79 67 80 59 81 60 82 66 83 68 84 61 85 62 86 63 87
REMARK SMILES IDX 64 88 65 89 41 90 42 91 51 92 43 93 44 94 50 95 52 96 45 97
REMARK SMILES IDX 46 98 47 99 48 100 49 101
REMARK H PARENT 83 14 88 22 73 51 39 62
REMARK Flexibility Score: inf
ROOT
ATOM      1  C   UNL A   1      39.607  22.038  26.388  1.00  0.00     0.275 C 
ENDROOT
BRANCH   1   2
ATOM      2  O   UNL A   1      40.306  20.878  25.887  1.00  0.00    -0.458 OA
BRANCH   2   3
ATOM      3  C   UNL A   1      41.193  20.323  26.765  1.00  0.00     0.342 C 
ATOM      4  O   UNL A   1      40.933  20.104  27.945  1.00  0.00    -0.246 OA
BRANCH   3   5
ATOM      5  C   UNL A   1      42.438  19.838  26.188  1.00  0.00     0.111 A 
ATOM      6  C   UNL A   1      45.688  19.435  24.686  1.00  0.00     0.174 C 
ATOM      7  N   UNL A   1      44.393  19.458  25.298  1.00  0.00    -0.262 N 
ATOM      8  N   UNL A   1      43.976  18.247  25.696  1.00  0.00    -0.180 NA
ATOM      9  C   UNL A   1      43.533  20.499  25.589  1.00  0.00     0.140 A 
ATOM     10  C   UNL A   1      42.815  18.485  26.274  1.00  0.00     0.151 A 
BRANCH   9  11
ATOM     11  C   UNL A   1      43.625  21.942  25.406  1.00  0.00     0.270 C 
ATOM     12  O   UNL A   1      43.143  22.474  24.398  1.00  0.00    -0.268 OA
ATOM     13  N   UNL A   1      44.177  22.883  26.238  1.00  0.00    -0.350 N 
ATOM     14  H   UNL A   1      44.435  23.681  25.723  1.00  0.00     0.163 HD
BRANCH  13  15
ATOM     15  C   UNL A   1      44.499  23.066  27.644  1.00  0.00     0.120 C 
BRANCH  15  16
ATOM     16  C   UNL A   1      43.414  23.707  28.562  1.00  0.00     0.019 C 
ATOM     17  C   UNL A   1      43.605  25.215  28.797  1.00  0.00     0.067 C 
ATOM     18  C   UNL A   1      43.161  23.057  29.930  1.00  0.00     0.067 C 
ATOM     19  C   UNL A   1      44.624  25.526  29.896  1.00  0.00     0.262 C 
ATOM     20  C   UNL A   1      44.269  23.357  30.941  1.00  0.00     0.262 C 
ATOM     21  N   UNL A   1      44.348  24.806  31.138  1.00  0.00    -0.331 N 
ATOM     22  H   UNL A   1      43.418  25.108  31.425  1.00  0.00     0.348 HD
BRANCH  21  23
ATOM     23  C   UNL A   1      45.231  25.188  32.254  1.00  0.00     0.299 C 
BRANCH  23  24
ATOM     24  C   UNL A   1      45.051  24.452  33.564  1.00  0.00     0.006 A 
ATOM     25  C   UNL A   1      43.803  24.446  34.204  1.00  0.00     0.009 A 
ATOM     26  C   UNL A   1      46.123  23.784  34.179  1.00  0.00     0.009 A 
ATOM     27  C   UNL A   1      43.634  23.773  35.412  1.00  0.00     0.001 A 
ATOM     28  C   UNL A   1      45.941  23.071  35.361  1.00  0.00     0.001 A 
ATOM     29  C   UNL A   1      44.699  23.079  35.981  1.00  0.00     0.000 A 
ENDBRANCH  23  24
ENDBRANCH  21  23
ENDBRANCH  15  16
ENDBRANCH  13  15
ENDBRANCH   9  11
ENDBRANCH   3   5
ENDBRANCH   2   3
ENDBRANCH   1   2
BRANCH   1  30
ATOM     30  C   UNL A   1      40.519  23.256  26.526  1.00  0.00     0.275 C 
BRANCH  30  31
ATOM     31  O   UNL A   1      39.782  24.467  26.305  1.00  0.00    -0.458 OA
BRANCH  31  32
ATOM     32  C   UNL A   1      40.543  25.580  26.171  1.00  0.00     0.338 C 
ATOM     33  O   UNL A   1      41.240  25.892  25.224  1.00  0.00    -0.246 OA
BRANCH  32  34
ATOM     34  C   UNL A   1      40.447  26.409  27.380  1.00  0.00     0.060 A 
ATOM     35  C   UNL A   1      41.233  27.548  27.510  1.00  0.00     0.016 A 
ATOM     36  C   UNL A   1      39.633  25.988  28.431  1.00  0.00     0.016 A 
ATOM     37  C   UNL A   1      41.256  28.241  28.717  1.00  0.00     0.010 A 
ATOM     38  C   UNL A   1      39.567  26.750  29.599  1.00  0.00     0.010 A 
ATOM     39  C   UNL A   1      40.379  27.885  29.754  1.00  0.00    -0.014 A 
BRANCH  39  40
ATOM     40  C   UNL A   1      40.239  28.760  30.948  1.00  0.00     0.031 A 
ATOM     41  C   UNL A   1      39.205  29.853  30.997  1.00  0.00     0.074 A 
ATOM     42  C   UNL A   1      41.092  28.580  31.979  1.00  0.00     0.049 A 
ATOM     43  N   UNL A   1      39.058  30.807  31.880  1.00  0.00    -0.248 NA
ATOM     44  C   UNL A   1      38.222  29.893  29.904  1.00  0.00     0.031 C 
ATOM     45  C   UNL A   1      42.138  27.554  32.036  1.00  0.00     0.029 A 
ATOM     46  N   UNL A   1      41.219  29.240  33.174  1.00  0.00    -0.354 N 
ATOM     47  C   UNL A   1      37.998  31.586  31.430  1.00  0.00     0.074 A 
ATOM     48  C   UNL A   1      37.538  30.994  30.191  1.00  0.00     0.031 C 
ATOM     49  C   UNL A   1      42.758  27.616  33.222  1.00  0.00     0.029 A 
ATOM     50  C   UNL A   1      42.232  28.751  33.966  1.00  0.00     0.049 A 
ATOM     51  H   UNL A   1      40.642  29.993  33.439  1.00  0.00     0.167 HD
ATOM     52  C   UNL A   1      37.465  32.694  32.003  1.00  0.00     0.037 A 
ATOM     53  C   UNL A   1      42.722  29.190  35.139  1.00  0.00     0.037 A 
ATOM     54  C   UNL A   1      37.922  33.244  33.256  1.00  0.00     0.049 A 
ATOM     55  C   UNL A   1      42.123  30.424  35.743  1.00  0.00     0.074 A 
ATOM     56  C   UNL A   1      37.446  34.351  33.937  1.00  0.00     0.029 A 
ATOM     57  N   UNL A   1      38.957  32.721  34.022  1.00  0.00    -0.354 N 
ATOM     58  N   UNL A   1      41.140  31.165  35.290  1.00  0.00    -0.248 NA
ATOM     59  C   UNL A   1      42.710  30.896  37.003  1.00  0.00     0.031 C 
ATOM     60  C   UNL A   1      38.216  34.519  35.094  1.00  0.00     0.029 A 
ATOM     61  C   UNL A   1      39.143  33.492  35.159  1.00  0.00     0.049 A 
ATOM     62  H   UNL A   1      39.481  31.920  33.790  1.00  0.00     0.167 HD
ATOM     63  C   UNL A   1      40.987  32.193  36.210  1.00  0.00     0.074 A 
ATOM     64  C   UNL A   1      41.961  31.961  37.258  1.00  0.00     0.031 C 
ATOM     65  C   UNL A   1      40.125  33.239  36.185  1.00  0.00     0.037 A 
BRANCH  52  66
ATOM     66  C   UNL A   1      36.356  33.405  31.273  1.00  0.00     0.058 A 
ATOM     67  C   UNL A   1      35.045  33.455  31.772  1.00  0.00     0.135 A 
ATOM     68  C   UNL A   1      36.621  34.086  30.072  1.00  0.00     0.135 A 
ATOM     69  F   UNL A   1      34.730  32.814  32.909  1.00  0.00    -0.206 F 
ATOM     70  C   UNL A   1      34.033  34.133  31.097  1.00  0.00     0.059 A 
ATOM     71  C   UNL A   1      35.628  34.790  29.392  1.00  0.00     0.059 A 
ATOM     72  F   UNL A   1      37.856  34.075  29.547  1.00  0.00    -0.206 F 
ATOM     73  C   UNL A   1      34.333  34.797  29.906  1.00  0.00     0.060 A 
BRANCH  73  74
ATOM     74  S   UNL A   1      33.010  35.672  29.043  1.00  0.00     0.124 S 
ATOM     75  O   UNL A   1      33.762  36.677  28.300  1.00  0.00    -0.237 OA
ATOM     76  O   UNL A   1      32.406  34.613  28.241  1.00  0.00    -0.237 OA
ATOM     77  O   UNL A   1      32.177  36.185  30.126  1.00  0.00    -0.744 OA
ENDBRANCH  73  74
ENDBRANCH  52  66
BRANCH  53  78
ATOM     78  C   UNL A   1      43.862  28.479  35.777  1.00  0.00     0.058 A 
ATOM     79  C   UNL A   1      43.645  27.429  36.680  1.00  0.00     0.135 A 
ATOM     80  C   UNL A   1      45.192  28.802  35.459  1.00  0.00     0.135 A 
ATOM     81  F   UNL A   1      42.393  27.085  37.022  1.00  0.00    -0.206 F 
ATOM     82  C   UNL A   1      44.704  26.729  37.252  1.00  0.00     0.059 A 
ATOM     83  C   UNL A   1      46.264  28.097  35.991  1.00  0.00     0.059 A 
ATOM     84  F   UNL A   1      45.454  29.787  34.585  1.00  0.00    -0.206 F 
ATOM     85  C   UNL A   1      46.011  27.068  36.896  1.00  0.00     0.060 A 
BRANCH  85  86
ATOM     86  S   UNL A   1      47.377  26.119  37.598  1.00  0.00     0.124 S 
ATOM     87  O   UNL A   1      46.669  25.019  38.241  1.00  0.00    -0.237 OA
ATOM     88  O   UNL A   1      48.155  25.772  36.412  1.00  0.00    -0.237 OA
ATOM     89  O   UNL A   1      48.018  27.072  38.499  1.00  0.00    -0.744 OA
ENDBRANCH  85  86
ENDBRANCH  53  78
BRANCH  65  90
ATOM     90  C   UNL A   1      40.193  34.194  37.340  1.00  0.00     0.058 A 
ATOM     91  C   UNL A   1      41.088  35.275  37.346  1.00  0.00     0.135 A 
ATOM     92  C   UNL A   1      39.335  34.041  38.440  1.00  0.00     0.135 A 
ATOM     93  F   UNL A   1      41.938  35.455  36.322  1.00  0.00    -0.206 F 
ATOM     94  C   UNL A   1      41.147  36.160  38.417  1.00  0.00     0.059 A 
ATOM     95  C   UNL A   1      39.358  34.929  39.509  1.00  0.00     0.059 A 
ATOM     96  F   UNL A   1      38.458  33.025  38.477  1.00  0.00    -0.206 F 
ATOM     97  C   UNL A   1      40.276  35.979  39.494  1.00  0.00     0.060 A 
BRANCH  97  98
ATOM     98  S   UNL A   1      40.342  37.150  40.864  1.00  0.00     0.124 S 
ATOM     99  O   UNL A   1      39.161  36.771  41.632  1.00  0.00    -0.237 OA
ATOM    100  O   UNL A   1      41.627  36.838  41.482  1.00  0.00    -0.237 OA
ATOM    101  O   UNL A   1      40.271  38.450  40.203  1.00  0.00    -0.744 OA
ENDBRANCH  97  98
ENDBRANCH  65  90
ENDBRANCH  39  40
ENDBRANCH  32  34
ENDBRANCH  31  32
ENDBRANCH  30  31
ENDBRANCH   1  30
TORSDOF 19
ENDMDL
MODEL 3
REMARK VINA RESULT:     -11.9      1.295      2.028
REMARK SMILES Cn1ncc(C(=O)OCCOC(=O)c2ccc(-c3c4nc(c(-c5c(F)cc(S(=O)(=O)[O-])cc5F)c5ccc([nH]5)c(-c5c(F)cc(S(=O)(=O)[O-])cc5F)c5nc(c(-c6c(F)cc(S(=O)(=O)[O-])cc6F)c6ccc3[nH]6)C=C5)C=C4)cc2)c1C(=O)NCC1CC[NH+](Cc2ccccc2)CC1
REMARK SMILES IDX 9 1 8 2 6 3 7 4 5 5 1 6 2 7 3 8 80 9 4 10 81 11 82 12 83 13
REMARK SMILES IDX 84 15 85 16 86 17 97 18 87 19 96 20 88 21 89 23 90 24 91 25
REMARK SMILES IDX 95 26 92 27 94 28 93 29 10 30 11 31 12 32 13 33 14 34 15 35
REMARK SMILES IDX 79 36 16 37 78 38 17 39 18 40 19 41 72 42 20 43 77 44 71 45
REMARK SMILES IDX 73 46 21 47 76 48 70 49 69 50 22 52 56 53 35 54 55 55 36 56
REMARK SMILES IDX 39 57 54 58 74 59 37 60 38 61 53 63 75 64 40 65 23 66 24 67
REMARK SMILES IDX 33 68 25 69 26 70 32 71 34 72 27 73 28 74 29 75 30 76 31 77
REMARK SMILES IDX 57 78 58 79 67 80 59 81 60 82 66 83 68 84 61 85 62 86 63 87
REMARK SMILES IDX 64 88 65 89 41 90 42 91 51 92 43 93 44 94 50 95 52 96 45 97
REMARK SMILES IDX 46 98 47 99 48 100 49 101
REMARK H PARENT 83 14 88 22 73 51 39 62
REMARK Flexibility Score: inf
ROOT
ATOM      1  C   UNL A   1      33.019  30.089  27.259  1.00  0.00     0.275 C 
ENDROOT
BRANCH   1   2
ATOM      2  O   UNL A   1      32.566  30.402  25.925  1.00  0.00    -0.458 OA
BRANCH   2   3
ATOM      3  C   UNL A   1      32.766  29.410  25.007  1.00  0.00     0.342 C 
ATOM      4  O   UNL A   1      33.878  29.001  24.682  1.00  0.00    -0.246 OA
BRANCH   3   5
ATOM      5  C   UNL A   1      31.570  28.727  24.539  1.00  0.00     0.111 A 
ATOM      6  C   UNL A   1      28.779  26.514  23.993  1.00  0.00     0.174 C 
ATOM      7  N   UNL A   1      29.836  27.475  24.112  1.00  0.00    -0.262 N 
ATOM      8  N   UNL A   1      29.665  28.547  23.323  1.00  0.00    -0.180 NA
ATOM      9  C   UNL A   1      30.956  27.512  24.919  1.00  0.00     0.140 A 
ATOM     10  C   UNL A   1      30.690  29.322  23.617  1.00  0.00     0.151 A 
BRANCH   9  11
ATOM     11  C   UNL A   1      31.467  26.618  25.949  1.00  0.00     0.270 C 
ATOM     12  O   UNL A   1      30.742  26.277  26.893  1.00  0.00    -0.268 OA
ATOM     13  N   UNL A   1      32.702  26.027  26.044  1.00  0.00    -0.350 N 
ATOM     14  H   UNL A   1      32.899  25.800  26.981  1.00  0.00     0.163 HD
BRANCH  13  15
ATOM     15  C   UNL A   1      33.809  25.632  25.188  1.00  0.00     0.120 C 
BRANCH  15  16
ATOM     16  C   UNL A   1      34.618  24.359  25.586  1.00  0.00     0.019 C 
ATOM     17  C   UNL A   1      35.159  23.562  24.388  1.00  0.00     0.067 C 
ATOM     18  C   UNL A   1      33.950  23.358  26.541  1.00  0.00     0.067 C 
ATOM     19  C   UNL A   1      34.117  22.625  23.771  1.00  0.00     0.262 C 
ATOM     20  C   UNL A   1      32.867  22.521  25.858  1.00  0.00     0.262 C 
ATOM     21  N   UNL A   1      33.478  21.763  24.764  1.00  0.00    -0.331 N 
ATOM     22  H   UNL A   1      34.235  21.221  25.179  1.00  0.00     0.348 HD
BRANCH  21  23
ATOM     23  C   UNL A   1      32.571  20.759  24.182  1.00  0.00     0.299 C 
BRANCH  23  24
ATOM     24  C   UNL A   1      33.129  19.371  23.951  1.00  0.00     0.006 A 
ATOM     25  C   UNL A   1      32.481  18.487  23.077  1.00  0.00     0.009 A 
ATOM     26  C   UNL A   1      34.285  18.929  24.616  1.00  0.00     0.009 A 
ATOM     27  C   UNL A   1      32.989  17.207  22.864  1.00  0.00     0.001 A 
ATOM     28  C   UNL A   1      34.819  17.668  24.366  1.00  0.00     0.001 A 
ATOM     29  C   UNL A   1      34.162  16.805  23.499  1.00  0.00     0.000 A 
ENDBRANCH  23  24
ENDBRANCH  21  23
ENDBRANCH  15  16
ENDBRANCH  13  15
ENDBRANCH   9  11
ENDBRANCH   3   5
ENDBRANCH   2   3
ENDBRANCH   1   2
BRANCH   1  30
ATOM     30  C   UNL A   1      34.219  30.934  27.683  1.00  0.00     0.275 C 
BRANCH  30  31
ATOM     31  O   UNL A   1      35.321  30.095  28.057  1.00  0.00    -0.458 OA
BRANCH  31  32
ATOM     32  C   UNL A   1      36.089  30.578  29.064  1.00  0.00     0.338 C 
ATOM     33  O   UNL A   1      35.740  31.293  29.984  1.00  0.00    -0.246 OA
BRANCH  32  34
ATOM     34  C   UNL A   1      37.480  30.136  28.899  1.00  0.00     0.060 A 
ATOM     35  C   UNL A   1      38.000  29.930  27.626  1.00  0.00     0.016 A 
ATOM     36  C   UNL A   1      38.237  29.834  30.030  1.00  0.00     0.016 A 
ATOM     37  C   UNL A   1      39.263  29.364  27.476  1.00  0.00     0.010 A 
ATOM     38  C   UNL A   1      39.547  29.375  29.879  1.00  0.00     0.010 A 
ATOM     39  C   UNL A   1      40.074  29.135  28.601  1.00  0.00    -0.014 A 
BRANCH  39  40
ATOM     40  C   UNL A   1      41.500  28.749  28.427  1.00  0.00     0.031 A 
ATOM     41  C   UNL A   1      42.601  29.768  28.532  1.00  0.00     0.074 A 
ATOM     42  C   UNL A   1      41.784  27.463  28.130  1.00  0.00     0.049 A 
ATOM     43  N   UNL A   1      43.871  29.639  28.246  1.00  0.00    -0.248 NA
ATOM     44  C   UNL A   1      42.228  31.112  28.999  1.00  0.00     0.031 C 
ATOM     45  C   UNL A   1      40.793  26.390  27.999  1.00  0.00     0.029 A 
ATOM     46  N   UNL A   1      42.978  26.833  27.891  1.00  0.00    -0.354 N 
ATOM     47  C   UNL A   1      44.441  30.890  28.455  1.00  0.00     0.074 A 
ATOM     48  C   UNL A   1      43.376  31.769  28.890  1.00  0.00     0.031 C 
ATOM     49  C   UNL A   1      41.420  25.231  27.761  1.00  0.00     0.029 A 
ATOM     50  C   UNL A   1      42.844  25.492  27.615  1.00  0.00     0.049 A 
ATOM     51  H   UNL A   1      43.848  27.295  27.915  1.00  0.00     0.167 HD
ATOM     52  C   UNL A   1      45.735  31.263  28.291  1.00  0.00     0.037 A 
ATOM     53  C   UNL A   1      43.755  24.577  27.236  1.00  0.00     0.037 A 
ATOM     54  C   UNL A   1      46.783  30.358  27.887  1.00  0.00     0.049 A 
ATOM     55  C   UNL A   1      45.175  25.019  27.051  1.00  0.00     0.074 A 
ATOM     56  C   UNL A   1      48.130  30.623  27.706  1.00  0.00     0.029 A 
ATOM     57  N   UNL A   1      46.603  29.009  27.608  1.00  0.00    -0.354 N 
ATOM     58  N   UNL A   1      45.691  26.212  27.225  1.00  0.00    -0.248 NA
ATOM     59  C   UNL A   1      46.132  24.003  26.599  1.00  0.00     0.031 C 
ATOM     60  C   UNL A   1      48.756  29.444  27.283  1.00  0.00     0.029 A 
ATOM     61  C   UNL A   1      47.809  28.433  27.243  1.00  0.00     0.049 A 
ATOM     62  H   UNL A   1      45.743  28.532  27.663  1.00  0.00     0.167 HD
ATOM     63  C   UNL A   1      47.036  26.092  26.905  1.00  0.00     0.074 A 
ATOM     64  C   UNL A   1      47.257  24.703  26.554  1.00  0.00     0.031 C 
ATOM     65  C   UNL A   1      47.999  27.046  26.894  1.00  0.00     0.037 A 
BRANCH  52  66
ATOM     66  C   UNL A   1      46.089  32.710  28.516  1.00  0.00     0.058 A 
ATOM     67  C   UNL A   1      46.482  33.197  29.773  1.00  0.00     0.135 A 
ATOM     68  C   UNL A   1      46.075  33.618  27.443  1.00  0.00     0.135 A 
ATOM     69  F   UNL A   1      46.503  32.379  30.837  1.00  0.00    -0.206 F 
ATOM     70  C   UNL A   1      46.825  34.533  29.962  1.00  0.00     0.059 A 
ATOM     71  C   UNL A   1      46.437  34.954  27.605  1.00  0.00     0.059 A 
ATOM     72  F   UNL A   1      45.709  33.210  26.217  1.00  0.00    -0.206 F 
ATOM     73  C   UNL A   1      46.798  35.405  28.873  1.00  0.00     0.060 A 
BRANCH  73  74
ATOM     74  S   UNL A   1      47.246  37.135  29.136  1.00  0.00     0.124 S 
ATOM     75  O   UNL A   1      47.926  37.453  27.884  1.00  0.00    -0.237 OA
ATOM     76  O   UNL A   1      45.947  37.770  29.329  1.00  0.00    -0.237 OA
ATOM     77  O   UNL A   1      48.100  37.091  30.319  1.00  0.00    -0.744 OA
ENDBRANCH  73  74
ENDBRANCH  52  66
BRANCH  53  78
ATOM     78  C   UNL A   1      43.329  23.177  26.968  1.00  0.00     0.058 A 
ATOM     79  C   UNL A   1      43.233  22.688  25.658  1.00  0.00     0.135 A 
ATOM     80  C   UNL A   1      43.056  22.286  28.020  1.00  0.00     0.135 A 
ATOM     81  F   UNL A   1      43.478  23.500  24.619  1.00  0.00    -0.206 F 
ATOM     82  C   UNL A   1      42.876  21.367  25.398  1.00  0.00     0.059 A 
ATOM     83  C   UNL A   1      42.729  20.955  27.787  1.00  0.00     0.059 A 
ATOM     84  F   UNL A   1      43.152  22.699  29.294  1.00  0.00    -0.206 F 
ATOM     85  C   UNL A   1      42.631  20.507  26.471  1.00  0.00     0.060 A 
BRANCH  85  86
ATOM     86  S   UNL A   1      42.222  18.783  26.127  1.00  0.00     0.124 S 
ATOM     87  O   UNL A   1      43.176  18.461  25.073  1.00  0.00    -0.237 OA
ATOM     88  O   UNL A   1      42.458  18.146  27.419  1.00  0.00    -0.237 OA
ATOM     89  O   UNL A   1      40.823  18.845  25.716  1.00  0.00    -0.744 OA
ENDBRANCH  85  86
ENDBRANCH  53  78
BRANCH  65  90
ATOM     90  C   UNL A   1      49.380  26.604  26.507  1.00  0.00     0.058 A 
ATOM     91  C   UNL A   1      50.247  26.010  27.436  1.00  0.00     0.135 A 
ATOM     92  C   UNL A   1      49.830  26.755  25.186  1.00  0.00     0.135 A 
ATOM     93  F   UNL A   1      49.866  25.857  28.714  1.00  0.00    -0.206 F 
ATOM     94  C   UNL A   1      51.525  25.599  27.074  1.00  0.00     0.059 A 
ATOM     95  C   UNL A   1      51.094  26.328  24.795  1.00  0.00     0.059 A 
ATOM     96  F   UNL A   1      49.034  27.313  24.260  1.00  0.00    -0.206 F 
ATOM     97  C   UNL A   1      51.939  25.762  25.750  1.00  0.00     0.060 A 
BRANCH  97  98
ATOM     98  S   UNL A   1      53.588  25.200  25.285  1.00  0.00     0.124 S 
ATOM     99  O   UNL A   1      54.414  25.830  26.309  1.00  0.00    -0.237 OA
ATOM    100  O   UNL A   1      53.463  23.748  25.377  1.00  0.00    -0.237 OA
ATOM    101  O   UNL A   1      53.757  25.723  23.932  1.00  0.00    -0.744 OA
ENDBRANCH  97  98
ENDBRANCH  65  90
ENDBRANCH  39  40
ENDBRANCH  32  34
ENDBRANCH  31  32
ENDBRANCH  30  31
ENDBRANCH   1  30
TORSDOF 19
ENDMDL
