MODEL 1
REMARK VINA RESULT:      -9.6      0.000      0.000
REMARK SMILES C/C=C/C=C/C(=O)N[C@@H](C)CC(=O)OCCOC(=O)c1ccc(-c2c3nc(c(-c4c(F)cc(S(=O)(=O)[O-])cc4F)c4ccc([nH]4)c(-c4c(F)cc(S(=O)(=O)[O-])cc4F)c4nc(c(-c5c(F)cc(S(=O)(=O)[O-])cc5F)c5ccc2[nH]5)C=C4)C=C3)cc1
REMARK SMILES IDX 15 1 14 2 12 3 13 4 11 5 9 6 10 7 8 8 6 9 7 10 5 12 4 13
REMARK SMILES IDX 3 14 1 15 2 16 16 17 17 18 18 19 19 20 20 21 21 22 85 23
REMARK SMILES IDX 22 24 84 25 23 26 24 27 25 28 78 29 26 30 83 31 77 32 79 33
REMARK SMILES IDX 27 34 82 35 76 36 75 37 28 39 62 40 41 41 61 42 42 43 45 44
REMARK SMILES IDX 60 45 80 46 43 47 44 48 59 50 81 51 46 52 29 53 30 54 39 55
REMARK SMILES IDX 31 56 32 57 38 58 40 59 33 60 34 61 35 62 36 63 37 64 63 65
REMARK SMILES IDX 64 66 73 67 65 68 66 69 72 70 74 71 67 72 68 73 69 74 70 75
REMARK SMILES IDX 71 76 47 77 48 78 57 79 49 80 50 81 56 82 58 83 51 84 52 85
REMARK SMILES IDX 53 86 54 87 55 88
REMARK H PARENT 8 11 79 38 45 49
REMARK Flexibility Score: inf
ROOT
ATOM      1  C   UNL A   1      45.514  24.342  25.290  1.00  0.00     0.274 C 
ENDROOT
BRANCH   1   2
ATOM      2  O   UNL A   1      45.693  23.689  24.016  1.00  0.00    -0.462 OA
BRANCH   2   3
ATOM      3  C   UNL A   1      45.109  22.472  23.882  1.00  0.00     0.307 C 
ATOM      4  O   UNL A   1      44.232  22.203  23.069  1.00  0.00    -0.252 OA
BRANCH   3   5
ATOM      5  C   UNL A   1      45.584  21.479  24.915  1.00  0.00     0.147 C 
BRANCH   5   6
ATOM      6  C   UNL A   1      44.553  20.406  25.287  1.00  0.00     0.090 C 
ATOM      7  C   UNL A   1      44.656  19.231  24.308  1.00  0.00     0.031 C 
BRANCH   6   8
ATOM      8  N   UNL A   1      43.187  20.932  25.226  1.00  0.00    -0.350 N 
ATOM      9  C   UNL A   1      42.475  21.701  26.090  1.00  0.00     0.244 C 
ATOM     10  O   UNL A   1      41.346  22.072  25.762  1.00  0.00    -0.270 OA
ATOM     11  H   UNL A   1      42.696  20.682  24.409  1.00  0.00     0.164 HD
BRANCH   9  12
ATOM     12  C   UNL A   1      43.045  22.191  27.362  1.00  0.00     0.071 C 
ATOM     13  C   UNL A   1      42.362  22.621  28.433  1.00  0.00     0.005 C 
BRANCH  13  14
ATOM     14  C   UNL A   1      43.030  22.993  29.663  1.00  0.00    -0.004 C 
ATOM     15  C   UNL A   1      44.517  24.477  31.022  1.00  0.00     0.035 C 
ATOM     16  C   UNL A   1      43.897  24.013  29.742  1.00  0.00    -0.030 C 
ENDBRANCH  13  14
ENDBRANCH   9  12
ENDBRANCH   6   8
ENDBRANCH   5   6
ENDBRANCH   3   5
ENDBRANCH   2   3
ENDBRANCH   1   2
BRANCH   1  17
ATOM     17  C   UNL A   1      44.420  25.415  25.268  1.00  0.00     0.275 C 
BRANCH  17  18
ATOM     18  O   UNL A   1      43.369  25.152  26.219  1.00  0.00    -0.458 OA
BRANCH  18  19
ATOM     19  C   UNL A   1      42.255  25.885  26.013  1.00  0.00     0.338 C 
ATOM     20  O   UNL A   1      41.571  25.877  25.000  1.00  0.00    -0.246 OA
BRANCH  19  21
ATOM     21  C   UNL A   1      41.867  26.653  27.197  1.00  0.00     0.060 A 
ATOM     22  C   UNL A   1      42.464  27.902  27.401  1.00  0.00     0.016 A 
ATOM     23  C   UNL A   1      41.019  26.099  28.157  1.00  0.00     0.016 A 
ATOM     24  C   UNL A   1      42.202  28.613  28.570  1.00  0.00     0.010 A 
ATOM     25  C   UNL A   1      40.753  26.818  29.326  1.00  0.00     0.010 A 
ATOM     26  C   UNL A   1      41.342  28.077  29.538  1.00  0.00    -0.014 A 
BRANCH  26  27
ATOM     27  C   UNL A   1      41.023  28.854  30.758  1.00  0.00     0.031 A 
ATOM     28  C   UNL A   1      39.911  29.861  30.753  1.00  0.00     0.074 A 
ATOM     29  C   UNL A   1      41.762  28.657  31.865  1.00  0.00     0.049 A 
ATOM     30  N   UNL A   1      39.554  30.695  31.694  1.00  0.00    -0.248 NA
ATOM     31  C   UNL A   1      39.097  29.943  29.531  1.00  0.00     0.031 C 
ATOM     32  C   UNL A   1      42.854  27.687  31.985  1.00  0.00     0.029 A 
ATOM     33  N   UNL A   1      41.721  29.269  33.090  1.00  0.00    -0.354 N 
ATOM     34  C   UNL A   1      38.482  31.413  31.178  1.00  0.00     0.074 A 
ATOM     35  C   UNL A   1      38.255  30.923  29.834  1.00  0.00     0.031 C 
ATOM     36  C   UNL A   1      43.386  27.780  33.214  1.00  0.00     0.029 A 
ATOM     37  C   UNL A   1      42.703  28.838  33.950  1.00  0.00     0.049 A 
ATOM     38  H   UNL A   1      41.053  29.950  33.332  1.00  0.00     0.167 HD
ATOM     39  C   UNL A   1      37.760  32.391  31.775  1.00  0.00     0.037 A 
ATOM     40  C   UNL A   1      43.036  29.272  35.180  1.00  0.00     0.037 A 
ATOM     41  C   UNL A   1      37.994  32.869  33.114  1.00  0.00     0.049 A 
ATOM     42  C   UNL A   1      42.248  30.389  35.803  1.00  0.00     0.074 A 
ATOM     43  C   UNL A   1      37.298  33.838  33.818  1.00  0.00     0.029 A 
ATOM     44  N   UNL A   1      39.005  32.419  33.952  1.00  0.00    -0.354 N 
ATOM     45  N   UNL A   1      41.228  31.050  35.308  1.00  0.00    -0.248 NA
ATOM     46  C   UNL A   1      42.657  30.824  37.144  1.00  0.00     0.031 C 
ATOM     47  C   UNL A   1      37.911  33.998  35.067  1.00  0.00     0.029 A 
ATOM     48  C   UNL A   1      38.966  33.104  35.155  1.00  0.00     0.049 A 
ATOM     49  H   UNL A   1      39.655  31.715  33.723  1.00  0.00     0.167 HD
ATOM     50  C   UNL A   1      40.866  31.971  36.283  1.00  0.00     0.074 A 
ATOM     51  C   UNL A   1      41.768  31.774  37.400  1.00  0.00     0.031 C 
ATOM     52  C   UNL A   1      39.876  32.897  36.254  1.00  0.00     0.037 A 
BRANCH  39  53
ATOM     53  C   UNL A   1      36.662  33.031  30.974  1.00  0.00     0.058 A 
ATOM     54  C   UNL A   1      35.308  32.777  31.243  1.00  0.00     0.135 A 
ATOM     55  C   UNL A   1      36.968  33.938  29.946  1.00  0.00     0.135 A 
ATOM     56  F   UNL A   1      34.962  31.907  32.206  1.00  0.00    -0.206 F 
ATOM     57  C   UNL A   1      34.295  33.381  30.505  1.00  0.00     0.059 A 
ATOM     58  C   UNL A   1      35.970  34.568  29.207  1.00  0.00     0.059 A 
ATOM     59  F   UNL A   1      38.247  34.216  29.649  1.00  0.00    -0.206 F 
ATOM     60  C   UNL A   1      34.637  34.272  29.485  1.00  0.00     0.060 A 
BRANCH  60  61
ATOM     61  S   UNL A   1      33.314  35.044  28.528  1.00  0.00     0.124 S 
ATOM     62  O   UNL A   1      32.694  33.880  27.901  1.00  0.00    -0.237 OA
ATOM     63  O   UNL A   1      32.521  35.703  29.561  1.00  0.00    -0.237 OA
ATOM     64  O   UNL A   1      34.028  35.940  27.623  1.00  0.00    -0.744 OA
ENDBRANCH  60  61
ENDBRANCH  39  53
BRANCH  40  65
ATOM     65  C   UNL A   1      44.186  28.654  35.887  1.00  0.00     0.058 A 
ATOM     66  C   UNL A   1      44.005  27.562  36.746  1.00  0.00     0.135 A 
ATOM     67  C   UNL A   1      45.494  29.123  35.684  1.00  0.00     0.135 A 
ATOM     68  F   UNL A   1      42.773  27.087  36.975  1.00  0.00    -0.206 F 
ATOM     69  C   UNL A   1      45.082  26.954  37.384  1.00  0.00     0.059 A 
ATOM     70  C   UNL A   1      46.588  28.517  36.294  1.00  0.00     0.059 A 
ATOM     71  F   UNL A   1      45.718  30.157  34.859  1.00  0.00    -0.206 F 
ATOM     72  C   UNL A   1      46.370  27.437  37.149  1.00  0.00     0.060 A 
BRANCH  72  73
ATOM     73  S   UNL A   1      47.770  26.600  37.925  1.00  0.00     0.124 S 
ATOM     74  O   UNL A   1      47.729  27.152  39.274  1.00  0.00    -0.237 OA
ATOM     75  O   UNL A   1      47.399  25.194  37.798  1.00  0.00    -0.237 OA
ATOM     76  O   UNL A   1      48.903  27.016  37.104  1.00  0.00    -0.744 OA
ENDBRANCH  72  73
ENDBRANCH  40  65
BRANCH  52  77
ATOM     77  C   UNL A   1      39.708  33.757  37.473  1.00  0.00     0.058 A 
ATOM     78  C   UNL A   1      40.324  35.014  37.572  1.00  0.00     0.135 A 
ATOM     79  C   UNL A   1      38.886  33.341  38.532  1.00  0.00     0.135 A 
ATOM     80  F   UNL A   1      41.128  35.452  36.590  1.00  0.00    -0.206 F 
ATOM     81  C   UNL A   1      40.145  35.823  38.689  1.00  0.00     0.059 A 
ATOM     82  C   UNL A   1      38.677  34.142  39.649  1.00  0.00     0.059 A 
ATOM     83  F   UNL A   1      38.269  32.150  38.481  1.00  0.00    -0.206 F 
ATOM     84  C   UNL A   1      39.319  35.379  39.723  1.00  0.00     0.060 A 
BRANCH  84  85
ATOM     85  S   UNL A   1      39.061  36.451  41.153  1.00  0.00     0.124 S 
ATOM     86  O   UNL A   1      40.407  36.526  41.710  1.00  0.00    -0.237 OA
ATOM     87  O   UNL A   1      38.558  37.677  40.540  1.00  0.00    -0.237 OA
ATOM     88  O   UNL A   1      38.088  35.715  41.955  1.00  0.00    -0.744 OA
ENDBRANCH  84  85
ENDBRANCH  52  77
ENDBRANCH  26  27
ENDBRANCH  19  21
ENDBRANCH  18  19
ENDBRANCH  17  18
ENDBRANCH   1  17
TORSDOF 18
ENDMDL
MODEL 2
REMARK VINA RESULT:      -9.5      3.039      9.204
REMARK SMILES C/C=C/C=C/C(=O)N[C@@H](C)CC(=O)OCCOC(=O)c1ccc(-c2c3nc(c(-c4c(F)cc(S(=O)(=O)[O-])cc4F)c4ccc([nH]4)c(-c4c(F)cc(S(=O)(=O)[O-])cc4F)c4nc(c(-c5c(F)cc(S(=O)(=O)[O-])cc5F)c5ccc2[nH]5)C=C4)C=C3)cc1
REMARK SMILES IDX 15 1 14 2 12 3 13 4 11 5 9 6 10 7 8 8 6 9 7 10 5 12 4 13
REMARK SMILES IDX 3 14 1 15 2 16 16 17 17 18 18 19 19 20 20 21 21 22 85 23
REMARK SMILES IDX 22 24 84 25 23 26 24 27 25 28 78 29 26 30 83 31 77 32 79 33
REMARK SMILES IDX 27 34 82 35 76 36 75 37 28 39 62 40 41 41 61 42 42 43 45 44
REMARK SMILES IDX 60 45 80 46 43 47 44 48 59 50 81 51 46 52 29 53 30 54 39 55
REMARK SMILES IDX 31 56 32 57 38 58 40 59 33 60 34 61 35 62 36 63 37 64 63 65
REMARK SMILES IDX 64 66 73 67 65 68 66 69 72 70 74 71 67 72 68 73 69 74 70 75
REMARK SMILES IDX 71 76 47 77 48 78 57 79 49 80 50 81 56 82 58 83 51 84 52 85
REMARK SMILES IDX 53 86 54 87 55 88
REMARK H PARENT 8 11 79 38 45 49
REMARK Flexibility Score: inf
ROOT
ATOM      1  C   UNL A   1      40.790  20.265  26.630  1.00  0.00     0.274 C 
ENDROOT
BRANCH   1   2
ATOM      2  O   UNL A   1      41.100  19.170  25.743  1.00  0.00    -0.462 OA
BRANCH   2   3
ATOM      3  C   UNL A   1      42.380  18.721  25.773  1.00  0.00     0.307 C 
ATOM      4  O   UNL A   1      42.709  17.556  25.965  1.00  0.00    -0.252 OA
BRANCH   3   5
ATOM      5  C   UNL A   1      43.393  19.833  25.641  1.00  0.00     0.147 C 
BRANCH   5   6
ATOM      6  C   UNL A   1      44.480  19.581  24.589  1.00  0.00     0.090 C 
ATOM      7  C   UNL A   1      45.765  19.109  25.278  1.00  0.00     0.031 C 
BRANCH   6   8
ATOM      8  N   UNL A   1      44.788  20.798  23.834  1.00  0.00    -0.350 N 
ATOM      9  C   UNL A   1      44.789  22.108  24.192  1.00  0.00     0.244 C 
ATOM     10  O   UNL A   1      45.163  22.947  23.371  1.00  0.00    -0.270 OA
ATOM     11  H   UNL A   1      45.039  20.636  22.895  1.00  0.00     0.164 HD
BRANCH   9  12
ATOM     12  C   UNL A   1      44.457  22.551  25.562  1.00  0.00     0.071 C 
ATOM     13  C   UNL A   1      43.675  23.586  25.902  1.00  0.00     0.005 C 
BRANCH  13  14
ATOM     14  C   UNL A   1      43.346  23.869  27.284  1.00  0.00    -0.004 C 
ATOM     15  C   UNL A   1      42.722  23.174  29.605  1.00  0.00     0.035 C 
ATOM     16  C   UNL A   1      42.965  22.919  28.152  1.00  0.00    -0.030 C 
ENDBRANCH  13  14
ENDBRANCH   9  12
ENDBRANCH   6   8
ENDBRANCH   5   6
ENDBRANCH   3   5
ENDBRANCH   2   3
ENDBRANCH   1   2
BRANCH   1  17
ATOM     17  C   UNL A   1      39.641  21.144  26.124  1.00  0.00     0.275 C 
BRANCH  17  18
ATOM     18  O   UNL A   1      40.024  22.526  25.979  1.00  0.00    -0.458 OA
BRANCH  18  19
ATOM     19  C   UNL A   1      38.998  23.390  26.119  1.00  0.00     0.338 C 
ATOM     20  O   UNL A   1      37.853  23.211  25.731  1.00  0.00    -0.246 OA
BRANCH  19  21
ATOM     21  C   UNL A   1      39.369  24.574  26.897  1.00  0.00     0.060 A 
ATOM     22  C   UNL A   1      40.249  25.496  26.319  1.00  0.00     0.016 A 
ATOM     23  C   UNL A   1      38.956  24.713  28.223  1.00  0.00     0.016 A 
ATOM     24  C   UNL A   1      40.710  26.577  27.066  1.00  0.00     0.010 A 
ATOM     25  C   UNL A   1      39.416  25.801  28.968  1.00  0.00     0.010 A 
ATOM     26  C   UNL A   1      40.293  26.739  28.395  1.00  0.00    -0.014 A 
BRANCH  26  27
ATOM     27  C   UNL A   1      40.742  27.914  29.176  1.00  0.00     0.031 A 
ATOM     28  C   UNL A   1      42.081  27.916  29.854  1.00  0.00     0.074 A 
ATOM     29  C   UNL A   1      39.918  28.973  29.288  1.00  0.00     0.049 A 
ATOM     30  N   UNL A   1      42.597  28.813  30.652  1.00  0.00    -0.248 NA
ATOM     31  C   UNL A   1      42.952  26.758  29.601  1.00  0.00     0.031 C 
ATOM     32  C   UNL A   1      38.603  29.084  28.652  1.00  0.00     0.029 A 
ATOM     33  N   UNL A   1      40.056  30.145  29.983  1.00  0.00    -0.354 N 
ATOM     34  C   UNL A   1      43.847  28.326  31.013  1.00  0.00     0.074 A 
ATOM     35  C   UNL A   1      44.007  27.047  30.352  1.00  0.00     0.031 C 
ATOM     36  C   UNL A   1      38.049  30.256  28.999  1.00  0.00     0.029 A 
ATOM     37  C   UNL A   1      38.949  30.957  29.909  1.00  0.00     0.049 A 
ATOM     38  H   UNL A   1      40.867  30.382  30.487  1.00  0.00     0.167 HD
ATOM     39  C   UNL A   1      44.771  28.898  31.821  1.00  0.00     0.037 A 
ATOM     40  C   UNL A   1      38.679  32.120  30.531  1.00  0.00     0.037 A 
ATOM     41  C   UNL A   1      44.601  30.173  32.471  1.00  0.00     0.049 A 
ATOM     42  C   UNL A   1      39.701  32.711  31.460  1.00  0.00     0.074 A 
ATOM     43  C   UNL A   1      45.492  30.849  33.288  1.00  0.00     0.029 A 
ATOM     44  N   UNL A   1      43.463  30.962  32.383  1.00  0.00    -0.354 N 
ATOM     45  N   UNL A   1      40.886  32.246  31.780  1.00  0.00    -0.248 NA
ATOM     46  C   UNL A   1      39.352  33.978  32.114  1.00  0.00     0.031 C 
ATOM     47  C   UNL A   1      44.876  32.030  33.723  1.00  0.00     0.029 A 
ATOM     48  C   UNL A   1      43.618  32.107  33.148  1.00  0.00     0.049 A 
ATOM     49  H   UNL A   1      42.662  30.740  31.855  1.00  0.00     0.167 HD
ATOM     50  C   UNL A   1      41.427  33.170  32.665  1.00  0.00     0.074 A 
ATOM     51  C   UNL A   1      40.447  34.226  32.820  1.00  0.00     0.031 C 
ATOM     52  C   UNL A   1      42.629  33.145  33.293  1.00  0.00     0.037 A 
BRANCH  39  53
ATOM     53  C   UNL A   1      46.041  28.136  32.072  1.00  0.00     0.058 A 
ATOM     54  C   UNL A   1      47.172  28.297  31.255  1.00  0.00     0.135 A 
ATOM     55  C   UNL A   1      46.141  27.259  33.164  1.00  0.00     0.135 A 
ATOM     56  F   UNL A   1      47.124  29.113  30.190  1.00  0.00    -0.206 F 
ATOM     57  C   UNL A   1      48.349  27.598  31.499  1.00  0.00     0.059 A 
ATOM     58  C   UNL A   1      47.315  26.562  33.437  1.00  0.00     0.059 A 
ATOM     59  F   UNL A   1      45.088  27.068  33.976  1.00  0.00    -0.206 F 
ATOM     60  C   UNL A   1      48.409  26.728  32.590  1.00  0.00     0.060 A 
BRANCH  60  61
ATOM     61  S   UNL A   1      49.940  25.819  32.892  1.00  0.00     0.124 S 
ATOM     62  O   UNL A   1      50.152  25.172  31.600  1.00  0.00    -0.237 OA
ATOM     63  O   UNL A   1      50.879  26.885  33.227  1.00  0.00    -0.237 OA
ATOM     64  O   UNL A   1      49.592  24.925  33.992  1.00  0.00    -0.744 OA
ENDBRANCH  60  61
ENDBRANCH  39  53
BRANCH  40  65
ATOM     65  C   UNL A   1      37.368  32.781  30.307  1.00  0.00     0.058 A 
ATOM     66  C   UNL A   1      36.304  32.598  31.200  1.00  0.00     0.135 A 
ATOM     67  C   UNL A   1      37.171  33.640  29.214  1.00  0.00     0.135 A 
ATOM     68  F   UNL A   1      36.446  31.780  32.253  1.00  0.00    -0.206 F 
ATOM     69  C   UNL A   1      35.084  33.242  31.017  1.00  0.00     0.059 A 
ATOM     70  C   UNL A   1      35.967  34.312  29.023  1.00  0.00     0.059 A 
ATOM     71  F   UNL A   1      38.166  33.858  28.341  1.00  0.00    -0.206 F 
ATOM     72  C   UNL A   1      34.928  34.101  29.928  1.00  0.00     0.060 A 
BRANCH  72  73
ATOM     73  S   UNL A   1      33.366  34.988  29.735  1.00  0.00     0.124 S 
ATOM     74  O   UNL A   1      33.821  36.271  29.212  1.00  0.00    -0.237 OA
ATOM     75  O   UNL A   1      32.640  34.137  28.796  1.00  0.00    -0.237 OA
ATOM     76  O   UNL A   1      32.827  35.012  31.091  1.00  0.00    -0.744 OA
ENDBRANCH  72  73
ENDBRANCH  40  65
BRANCH  52  77
ATOM     77  C   UNL A   1      42.954  34.301  34.194  1.00  0.00     0.058 A 
ATOM     78  C   UNL A   1      42.615  34.286  35.555  1.00  0.00     0.135 A 
ATOM     79  C   UNL A   1      43.652  35.414  33.701  1.00  0.00     0.135 A 
ATOM     80  F   UNL A   1      41.938  33.248  36.071  1.00  0.00    -0.206 F 
ATOM     81  C   UNL A   1      42.942  35.345  36.396  1.00  0.00     0.059 A 
ATOM     82  C   UNL A   1      44.008  36.476  34.527  1.00  0.00     0.059 A 
ATOM     83  F   UNL A   1      44.005  35.472  32.407  1.00  0.00    -0.206 F 
ATOM     84  C   UNL A   1      43.639  36.436  35.872  1.00  0.00     0.060 A 
BRANCH  84  85
ATOM     85  S   UNL A   1      44.094  37.789  36.977  1.00  0.00     0.124 S 
ATOM     86  O   UNL A   1      45.393  37.342  37.469  1.00  0.00    -0.237 OA
ATOM     87  O   UNL A   1      44.118  38.938  36.076  1.00  0.00    -0.237 OA
ATOM     88  O   UNL A   1      43.017  37.798  37.962  1.00  0.00    -0.744 OA
ENDBRANCH  84  85
ENDBRANCH  52  77
ENDBRANCH  26  27
ENDBRANCH  19  21
ENDBRANCH  18  19
ENDBRANCH  17  18
ENDBRANCH   1  17
TORSDOF 18
ENDMDL
MODEL 3
REMARK VINA RESULT:      -9.4      3.226     11.419
REMARK SMILES C/C=C/C=C/C(=O)N[C@@H](C)CC(=O)OCCOC(=O)c1ccc(-c2c3nc(c(-c4c(F)cc(S(=O)(=O)[O-])cc4F)c4ccc([nH]4)c(-c4c(F)cc(S(=O)(=O)[O-])cc4F)c4nc(c(-c5c(F)cc(S(=O)(=O)[O-])cc5F)c5ccc2[nH]5)C=C4)C=C3)cc1
REMARK SMILES IDX 15 1 14 2 12 3 13 4 11 5 9 6 10 7 8 8 6 9 7 10 5 12 4 13
REMARK SMILES IDX 3 14 1 15 2 16 16 17 17 18 18 19 19 20 20 21 21 22 85 23
REMARK SMILES IDX 22 24 84 25 23 26 24 27 25 28 78 29 26 30 83 31 77 32 79 33
REMARK SMILES IDX 27 34 82 35 76 36 75 37 28 39 62 40 41 41 61 42 42 43 45 44
REMARK SMILES IDX 60 45 80 46 43 47 44 48 59 50 81 51 46 52 29 53 30 54 39 55
REMARK SMILES IDX 31 56 32 57 38 58 40 59 33 60 34 61 35 62 36 63 37 64 63 65
REMARK SMILES IDX 64 66 73 67 65 68 66 69 72 70 74 71 67 72 68 73 69 74 70 75
REMARK SMILES IDX 71 76 47 77 48 78 57 79 49 80 50 81 56 82 58 83 51 84 52 85
REMARK SMILES IDX 53 86 54 87 55 88
REMARK H PARENT 8 11 79 38 45 49
REMARK Flexibility Score: inf
ROOT
ATOM      1  C   UNL A   1      33.419  34.573  28.388  1.00  0.00     0.274 C 
ENDROOT
BRANCH   1   2
ATOM      2  O   UNL A   1      32.606  34.757  29.565  1.00  0.00    -0.462 OA
BRANCH   2   3
ATOM      3  C   UNL A   1      32.775  35.926  30.231  1.00  0.00     0.307 C 
ATOM      4  O   UNL A   1      33.123  36.982  29.714  1.00  0.00    -0.252 OA
BRANCH   3   5
ATOM      5  C   UNL A   1      32.582  35.783  31.721  1.00  0.00     0.147 C 
BRANCH   5   6
ATOM      6  C   UNL A   1      33.864  35.467  32.501  1.00  0.00     0.090 C 
ATOM      7  C   UNL A   1      34.368  36.733  33.201  1.00  0.00     0.031 C 
BRANCH   6   8
ATOM      8  N   UNL A   1      34.924  34.982  31.615  1.00  0.00    -0.350 N 
ATOM      9  C   UNL A   1      36.111  34.374  31.872  1.00  0.00     0.244 C 
ATOM     10  O   UNL A   1      36.801  33.994  30.924  1.00  0.00    -0.270 OA
ATOM     11  H   UNL A   1      34.742  35.122  30.656  1.00  0.00     0.164 HD
BRANCH   9  12
ATOM     12  C   UNL A   1      36.554  34.060  33.247  1.00  0.00     0.071 C 
ATOM     13  C   UNL A   1      37.648  34.531  33.862  1.00  0.00     0.005 C 
BRANCH  13  14
ATOM     14  C   UNL A   1      37.931  34.225  35.250  1.00  0.00    -0.004 C 
ATOM     15  C   UNL A   1      37.404  33.122  37.433  1.00  0.00     0.035 C 
ATOM     16  C   UNL A   1      37.085  33.538  36.032  1.00  0.00    -0.030 C 
ENDBRANCH  13  14
ENDBRANCH   9  12
ENDBRANCH   6   8
ENDBRANCH   5   6
ENDBRANCH   3   5
ENDBRANCH   2   3
ENDBRANCH   1   2
BRANCH   1  17
ATOM     17  C   UNL A   1      33.310  33.163  27.794  1.00  0.00     0.275 C 
BRANCH  17  18
ATOM     18  O   UNL A   1      34.598  32.585  27.503  1.00  0.00    -0.458 OA
BRANCH  18  19
ATOM     19  C   UNL A   1      34.647  31.250  27.693  1.00  0.00     0.338 C 
ATOM     20  O   UNL A   1      33.849  30.435  27.254  1.00  0.00    -0.246 OA
BRANCH  19  21
ATOM     21  C   UNL A   1      35.848  30.835  28.421  1.00  0.00     0.060 A 
ATOM     22  C   UNL A   1      36.992  31.634  28.319  1.00  0.00     0.016 A 
ATOM     23  C   UNL A   1      35.885  29.614  29.095  1.00  0.00     0.016 A 
ATOM     24  C   UNL A   1      38.184  31.218  28.908  1.00  0.00     0.010 A 
ATOM     25  C   UNL A   1      37.081  29.202  29.690  1.00  0.00     0.010 A 
ATOM     26  C   UNL A   1      38.234  30.000  29.600  1.00  0.00    -0.014 A 
BRANCH  26  27
ATOM     27  C   UNL A   1      39.486  29.579  30.270  1.00  0.00     0.031 A 
ATOM     28  C   UNL A   1      39.996  30.318  31.471  1.00  0.00     0.074 A 
ATOM     29  C   UNL A   1      40.172  28.535  29.768  1.00  0.00     0.049 A 
ATOM     30  N   UNL A   1      41.115  30.152  32.125  1.00  0.00    -0.248 NA
ATOM     31  C   UNL A   1      39.136  31.384  32.007  1.00  0.00     0.031 C 
ATOM     32  C   UNL A   1      39.756  27.733  28.615  1.00  0.00     0.029 A 
ATOM     33  N   UNL A   1      41.365  27.982  30.149  1.00  0.00    -0.354 N 
ATOM     34  C   UNL A   1      41.107  31.099  33.142  1.00  0.00     0.074 A 
ATOM     35  C   UNL A   1      39.872  31.845  33.010  1.00  0.00     0.031 C 
ATOM     36  C   UNL A   1      40.687  26.797  28.376  1.00  0.00     0.029 A 
ATOM     37  C   UNL A   1      41.780  26.959  29.329  1.00  0.00     0.049 A 
ATOM     38  H   UNL A   1      41.877  28.286  30.933  1.00  0.00     0.167 HD
ATOM     39  C   UNL A   1      42.045  31.321  34.093  1.00  0.00     0.037 A 
ATOM     40  C   UNL A   1      42.928  26.255  29.327  1.00  0.00     0.037 A 
ATOM     41  C   UNL A   1      43.268  30.570  34.215  1.00  0.00     0.049 A 
ATOM     42  C   UNL A   1      43.973  26.551  30.363  1.00  0.00     0.074 A 
ATOM     43  C   UNL A   1      44.270  30.702  35.162  1.00  0.00     0.029 A 
ATOM     44  N   UNL A   1      43.662  29.550  33.359  1.00  0.00    -0.354 N 
ATOM     45  N   UNL A   1      43.945  27.441  31.328  1.00  0.00    -0.248 NA
ATOM     46  C   UNL A   1      45.206  25.756  30.311  1.00  0.00     0.031 C 
ATOM     47  C   UNL A   1      45.285  29.786  34.857  1.00  0.00     0.029 A 
ATOM     48  C   UNL A   1      44.899  29.058  33.742  1.00  0.00     0.049 A 
ATOM     49  H   UNL A   1      43.137  29.223  32.593  1.00  0.00     0.167 HD
ATOM     50  C   UNL A   1      45.151  27.304  32.004  1.00  0.00     0.074 A 
ATOM     51  C   UNL A   1      45.880  26.238  31.347  1.00  0.00     0.031 C 
ATOM     52  C   UNL A   1      45.612  27.999  33.073  1.00  0.00     0.037 A 
BRANCH  39  53
ATOM     53  C   UNL A   1      41.799  32.441  35.063  1.00  0.00     0.058 A 
ATOM     54  C   UNL A   1      41.193  32.217  36.309  1.00  0.00     0.135 A 
ATOM     55  C   UNL A   1      42.206  33.750  34.757  1.00  0.00     0.135 A 
ATOM     56  F   UNL A   1      40.772  30.987  36.645  1.00  0.00    -0.206 F 
ATOM     57  C   UNL A   1      40.977  33.257  37.209  1.00  0.00     0.059 A 
ATOM     58  C   UNL A   1      42.018  34.801  35.650  1.00  0.00     0.059 A 
ATOM     59  F   UNL A   1      42.791  34.017  33.579  1.00  0.00    -0.206 F 
ATOM     60  C   UNL A   1      41.389  34.546  36.868  1.00  0.00     0.060 A 
BRANCH  60  61
ATOM     61  S   UNL A   1      41.097  35.889  38.040  1.00  0.00     0.124 S 
ATOM     62  O   UNL A   1      42.437  36.452  38.175  1.00  0.00    -0.237 OA
ATOM     63  O   UNL A   1      40.130  36.721  37.331  1.00  0.00    -0.237 OA
ATOM     64  O   UNL A   1      40.582  35.202  39.221  1.00  0.00    -0.744 OA
ENDBRANCH  60  61
ENDBRANCH  39  53
BRANCH  40  65
ATOM     65  C   UNL A   1      43.147  25.218  28.287  1.00  0.00     0.058 A 
ATOM     66  C   UNL A   1      43.694  25.548  27.040  1.00  0.00     0.135 A 
ATOM     67  C   UNL A   1      42.847  23.869  28.538  1.00  0.00     0.135 A 
ATOM     68  F   UNL A   1      43.988  26.825  26.754  1.00  0.00    -0.206 F 
ATOM     69  C   UNL A   1      43.936  24.578  26.073  1.00  0.00     0.059 A 
ATOM     70  C   UNL A   1      43.100  22.878  27.594  1.00  0.00     0.059 A 
ATOM     71  F   UNL A   1      42.335  23.503  29.723  1.00  0.00    -0.206 F 
ATOM     72  C   UNL A   1      43.639  23.245  26.362  1.00  0.00     0.060 A 
BRANCH  72  73
ATOM     73  S   UNL A   1      44.020  21.980  25.129  1.00  0.00     0.124 S 
ATOM     74  O   UNL A   1      43.034  20.954  25.448  1.00  0.00    -0.237 OA
ATOM     75  O   UNL A   1      43.813  22.698  23.875  1.00  0.00    -0.237 OA
ATOM     76  O   UNL A   1      45.409  21.638  25.422  1.00  0.00    -0.744 OA
ENDBRANCH  72  73
ENDBRANCH  40  65
BRANCH  52  77
ATOM     77  C   UNL A   1      46.962  27.618  33.606  1.00  0.00     0.058 A 
ATOM     78  C   UNL A   1      47.108  26.621  34.582  1.00  0.00     0.135 A 
ATOM     79  C   UNL A   1      48.124  28.224  33.104  1.00  0.00     0.135 A 
ATOM     80  F   UNL A   1      46.026  26.019  35.101  1.00  0.00    -0.206 F 
ATOM     81  C   UNL A   1      48.361  26.247  35.056  1.00  0.00     0.059 A 
ATOM     82  C   UNL A   1      49.389  27.853  33.548  1.00  0.00     0.059 A 
ATOM     83  F   UNL A   1      48.037  29.179  32.165  1.00  0.00    -0.206 F 
ATOM     84  C   UNL A   1      49.497  26.869  34.532  1.00  0.00     0.060 A 
BRANCH  84  85
ATOM     85  S   UNL A   1      51.122  26.353  35.124  1.00  0.00     0.124 S 
ATOM     86  O   UNL A   1      50.953  26.451  36.570  1.00  0.00    -0.237 OA
ATOM     87  O   UNL A   1      51.237  24.999  34.589  1.00  0.00    -0.237 OA
ATOM     88  O   UNL A   1      52.026  27.332  34.528  1.00  0.00    -0.744 OA
ENDBRANCH  84  85
ENDBRANCH  52  77
ENDBRANCH  26  27
ENDBRANCH  19  21
ENDBRANCH  18  19
ENDBRANCH  17  18
ENDBRANCH   1  17
TORSDOF 18
ENDMDL
