MODEL 1
REMARK VINA RESULT:     -13.0      0.000      0.000
REMARK SMILES Cc1c(CC(=O)OCCOC(=O)c2ccc(-c3c4nc(c(-c5c(F)cc(S(=O)(=O)[O-])cc5F)c5ccc([nH]5)c(-c5c(F)cc(S(=O)(=O)[O-])cc5F)c5nc(c(-c6c(F)cc(S(=O)(=O)[O-])cc6F)c6ccc3[nH]6)C=C5)C=C4)cc2)cc(-c2ccccc2)cc1-c1ccccc1
REMARK SMILES IDX 9 1 8 2 7 3 5 4 6 5 4 6 3 7 1 8 2 9 88 10 79 11 87 12 80 13
REMARK SMILES IDX 89 14 90 15 94 16 91 17 93 18 92 19 81 20 82 21 86 22 83 23
REMARK SMILES IDX 85 24 84 25 10 26 11 27 12 28 13 29 14 30 78 31 15 32 77 33
REMARK SMILES IDX 16 34 17 35 18 36 71 37 19 38 76 39 70 40 72 41 20 42 75 43
REMARK SMILES IDX 69 44 68 45 21 47 55 48 34 49 54 50 35 51 38 52 53 53 73 54
REMARK SMILES IDX 36 55 37 56 52 58 74 59 39 60 22 61 23 62 32 63 24 64 25 65
REMARK SMILES IDX 31 66 33 67 26 68 27 69 28 70 29 71 30 72 56 73 57 74 66 75
REMARK SMILES IDX 58 76 59 77 65 78 67 79 60 80 61 81 62 82 63 83 64 84 40 85
REMARK SMILES IDX 41 86 50 87 42 88 43 89 49 90 51 91 44 92 45 93 46 94 47 95
REMARK SMILES IDX 48 96
REMARK H PARENT 72 46 38 57
REMARK Flexibility Score: inf
ROOT
ATOM      1  C   UNL A   1      36.182  30.116  28.124  1.00  0.00     0.275 C 
ENDROOT
BRANCH   1   2
ATOM      2  C   UNL A   1      34.806  29.660  27.635  1.00  0.00     0.274 C 
BRANCH   2   3
ATOM      3  O   UNL A   1      34.972  28.419  26.930  1.00  0.00    -0.462 OA
BRANCH   3   4
ATOM      4  C   UNL A   1      33.851  27.980  26.117  1.00  0.00     0.310 C 
ATOM      5  O   UNL A   1      33.392  29.054  25.610  1.00  0.00    -0.252 OA
BRANCH   4   6
ATOM      6  C   UNL A   1      33.226  25.923  25.870  1.00  0.00     0.158 C 
BRANCH   6   7
ATOM      7  C   UNL A   1      34.025  24.423  25.542  1.00  0.00    -0.033 A 
ATOM      8  C   UNL A   1      31.832  23.259  24.908  1.00  0.00     0.045 C 
ATOM      9  C   UNL A   1      33.314  23.233  25.204  1.00  0.00    -0.039 A 
ATOM     10  C   UNL A   1      34.037  22.014  25.097  1.00  0.00    -0.015 A 
ATOM     11  C   UNL A   1      35.430  24.385  25.467  1.00  0.00     0.013 A 
ATOM     12  C   UNL A   1      35.425  22.004  25.341  1.00  0.00     0.017 A 
ATOM     13  C   UNL A   1      36.133  23.184  25.530  1.00  0.00    -0.017 A 
BRANCH  10  14
ATOM     14  C   UNL A   1      33.406  20.731  24.752  1.00  0.00    -0.018 A 
ATOM     15  C   UNL A   1      33.311  19.705  25.703  1.00  0.00     0.009 A 
ATOM     16  C   UNL A   1      32.910  20.500  23.460  1.00  0.00     0.009 A 
ATOM     17  C   UNL A   1      32.719  18.485  25.374  1.00  0.00     0.001 A 
ATOM     18  C   UNL A   1      32.306  19.286  23.135  1.00  0.00     0.001 A 
ATOM     19  C   UNL A   1      32.211  18.279  24.093  1.00  0.00     0.000 A 
ENDBRANCH  10  14
BRANCH  13  20
ATOM     20  C   UNL A   1      37.544  23.206  25.919  1.00  0.00    -0.018 A 
ATOM     21  C   UNL A   1      38.310  22.037  25.764  1.00  0.00     0.009 A 
ATOM     22  C   UNL A   1      38.144  24.318  26.509  1.00  0.00     0.009 A 
ATOM     23  C   UNL A   1      39.611  21.949  26.254  1.00  0.00     0.001 A 
ATOM     24  C   UNL A   1      39.463  24.244  26.972  1.00  0.00     0.001 A 
ATOM     25  C   UNL A   1      40.188  23.056  26.861  1.00  0.00     0.000 A 
ENDBRANCH  13  20
ENDBRANCH   6   7
ENDBRANCH   4   6
ENDBRANCH   3   4
ENDBRANCH   2   3
ENDBRANCH   1   2
BRANCH   1  26
ATOM     26  O   UNL A   1      36.730  29.377  29.243  1.00  0.00    -0.458 OA
BRANCH  26  27
ATOM     27  C   UNL A   1      37.979  28.847  29.334  1.00  0.00     0.338 C 
ATOM     28  O   UNL A   1      38.246  27.906  30.063  1.00  0.00    -0.246 OA
BRANCH  27  29
ATOM     29  C   UNL A   1      39.070  29.593  28.661  1.00  0.00     0.060 A 
ATOM     30  C   UNL A   1      39.328  29.143  26.932  1.00  0.00     0.016 A 
ATOM     31  C   UNL A   1      40.440  30.225  29.647  1.00  0.00     0.016 A 
ATOM     32  C   UNL A   1      41.023  29.077  26.265  1.00  0.00     0.010 A 
ATOM     33  C   UNL A   1      42.115  30.179  28.974  1.00  0.00     0.010 A 
ATOM     34  C   UNL A   1      42.406  29.494  27.326  1.00  0.00    -0.014 A 
BRANCH  34  35
ATOM     35  C   UNL A   1      43.690  28.804  27.245  1.00  0.00     0.031 A 
ATOM     36  C   UNL A   1      43.725  27.341  27.357  1.00  0.00     0.074 A 
ATOM     37  C   UNL A   1      44.759  29.492  26.770  1.00  0.00     0.049 A 
ATOM     38  N   UNL A   1      44.816  26.667  27.426  1.00  0.00    -0.248 NA
ATOM     39  C   UNL A   1      42.536  26.499  27.455  1.00  0.00     0.031 C 
ATOM     40  C   UNL A   1      45.982  28.967  26.169  1.00  0.00     0.029 A 
ATOM     41  N   UNL A   1      45.026  30.854  26.811  1.00  0.00    -0.354 N 
ATOM     42  C   UNL A   1      44.499  25.353  27.199  1.00  0.00     0.074 A 
ATOM     43  C   UNL A   1      43.077  25.276  27.406  1.00  0.00     0.031 C 
ATOM     44  C   UNL A   1      46.930  29.922  26.200  1.00  0.00     0.029 A 
ATOM     45  C   UNL A   1      46.396  31.044  26.953  1.00  0.00     0.049 A 
ATOM     46  H   UNL A   1      44.354  31.571  26.748  1.00  0.00     0.167 HD
ATOM     47  C   UNL A   1      45.475  24.537  26.714  1.00  0.00     0.037 A 
ATOM     48  C   UNL A   1      46.910  31.564  28.109  1.00  0.00     0.037 A 
ATOM     49  C   UNL A   1      46.789  25.187  26.834  1.00  0.00     0.049 A 
ATOM     50  C   UNL A   1      47.637  30.491  28.921  1.00  0.00     0.074 A 
ATOM     51  C   UNL A   1      47.702  25.763  25.971  1.00  0.00     0.029 A 
ATOM     52  N   UNL A   1      47.175  25.593  28.100  1.00  0.00    -0.354 N 
ATOM     53  N   UNL A   1      47.859  29.275  28.491  1.00  0.00    -0.248 NA
ATOM     54  C   UNL A   1      48.117  30.668  30.291  1.00  0.00     0.031 C 
ATOM     55  C   UNL A   1      48.555  26.623  26.748  1.00  0.00     0.029 A 
ATOM     56  C   UNL A   1      48.196  26.521  28.084  1.00  0.00     0.049 A 
ATOM     57  H   UNL A   1      46.763  25.255  28.928  1.00  0.00     0.167 HD
ATOM     58  C   UNL A   1      48.373  28.498  29.489  1.00  0.00     0.074 A 
ATOM     59  C   UNL A   1      48.541  29.427  30.597  1.00  0.00     0.031 C 
ATOM     60  C   UNL A   1      48.580  27.149  29.353  1.00  0.00     0.037 A 
BRANCH  47  61
ATOM     61  C   UNL A   1      45.233  23.211  26.027  1.00  0.00     0.058 A 
ATOM     62  C   UNL A   1      44.424  22.236  26.647  1.00  0.00     0.135 A 
ATOM     63  C   UNL A   1      45.842  22.790  24.821  1.00  0.00     0.135 A 
ATOM     64  F   UNL A   1      43.810  22.488  27.812  1.00  0.00    -0.206 F 
ATOM     65  C   UNL A   1      44.234  20.956  26.115  1.00  0.00     0.059 A 
ATOM     66  C   UNL A   1      45.623  21.538  24.243  1.00  0.00     0.059 A 
ATOM     67  F   UNL A   1      46.737  23.541  24.169  1.00  0.00    -0.206 F 
ATOM     68  C   UNL A   1      44.832  20.617  24.907  1.00  0.00     0.060 A 
BRANCH  68  69
ATOM     69  S   UNL A   1      44.600  18.961  24.235  1.00  0.00     0.124 S 
ATOM     70  O   UNL A   1      44.505  19.230  22.804  1.00  0.00    -0.237 OA
ATOM     71  O   UNL A   1      45.807  18.275  24.678  1.00  0.00    -0.237 OA
ATOM     72  O   UNL A   1      43.361  18.508  24.866  1.00  0.00    -0.744 OA
ENDBRANCH  68  69
ENDBRANCH  47  61
BRANCH  48  73
ATOM     73  C   UNL A   1      46.130  32.742  28.615  1.00  0.00     0.058 A 
ATOM     74  C   UNL A   1      46.273  33.960  27.912  1.00  0.00     0.135 A 
ATOM     75  C   UNL A   1      45.011  32.632  29.452  1.00  0.00     0.135 A 
ATOM     76  F   UNL A   1      47.342  34.151  27.121  1.00  0.00    -0.206 F 
ATOM     77  C   UNL A   1      45.288  34.947  27.913  1.00  0.00     0.059 A 
ATOM     78  C   UNL A   1      44.015  33.624  29.486  1.00  0.00     0.059 A 
ATOM     79  F   UNL A   1      44.790  31.501  30.138  1.00  0.00    -0.206 F 
ATOM     80  C   UNL A   1      44.139  34.751  28.672  1.00  0.00     0.060 A 
BRANCH  80  81
ATOM     81  S   UNL A   1      42.764  35.915  28.455  1.00  0.00     0.124 S 
ATOM     82  O   UNL A   1      43.383  37.187  28.811  1.00  0.00    -0.237 OA
ATOM     83  O   UNL A   1      42.437  35.741  27.044  1.00  0.00    -0.237 OA
ATOM     84  O   UNL A   1      41.758  35.423  29.392  1.00  0.00    -0.744 OA
ENDBRANCH  80  81
ENDBRANCH  48  73
BRANCH  60  85
ATOM     85  C   UNL A   1      49.149  26.296  30.464  1.00  0.00     0.058 A 
ATOM     86  C   UNL A   1      50.380  25.634  30.335  1.00  0.00     0.135 A 
ATOM     87  C   UNL A   1      48.427  26.018  31.648  1.00  0.00     0.135 A 
ATOM     88  F   UNL A   1      51.120  25.771  29.223  1.00  0.00    -0.206 F 
ATOM     89  C   UNL A   1      50.886  24.803  31.336  1.00  0.00     0.059 A 
ATOM     90  C   UNL A   1      48.875  25.134  32.622  1.00  0.00     0.059 A 
ATOM     91  F   UNL A   1      47.269  26.630  31.936  1.00  0.00    -0.206 F 
ATOM     92  C   UNL A   1      50.124  24.556  32.475  1.00  0.00     0.060 A 
BRANCH  92  93
ATOM     93  S   UNL A   1      50.767  23.479  33.766  1.00  0.00     0.124 S 
ATOM     94  O   UNL A   1      49.642  23.390  34.692  1.00  0.00    -0.237 OA
ATOM     95  O   UNL A   1      51.060  22.266  33.008  1.00  0.00    -0.237 OA
ATOM     96  O   UNL A   1      51.930  24.204  34.268  1.00  0.00    -0.744 OA
ENDBRANCH  92  93
ENDBRANCH  60  85
ENDBRANCH  34  35
ENDBRANCH  27  29
ENDBRANCH  26  27
ENDBRANCH   1  26
TORSDOF 17
ENDMDL
MODEL 2
REMARK VINA RESULT:     -12.8      3.946     10.286
REMARK SMILES Cc1c(CC(=O)OCCOC(=O)c2ccc(-c3c4nc(c(-c5c(F)cc(S(=O)(=O)[O-])cc5F)c5ccc([nH]5)c(-c5c(F)cc(S(=O)(=O)[O-])cc5F)c5nc(c(-c6c(F)cc(S(=O)(=O)[O-])cc6F)c6ccc3[nH]6)C=C5)C=C4)cc2)cc(-c2ccccc2)cc1-c1ccccc1
REMARK SMILES IDX 9 1 8 2 7 3 5 4 6 5 4 6 3 7 1 8 2 9 88 10 79 11 87 12 80 13
REMARK SMILES IDX 89 14 90 15 94 16 91 17 93 18 92 19 81 20 82 21 86 22 83 23
REMARK SMILES IDX 85 24 84 25 10 26 11 27 12 28 13 29 14 30 78 31 15 32 77 33
REMARK SMILES IDX 16 34 17 35 18 36 71 37 19 38 76 39 70 40 72 41 20 42 75 43
REMARK SMILES IDX 69 44 68 45 21 47 55 48 34 49 54 50 35 51 38 52 53 53 73 54
REMARK SMILES IDX 36 55 37 56 52 58 74 59 39 60 22 61 23 62 32 63 24 64 25 65
REMARK SMILES IDX 31 66 33 67 26 68 27 69 28 70 29 71 30 72 56 73 57 74 66 75
REMARK SMILES IDX 58 76 59 77 65 78 67 79 60 80 61 81 62 82 63 83 64 84 40 85
REMARK SMILES IDX 41 86 50 87 42 88 43 89 49 90 51 91 44 92 45 93 46 94 47 95
REMARK SMILES IDX 48 96
REMARK H PARENT 72 46 38 57
REMARK Flexibility Score: inf
ROOT
ATOM      1  C   UNL A   1      43.520  21.248  26.075  1.00  0.00     0.275 C 
ENDROOT
BRANCH   1   2
ATOM      2  C   UNL A   1      42.186  20.499  26.071  1.00  0.00     0.274 C 
BRANCH   2   3
ATOM      3  O   UNL A   1      41.133  21.462  25.895  1.00  0.00    -0.462 OA
BRANCH   3   4
ATOM      4  C   UNL A   1      39.775  20.949  25.919  1.00  0.00     0.310 C 
ATOM      5  O   UNL A   1      39.918  19.689  26.037  1.00  0.00    -0.252 OA
BRANCH   4   6
ATOM      6  C   UNL A   1      37.987  22.162  25.811  1.00  0.00     0.158 C 
BRANCH   6   7
ATOM      7  C   UNL A   1      36.321  21.873  25.442  1.00  0.00    -0.033 A 
ATOM      8  C   UNL A   1      35.646  24.267  26.058  1.00  0.00     0.045 C 
ATOM      9  C   UNL A   1      35.304  22.846  25.672  1.00  0.00    -0.039 A 
ATOM     10  C   UNL A   1      33.946  22.472  25.480  1.00  0.00    -0.015 A 
ATOM     11  C   UNL A   1      35.953  20.694  24.765  1.00  0.00     0.013 A 
ATOM     12  C   UNL A   1      33.636  21.155  25.086  1.00  0.00     0.017 A 
ATOM     13  C   UNL A   1      34.631  20.255  24.729  1.00  0.00    -0.017 A 
BRANCH  10  14
ATOM     14  C   UNL A   1      32.819  23.394  25.686  1.00  0.00    -0.018 A 
ATOM     15  C   UNL A   1      31.653  22.963  26.334  1.00  0.00     0.009 A 
ATOM     16  C   UNL A   1      32.879  24.716  25.216  1.00  0.00     0.009 A 
ATOM     17  C   UNL A   1      30.582  23.836  26.524  1.00  0.00     0.001 A 
ATOM     18  C   UNL A   1      31.813  25.593  25.418  1.00  0.00     0.001 A 
ATOM     19  C   UNL A   1      30.665  25.151  26.071  1.00  0.00     0.000 A 
ENDBRANCH  10  14
BRANCH  13  20
ATOM     20  C   UNL A   1      34.359  18.845  24.447  1.00  0.00    -0.018 A 
ATOM     21  C   UNL A   1      33.148  18.497  23.822  1.00  0.00     0.009 A 
ATOM     22  C   UNL A   1      35.218  17.819  24.840  1.00  0.00     0.009 A 
ATOM     23  C   UNL A   1      32.764  17.168  23.665  1.00  0.00     0.001 A 
ATOM     24  C   UNL A   1      34.851  16.482  24.653  1.00  0.00     0.001 A 
ATOM     25  C   UNL A   1      33.619  16.157  24.084  1.00  0.00     0.000 A 
ENDBRANCH  13  20
ENDBRANCH   6   7
ENDBRANCH   4   6
ENDBRANCH   3   4
ENDBRANCH   2   3
ENDBRANCH   1   2
BRANCH   1  26
ATOM     26  O   UNL A   1      43.570  22.450  25.267  1.00  0.00    -0.458 OA
BRANCH  26  27
ATOM     27  C   UNL A   1      43.848  23.709  25.699  1.00  0.00     0.338 C 
ATOM     28  O   UNL A   1      44.986  24.130  25.820  1.00  0.00    -0.246 OA
BRANCH  27  29
ATOM     29  C   UNL A   1      42.708  24.501  26.221  1.00  0.00     0.060 A 
ATOM     30  C   UNL A   1      42.264  25.930  25.212  1.00  0.00     0.016 A 
ATOM     31  C   UNL A   1      42.383  24.507  27.994  1.00  0.00     0.016 A 
ATOM     32  C   UNL A   1      41.736  27.474  26.024  1.00  0.00     0.010 A 
ATOM     33  C   UNL A   1      41.838  26.033  28.792  1.00  0.00     0.010 A 
ATOM     34  C   UNL A   1      41.631  27.538  27.812  1.00  0.00    -0.014 A 
BRANCH  34  35
ATOM     35  C   UNL A   1      41.984  28.733  28.574  1.00  0.00     0.031 A 
ATOM     36  C   UNL A   1      40.943  29.725  28.873  1.00  0.00     0.074 A 
ATOM     37  C   UNL A   1      43.169  28.745  29.236  1.00  0.00     0.049 A 
ATOM     38  N   UNL A   1      41.191  30.859  29.422  1.00  0.00    -0.248 NA
ATOM     39  C   UNL A   1      39.532  29.558  28.535  1.00  0.00     0.031 C 
ATOM     40  C   UNL A   1      43.556  29.555  30.388  1.00  0.00     0.029 A 
ATOM     41  N   UNL A   1      44.351  28.076  28.949  1.00  0.00    -0.354 N 
ATOM     42  C   UNL A   1      39.993  31.379  29.841  1.00  0.00     0.074 A 
ATOM     43  C   UNL A   1      38.996  30.639  29.114  1.00  0.00     0.031 C 
ATOM     44  C   UNL A   1      44.899  29.560  30.486  1.00  0.00     0.029 A 
ATOM     45  C   UNL A   1      45.426  28.877  29.318  1.00  0.00     0.049 A 
ATOM     46  H   UNL A   1      44.418  27.179  28.549  1.00  0.00     0.167 HD
ATOM     47  C   UNL A   1      40.011  32.271  30.870  1.00  0.00     0.037 A 
ATOM     48  C   UNL A   1      46.253  29.412  28.369  1.00  0.00     0.037 A 
ATOM     49  C   UNL A   1      41.384  32.738  31.116  1.00  0.00     0.049 A 
ATOM     50  C   UNL A   1      46.026  30.917  28.225  1.00  0.00     0.074 A 
ATOM     51  C   UNL A   1      42.349  32.542  32.086  1.00  0.00     0.029 A 
ATOM     52  N   UNL A   1      42.051  33.316  30.048  1.00  0.00    -0.354 N 
ATOM     53  N   UNL A   1      45.246  31.617  29.010  1.00  0.00    -0.248 NA
ATOM     54  C   UNL A   1      46.596  31.747  27.164  1.00  0.00     0.031 C 
ATOM     55  C   UNL A   1      43.621  32.897  31.515  1.00  0.00     0.029 A 
ATOM     56  C   UNL A   1      43.418  33.363  30.225  1.00  0.00     0.049 A 
ATOM     57  H   UNL A   1      41.596  33.659  29.246  1.00  0.00     0.167 HD
ATOM     58  C   UNL A   1      45.109  32.892  28.540  1.00  0.00     0.074 A 
ATOM     59  C   UNL A   1      45.998  32.932  27.389  1.00  0.00     0.031 C 
ATOM     60  C   UNL A   1      44.247  33.802  29.096  1.00  0.00     0.037 A 
BRANCH  47  61
ATOM     61  C   UNL A   1      38.817  32.631  31.725  1.00  0.00     0.058 A 
ATOM     62  C   UNL A   1      37.764  33.392  31.177  1.00  0.00     0.135 A 
ATOM     63  C   UNL A   1      38.686  32.355  33.107  1.00  0.00     0.135 A 
ATOM     64  F   UNL A   1      37.773  33.753  29.886  1.00  0.00    -0.206 F 
ATOM     65  C   UNL A   1      36.676  33.839  31.934  1.00  0.00     0.059 A 
ATOM     66  C   UNL A   1      37.583  32.743  33.870  1.00  0.00     0.059 A 
ATOM     67  F   UNL A   1      39.651  31.754  33.813  1.00  0.00    -0.206 F 
ATOM     68  C   UNL A   1      36.589  33.504  33.280  1.00  0.00     0.060 A 
BRANCH  68  69
ATOM     69  S   UNL A   1      35.195  34.097  34.256  1.00  0.00     0.124 S 
ATOM     70  O   UNL A   1      35.176  35.517  33.919  1.00  0.00    -0.237 OA
ATOM     71  O   UNL A   1      34.091  33.301  33.733  1.00  0.00    -0.237 OA
ATOM     72  O   UNL A   1      35.586  33.788  35.630  1.00  0.00    -0.744 OA
ENDBRANCH  68  69
ENDBRANCH  47  61
BRANCH  48  73
ATOM     73  C   UNL A   1      46.634  28.425  27.305  1.00  0.00     0.058 A 
ATOM     74  C   UNL A   1      45.891  28.453  26.102  1.00  0.00     0.135 A 
ATOM     75  C   UNL A   1      47.875  27.773  27.256  1.00  0.00     0.135 A 
ATOM     76  F   UNL A   1      44.676  29.027  26.084  1.00  0.00    -0.206 F 
ATOM     77  C   UNL A   1      46.410  28.006  24.889  1.00  0.00     0.059 A 
ATOM     78  C   UNL A   1      48.409  27.295  26.048  1.00  0.00     0.059 A 
ATOM     79  F   UNL A   1      48.651  27.720  28.349  1.00  0.00    -0.206 F 
ATOM     80  C   UNL A   1      47.692  27.465  24.863  1.00  0.00     0.060 A 
BRANCH  80  81
ATOM     81  S   UNL A   1      48.446  27.135  23.246  1.00  0.00     0.124 S 
ATOM     82  O   UNL A   1      48.163  25.716  23.062  1.00  0.00    -0.237 OA
ATOM     83  O   UNL A   1      47.712  28.046  22.375  1.00  0.00    -0.237 OA
ATOM     84  O   UNL A   1      49.851  27.473  23.457  1.00  0.00    -0.744 OA
ENDBRANCH  80  81
ENDBRANCH  48  73
BRANCH  60  85
ATOM     85  C   UNL A   1      44.100  35.211  28.569  1.00  0.00     0.058 A 
ATOM     86  C   UNL A   1      44.559  36.325  29.289  1.00  0.00     0.135 A 
ATOM     87  C   UNL A   1      43.391  35.503  27.380  1.00  0.00     0.135 A 
ATOM     88  F   UNL A   1      45.187  36.170  30.466  1.00  0.00    -0.206 F 
ATOM     89  C   UNL A   1      44.380  37.632  28.833  1.00  0.00     0.059 A 
ATOM     90  C   UNL A   1      43.133  36.798  26.947  1.00  0.00     0.059 A 
ATOM     91  F   UNL A   1      42.954  34.539  26.558  1.00  0.00    -0.206 F 
ATOM     92  C   UNL A   1      43.662  37.859  27.661  1.00  0.00     0.060 A 
BRANCH  92  93
ATOM     93  S   UNL A   1      43.419  39.542  27.072  1.00  0.00     0.124 S 
ATOM     94  O   UNL A   1      42.145  39.448  26.366  1.00  0.00    -0.237 OA
ATOM     95  O   UNL A   1      43.394  40.285  28.328  1.00  0.00    -0.237 OA
ATOM     96  O   UNL A   1      44.583  39.778  26.224  1.00  0.00    -0.744 OA
ENDBRANCH  92  93
ENDBRANCH  60  85
ENDBRANCH  34  35
ENDBRANCH  27  29
ENDBRANCH  26  27
ENDBRANCH   1  26
TORSDOF 17
ENDMDL
MODEL 3
REMARK VINA RESULT:     -12.8      5.786     11.838
REMARK SMILES Cc1c(CC(=O)OCCOC(=O)c2ccc(-c3c4nc(c(-c5c(F)cc(S(=O)(=O)[O-])cc5F)c5ccc([nH]5)c(-c5c(F)cc(S(=O)(=O)[O-])cc5F)c5nc(c(-c6c(F)cc(S(=O)(=O)[O-])cc6F)c6ccc3[nH]6)C=C5)C=C4)cc2)cc(-c2ccccc2)cc1-c1ccccc1
REMARK SMILES IDX 9 1 8 2 7 3 5 4 6 5 4 6 3 7 1 8 2 9 88 10 79 11 87 12 80 13
REMARK SMILES IDX 89 14 90 15 94 16 91 17 93 18 92 19 81 20 82 21 86 22 83 23
REMARK SMILES IDX 85 24 84 25 10 26 11 27 12 28 13 29 14 30 78 31 15 32 77 33
REMARK SMILES IDX 16 34 17 35 18 36 71 37 19 38 76 39 70 40 72 41 20 42 75 43
REMARK SMILES IDX 69 44 68 45 21 47 55 48 34 49 54 50 35 51 38 52 53 53 73 54
REMARK SMILES IDX 36 55 37 56 52 58 74 59 39 60 22 61 23 62 32 63 24 64 25 65
REMARK SMILES IDX 31 66 33 67 26 68 27 69 28 70 29 71 30 72 56 73 57 74 66 75
REMARK SMILES IDX 58 76 59 77 65 78 67 79 60 80 61 81 62 82 63 83 64 84 40 85
REMARK SMILES IDX 41 86 50 87 42 88 43 89 49 90 51 91 44 92 45 93 46 94 47 95
REMARK SMILES IDX 48 96
REMARK H PARENT 72 46 38 57
REMARK Flexibility Score: inf
ROOT
ATOM      1  C   UNL A   1      45.743  25.292  28.115  1.00  0.00     0.275 C 
ENDROOT
BRANCH   1   2
ATOM      2  C   UNL A   1      45.884  24.686  26.718  1.00  0.00     0.274 C 
BRANCH   2   3
ATOM      3  O   UNL A   1      45.782  23.258  26.839  1.00  0.00    -0.462 OA
BRANCH   3   4
ATOM      4  C   UNL A   1      44.443  22.697  26.790  1.00  0.00     0.310 C 
ATOM      5  O   UNL A   1      44.520  21.776  25.914  1.00  0.00    -0.252 OA
BRANCH   4   6
ATOM      6  C   UNL A   1      42.781  23.342  28.016  1.00  0.00     0.158 C 
BRANCH   6   7
ATOM      7  C   UNL A   1      41.301  24.194  27.737  1.00  0.00    -0.033 A 
ATOM      8  C   UNL A   1      42.081  26.229  29.085  1.00  0.00     0.045 C 
ATOM      9  C   UNL A   1      41.019  25.458  28.335  1.00  0.00    -0.039 A 
ATOM     10  C   UNL A   1      39.722  26.017  28.171  1.00  0.00    -0.015 A 
ATOM     11  C   UNL A   1      40.387  23.708  26.783  1.00  0.00     0.013 A 
ATOM     12  C   UNL A   1      38.747  25.308  27.440  1.00  0.00     0.017 A 
ATOM     13  C   UNL A   1      39.067  24.150  26.743  1.00  0.00    -0.017 A 
BRANCH  10  14
ATOM     14  C   UNL A   1      39.324  27.312  28.742  1.00  0.00    -0.018 A 
ATOM     15  C   UNL A   1      39.482  28.495  28.006  1.00  0.00     0.009 A 
ATOM     16  C   UNL A   1      38.802  27.392  30.043  1.00  0.00     0.009 A 
ATOM     17  C   UNL A   1      39.111  29.725  28.551  1.00  0.00     0.001 A 
ATOM     18  C   UNL A   1      38.418  28.619  30.582  1.00  0.00     0.001 A 
ATOM     19  C   UNL A   1      38.573  29.785  29.835  1.00  0.00     0.000 A 
ENDBRANCH  10  14
BRANCH  13  20
ATOM     20  C   UNL A   1      38.057  23.316  26.089  1.00  0.00    -0.018 A 
ATOM     21  C   UNL A   1      38.389  21.995  25.739  1.00  0.00     0.009 A 
ATOM     22  C   UNL A   1      36.800  23.801  25.726  1.00  0.00     0.009 A 
ATOM     23  C   UNL A   1      37.528  21.204  24.982  1.00  0.00     0.001 A 
ATOM     24  C   UNL A   1      35.919  22.997  24.995  1.00  0.00     0.001 A 
ATOM     25  C   UNL A   1      36.289  21.709  24.608  1.00  0.00     0.000 A 
ENDBRANCH  13  20
ENDBRANCH   6   7
ENDBRANCH   4   6
ENDBRANCH   3   4
ENDBRANCH   2   3
ENDBRANCH   1   2
BRANCH   1  26
ATOM     26  O   UNL A   1      45.336  26.683  28.162  1.00  0.00    -0.458 OA
BRANCH  26  27
ATOM     27  C   UNL A   1      46.152  27.770  28.151  1.00  0.00     0.338 C 
ATOM     28  O   UNL A   1      47.369  27.681  28.147  1.00  0.00    -0.246 OA
BRANCH  27  29
ATOM     29  C   UNL A   1      45.508  29.090  28.353  1.00  0.00     0.060 A 
ATOM     30  C   UNL A   1      46.135  30.020  29.767  1.00  0.00     0.016 A 
ATOM     31  C   UNL A   1      43.816  29.337  27.784  1.00  0.00     0.016 A 
ATOM     32  C   UNL A   1      44.981  31.005  30.777  1.00  0.00     0.010 A 
ATOM     33  C   UNL A   1      42.681  30.333  28.775  1.00  0.00     0.010 A 
ATOM     34  C   UNL A   1      43.246  31.064  30.329  1.00  0.00    -0.014 A 
BRANCH  34  35
ATOM     35  C   UNL A   1      42.181  31.104  31.327  1.00  0.00     0.031 A 
ATOM     36  C   UNL A   1      41.198  32.194  31.281  1.00  0.00     0.074 A 
ATOM     37  C   UNL A   1      41.952  29.989  32.066  1.00  0.00     0.049 A 
ATOM     38  N   UNL A   1      40.310  32.378  32.191  1.00  0.00    -0.248 NA
ATOM     39  C   UNL A   1      41.152  33.211  30.235  1.00  0.00     0.031 C 
ATOM     40  C   UNL A   1      40.729  29.599  32.763  1.00  0.00     0.029 A 
ATOM     41  N   UNL A   1      42.827  28.978  32.439  1.00  0.00    -0.354 N 
ATOM     42  C   UNL A   1      39.383  33.252  31.685  1.00  0.00     0.074 A 
ATOM     43  C   UNL A   1      40.036  33.873  30.563  1.00  0.00     0.031 C 
ATOM     44  C   UNL A   1      41.030  28.658  33.678  1.00  0.00     0.029 A 
ATOM     45  C   UNL A   1      42.475  28.518  33.703  1.00  0.00     0.049 A 
ATOM     46  H   UNL A   1      43.575  28.639  31.896  1.00  0.00     0.167 HD
ATOM     47  C   UNL A   1      38.124  33.215  32.202  1.00  0.00     0.037 A 
ATOM     48  C   UNL A   1      43.294  28.739  34.776  1.00  0.00     0.037 A 
ATOM     49  C   UNL A   1      38.108  32.434  33.449  1.00  0.00     0.049 A 
ATOM     50  C   UNL A   1      42.702  29.793  35.713  1.00  0.00     0.074 A 
ATOM     51  C   UNL A   1      37.641  31.195  33.847  1.00  0.00     0.029 A 
ATOM     52  N   UNL A   1      38.963  32.845  34.457  1.00  0.00    -0.354 N 
ATOM     53  N   UNL A   1      41.505  30.303  35.576  1.00  0.00    -0.248 NA
ATOM     54  C   UNL A   1      43.415  30.403  36.835  1.00  0.00     0.031 C 
ATOM     55  C   UNL A   1      38.342  30.831  35.050  1.00  0.00     0.029 A 
ATOM     56  C   UNL A   1      39.186  31.871  35.409  1.00  0.00     0.049 A 
ATOM     57  H   UNL A   1      39.370  33.741  34.492  1.00  0.00     0.167 HD
ATOM     58  C   UNL A   1      41.316  31.333  36.452  1.00  0.00     0.074 A 
ATOM     59  C   UNL A   1      42.539  31.342  37.241  1.00  0.00     0.031 C 
ATOM     60  C   UNL A   1      40.200  32.129  36.438  1.00  0.00     0.037 A 
BRANCH  47  61
ATOM     61  C   UNL A   1      36.893  33.778  31.527  1.00  0.00     0.058 A 
ATOM     62  C   UNL A   1      35.996  34.583  32.260  1.00  0.00     0.135 A 
ATOM     63  C   UNL A   1      36.478  33.487  30.205  1.00  0.00     0.135 A 
ATOM     64  F   UNL A   1      36.248  34.911  33.535  1.00  0.00    -0.206 F 
ATOM     65  C   UNL A   1      34.793  35.059  31.727  1.00  0.00     0.059 A 
ATOM     66  C   UNL A   1      35.310  33.997  29.635  1.00  0.00     0.059 A 
ATOM     67  F   UNL A   1      37.144  32.638  29.414  1.00  0.00    -0.206 F 
ATOM     68  C   UNL A   1      34.460  34.767  30.410  1.00  0.00     0.060 A 
BRANCH  68  69
ATOM     69  S   UNL A   1      32.902  35.366  29.733  1.00  0.00     0.124 S 
ATOM     70  O   UNL A   1      32.583  34.333  28.754  1.00  0.00    -0.237 OA
ATOM     71  O   UNL A   1      32.049  35.413  30.915  1.00  0.00    -0.237 OA
ATOM     72  O   UNL A   1      33.253  36.669  29.172  1.00  0.00    -0.744 OA
ENDBRANCH  68  69
ENDBRANCH  47  61
BRANCH  48  73
ATOM     73  C   UNL A   1      44.739  28.476  34.470  1.00  0.00     0.058 A 
ATOM     74  C   UNL A   1      45.140  27.124  34.366  1.00  0.00     0.135 A 
ATOM     75  C   UNL A   1      45.601  29.427  33.907  1.00  0.00     0.135 A 
ATOM     76  F   UNL A   1      44.383  26.160  34.916  1.00  0.00    -0.206 F 
ATOM     77  C   UNL A   1      46.245  26.725  33.615  1.00  0.00     0.059 A 
ATOM     78  C   UNL A   1      46.732  29.049  33.163  1.00  0.00     0.059 A 
ATOM     79  F   UNL A   1      45.283  30.730  33.944  1.00  0.00    -0.206 F 
ATOM     80  C   UNL A   1      47.013  27.695  32.979  1.00  0.00     0.060 A 
BRANCH  80  81
ATOM     81  S   UNL A   1      48.278  27.144  31.800  1.00  0.00     0.124 S 
ATOM     82  O   UNL A   1      47.523  26.232  30.948  1.00  0.00    -0.237 OA
ATOM     83  O   UNL A   1      48.684  28.400  31.181  1.00  0.00    -0.237 OA
ATOM     84  O   UNL A   1      49.282  26.518  32.655  1.00  0.00    -0.744 OA
ENDBRANCH  80  81
ENDBRANCH  48  73
BRANCH  60  85
ATOM     85  C   UNL A   1      40.000  33.269  37.411  1.00  0.00     0.058 A 
ATOM     86  C   UNL A   1      39.004  33.235  38.399  1.00  0.00     0.135 A 
ATOM     87  C   UNL A   1      40.722  34.482  37.312  1.00  0.00     0.135 A 
ATOM     88  F   UNL A   1      38.213  32.160  38.540  1.00  0.00    -0.206 F 
ATOM     89  C   UNL A   1      38.780  34.306  39.267  1.00  0.00     0.059 A 
ATOM     90  C   UNL A   1      40.463  35.588  38.113  1.00  0.00     0.059 A 
ATOM     91  F   UNL A   1      41.745  34.633  36.460  1.00  0.00    -0.206 F 
ATOM     92  C   UNL A   1      39.513  35.480  39.113  1.00  0.00     0.060 A 
BRANCH  92  93
ATOM     93  S   UNL A   1      39.223  36.868  40.223  1.00  0.00     0.124 S 
ATOM     94  O   UNL A   1      38.334  36.289  41.225  1.00  0.00    -0.237 OA
ATOM     95  O   UNL A   1      40.579  37.163  40.674  1.00  0.00    -0.237 OA
ATOM     96  O   UNL A   1      38.614  37.874  39.359  1.00  0.00    -0.744 OA
ENDBRANCH  92  93
ENDBRANCH  60  85
ENDBRANCH  34  35
ENDBRANCH  27  29
ENDBRANCH  26  27
ENDBRANCH   1  26
TORSDOF 17
ENDMDL
