MODEL 1
REMARK VINA RESULT:     -13.5      0.000      0.000
REMARK SMILES O=C(OCCOC(=O)[C@@H]1Cc2ccccc2CN1C(=O)COc1ccccc1)c1ccc(-c2c3nc(c(-c4c(F)cc(S(=O)(=O)[O-])cc4F)c4ccc([nH]4)c(-c4c(F)cc(S(=O)(=O)[O-])cc4F)c4nc(c(-c5c(F)cc(S(=O)(=O)[O-])cc5F)c5ccc2[nH]5)C=C4)C=C3)cc1
REMARK SMILES IDX 5 1 4 2 3 3 2 4 1 5 29 6 30 7 94 8 31 9 93 10 32 11 33 12
REMARK SMILES IDX 34 13 87 14 35 15 92 16 86 17 88 18 36 19 91 20 85 21 84 22
REMARK SMILES IDX 37 24 71 25 50 26 70 27 51 28 54 29 69 30 89 31 52 32 53 33
REMARK SMILES IDX 68 35 90 36 55 37 38 38 39 39 48 40 40 41 41 42 47 43 49 44
REMARK SMILES IDX 42 45 43 46 44 47 45 48 46 49 72 50 73 51 82 52 74 53 75 54
REMARK SMILES IDX 81 55 83 56 76 57 77 58 78 59 79 60 80 61 56 62 57 63 66 64
REMARK SMILES IDX 58 65 59 66 65 67 67 68 60 69 61 70 62 71 63 72 64 73 6 74
REMARK SMILES IDX 7 75 8 76 9 77 10 78 18 79 11 80 17 81 12 82 16 83 13 84
REMARK SMILES IDX 15 85 14 86 19 87 20 88 21 89 22 90 23 91 24 92 28 93 25 94
REMARK SMILES IDX 27 95 26 96
REMARK H PARENT 88 23 54 34
REMARK Flexibility Score: inf
ROOT
ATOM      1  C   UNL A   1      38.202  23.549  25.994  1.00  0.00     0.274 C 
ENDROOT
BRANCH   1   2
ATOM      2  C   UNL A   1      39.035  22.307  26.384  1.00  0.00     0.275 C 
BRANCH   2   3
ATOM      3  O   UNL A   1      40.203  22.639  27.140  1.00  0.00    -0.458 OA
BRANCH   3   4
ATOM      4  C   UNL A   1      41.071  23.632  26.858  1.00  0.00     0.338 C 
ATOM      5  O   UNL A   1      41.866  23.510  25.933  1.00  0.00    -0.246 OA
BRANCH   4   6
ATOM      6  C   UNL A   1      41.209  24.850  27.734  1.00  0.00     0.060 A 
ATOM      7  C   UNL A   1      42.736  25.812  28.117  1.00  0.00     0.016 A 
ATOM      8  C   UNL A   1      39.628  25.423  28.482  1.00  0.00     0.016 A 
ATOM      9  C   UNL A   1      42.682  27.302  29.130  1.00  0.00     0.010 A 
ATOM     10  C   UNL A   1      39.609  26.854  29.599  1.00  0.00     0.010 A 
ATOM     11  C   UNL A   1      41.136  27.794  29.946  1.00  0.00    -0.014 A 
BRANCH  11  12
ATOM     12  C   UNL A   1      41.171  28.843  31.011  1.00  0.00     0.031 A 
ATOM     13  C   UNL A   1      41.866  28.584  32.325  1.00  0.00     0.074 A 
ATOM     14  C   UNL A   1      40.430  29.943  30.780  1.00  0.00     0.049 A 
ATOM     15  N   UNL A   1      41.671  29.130  33.498  1.00  0.00    -0.248 NA
ATOM     16  C   UNL A   1      42.936  27.583  32.356  1.00  0.00     0.031 C 
ATOM     17  C   UNL A   1      39.795  30.314  29.507  1.00  0.00     0.029 A 
ATOM     18  N   UNL A   1      39.924  30.858  31.654  1.00  0.00    -0.354 N 
ATOM     19  C   UNL A   1      42.606  28.535  34.352  1.00  0.00     0.074 A 
ATOM     20  C   UNL A   1      43.235  27.467  33.636  1.00  0.00     0.031 C 
ATOM     21  C   UNL A   1      38.812  31.188  29.728  1.00  0.00     0.029 A 
ATOM     22  C   UNL A   1      38.832  31.521  31.134  1.00  0.00     0.049 A 
ATOM     23  H   UNL A   1      40.294  31.026  32.551  1.00  0.00     0.167 HD
ATOM     24  C   UNL A   1      43.022  28.956  35.569  1.00  0.00     0.037 A 
ATOM     25  C   UNL A   1      37.937  32.312  31.739  1.00  0.00     0.037 A 
ATOM     26  C   UNL A   1      42.464  30.137  36.162  1.00  0.00     0.049 A 
ATOM     27  C   UNL A   1      38.305  32.717  33.122  1.00  0.00     0.074 A 
ATOM     28  C   UNL A   1      42.808  30.773  37.335  1.00  0.00     0.029 A 
ATOM     29  N   UNL A   1      41.446  30.880  35.573  1.00  0.00    -0.354 N 
ATOM     30  N   UNL A   1      39.211  32.180  33.908  1.00  0.00    -0.248 NA
ATOM     31  C   UNL A   1      37.654  33.912  33.648  1.00  0.00     0.031 C 
ATOM     32  C   UNL A   1      41.952  31.870  37.483  1.00  0.00     0.029 A 
ATOM     33  C   UNL A   1      41.120  31.952  36.373  1.00  0.00     0.049 A 
ATOM     34  H   UNL A   1      41.021  30.670  34.711  1.00  0.00     0.167 HD
ATOM     35  C   UNL A   1      39.306  33.023  34.997  1.00  0.00     0.074 A 
ATOM     36  C   UNL A   1      38.349  34.095  34.763  1.00  0.00     0.031 C 
ATOM     37  C   UNL A   1      40.122  32.949  36.078  1.00  0.00     0.037 A 
BRANCH  24  38
ATOM     38  C   UNL A   1      44.129  28.203  36.275  1.00  0.00     0.058 A 
ATOM     39  C   UNL A   1      43.884  27.097  37.114  1.00  0.00     0.135 A 
ATOM     40  C   UNL A   1      45.470  28.577  36.095  1.00  0.00     0.135 A 
ATOM     41  F   UNL A   1      42.625  26.690  37.346  1.00  0.00    -0.206 F 
ATOM     42  C   UNL A   1      44.913  26.420  37.767  1.00  0.00     0.059 A 
ATOM     43  C   UNL A   1      46.520  27.892  36.708  1.00  0.00     0.059 A 
ATOM     44  F   UNL A   1      45.778  29.624  35.313  1.00  0.00    -0.206 F 
ATOM     45  C   UNL A   1      46.232  26.821  37.553  1.00  0.00     0.060 A 
BRANCH  45  46
ATOM     46  S   UNL A   1      47.561  25.910  38.372  1.00  0.00     0.124 S 
ATOM     47  O   UNL A   1      48.746  26.471  37.730  1.00  0.00    -0.237 OA
ATOM     48  O   UNL A   1      47.369  26.271  39.773  1.00  0.00    -0.237 OA
ATOM     49  O   UNL A   1      47.273  24.517  38.043  1.00  0.00    -0.744 OA
ENDBRANCH  45  46
ENDBRANCH  24  38
BRANCH  25  50
ATOM     50  C   UNL A   1      36.823  32.886  30.948  1.00  0.00     0.058 A 
ATOM     51  C   UNL A   1      35.501  32.504  31.208  1.00  0.00     0.135 A 
ATOM     52  C   UNL A   1      37.033  33.937  30.039  1.00  0.00     0.135 A 
ATOM     53  F   UNL A   1      35.249  31.553  32.120  1.00  0.00    -0.206 F 
ATOM     54  C   UNL A   1      34.428  33.102  30.562  1.00  0.00     0.059 A 
ATOM     55  C   UNL A   1      35.973  34.564  29.387  1.00  0.00     0.059 A 
ATOM     56  F   UNL A   1      38.275  34.395  29.814  1.00  0.00    -0.206 F 
ATOM     57  C   UNL A   1      34.673  34.126  29.646  1.00  0.00     0.060 A 
BRANCH  57  58
ATOM     58  S   UNL A   1      33.259  34.878  28.811  1.00  0.00     0.124 S 
ATOM     59  O   UNL A   1      32.430  35.273  29.945  1.00  0.00    -0.237 OA
ATOM     60  O   UNL A   1      33.888  35.966  28.070  1.00  0.00    -0.237 OA
ATOM     61  O   UNL A   1      32.731  33.791  27.994  1.00  0.00    -0.744 OA
ENDBRANCH  57  58
ENDBRANCH  25  50
BRANCH  37  62
ATOM     62  C   UNL A   1      39.964  34.047  37.071  1.00  0.00     0.058 A 
ATOM     63  C   UNL A   1      40.656  35.254  36.910  1.00  0.00     0.135 A 
ATOM     64  C   UNL A   1      39.097  33.898  38.161  1.00  0.00     0.135 A 
ATOM     65  F   UNL A   1      41.505  35.420  35.883  1.00  0.00    -0.206 F 
ATOM     66  C   UNL A   1      40.522  36.275  37.831  1.00  0.00     0.059 A 
ATOM     67  C   UNL A   1      38.911  34.928  39.068  1.00  0.00     0.059 A 
ATOM     68  F   UNL A   1      38.411  32.758  38.337  1.00  0.00    -0.206 F 
ATOM     69  C   UNL A   1      39.641  36.105  38.901  1.00  0.00     0.060 A 
BRANCH  69  70
ATOM     70  S   UNL A   1      39.451  37.465  40.060  1.00  0.00     0.124 S 
ATOM     71  O   UNL A   1      40.824  37.947  40.169  1.00  0.00    -0.237 OA
ATOM     72  O   UNL A   1      38.524  38.342  39.353  1.00  0.00    -0.237 OA
ATOM     73  O   UNL A   1      38.913  36.821  41.254  1.00  0.00    -0.744 OA
ENDBRANCH  69  70
ENDBRANCH  37  62
ENDBRANCH  11  12
ENDBRANCH   4   6
ENDBRANCH   3   4
ENDBRANCH   2   3
ENDBRANCH   1   2
BRANCH   1  74
ATOM     74  O   UNL A   1      36.786  23.277  25.815  1.00  0.00    -0.461 OA
BRANCH  74  75
ATOM     75  C   UNL A   1      36.239  23.505  24.599  1.00  0.00     0.329 C 
ATOM     76  O   UNL A   1      36.878  23.324  23.567  1.00  0.00    -0.250 OA
BRANCH  75  77
ATOM     77  C   UNL A   1      34.698  23.966  24.605  1.00  0.00     0.200 C 
ATOM     78  C   UNL A   1      34.765  25.115  25.696  1.00  0.00     0.073 C 
ATOM     79  N   UNL A   1      33.226  22.904  24.656  1.00  0.00    -0.321 N 
ATOM     80  C   UNL A   1      33.517  25.935  25.757  1.00  0.00    -0.040 A 
ATOM     81  C   UNL A   1      32.492  23.696  25.964  1.00  0.00     0.156 C 
ATOM     82  C   UNL A   1      33.469  27.330  25.864  1.00  0.00     0.004 A 
ATOM     83  C   UNL A   1      32.348  25.200  25.831  1.00  0.00    -0.025 A 
ATOM     84  C   UNL A   1      32.241  27.983  26.025  1.00  0.00     0.000 A 
ATOM     85  C   UNL A   1      31.113  25.858  25.985  1.00  0.00     0.006 A 
ATOM     86  C   UNL A   1      31.061  27.246  26.080  1.00  0.00     0.000 A 
BRANCH  79  87
ATOM     87  C   UNL A   1      32.547  21.459  23.470  1.00  0.00     0.261 C 
ATOM     88  O   UNL A   1      32.017  21.456  22.293  1.00  0.00    -0.271 OA
BRANCH  87  89
ATOM     89  C   UNL A   1      32.154  19.715  23.768  1.00  0.00     0.329 C 
BRANCH  89  90
ATOM     90  O   UNL A   1      32.054  18.957  24.946  1.00  0.00    -0.484 OA
BRANCH  90  91
ATOM     91  C   UNL A   1      32.916  17.907  25.089  1.00  0.00     0.120 A 
ATOM     92  C   UNL A   1      34.223  18.155  24.690  1.00  0.00     0.046 A 
ATOM     93  C   UNL A   1      32.577  16.622  25.501  1.00  0.00     0.046 A 
ATOM     94  C   UNL A   1      35.144  17.109  24.622  1.00  0.00     0.004 A 
ATOM     95  C   UNL A   1      33.469  15.561  25.383  1.00  0.00     0.004 A 
ATOM     96  C   UNL A   1      34.756  15.805  24.932  1.00  0.00     0.000 A 
ENDBRANCH  90  91
ENDBRANCH  89  90
ENDBRANCH  87  89
ENDBRANCH  79  87
ENDBRANCH  75  77
ENDBRANCH  74  75
ENDBRANCH   1  74
TORSDOF 18
ENDMDL
MODEL 2
REMARK VINA RESULT:     -13.3      1.135      4.154
REMARK SMILES O=C(OCCOC(=O)[C@@H]1Cc2ccccc2CN1C(=O)COc1ccccc1)c1ccc(-c2c3nc(c(-c4c(F)cc(S(=O)(=O)[O-])cc4F)c4ccc([nH]4)c(-c4c(F)cc(S(=O)(=O)[O-])cc4F)c4nc(c(-c5c(F)cc(S(=O)(=O)[O-])cc5F)c5ccc2[nH]5)C=C4)C=C3)cc1
REMARK SMILES IDX 5 1 4 2 3 3 2 4 1 5 29 6 30 7 94 8 31 9 93 10 32 11 33 12
REMARK SMILES IDX 34 13 87 14 35 15 92 16 86 17 88 18 36 19 91 20 85 21 84 22
REMARK SMILES IDX 37 24 71 25 50 26 70 27 51 28 54 29 69 30 89 31 52 32 53 33
REMARK SMILES IDX 68 35 90 36 55 37 38 38 39 39 48 40 40 41 41 42 47 43 49 44
REMARK SMILES IDX 42 45 43 46 44 47 45 48 46 49 72 50 73 51 82 52 74 53 75 54
REMARK SMILES IDX 81 55 83 56 76 57 77 58 78 59 79 60 80 61 56 62 57 63 66 64
REMARK SMILES IDX 58 65 59 66 65 67 67 68 60 69 61 70 62 71 63 72 64 73 6 74
REMARK SMILES IDX 7 75 8 76 9 77 10 78 18 79 11 80 17 81 12 82 16 83 13 84
REMARK SMILES IDX 15 85 14 86 19 87 20 88 21 89 22 90 23 91 24 92 28 93 25 94
REMARK SMILES IDX 27 95 26 96
REMARK H PARENT 88 23 54 34
REMARK Flexibility Score: inf
ROOT
ATOM      1  C   UNL A   1      37.586  23.211  25.996  1.00  0.00     0.274 C 
ENDROOT
BRANCH   1   2
ATOM      2  C   UNL A   1      38.987  22.595  26.218  1.00  0.00     0.275 C 
BRANCH   2   3
ATOM      3  O   UNL A   1      40.034  23.567  26.159  1.00  0.00    -0.458 OA
BRANCH   3   4
ATOM      4  C   UNL A   1      41.034  23.708  27.053  1.00  0.00     0.338 C 
ATOM      5  O   UNL A   1      41.798  22.774  27.274  1.00  0.00    -0.246 OA
BRANCH   4   6
ATOM      6  C   UNL A   1      41.172  24.935  27.915  1.00  0.00     0.060 A 
ATOM      7  C   UNL A   1      42.681  25.951  28.219  1.00  0.00     0.016 A 
ATOM      8  C   UNL A   1      39.610  25.459  28.736  1.00  0.00     0.016 A 
ATOM      9  C   UNL A   1      42.625  27.445  29.227  1.00  0.00     0.010 A 
ATOM     10  C   UNL A   1      39.596  26.895  29.846  1.00  0.00     0.010 A 
ATOM     11  C   UNL A   1      41.104  27.889  30.115  1.00  0.00    -0.014 A 
BRANCH  11  12
ATOM     12  C   UNL A   1      41.154  28.945  31.171  1.00  0.00     0.031 A 
ATOM     13  C   UNL A   1      41.858  28.692  32.481  1.00  0.00     0.074 A 
ATOM     14  C   UNL A   1      40.417  30.048  30.938  1.00  0.00     0.049 A 
ATOM     15  N   UNL A   1      41.677  29.248  33.651  1.00  0.00    -0.248 NA
ATOM     16  C   UNL A   1      42.923  27.685  32.510  1.00  0.00     0.031 C 
ATOM     17  C   UNL A   1      39.775  30.414  29.668  1.00  0.00     0.029 A 
ATOM     18  N   UNL A   1      39.925  30.973  31.809  1.00  0.00    -0.354 N 
ATOM     19  C   UNL A   1      42.615  28.653  34.503  1.00  0.00     0.074 A 
ATOM     20  C   UNL A   1      43.231  27.577  33.789  1.00  0.00     0.031 C 
ATOM     21  C   UNL A   1      38.799  31.295  29.890  1.00  0.00     0.029 A 
ATOM     22  C   UNL A   1      38.833  31.638  31.293  1.00  0.00     0.049 A 
ATOM     23  H   UNL A   1      40.303  31.145  32.702  1.00  0.00     0.167 HD
ATOM     24  C   UNL A   1      43.043  29.080  35.713  1.00  0.00     0.037 A 
ATOM     25  C   UNL A   1      37.947  32.439  31.899  1.00  0.00     0.037 A 
ATOM     26  C   UNL A   1      42.497  30.270  36.301  1.00  0.00     0.049 A 
ATOM     27  C   UNL A   1      38.329  32.852  33.277  1.00  0.00     0.074 A 
ATOM     28  C   UNL A   1      42.855  30.912  37.467  1.00  0.00     0.029 A 
ATOM     29  N   UNL A   1      41.479  31.014  35.716  1.00  0.00    -0.354 N 
ATOM     30  N   UNL A   1      39.238  32.315  34.059  1.00  0.00    -0.248 NA
ATOM     31  C   UNL A   1      37.690  34.055  33.799  1.00  0.00     0.031 C 
ATOM     32  C   UNL A   1      42.007  32.015  37.614  1.00  0.00     0.029 A 
ATOM     33  C   UNL A   1      41.166  32.094  36.510  1.00  0.00     0.049 A 
ATOM     34  H   UNL A   1      41.045  30.800  34.859  1.00  0.00     0.167 HD
ATOM     35  C   UNL A   1      39.347  33.166  35.141  1.00  0.00     0.074 A 
ATOM     36  C   UNL A   1      38.394  34.242  34.907  1.00  0.00     0.031 C 
ATOM     37  C   UNL A   1      40.171  33.095  36.216  1.00  0.00     0.037 A 
BRANCH  24  38
ATOM     38  C   UNL A   1      44.152  28.326  36.416  1.00  0.00     0.058 A 
ATOM     39  C   UNL A   1      43.916  27.169  37.187  1.00  0.00     0.135 A 
ATOM     40  C   UNL A   1      45.485  28.751  36.300  1.00  0.00     0.135 A 
ATOM     41  F   UNL A   1      42.665  26.711  37.354  1.00  0.00    -0.206 F 
ATOM     42  C   UNL A   1      44.946  26.491  37.837  1.00  0.00     0.059 A 
ATOM     43  C   UNL A   1      46.536  28.068  36.912  1.00  0.00     0.059 A 
ATOM     44  F   UNL A   1      45.782  29.848  35.586  1.00  0.00    -0.206 F 
ATOM     45  C   UNL A   1      46.257  26.945  37.689  1.00  0.00     0.060 A 
BRANCH  45  46
ATOM     46  S   UNL A   1      47.588  26.033  38.503  1.00  0.00     0.124 S 
ATOM     47  O   UNL A   1      47.742  24.880  37.621  1.00  0.00    -0.237 OA
ATOM     48  O   UNL A   1      48.684  26.997  38.482  1.00  0.00    -0.237 OA
ATOM     49  O   UNL A   1      47.043  25.739  39.825  1.00  0.00    -0.744 OA
ENDBRANCH  45  46
ENDBRANCH  24  38
BRANCH  25  50
ATOM     50  C   UNL A   1      36.830  33.014  31.113  1.00  0.00     0.058 A 
ATOM     51  C   UNL A   1      37.082  33.979  30.130  1.00  0.00     0.135 A 
ATOM     52  C   UNL A   1      35.525  32.503  31.209  1.00  0.00     0.135 A 
ATOM     53  F   UNL A   1      38.327  34.446  29.956  1.00  0.00    -0.206 F 
ATOM     54  C   UNL A   1      36.074  34.458  29.303  1.00  0.00     0.059 A 
ATOM     55  C   UNL A   1      34.499  32.956  30.382  1.00  0.00     0.059 A 
ATOM     56  F   UNL A   1      35.249  31.519  32.081  1.00  0.00    -0.206 F 
ATOM     57  C   UNL A   1      34.783  33.946  29.442  1.00  0.00     0.060 A 
BRANCH  57  58
ATOM     58  S   UNL A   1      33.491  34.596  28.361  1.00  0.00     0.124 S 
ATOM     59  O   UNL A   1      34.231  35.584  27.584  1.00  0.00    -0.237 OA
ATOM     60  O   UNL A   1      33.071  33.399  27.637  1.00  0.00    -0.237 OA
ATOM     61  O   UNL A   1      32.507  35.136  29.293  1.00  0.00    -0.744 OA
ENDBRANCH  57  58
ENDBRANCH  25  50
BRANCH  37  62
ATOM     62  C   UNL A   1      40.028  34.201  37.202  1.00  0.00     0.058 A 
ATOM     63  C   UNL A   1      40.719  35.406  37.022  1.00  0.00     0.135 A 
ATOM     64  C   UNL A   1      39.176  34.062  38.306  1.00  0.00     0.135 A 
ATOM     65  F   UNL A   1      41.553  35.563  35.982  1.00  0.00    -0.206 F 
ATOM     66  C   UNL A   1      40.598  36.435  37.936  1.00  0.00     0.059 A 
ATOM     67  C   UNL A   1      39.004  35.099  39.207  1.00  0.00     0.059 A 
ATOM     68  F   UNL A   1      38.492  32.924  38.500  1.00  0.00    -0.206 F 
ATOM     69  C   UNL A   1      39.732  36.274  39.020  1.00  0.00     0.060 A 
BRANCH  69  70
ATOM     70  S   UNL A   1      39.560  37.644  40.171  1.00  0.00     0.124 S 
ATOM     71  O   UNL A   1      38.584  38.481  39.480  1.00  0.00    -0.237 OA
ATOM     72  O   UNL A   1      39.081  36.972  41.375  1.00  0.00    -0.237 OA
ATOM     73  O   UNL A   1      40.911  38.188  40.255  1.00  0.00    -0.744 OA
ENDBRANCH  69  70
ENDBRANCH  37  62
ENDBRANCH  11  12
ENDBRANCH   4   6
ENDBRANCH   3   4
ENDBRANCH   2   3
ENDBRANCH   1   2
BRANCH   1  74
ATOM     74  O   UNL A   1      36.554  22.233  25.694  1.00  0.00    -0.461 OA
BRANCH  74  75
ATOM     75  C   UNL A   1      35.341  22.383  26.274  1.00  0.00     0.329 C 
ATOM     76  O   UNL A   1      35.126  23.284  27.080  1.00  0.00    -0.250 OA
BRANCH  75  77
ATOM     77  C   UNL A   1      34.207  21.348  25.794  1.00  0.00     0.200 C 
ATOM     78  C   UNL A   1      35.086  20.388  24.888  1.00  0.00     0.073 C 
ATOM     79  N   UNL A   1      32.549  21.738  25.166  1.00  0.00    -0.321 N 
ATOM     80  C   UNL A   1      34.362  19.144  24.483  1.00  0.00    -0.040 A 
ATOM     81  C   UNL A   1      32.676  20.799  23.760  1.00  0.00     0.156 C 
ATOM     82  C   UNL A   1      34.907  17.855  24.483  1.00  0.00     0.004 A 
ATOM     83  C   UNL A   1      33.100  19.357  23.963  1.00  0.00    -0.025 A 
ATOM     84  C   UNL A   1      34.169  16.778  23.978  1.00  0.00     0.000 A 
ATOM     85  C   UNL A   1      32.354  18.273  23.461  1.00  0.00     0.006 A 
ATOM     86  C   UNL A   1      32.889  16.986  23.471  1.00  0.00     0.000 A 
BRANCH  79  87
ATOM     87  C   UNL A   1      30.998  22.721  25.932  1.00  0.00     0.261 C 
ATOM     88  O   UNL A   1      29.892  22.340  26.477  1.00  0.00    -0.271 OA
BRANCH  87  89
ATOM     89  C   UNL A   1      30.480  24.455  25.835  1.00  0.00     0.329 C 
BRANCH  89  90
ATOM     90  O   UNL A   1      30.613  25.531  26.726  1.00  0.00    -0.484 OA
BRANCH  90  91
ATOM     91  C   UNL A   1      31.026  26.725  26.207  1.00  0.00     0.120 A 
ATOM     92  C   UNL A   1      31.550  27.623  27.127  1.00  0.00     0.046 A 
ATOM     93  C   UNL A   1      30.881  27.133  24.884  1.00  0.00     0.046 A 
ATOM     94  C   UNL A   1      31.836  28.934  26.741  1.00  0.00     0.004 A 
ATOM     95  C   UNL A   1      31.108  28.452  24.501  1.00  0.00     0.004 A 
ATOM     96  C   UNL A   1      31.579  29.358  25.438  1.00  0.00     0.000 A 
ENDBRANCH  90  91
ENDBRANCH  89  90
ENDBRANCH  87  89
ENDBRANCH  79  87
ENDBRANCH  75  77
ENDBRANCH  74  75
ENDBRANCH   1  74
TORSDOF 18
ENDMDL
MODEL 3
REMARK VINA RESULT:     -12.4      4.688      9.753
REMARK SMILES O=C(OCCOC(=O)[C@@H]1Cc2ccccc2CN1C(=O)COc1ccccc1)c1ccc(-c2c3nc(c(-c4c(F)cc(S(=O)(=O)[O-])cc4F)c4ccc([nH]4)c(-c4c(F)cc(S(=O)(=O)[O-])cc4F)c4nc(c(-c5c(F)cc(S(=O)(=O)[O-])cc5F)c5ccc2[nH]5)C=C4)C=C3)cc1
REMARK SMILES IDX 5 1 4 2 3 3 2 4 1 5 29 6 30 7 94 8 31 9 93 10 32 11 33 12
REMARK SMILES IDX 34 13 87 14 35 15 92 16 86 17 88 18 36 19 91 20 85 21 84 22
REMARK SMILES IDX 37 24 71 25 50 26 70 27 51 28 54 29 69 30 89 31 52 32 53 33
REMARK SMILES IDX 68 35 90 36 55 37 38 38 39 39 48 40 40 41 41 42 47 43 49 44
REMARK SMILES IDX 42 45 43 46 44 47 45 48 46 49 72 50 73 51 82 52 74 53 75 54
REMARK SMILES IDX 81 55 83 56 76 57 77 58 78 59 79 60 80 61 56 62 57 63 66 64
REMARK SMILES IDX 58 65 59 66 65 67 67 68 60 69 61 70 62 71 63 72 64 73 6 74
REMARK SMILES IDX 7 75 8 76 9 77 10 78 18 79 11 80 17 81 12 82 16 83 13 84
REMARK SMILES IDX 15 85 14 86 19 87 20 88 21 89 22 90 23 91 24 92 28 93 25 94
REMARK SMILES IDX 27 95 26 96
REMARK H PARENT 88 23 54 34
REMARK Flexibility Score: inf
ROOT
ATOM      1  C   UNL A   1      44.132  25.507  25.449  1.00  0.00     0.274 C 
ENDROOT
BRANCH   1   2
ATOM      2  C   UNL A   1      45.334  26.477  25.403  1.00  0.00     0.275 C 
BRANCH   2   3
ATOM      3  O   UNL A   1      46.494  25.951  26.055  1.00  0.00    -0.458 OA
BRANCH   3   4
ATOM      4  C   UNL A   1      47.017  26.395  27.216  1.00  0.00     0.338 C 
ATOM      5  O   UNL A   1      48.100  25.971  27.605  1.00  0.00    -0.246 OA
BRANCH   4   6
ATOM      6  C   UNL A   1      46.251  27.296  28.148  1.00  0.00     0.060 A 
ATOM      7  C   UNL A   1      46.440  29.116  28.386  1.00  0.00     0.016 A 
ATOM      8  C   UNL A   1      44.963  26.435  29.142  1.00  0.00     0.016 A 
ATOM      9  C   UNL A   1      45.362  30.038  29.498  1.00  0.00     0.010 A 
ATOM     10  C   UNL A   1      43.968  27.357  30.348  1.00  0.00     0.010 A 
ATOM     11  C   UNL A   1      44.169  29.160  30.549  1.00  0.00    -0.014 A 
BRANCH  11  12
ATOM     12  C   UNL A   1      43.502  29.891  31.669  1.00  0.00     0.031 A 
ATOM     13  C   UNL A   1      42.235  30.675  31.431  1.00  0.00     0.074 A 
ATOM     14  C   UNL A   1      44.175  29.926  32.834  1.00  0.00     0.049 A 
ATOM     15  N   UNL A   1      41.739  31.687  32.094  1.00  0.00    -0.248 NA
ATOM     16  C   UNL A   1      41.384  30.287  30.303  1.00  0.00     0.031 C 
ATOM     17  C   UNL A   1      45.362  29.130  33.179  1.00  0.00     0.029 A 
ATOM     18  N   UNL A   1      44.075  30.796  33.878  1.00  0.00    -0.354 N 
ATOM     19  C   UNL A   1      40.536  32.007  31.454  1.00  0.00     0.074 A 
ATOM     20  C   UNL A   1      40.459  31.228  30.255  1.00  0.00     0.031 C 
ATOM     21  C   UNL A   1      46.015  29.703  34.191  1.00  0.00     0.029 A 
ATOM     22  C   UNL A   1      45.228  30.830  34.635  1.00  0.00     0.049 A 
ATOM     23  H   UNL A   1      43.274  31.336  34.071  1.00  0.00     0.167 HD
ATOM     24  C   UNL A   1      39.510  32.758  31.916  1.00  0.00     0.037 A 
ATOM     25  C   UNL A   1      45.608  31.693  35.586  1.00  0.00     0.037 A 
ATOM     26  C   UNL A   1      39.584  33.379  33.206  1.00  0.00     0.049 A 
ATOM     27  C   UNL A   1      44.534  32.611  36.053  1.00  0.00     0.074 A 
ATOM     28  C   UNL A   1      38.627  34.100  33.887  1.00  0.00     0.029 A 
ATOM     29  N   UNL A   1      40.706  33.306  34.026  1.00  0.00    -0.354 N 
ATOM     30  N   UNL A   1      43.389  32.879  35.467  1.00  0.00    -0.248 NA
ATOM     31  C   UNL A   1      44.722  33.223  37.363  1.00  0.00     0.031 C 
ATOM     32  C   UNL A   1      39.196  34.514  35.096  1.00  0.00     0.029 A 
ATOM     33  C   UNL A   1      40.482  33.999  35.195  1.00  0.00     0.049 A 
ATOM     34  H   UNL A   1      41.538  32.830  33.803  1.00  0.00     0.167 HD
ATOM     35  C   UNL A   1      42.671  33.629  36.378  1.00  0.00     0.074 A 
ATOM     36  C   UNL A   1      43.531  33.776  37.545  1.00  0.00     0.031 C 
ATOM     37  C   UNL A   1      41.414  34.127  36.287  1.00  0.00     0.037 A 
BRANCH  24  38
ATOM     38  C   UNL A   1      38.251  32.884  31.084  1.00  0.00     0.058 A 
ATOM     39  C   UNL A   1      37.135  32.040  31.258  1.00  0.00     0.135 A 
ATOM     40  C   UNL A   1      38.143  33.885  30.105  1.00  0.00     0.135 A 
ATOM     41  F   UNL A   1      37.171  31.050  32.166  1.00  0.00    -0.206 F 
ATOM     42  C   UNL A   1      35.986  32.161  30.478  1.00  0.00     0.059 A 
ATOM     43  C   UNL A   1      36.990  34.049  29.337  1.00  0.00     0.059 A 
ATOM     44  F   UNL A   1      39.168  34.722  29.882  1.00  0.00    -0.206 F 
ATOM     45  C   UNL A   1      35.919  33.174  29.521  1.00  0.00     0.060 A 
BRANCH  45  46
ATOM     46  S   UNL A   1      34.409  33.348  28.544  1.00  0.00     0.124 S 
ATOM     47  O   UNL A   1      33.488  33.925  29.520  1.00  0.00    -0.237 OA
ATOM     48  O   UNL A   1      34.834  34.240  27.470  1.00  0.00    -0.237 OA
ATOM     49  O   UNL A   1      34.107  31.980  28.134  1.00  0.00    -0.744 OA
ENDBRANCH  45  46
ENDBRANCH  24  38
BRANCH  25  50
ATOM     50  C   UNL A   1      46.929  31.523  36.235  1.00  0.00     0.058 A 
ATOM     51  C   UNL A   1      48.010  32.330  35.858  1.00  0.00     0.135 A 
ATOM     52  C   UNL A   1      47.099  30.678  37.345  1.00  0.00     0.135 A 
ATOM     53  F   UNL A   1      47.873  33.202  34.848  1.00  0.00    -0.206 F 
ATOM     54  C   UNL A   1      49.230  32.271  36.520  1.00  0.00     0.059 A 
ATOM     55  C   UNL A   1      48.308  30.611  38.035  1.00  0.00     0.059 A 
ATOM     56  F   UNL A   1      46.070  29.943  37.796  1.00  0.00    -0.206 F 
ATOM     57  C   UNL A   1      49.372  31.403  37.603  1.00  0.00     0.060 A 
BRANCH  57  58
ATOM     58  S   UNL A   1      50.973  31.340  38.437  1.00  0.00     0.124 S 
ATOM     59  O   UNL A   1      50.669  32.005  39.699  1.00  0.00    -0.237 OA
ATOM     60  O   UNL A   1      51.217  29.902  38.515  1.00  0.00    -0.237 OA
ATOM     61  O   UNL A   1      51.855  32.072  37.535  1.00  0.00    -0.744 OA
ENDBRANCH  57  58
ENDBRANCH  25  50
BRANCH  37  62
ATOM     62  C   UNL A   1      40.944  34.891  37.476  1.00  0.00     0.058 A 
ATOM     63  C   UNL A   1      40.346  34.228  38.555  1.00  0.00     0.135 A 
ATOM     64  C   UNL A   1      41.122  36.279  37.543  1.00  0.00     0.135 A 
ATOM     65  F   UNL A   1      40.149  32.900  38.512  1.00  0.00    -0.206 F 
ATOM     66  C   UNL A   1      39.900  34.929  39.658  1.00  0.00     0.059 A 
ATOM     67  C   UNL A   1      40.727  36.994  38.661  1.00  0.00     0.059 A 
ATOM     68  F   UNL A   1      41.702  36.942  36.530  1.00  0.00    -0.206 F 
ATOM     69  C   UNL A   1      40.103  36.310  39.704  1.00  0.00     0.060 A 
BRANCH  69  70
ATOM     70  S   UNL A   1      39.553  37.193  41.170  1.00  0.00     0.124 S 
ATOM     71  O   UNL A   1      38.612  36.239  41.748  1.00  0.00    -0.237 OA
ATOM     72  O   UNL A   1      40.802  37.377  41.903  1.00  0.00    -0.237 OA
ATOM     73  O   UNL A   1      38.962  38.413  40.629  1.00  0.00    -0.744 OA
ENDBRANCH  69  70
ENDBRANCH  37  62
ENDBRANCH  11  12
ENDBRANCH   4   6
ENDBRANCH   3   4
ENDBRANCH   2   3
ENDBRANCH   1   2
BRANCH   1  74
ATOM     74  O   UNL A   1      42.996  25.939  24.652  1.00  0.00    -0.461 OA
BRANCH  74  75
ATOM     75  C   UNL A   1      42.301  27.025  25.063  1.00  0.00     0.329 C 
ATOM     76  O   UNL A   1      42.479  28.126  24.552  1.00  0.00    -0.250 OA
BRANCH  75  77
ATOM     77  C   UNL A   1      41.205  26.757  26.209  1.00  0.00     0.200 C 
ATOM     78  C   UNL A   1      40.984  28.242  26.720  1.00  0.00     0.073 C 
ATOM     79  N   UNL A   1      41.233  25.470  27.488  1.00  0.00    -0.321 N 
ATOM     80  C   UNL A   1      39.812  28.375  27.638  1.00  0.00    -0.040 A 
ATOM     81  C   UNL A   1      40.969  26.521  28.792  1.00  0.00     0.156 C 
ATOM     82  C   UNL A   1      38.864  29.404  27.597  1.00  0.00     0.004 A 
ATOM     83  C   UNL A   1      39.775  27.448  28.663  1.00  0.00    -0.025 A 
ATOM     84  C   UNL A   1      37.869  29.486  28.578  1.00  0.00     0.000 A 
ATOM     85  C   UNL A   1      38.770  27.526  29.646  1.00  0.00     0.006 A 
ATOM     86  C   UNL A   1      37.818  28.543  29.601  1.00  0.00     0.000 A 
BRANCH  79  87
ATOM     87  C   UNL A   1      41.305  23.483  27.420  1.00  0.00     0.261 C 
ATOM     88  O   UNL A   1      40.653  22.553  28.034  1.00  0.00    -0.271 OA
BRANCH  87  89
ATOM     89  C   UNL A   1      42.512  22.325  26.721  1.00  0.00     0.329 C 
BRANCH  89  90
ATOM     90  O   UNL A   1      42.803  21.947  25.401  1.00  0.00    -0.484 OA
BRANCH  90  91
ATOM     91  C   UNL A   1      43.798  21.028  25.220  1.00  0.00     0.120 A 
ATOM     92  C   UNL A   1      43.427  19.705  25.421  1.00  0.00     0.046 A 
ATOM     93  C   UNL A   1      45.133  21.313  24.950  1.00  0.00     0.046 A 
ATOM     94  C   UNL A   1      44.397  18.701  25.440  1.00  0.00     0.004 A 
ATOM     95  C   UNL A   1      46.115  20.330  25.023  1.00  0.00     0.004 A 
ATOM     96  C   UNL A   1      45.745  19.020  25.279  1.00  0.00     0.000 A 
ENDBRANCH  90  91
ENDBRANCH  89  90
ENDBRANCH  87  89
ENDBRANCH  79  87
ENDBRANCH  75  77
ENDBRANCH  74  75
ENDBRANCH   1  74
TORSDOF 18
ENDMDL
