MODEL 1
REMARK VINA RESULT:     -11.0      0.000      0.000
REMARK SMILES [NH3+][C@H](C(=O)OCCOC(=O)c1ccc(-c2c3nc(c(-c4c(F)cc(S(=O)(=O)[O-])cc4F)c4ccc([nH]4)c(-c4c(F)cc(S(=O)(=O)[O-])cc4F)c4nc(c(-c5c(F)cc(S(=O)(=O)[O-])cc5F)c5ccc2[nH]5)C=C4)C=C3)cc1)c1cc(F)c(Cl)c(Cl)c1
REMARK SMILES IDX 7 1 6 2 5 3 3 4 4 5 2 6 1 7 77 11 78 12 85 13 79 14 83 15
REMARK SMILES IDX 80 16 81 17 84 18 82 19 8 20 9 21 10 22 11 23 12 24 76 25
REMARK SMILES IDX 13 26 75 27 14 28 15 29 16 30 69 31 17 32 74 33 68 34 70 35
REMARK SMILES IDX 18 36 73 37 67 38 66 39 19 41 53 42 32 43 52 44 33 45 36 46
REMARK SMILES IDX 51 47 71 48 34 49 35 50 50 52 72 53 37 54 20 55 21 56 30 57
REMARK SMILES IDX 22 58 23 59 29 60 31 61 24 62 25 63 26 64 27 65 28 66 54 67
REMARK SMILES IDX 55 68 64 69 56 70 57 71 63 72 65 73 58 74 59 75 60 76 61 77
REMARK SMILES IDX 62 78 38 79 39 80 48 81 40 82 41 83 47 84 49 85 42 86 43 87
REMARK SMILES IDX 44 88 45 89 46 90
REMARK H PARENT 1 8 1 9 1 10 70 40 36 51
REMARK Flexibility Score: inf
ROOT
ATOM      1  C   UNL A   1      39.665  22.286  26.737  1.00  0.00     0.275 C 
ENDROOT
BRANCH   1   2
ATOM      2  C   UNL A   1      38.755  21.560  25.749  1.00  0.00     0.274 C 
BRANCH   2   3
ATOM      3  O   UNL A   1      37.406  22.066  25.803  1.00  0.00    -0.457 OA
BRANCH   3   4
ATOM      4  C   UNL A   1      36.416  21.170  25.525  1.00  0.00     0.369 C 
ATOM      5  O   UNL A   1      36.593  20.075  25.000  1.00  0.00    -0.245 OA
BRANCH   4   6
ATOM      6  C   UNL A   1      35.017  21.735  25.851  1.00  0.00     0.323 C 
BRANCH   6   7
ATOM      7  N   UNL A   1      34.959  22.218  27.251  1.00  0.00    -0.342 N 
ATOM      8  H   UNL A   1      35.167  21.448  27.885  1.00  0.00     0.345 HD
ATOM      9  H   UNL A   1      34.026  22.578  27.449  1.00  0.00     0.345 HD
ATOM     10  H   UNL A   1      35.646  22.962  27.383  1.00  0.00     0.345 HD
ENDBRANCH   6   7
BRANCH   6  11
ATOM     11  C   UNL A   1      34.522  22.792  24.876  1.00  0.00     0.025 A 
ATOM     12  C   UNL A   1      34.107  22.488  23.572  1.00  0.00     0.051 A 
ATOM     13  C   UNL A   1      34.469  24.135  25.284  1.00  0.00     0.032 A 
ATOM     14  C   UNL A   1      33.658  23.493  22.714  1.00  0.00     0.143 A 
ATOM     15  C   UNL A   1      34.024  25.144  24.415  1.00  0.00     0.063 A 
ATOM     16  F   UNL A   1      33.282  23.144  21.473  1.00  0.00    -0.205 F 
ATOM     17  C   UNL A   1      33.613  24.825  23.120  1.00  0.00     0.095 A 
ATOM     18  Cl  UNL A   1      34.021  26.764  25.018  1.00  0.00    -0.083 Cl
ATOM     19  Cl  UNL A   1      33.067  26.025  22.004  1.00  0.00    -0.079 Cl
ENDBRANCH   6  11
ENDBRANCH   4   6
ENDBRANCH   3   4
ENDBRANCH   2   3
ENDBRANCH   1   2
BRANCH   1  20
ATOM     20  O   UNL A   1      39.504  23.708  26.613  1.00  0.00    -0.458 OA
BRANCH  20  21
ATOM     21  C   UNL A   1      40.645  24.431  26.671  1.00  0.00     0.338 C 
ATOM     22  O   UNL A   1      41.675  24.246  26.048  1.00  0.00    -0.246 OA
BRANCH  21  23
ATOM     23  C   UNL A   1      40.448  25.564  27.584  1.00  0.00     0.060 A 
ATOM     24  C   UNL A   1      41.339  26.636  27.525  1.00  0.00     0.016 A 
ATOM     25  C   UNL A   1      39.460  25.513  28.567  1.00  0.00     0.016 A 
ATOM     26  C   UNL A   1      41.290  27.633  28.495  1.00  0.00     0.010 A 
ATOM     27  C   UNL A   1      39.372  26.550  29.500  1.00  0.00     0.010 A 
ATOM     28  C   UNL A   1      40.305  27.603  29.490  1.00  0.00    -0.014 A 
BRANCH  28  29
ATOM     29  C   UNL A   1      40.279  28.651  30.543  1.00  0.00     0.031 A 
ATOM     30  C   UNL A   1      41.261  28.600  31.681  1.00  0.00     0.074 A 
ATOM     31  C   UNL A   1      39.388  29.659  30.471  1.00  0.00     0.049 A 
ATOM     32  N   UNL A   1      41.310  29.333  32.763  1.00  0.00    -0.248 NA
ATOM     33  C   UNL A   1      42.324  27.584  31.594  1.00  0.00     0.031 C 
ATOM     34  C   UNL A   1      38.406  29.846  29.401  1.00  0.00     0.029 A 
ATOM     35  N   UNL A   1      39.167  30.719  31.314  1.00  0.00    -0.354 N 
ATOM     36  C   UNL A   1      42.376  28.841  33.507  1.00  0.00     0.074 A 
ATOM     37  C   UNL A   1      42.950  27.748  32.751  1.00  0.00     0.031 C 
ATOM     38  C   UNL A   1      37.702  30.964  29.641  1.00  0.00     0.029 A 
ATOM     39  C   UNL A   1      38.141  31.539  30.909  1.00  0.00     0.049 A 
ATOM     40  H   UNL A   1      39.692  30.876  32.131  1.00  0.00     0.167 HD
ATOM     41  C   UNL A   1      42.831  29.261  34.711  1.00  0.00     0.037 A 
ATOM     42  C   UNL A   1      37.593  32.614  31.506  1.00  0.00     0.037 A 
ATOM     43  C   UNL A   1      42.286  30.376  35.442  1.00  0.00     0.049 A 
ATOM     44  C   UNL A   1      38.117  33.065  32.840  1.00  0.00     0.074 A 
ATOM     45  C   UNL A   1      42.674  30.872  36.674  1.00  0.00     0.029 A 
ATOM     46  N   UNL A   1      41.249  31.180  34.996  1.00  0.00    -0.354 N 
ATOM     47  N   UNL A   1      39.084  32.549  33.559  1.00  0.00    -0.248 NA
ATOM     48  C   UNL A   1      37.465  34.231  33.451  1.00  0.00     0.031 C 
ATOM     49  C   UNL A   1      41.859  31.970  36.981  1.00  0.00     0.029 A 
ATOM     50  C   UNL A   1      40.982  32.169  35.927  1.00  0.00     0.049 A 
ATOM     51  H   UNL A   1      40.772  31.065  34.142  1.00  0.00     0.167 HD
ATOM     52  C   UNL A   1      39.156  33.325  34.709  1.00  0.00     0.074 A 
ATOM     53  C   UNL A   1      38.149  34.360  34.580  1.00  0.00     0.031 C 
ATOM     54  C   UNL A   1      39.974  33.188  35.780  1.00  0.00     0.037 A 
BRANCH  41  55
ATOM     55  C   UNL A   1      43.959  28.487  35.329  1.00  0.00     0.058 A 
ATOM     56  C   UNL A   1      43.728  27.404  36.189  1.00  0.00     0.135 A 
ATOM     57  C   UNL A   1      45.291  28.826  35.039  1.00  0.00     0.135 A 
ATOM     58  F   UNL A   1      42.474  27.053  36.510  1.00  0.00    -0.206 F 
ATOM     59  C   UNL A   1      44.781  26.695  36.761  1.00  0.00     0.059 A 
ATOM     60  C   UNL A   1      46.359  28.121  35.586  1.00  0.00     0.059 A 
ATOM     61  F   UNL A   1      45.564  29.857  34.224  1.00  0.00    -0.206 F 
ATOM     62  C   UNL A   1      46.093  27.065  36.459  1.00  0.00     0.060 A 
BRANCH  62  63
ATOM     63  S   UNL A   1      47.456  26.145  37.204  1.00  0.00     0.124 S 
ATOM     64  O   UNL A   1      47.347  26.549  38.603  1.00  0.00    -0.237 OA
ATOM     65  O   UNL A   1      47.100  24.759  36.916  1.00  0.00    -0.237 OA
ATOM     66  O   UNL A   1      48.629  26.646  36.496  1.00  0.00    -0.744 OA
ENDBRANCH  62  63
ENDBRANCH  41  55
BRANCH  42  67
ATOM     67  C   UNL A   1      36.461  33.319  30.853  1.00  0.00     0.058 A 
ATOM     68  C   UNL A   1      35.160  33.223  31.366  1.00  0.00     0.135 A 
ATOM     69  C   UNL A   1      36.666  34.129  29.726  1.00  0.00     0.135 A 
ATOM     70  F   UNL A   1      34.917  32.453  32.437  1.00  0.00    -0.206 F 
ATOM     71  C   UNL A   1      34.097  33.906  30.783  1.00  0.00     0.059 A 
ATOM     72  C   UNL A   1      35.624  34.836  29.138  1.00  0.00     0.059 A 
ATOM     73  F   UNL A   1      37.898  34.261  29.208  1.00  0.00    -0.206 F 
ATOM     74  C   UNL A   1      34.341  34.714  29.670  1.00  0.00     0.060 A 
BRANCH  74  75
ATOM     75  S   UNL A   1      32.979  35.663  28.960  1.00  0.00     0.124 S 
ATOM     76  O   UNL A   1      32.420  34.708  28.011  1.00  0.00    -0.237 OA
ATOM     77  O   UNL A   1      32.157  35.957  30.131  1.00  0.00    -0.237 OA
ATOM     78  O   UNL A   1      33.653  36.820  28.376  1.00  0.00    -0.744 OA
ENDBRANCH  74  75
ENDBRANCH  42  67
BRANCH  54  79
ATOM     79  C   UNL A   1      39.819  34.184  36.890  1.00  0.00     0.058 A 
ATOM     80  C   UNL A   1      40.437  35.442  36.830  1.00  0.00     0.135 A 
ATOM     81  C   UNL A   1      39.016  33.895  38.004  1.00  0.00     0.135 A 
ATOM     82  F   UNL A   1      41.219  35.761  35.786  1.00  0.00    -0.206 F 
ATOM     83  C   UNL A   1      40.277  36.377  37.846  1.00  0.00     0.059 A 
ATOM     84  C   UNL A   1      38.832  34.820  39.026  1.00  0.00     0.059 A 
ATOM     85  F   UNL A   1      38.401  32.706  38.103  1.00  0.00    -0.206 F 
ATOM     86  C   UNL A   1      39.475  36.054  38.943  1.00  0.00     0.060 A 
BRANCH  86  87
ATOM     87  S   UNL A   1      39.249  37.282  40.248  1.00  0.00     0.124 S 
ATOM     88  O   UNL A   1      40.630  37.622  40.572  1.00  0.00    -0.237 OA
ATOM     89  O   UNL A   1      38.479  38.324  39.576  1.00  0.00    -0.237 OA
ATOM     90  O   UNL A   1      38.524  36.545  41.280  1.00  0.00    -0.744 OA
ENDBRANCH  86  87
ENDBRANCH  54  79
ENDBRANCH  28  29
ENDBRANCH  21  23
ENDBRANCH  20  21
ENDBRANCH   1  20
TORSDOF 16
ENDMDL
MODEL 2
REMARK VINA RESULT:     -10.8      2.794      3.895
REMARK SMILES [NH3+][C@H](C(=O)OCCOC(=O)c1ccc(-c2c3nc(c(-c4c(F)cc(S(=O)(=O)[O-])cc4F)c4ccc([nH]4)c(-c4c(F)cc(S(=O)(=O)[O-])cc4F)c4nc(c(-c5c(F)cc(S(=O)(=O)[O-])cc5F)c5ccc2[nH]5)C=C4)C=C3)cc1)c1cc(F)c(Cl)c(Cl)c1
REMARK SMILES IDX 7 1 6 2 5 3 3 4 4 5 2 6 1 7 77 11 78 12 85 13 79 14 83 15
REMARK SMILES IDX 80 16 81 17 84 18 82 19 8 20 9 21 10 22 11 23 12 24 76 25
REMARK SMILES IDX 13 26 75 27 14 28 15 29 16 30 69 31 17 32 74 33 68 34 70 35
REMARK SMILES IDX 18 36 73 37 67 38 66 39 19 41 53 42 32 43 52 44 33 45 36 46
REMARK SMILES IDX 51 47 71 48 34 49 35 50 50 52 72 53 37 54 20 55 21 56 30 57
REMARK SMILES IDX 22 58 23 59 29 60 31 61 24 62 25 63 26 64 27 65 28 66 54 67
REMARK SMILES IDX 55 68 64 69 56 70 57 71 63 72 65 73 58 74 59 75 60 76 61 77
REMARK SMILES IDX 62 78 38 79 39 80 48 81 40 82 41 83 47 84 49 85 42 86 43 87
REMARK SMILES IDX 44 88 45 89 46 90
REMARK H PARENT 1 8 1 9 1 10 70 40 36 51
REMARK Flexibility Score: inf
ROOT
ATOM      1  C   UNL A   1      38.295  23.169  25.681  1.00  0.00     0.275 C 
ENDROOT
BRANCH   1   2
ATOM      2  C   UNL A   1      38.544  21.666  25.781  1.00  0.00     0.274 C 
BRANCH   2   3
ATOM      3  O   UNL A   1      39.798  21.379  26.431  1.00  0.00    -0.457 OA
BRANCH   3   4
ATOM      4  C   UNL A   1      40.385  20.191  26.110  1.00  0.00     0.369 C 
ATOM      5  O   UNL A   1      39.788  19.217  25.661  1.00  0.00    -0.245 OA
BRANCH   4   6
ATOM      6  C   UNL A   1      41.885  20.169  26.476  1.00  0.00     0.323 C 
BRANCH   6   7
ATOM      7  N   UNL A   1      42.670  19.476  25.426  1.00  0.00    -0.342 N 
ATOM      8  H   UNL A   1      43.451  18.982  25.857  1.00  0.00     0.345 HD
ATOM      9  H   UNL A   1      43.027  20.161  24.761  1.00  0.00     0.345 HD
ATOM     10  H   UNL A   1      42.072  18.807  24.940  1.00  0.00     0.345 HD
ENDBRANCH   6   7
BRANCH   6  11
ATOM     11  C   UNL A   1      42.473  21.532  26.804  1.00  0.00     0.025 A 
ATOM     12  C   UNL A   1      42.334  22.137  28.060  1.00  0.00     0.051 A 
ATOM     13  C   UNL A   1      43.193  22.227  25.817  1.00  0.00     0.032 A 
ATOM     14  C   UNL A   1      42.894  23.390  28.315  1.00  0.00     0.143 A 
ATOM     15  C   UNL A   1      43.749  23.490  26.075  1.00  0.00     0.063 A 
ATOM     16  F   UNL A   1      42.721  23.925  29.534  1.00  0.00    -0.205 F 
ATOM     17  C   UNL A   1      43.602  24.079  27.332  1.00  0.00     0.095 A 
ATOM     18  Cl  UNL A   1      44.595  24.262  24.780  1.00  0.00    -0.083 Cl
ATOM     19  Cl  UNL A   1      44.254  25.635  27.703  1.00  0.00    -0.079 Cl
ENDBRANCH   6  11
ENDBRANCH   4   6
ENDBRANCH   3   4
ENDBRANCH   2   3
ENDBRANCH   1   2
BRANCH   1  20
ATOM     20  O   UNL A   1      38.888  23.848  26.800  1.00  0.00    -0.458 OA
BRANCH  20  21
ATOM     21  C   UNL A   1      39.910  24.681  26.500  1.00  0.00     0.338 C 
ATOM     22  O   UNL A   1      40.562  24.718  25.472  1.00  0.00    -0.246 OA
BRANCH  21  23
ATOM     23  C   UNL A   1      40.098  25.626  27.609  1.00  0.00     0.060 A 
ATOM     24  C   UNL A   1      39.311  25.485  28.752  1.00  0.00     0.016 A 
ATOM     25  C   UNL A   1      40.962  26.711  27.470  1.00  0.00     0.016 A 
ATOM     26  C   UNL A   1      39.334  26.468  29.736  1.00  0.00     0.010 A 
ATOM     27  C   UNL A   1      41.033  27.663  28.491  1.00  0.00     0.010 A 
ATOM     28  C   UNL A   1      40.197  27.566  29.618  1.00  0.00    -0.014 A 
BRANCH  28  29
ATOM     29  C   UNL A   1      40.193  28.630  30.655  1.00  0.00     0.031 A 
ATOM     30  C   UNL A   1      41.184  28.583  31.786  1.00  0.00     0.074 A 
ATOM     31  C   UNL A   1      39.316  29.649  30.574  1.00  0.00     0.049 A 
ATOM     32  N   UNL A   1      41.252  29.331  32.856  1.00  0.00    -0.248 NA
ATOM     33  C   UNL A   1      42.231  27.551  31.706  1.00  0.00     0.031 C 
ATOM     34  C   UNL A   1      38.329  29.833  29.508  1.00  0.00     0.029 A 
ATOM     35  N   UNL A   1      39.117  30.725  31.402  1.00  0.00    -0.354 N 
ATOM     36  C   UNL A   1      42.316  28.836  33.600  1.00  0.00     0.074 A 
ATOM     37  C   UNL A   1      42.869  27.724  32.856  1.00  0.00     0.031 C 
ATOM     38  C   UNL A   1      37.642  30.965  29.736  1.00  0.00     0.029 A 
ATOM     39  C   UNL A   1      38.099  31.553  30.992  1.00  0.00     0.049 A 
ATOM     40  H   UNL A   1      39.651  30.887  32.212  1.00  0.00     0.167 HD
ATOM     41  C   UNL A   1      42.787  29.268  34.794  1.00  0.00     0.037 A 
ATOM     42  C   UNL A   1      37.571  32.645  31.576  1.00  0.00     0.037 A 
ATOM     43  C   UNL A   1      42.263  30.402  35.511  1.00  0.00     0.049 A 
ATOM     44  C   UNL A   1      38.112  33.109  32.899  1.00  0.00     0.074 A 
ATOM     45  C   UNL A   1      42.667  30.911  36.733  1.00  0.00     0.029 A 
ATOM     46  N   UNL A   1      41.234  31.213  35.060  1.00  0.00    -0.354 N 
ATOM     47  N   UNL A   1      39.077  32.590  33.619  1.00  0.00    -0.248 NA
ATOM     48  C   UNL A   1      37.481  34.294  33.496  1.00  0.00     0.031 C 
ATOM     49  C   UNL A   1      41.870  32.025  37.028  1.00  0.00     0.029 A 
ATOM     50  C   UNL A   1      40.987  32.221  35.978  1.00  0.00     0.049 A 
ATOM     51  H   UNL A   1      40.748  31.092  34.212  1.00  0.00     0.167 HD
ATOM     52  C   UNL A   1      39.168  33.383  34.755  1.00  0.00     0.074 A 
ATOM     53  C   UNL A   1      38.175  34.430  34.618  1.00  0.00     0.031 C 
ATOM     54  C   UNL A   1      39.993  33.251  35.823  1.00  0.00     0.037 A 
BRANCH  41  55
ATOM     55  C   UNL A   1      43.908  28.488  35.415  1.00  0.00     0.058 A 
ATOM     56  C   UNL A   1      45.253  28.799  35.163  1.00  0.00     0.135 A 
ATOM     57  C   UNL A   1      43.631  27.425  36.288  1.00  0.00     0.135 A 
ATOM     58  F   UNL A   1      45.569  29.795  34.321  1.00  0.00    -0.206 F 
ATOM     59  C   UNL A   1      46.287  28.066  35.739  1.00  0.00     0.059 A 
ATOM     60  C   UNL A   1      44.649  26.690  36.889  1.00  0.00     0.059 A 
ATOM     61  F   UNL A   1      42.361  27.086  36.559  1.00  0.00    -0.206 F 
ATOM     62  C   UNL A   1      45.974  27.010  36.596  1.00  0.00     0.060 A 
BRANCH  62  63
ATOM     63  S   UNL A   1      47.318  26.060  37.340  1.00  0.00     0.124 S 
ATOM     64  O   UNL A   1      46.685  24.757  37.521  1.00  0.00    -0.237 OA
ATOM     65  O   UNL A   1      48.357  26.123  36.317  1.00  0.00    -0.237 OA
ATOM     66  O   UNL A   1      47.609  26.793  38.568  1.00  0.00    -0.744 OA
ENDBRANCH  62  63
ENDBRANCH  41  55
BRANCH  42  67
ATOM     67  C   UNL A   1      36.444  33.355  30.921  1.00  0.00     0.058 A 
ATOM     68  C   UNL A   1      35.144  33.276  31.439  1.00  0.00     0.135 A 
ATOM     69  C   UNL A   1      36.653  34.154  29.787  1.00  0.00     0.135 A 
ATOM     70  F   UNL A   1      34.896  32.518  32.517  1.00  0.00    -0.206 F 
ATOM     71  C   UNL A   1      34.086  33.965  30.853  1.00  0.00     0.059 A 
ATOM     72  C   UNL A   1      35.617  34.867  29.196  1.00  0.00     0.059 A 
ATOM     73  F   UNL A   1      37.885  34.270  29.264  1.00  0.00    -0.206 F 
ATOM     74  C   UNL A   1      34.334  34.762  29.733  1.00  0.00     0.060 A 
BRANCH  74  75
ATOM     75  S   UNL A   1      32.979  35.719  29.019  1.00  0.00     0.124 S 
ATOM     76  O   UNL A   1      32.356  34.734  28.143  1.00  0.00    -0.237 OA
ATOM     77  O   UNL A   1      32.209  36.102  30.200  1.00  0.00    -0.237 OA
ATOM     78  O   UNL A   1      33.669  36.818  28.350  1.00  0.00    -0.744 OA
ENDBRANCH  74  75
ENDBRANCH  42  67
BRANCH  54  79
ATOM     79  C   UNL A   1      39.860  34.267  36.918  1.00  0.00     0.058 A 
ATOM     80  C   UNL A   1      40.416  35.548  36.793  1.00  0.00     0.135 A 
ATOM     81  C   UNL A   1      39.141  33.970  38.085  1.00  0.00     0.135 A 
ATOM     82  F   UNL A   1      41.118  35.876  35.696  1.00  0.00    -0.206 F 
ATOM     83  C   UNL A   1      40.276  36.500  37.797  1.00  0.00     0.059 A 
ATOM     84  C   UNL A   1      38.977  34.910  39.097  1.00  0.00     0.059 A 
ATOM     85  F   UNL A   1      38.587  32.757  38.248  1.00  0.00    -0.206 F 
ATOM     86  C   UNL A   1      39.557  36.170  38.947  1.00  0.00     0.060 A 
BRANCH  86  87
ATOM     87  S   UNL A   1      39.355  37.418  40.237  1.00  0.00     0.124 S 
ATOM     88  O   UNL A   1      38.641  36.665  41.262  1.00  0.00    -0.237 OA
ATOM     89  O   UNL A   1      40.735  37.772  40.556  1.00  0.00    -0.237 OA
ATOM     90  O   UNL A   1      38.585  38.465  39.573  1.00  0.00    -0.744 OA
ENDBRANCH  86  87
ENDBRANCH  54  79
ENDBRANCH  28  29
ENDBRANCH  21  23
ENDBRANCH  20  21
ENDBRANCH   1  20
TORSDOF 16
ENDMDL
MODEL 3
REMARK VINA RESULT:     -10.8      7.080     12.556
REMARK SMILES [NH3+][C@H](C(=O)OCCOC(=O)c1ccc(-c2c3nc(c(-c4c(F)cc(S(=O)(=O)[O-])cc4F)c4ccc([nH]4)c(-c4c(F)cc(S(=O)(=O)[O-])cc4F)c4nc(c(-c5c(F)cc(S(=O)(=O)[O-])cc5F)c5ccc2[nH]5)C=C4)C=C3)cc1)c1cc(F)c(Cl)c(Cl)c1
REMARK SMILES IDX 7 1 6 2 5 3 3 4 4 5 2 6 1 7 77 11 78 12 85 13 79 14 83 15
REMARK SMILES IDX 80 16 81 17 84 18 82 19 8 20 9 21 10 22 11 23 12 24 76 25
REMARK SMILES IDX 13 26 75 27 14 28 15 29 16 30 69 31 17 32 74 33 68 34 70 35
REMARK SMILES IDX 18 36 73 37 67 38 66 39 19 41 53 42 32 43 52 44 33 45 36 46
REMARK SMILES IDX 51 47 71 48 34 49 35 50 50 52 72 53 37 54 20 55 21 56 30 57
REMARK SMILES IDX 22 58 23 59 29 60 31 61 24 62 25 63 26 64 27 65 28 66 54 67
REMARK SMILES IDX 55 68 64 69 56 70 57 71 63 72 65 73 58 74 59 75 60 76 61 77
REMARK SMILES IDX 62 78 38 79 39 80 48 81 40 82 41 83 47 84 49 85 42 86 43 87
REMARK SMILES IDX 44 88 45 89 46 90
REMARK H PARENT 1 8 1 9 1 10 70 40 36 51
REMARK Flexibility Score: inf
ROOT
ATOM      1  C   UNL A   1      36.303  32.406  32.569  1.00  0.00     0.275 C 
ENDROOT
BRANCH   1   2
ATOM      2  C   UNL A   1      34.993  33.120  32.249  1.00  0.00     0.274 C 
BRANCH   2   3
ATOM      3  O   UNL A   1      34.458  32.700  30.977  1.00  0.00    -0.457 OA
BRANCH   3   4
ATOM      4  C   UNL A   1      34.245  33.684  30.059  1.00  0.00     0.369 C 
ATOM      5  O   UNL A   1      33.473  34.627  30.212  1.00  0.00    -0.245 OA
BRANCH   4   6
ATOM      6  C   UNL A   1      35.012  33.424  28.744  1.00  0.00     0.323 C 
BRANCH   6   7
ATOM      7  N   UNL A   1      36.450  33.748  28.903  1.00  0.00    -0.342 N 
ATOM      8  H   UNL A   1      36.881  33.077  29.538  1.00  0.00     0.345 HD
ATOM      9  H   UNL A   1      36.546  34.688  29.285  1.00  0.00     0.345 HD
ATOM     10  H   UNL A   1      36.911  33.701  27.994  1.00  0.00     0.345 HD
ENDBRANCH   6   7
BRANCH   6  11
ATOM     11  C   UNL A   1      34.815  32.033  28.164  1.00  0.00     0.025 A 
ATOM     12  C   UNL A   1      35.831  31.068  28.142  1.00  0.00     0.051 A 
ATOM     13  C   UNL A   1      33.566  31.682  27.624  1.00  0.00     0.032 A 
ATOM     14  C   UNL A   1      35.601  29.803  27.600  1.00  0.00     0.143 A 
ATOM     15  C   UNL A   1      33.342  30.411  27.073  1.00  0.00     0.063 A 
ATOM     16  F   UNL A   1      36.615  28.922  27.598  1.00  0.00    -0.205 F 
ATOM     17  C   UNL A   1      34.364  29.460  27.060  1.00  0.00     0.095 A 
ATOM     18  Cl  UNL A   1      31.772  30.097  26.419  1.00  0.00    -0.083 Cl
ATOM     19  Cl  UNL A   1      34.149  27.885  26.385  1.00  0.00    -0.079 Cl
ENDBRANCH   6  11
ENDBRANCH   4   6
ENDBRANCH   3   4
ENDBRANCH   2   3
ENDBRANCH   1   2
BRANCH   1  20
ATOM     20  O   UNL A   1      36.755  31.656  31.429  1.00  0.00    -0.458 OA
BRANCH  20  21
ATOM     21  C   UNL A   1      37.223  30.417  31.695  1.00  0.00     0.338 C 
ATOM     22  O   UNL A   1      36.644  29.510  32.266  1.00  0.00    -0.246 OA
BRANCH  21  23
ATOM     23  C   UNL A   1      38.567  30.278  31.120  1.00  0.00     0.060 A 
ATOM     24  C   UNL A   1      38.744  30.530  29.759  1.00  0.00     0.016 A 
ATOM     25  C   UNL A   1      39.618  29.790  31.896  1.00  0.00     0.016 A 
ATOM     26  C   UNL A   1      39.958  30.230  29.150  1.00  0.00     0.010 A 
ATOM     27  C   UNL A   1      40.857  29.552  31.294  1.00  0.00     0.010 A 
ATOM     28  C   UNL A   1      41.029  29.741  29.910  1.00  0.00    -0.014 A 
BRANCH  28  29
ATOM     29  C   UNL A   1      42.312  29.390  29.249  1.00  0.00     0.031 A 
ATOM     30  C   UNL A   1      42.509  28.017  28.668  1.00  0.00     0.074 A 
ATOM     31  C   UNL A   1      43.295  30.306  29.153  1.00  0.00     0.049 A 
ATOM     32  N   UNL A   1      43.593  27.474  28.180  1.00  0.00    -0.248 NA
ATOM     33  C   UNL A   1      41.330  27.135  28.640  1.00  0.00     0.031 C 
ATOM     34  C   UNL A   1      43.219  31.685  29.641  1.00  0.00     0.029 A 
ATOM     35  N   UNL A   1      44.550  30.216  28.606  1.00  0.00    -0.354 N 
ATOM     36  C   UNL A   1      43.245  26.176  27.829  1.00  0.00     0.074 A 
ATOM     37  C   UNL A   1      41.844  26.012  28.156  1.00  0.00     0.031 C 
ATOM     38  C   UNL A   1      44.368  32.317  29.354  1.00  0.00     0.029 A 
ATOM     39  C   UNL A   1      45.283  31.373  28.717  1.00  0.00     0.049 A 
ATOM     40  H   UNL A   1      44.894  29.400  28.177  1.00  0.00     0.167 HD
ATOM     41  C   UNL A   1      44.022  25.209  27.286  1.00  0.00     0.037 A 
ATOM     42  C   UNL A   1      46.557  31.639  28.373  1.00  0.00     0.037 A 
ATOM     43  C   UNL A   1      45.404  25.387  26.921  1.00  0.00     0.049 A 
ATOM     44  C   UNL A   1      47.400  30.552  27.769  1.00  0.00     0.074 A 
ATOM     45  C   UNL A   1      46.277  24.464  26.373  1.00  0.00     0.029 A 
ATOM     46  N   UNL A   1      46.106  26.575  27.048  1.00  0.00    -0.354 N 
ATOM     47  N   UNL A   1      47.072  29.311  27.503  1.00  0.00    -0.248 NA
ATOM     48  C   UNL A   1      48.789  30.896  27.434  1.00  0.00     0.031 C 
ATOM     49  C   UNL A   1      47.515  25.092  26.183  1.00  0.00     0.029 A 
ATOM     50  C   UNL A   1      47.403  26.411  26.590  1.00  0.00     0.049 A 
ATOM     51  H   UNL A   1      45.738  27.413  27.412  1.00  0.00     0.167 HD
ATOM     52  C   UNL A   1      48.214  28.724  26.972  1.00  0.00     0.074 A 
ATOM     53  C   UNL A   1      49.235  29.752  26.934  1.00  0.00     0.031 C 
ATOM     54  C   UNL A   1      48.404  27.446  26.563  1.00  0.00     0.037 A 
BRANCH  41  55
ATOM     55  C   UNL A   1      43.400  23.858  27.084  1.00  0.00     0.058 A 
ATOM     56  C   UNL A   1      43.242  22.951  28.143  1.00  0.00     0.135 A 
ATOM     57  C   UNL A   1      42.939  23.475  25.814  1.00  0.00     0.135 A 
ATOM     58  F   UNL A   1      43.683  23.265  29.370  1.00  0.00    -0.206 F 
ATOM     59  C   UNL A   1      42.669  21.698  27.945  1.00  0.00     0.059 A 
ATOM     60  C   UNL A   1      42.347  22.234  25.597  1.00  0.00     0.059 A 
ATOM     61  F   UNL A   1      43.070  24.305  24.769  1.00  0.00    -0.206 F 
ATOM     62  C   UNL A   1      42.230  21.346  26.667  1.00  0.00     0.060 A 
BRANCH  62  63
ATOM     63  S   UNL A   1      41.489  19.720  26.414  1.00  0.00     0.124 S 
ATOM     64  O   UNL A   1      41.783  19.066  27.685  1.00  0.00    -0.237 OA
ATOM     65  O   UNL A   1      40.085  20.043  26.178  1.00  0.00    -0.237 OA
ATOM     66  O   UNL A   1      42.209  19.197  25.258  1.00  0.00    -0.744 OA
ENDBRANCH  62  63
ENDBRANCH  41  55
BRANCH  42  67
ATOM     67  C   UNL A   1      47.120  32.989  28.625  1.00  0.00     0.058 A 
ATOM     68  C   UNL A   1      47.748  33.294  29.840  1.00  0.00     0.135 A 
ATOM     69  C   UNL A   1      47.070  33.989  27.642  1.00  0.00     0.135 A 
ATOM     70  F   UNL A   1      47.812  32.371  30.812  1.00  0.00    -0.206 F 
ATOM     71  C   UNL A   1      48.309  34.546  30.074  1.00  0.00     0.059 A 
ATOM     72  C   UNL A   1      47.640  35.241  27.845  1.00  0.00     0.059 A 
ATOM     73  F   UNL A   1      46.489  33.739  26.457  1.00  0.00    -0.206 F 
ATOM     74  C   UNL A   1      48.253  35.512  29.068  1.00  0.00     0.060 A 
BRANCH  74  75
ATOM     75  S   UNL A   1      49.049  37.109  29.339  1.00  0.00     0.124 S 
ATOM     76  O   UNL A   1      50.055  36.769  30.338  1.00  0.00    -0.237 OA
ATOM     77  O   UNL A   1      49.555  37.438  28.009  1.00  0.00    -0.237 OA
ATOM     78  O   UNL A   1      47.950  37.951  29.805  1.00  0.00    -0.744 OA
ENDBRANCH  74  75
ENDBRANCH  42  67
BRANCH  54  79
ATOM     79  C   UNL A   1      49.761  27.094  26.033  1.00  0.00     0.058 A 
ATOM     80  C   UNL A   1      50.060  27.207  24.667  1.00  0.00     0.135 A 
ATOM     81  C   UNL A   1      50.781  26.675  26.900  1.00  0.00     0.135 A 
ATOM     82  F   UNL A   1      49.114  27.597  23.798  1.00  0.00    -0.206 F 
ATOM     83  C   UNL A   1      51.324  26.902  24.174  1.00  0.00     0.059 A 
ATOM     84  C   UNL A   1      52.057  26.377  26.431  1.00  0.00     0.059 A 
ATOM     85  F   UNL A   1      50.543  26.556  28.216  1.00  0.00    -0.206 F 
ATOM     86  C   UNL A   1      52.315  26.484  25.065  1.00  0.00     0.060 A 
BRANCH  86  87
ATOM     87  S   UNL A   1      53.963  26.115  24.425  1.00  0.00     0.124 S 
ATOM     88  O   UNL A   1      54.145  24.736  24.864  1.00  0.00    -0.237 OA
ATOM     89  O   UNL A   1      53.797  26.306  22.987  1.00  0.00    -0.237 OA
ATOM     90  O   UNL A   1      54.810  27.104  25.086  1.00  0.00    -0.744 OA
ENDBRANCH  86  87
ENDBRANCH  54  79
ENDBRANCH  28  29
ENDBRANCH  21  23
ENDBRANCH  20  21
ENDBRANCH   1  20
TORSDOF 16
ENDMDL
