MODEL 1
REMARK VINA RESULT:     -10.9      0.000      0.000
REMARK SMILES O=C(OCCOC(=O)c1ccc(OCc2sccc2Br)cn1)c1ccc(-c2c3nc(c(-c4c(F)cc(S(=O)(=O)[O-])cc4F)c4ccc([nH]4)c(-c4c(F)cc(S(=O)(=O)[O-])cc4F)c4nc(c(-c5c(F)cc(S(=O)(=O)[O-])cc5F)c5ccc2[nH]5)C=C4)C=C3)cc1
REMARK SMILES IDX 4 1 3 2 2 3 1 4 23 5 24 6 88 7 25 8 87 9 26 10 27 11 28 12
REMARK SMILES IDX 81 13 29 14 86 15 80 16 82 17 30 18 85 19 79 20 78 21 31 23
REMARK SMILES IDX 65 24 44 25 64 26 45 27 48 28 63 29 83 30 46 31 47 32 62 34
REMARK SMILES IDX 84 35 49 36 32 37 33 38 42 39 34 40 35 41 41 42 43 43 36 44
REMARK SMILES IDX 37 45 38 46 39 47 40 48 66 49 67 50 76 51 68 52 69 53 75 54
REMARK SMILES IDX 77 55 70 56 71 57 72 58 73 59 74 60 50 61 51 62 60 63 52 64
REMARK SMILES IDX 53 65 59 66 61 67 54 68 55 69 56 70 57 71 58 72 5 73 6 74
REMARK SMILES IDX 7 75 8 76 9 77 10 78 22 79 11 80 21 81 12 82 13 83 14 84
REMARK SMILES IDX 15 85 16 86 19 87 17 88 18 89 20 90
REMARK H PARENT 82 22 48 33
REMARK Flexibility Score: inf
ROOT
ATOM      1  C   UNL A   1      40.161  22.040  26.223  1.00  0.00     0.275 C 
ENDROOT
BRANCH   1   2
ATOM      2  O   UNL A   1      39.973  23.353  26.772  1.00  0.00    -0.458 OA
BRANCH   2   3
ATOM      3  C   UNL A   1      40.917  24.322  26.879  1.00  0.00     0.338 C 
ATOM      4  O   UNL A   1      41.977  24.213  26.267  1.00  0.00    -0.246 OA
BRANCH   3   5
ATOM      5  C   UNL A   1      40.786  25.421  27.880  1.00  0.00     0.060 A 
ATOM      6  C   UNL A   1      39.636  25.716  28.620  1.00  0.00     0.016 A 
ATOM      7  C   UNL A   1      41.907  26.245  28.039  1.00  0.00     0.016 A 
ATOM      8  C   UNL A   1      39.635  26.745  29.569  1.00  0.00     0.010 A 
ATOM      9  C   UNL A   1      41.902  27.282  28.973  1.00  0.00     0.010 A 
ATOM     10  C   UNL A   1      40.771  27.531  29.761  1.00  0.00    -0.014 A 
BRANCH  10  11
ATOM     11  C   UNL A   1      40.760  28.673  30.707  1.00  0.00     0.031 A 
ATOM     12  C   UNL A   1      41.569  28.570  31.967  1.00  0.00     0.074 A 
ATOM     13  C   UNL A   1      39.987  29.750  30.466  1.00  0.00     0.049 A 
ATOM     14  N   UNL A   1      41.628  29.390  32.981  1.00  0.00    -0.248 NA
ATOM     15  C   UNL A   1      42.439  27.388  32.097  1.00  0.00     0.031 C 
ATOM     16  C   UNL A   1      39.201  29.964  29.251  1.00  0.00     0.029 A 
ATOM     17  N   UNL A   1      39.683  30.840  31.246  1.00  0.00    -0.354 N 
ATOM     18  C   UNL A   1      42.532  28.823  33.871  1.00  0.00     0.074 A 
ATOM     19  C   UNL A   1      42.989  27.584  33.287  1.00  0.00     0.031 C 
ATOM     20  C   UNL A   1      38.425  31.049  29.409  1.00  0.00     0.029 A 
ATOM     21  C   UNL A   1      38.654  31.605  30.738  1.00  0.00     0.049 A 
ATOM     22  H   UNL A   1      40.153  31.053  32.085  1.00  0.00     0.167 HD
ATOM     23  C   UNL A   1      42.932  29.300  35.072  1.00  0.00     0.037 A 
ATOM     24  C   UNL A   1      37.945  32.602  31.306  1.00  0.00     0.037 A 
ATOM     25  C   UNL A   1      42.420  30.511  35.655  1.00  0.00     0.049 A 
ATOM     26  C   UNL A   1      38.352  33.064  32.686  1.00  0.00     0.074 A 
ATOM     27  C   UNL A   1      42.764  31.102  36.857  1.00  0.00     0.029 A 
ATOM     28  N   UNL A   1      41.431  31.303  35.086  1.00  0.00    -0.354 N 
ATOM     29  N   UNL A   1      39.314  32.607  33.455  1.00  0.00    -0.248 NA
ATOM     30  C   UNL A   1      37.599  34.181  33.276  1.00  0.00     0.031 C 
ATOM     31  C   UNL A   1      41.937  32.213  37.046  1.00  0.00     0.029 A 
ATOM     32  C   UNL A   1      41.109  32.341  35.941  1.00  0.00     0.049 A 
ATOM     33  H   UNL A   1      41.020  31.146  34.205  1.00  0.00     0.167 HD
ATOM     34  C   UNL A   1      39.304  33.401  34.597  1.00  0.00     0.074 A 
ATOM     35  C   UNL A   1      38.251  34.377  34.415  1.00  0.00     0.031 C 
ATOM     36  C   UNL A   1      40.087  33.328  35.701  1.00  0.00     0.037 A 
BRANCH  23  37
ATOM     37  C   UNL A   1      43.940  28.498  35.843  1.00  0.00     0.058 A 
ATOM     38  C   UNL A   1      45.317  28.747  35.730  1.00  0.00     0.135 A 
ATOM     39  C   UNL A   1      43.526  27.501  36.739  1.00  0.00     0.135 A 
ATOM     40  F   UNL A   1      45.770  29.674  34.870  1.00  0.00    -0.206 F 
ATOM     41  C   UNL A   1      46.248  28.031  36.475  1.00  0.00     0.059 A 
ATOM     42  C   UNL A   1      44.438  26.786  37.510  1.00  0.00     0.059 A 
ATOM     43  F   UNL A   1      42.221  27.215  36.874  1.00  0.00    -0.206 F 
ATOM     44  C   UNL A   1      45.799  27.056  37.367  1.00  0.00     0.060 A 
BRANCH  44  45
ATOM     45  S   UNL A   1      47.019  26.168  38.359  1.00  0.00     0.124 S 
ATOM     46  O   UNL A   1      47.642  25.310  37.357  1.00  0.00    -0.237 OA
ATOM     47  O   UNL A   1      47.851  27.252  38.871  1.00  0.00    -0.237 OA
ATOM     48  O   UNL A   1      46.208  25.480  39.359  1.00  0.00    -0.744 OA
ENDBRANCH  44  45
ENDBRANCH  23  37
BRANCH  24  49
ATOM     49  C   UNL A   1      36.736  33.168  30.632  1.00  0.00     0.058 A 
ATOM     50  C   UNL A   1      36.827  34.073  29.565  1.00  0.00     0.135 A 
ATOM     51  C   UNL A   1      35.447  32.868  31.104  1.00  0.00     0.135 A 
ATOM     52  F   UNL A   1      38.027  34.379  29.048  1.00  0.00    -0.206 F 
ATOM     53  C   UNL A   1      35.701  34.711  29.045  1.00  0.00     0.059 A 
ATOM     54  C   UNL A   1      34.306  33.485  30.602  1.00  0.00     0.059 A 
ATOM     55  F   UNL A   1      35.278  31.946  32.064  1.00  0.00    -0.206 F 
ATOM     56  C   UNL A   1      34.446  34.424  29.585  1.00  0.00     0.060 A 
BRANCH  56  57
ATOM     57  S   UNL A   1      32.998  35.288  28.938  1.00  0.00     0.124 S 
ATOM     58  O   UNL A   1      32.499  34.333  27.957  1.00  0.00    -0.237 OA
ATOM     59  O   UNL A   1      32.188  35.453  30.141  1.00  0.00    -0.237 OA
ATOM     60  O   UNL A   1      33.558  36.519  28.391  1.00  0.00    -0.744 OA
ENDBRANCH  56  57
ENDBRANCH  24  49
BRANCH  36  61
ATOM     61  C   UNL A   1      39.872  34.361  36.769  1.00  0.00     0.058 A 
ATOM     62  C   UNL A   1      39.015  34.125  37.855  1.00  0.00     0.135 A 
ATOM     63  C   UNL A   1      40.591  35.567  36.744  1.00  0.00     0.135 A 
ATOM     64  F   UNL A   1      38.304  32.987  37.917  1.00  0.00    -0.206 F 
ATOM     65  C   UNL A   1      38.866  35.057  38.873  1.00  0.00     0.059 A 
ATOM     66  C   UNL A   1      40.476  36.503  37.765  1.00  0.00     0.059 A 
ATOM     67  F   UNL A   1      41.434  35.831  35.733  1.00  0.00    -0.206 F 
ATOM     68  C   UNL A   1      39.604  36.243  38.821  1.00  0.00     0.060 A 
BRANCH  68  69
ATOM     69  S   UNL A   1      39.436  37.426  40.175  1.00  0.00     0.124 S 
ATOM     70  O   UNL A   1      40.819  37.851  40.365  1.00  0.00    -0.237 OA
ATOM     71  O   UNL A   1      38.537  38.425  39.608  1.00  0.00    -0.237 OA
ATOM     72  O   UNL A   1      38.871  36.624  41.257  1.00  0.00    -0.744 OA
ENDBRANCH  68  69
ENDBRANCH  36  61
ENDBRANCH  10  11
ENDBRANCH   3   5
ENDBRANCH   2   3
ENDBRANCH   1   2
BRANCH   1  73
ATOM     73  C   UNL A   1      38.866  21.316  25.842  1.00  0.00     0.275 C 
BRANCH  73  74
ATOM     74  O   UNL A   1      37.779  22.204  25.545  1.00  0.00    -0.457 OA
BRANCH  74  75
ATOM     75  C   UNL A   1      36.575  21.586  25.335  1.00  0.00     0.357 C 
ATOM     76  O   UNL A   1      36.406  20.408  25.109  1.00  0.00    -0.244 OA
BRANCH  75  77
ATOM     77  C   UNL A   1      35.484  22.590  25.509  1.00  0.00     0.148 A 
ATOM     78  C   UNL A   1      35.662  23.915  25.135  1.00  0.00     0.040 A 
ATOM     79  N   UNL A   1      34.341  22.124  26.068  1.00  0.00    -0.245 NA
ATOM     80  C   UNL A   1      34.628  24.830  25.385  1.00  0.00     0.050 A 
ATOM     81  C   UNL A   1      33.373  23.044  26.308  1.00  0.00     0.158 A 
ATOM     82  C   UNL A   1      33.460  24.402  26.004  1.00  0.00     0.138 A 
BRANCH  82  83
ATOM     83  O   UNL A   1      32.388  25.152  26.384  1.00  0.00    -0.486 OA
BRANCH  83  84
ATOM     84  C   UNL A   1      31.561  25.804  25.410  1.00  0.00     0.277 C 
BRANCH  84  85
ATOM     85  C   UNL A   1      31.600  27.303  25.562  1.00  0.00     0.056 A 
ATOM     86  S   UNL A   1      32.146  28.073  26.998  1.00  0.00    -0.144 S 
ATOM     87  C   UNL A   1      31.177  28.261  24.659  1.00  0.00     0.035 A 
ATOM     88  C   UNL A   1      31.949  29.636  26.341  1.00  0.00     0.066 A 
ATOM     89  C   UNL A   1      31.412  29.595  25.077  1.00  0.00     0.028 A 
ATOM     90  Br  UNL A   1      30.329  27.933  23.001  1.00  0.00    -0.049 Br
ENDBRANCH  84  85
ENDBRANCH  83  84
ENDBRANCH  82  83
ENDBRANCH  75  77
ENDBRANCH  74  75
ENDBRANCH  73  74
ENDBRANCH   1  73
TORSDOF 17
ENDMDL
MODEL 2
REMARK VINA RESULT:     -10.8      6.809     12.387
REMARK SMILES O=C(OCCOC(=O)c1ccc(OCc2sccc2Br)cn1)c1ccc(-c2c3nc(c(-c4c(F)cc(S(=O)(=O)[O-])cc4F)c4ccc([nH]4)c(-c4c(F)cc(S(=O)(=O)[O-])cc4F)c4nc(c(-c5c(F)cc(S(=O)(=O)[O-])cc5F)c5ccc2[nH]5)C=C4)C=C3)cc1
REMARK SMILES IDX 4 1 3 2 2 3 1 4 23 5 24 6 88 7 25 8 87 9 26 10 27 11 28 12
REMARK SMILES IDX 81 13 29 14 86 15 80 16 82 17 30 18 85 19 79 20 78 21 31 23
REMARK SMILES IDX 65 24 44 25 64 26 45 27 48 28 63 29 83 30 46 31 47 32 62 34
REMARK SMILES IDX 84 35 49 36 32 37 33 38 42 39 34 40 35 41 41 42 43 43 36 44
REMARK SMILES IDX 37 45 38 46 39 47 40 48 66 49 67 50 76 51 68 52 69 53 75 54
REMARK SMILES IDX 77 55 70 56 71 57 72 58 73 59 74 60 50 61 51 62 60 63 52 64
REMARK SMILES IDX 53 65 59 66 61 67 54 68 55 69 56 70 57 71 58 72 5 73 6 74
REMARK SMILES IDX 7 75 8 76 9 77 10 78 22 79 11 80 21 81 12 82 13 83 14 84
REMARK SMILES IDX 15 85 16 86 19 87 17 88 18 89 20 90
REMARK H PARENT 82 22 48 33
REMARK Flexibility Score: inf
ROOT
ATOM      1  C   UNL A   1      34.623  30.187  27.762  1.00  0.00     0.275 C 
ENDROOT
BRANCH   1   2
ATOM      2  O   UNL A   1      35.608  31.170  28.114  1.00  0.00    -0.458 OA
BRANCH   2   3
ATOM      3  C   UNL A   1      36.380  31.171  29.230  1.00  0.00     0.338 C 
ATOM      4  O   UNL A   1      35.987  31.739  30.245  1.00  0.00    -0.246 OA
BRANCH   3   5
ATOM      5  C   UNL A   1      37.786  30.671  29.197  1.00  0.00     0.060 A 
ATOM      6  C   UNL A   1      38.725  30.811  30.223  1.00  0.00     0.016 A 
ATOM      7  C   UNL A   1      38.191  30.056  28.006  1.00  0.00     0.016 A 
ATOM      8  C   UNL A   1      40.008  30.263  30.106  1.00  0.00     0.010 A 
ATOM      9  C   UNL A   1      39.475  29.523  27.880  1.00  0.00     0.010 A 
ATOM     10  C   UNL A   1      40.391  29.606  28.936  1.00  0.00    -0.014 A 
BRANCH  10  11
ATOM     11  C   UNL A   1      41.770  29.088  28.767  1.00  0.00     0.031 A 
ATOM     12  C   UNL A   1      42.896  30.072  28.634  1.00  0.00     0.074 A 
ATOM     13  C   UNL A   1      41.993  27.762  28.672  1.00  0.00     0.049 A 
ATOM     14  N   UNL A   1      44.157  29.855  28.373  1.00  0.00    -0.248 NA
ATOM     15  C   UNL A   1      42.558  31.492  28.831  1.00  0.00     0.031 C 
ATOM     16  C   UNL A   1      40.975  26.726  28.834  1.00  0.00     0.029 A 
ATOM     17  N   UNL A   1      43.129  27.055  28.357  1.00  0.00    -0.354 N 
ATOM     18  C   UNL A   1      44.760  31.106  28.368  1.00  0.00     0.074 A 
ATOM     19  C   UNL A   1      43.729  32.081  28.638  1.00  0.00     0.031 C 
ATOM     20  C   UNL A   1      41.500  25.532  28.514  1.00  0.00     0.029 A 
ATOM     21  C   UNL A   1      42.891  25.718  28.118  1.00  0.00     0.049 A 
ATOM     22  H   UNL A   1      44.025  27.462  28.309  1.00  0.00     0.167 HD
ATOM     23  C   UNL A   1      46.061  31.405  28.148  1.00  0.00     0.037 A 
ATOM     24  C   UNL A   1      43.691  24.771  27.586  1.00  0.00     0.037 A 
ATOM     25  C   UNL A   1      47.058  30.419  27.828  1.00  0.00     0.049 A 
ATOM     26  C   UNL A   1      45.119  25.147  27.265  1.00  0.00     0.074 A 
ATOM     27  C   UNL A   1      48.410  30.603  27.602  1.00  0.00     0.029 A 
ATOM     28  N   UNL A   1      46.802  29.065  27.661  1.00  0.00    -0.354 N 
ATOM     29  N   UNL A   1      45.715  26.309  27.409  1.00  0.00    -0.248 NA
ATOM     30  C   UNL A   1      45.993  24.094  26.729  1.00  0.00     0.031 C 
ATOM     31  C   UNL A   1      48.959  29.370  27.234  1.00  0.00     0.029 A 
ATOM     32  C   UNL A   1      47.958  28.411  27.275  1.00  0.00     0.049 A 
ATOM     33  H   UNL A   1      45.927  28.635  27.796  1.00  0.00     0.167 HD
ATOM     34  C   UNL A   1      47.035  26.116  27.016  1.00  0.00     0.074 A 
ATOM     35  C   UNL A   1      47.157  24.723  26.642  1.00  0.00     0.031 C 
ATOM     36  C   UNL A   1      48.053  27.008  26.960  1.00  0.00     0.037 A 
BRANCH  23  37
ATOM     37  C   UNL A   1      46.468  32.849  28.212  1.00  0.00     0.058 A 
ATOM     38  C   UNL A   1      46.975  33.417  29.392  1.00  0.00     0.135 A 
ATOM     39  C   UNL A   1      46.395  33.664  27.072  1.00  0.00     0.135 A 
ATOM     40  F   UNL A   1      47.045  32.689  30.518  1.00  0.00    -0.206 F 
ATOM     41  C   UNL A   1      47.389  34.744  29.440  1.00  0.00     0.059 A 
ATOM     42  C   UNL A   1      46.824  34.988  27.091  1.00  0.00     0.059 A 
ATOM     43  F   UNL A   1      45.905  33.172  25.922  1.00  0.00    -0.206 F 
ATOM     44  C   UNL A   1      47.316  35.520  28.282  1.00  0.00     0.060 A 
BRANCH  44  45
ATOM     45  S   UNL A   1      47.901  37.227  28.351  1.00  0.00     0.124 S 
ATOM     46  O   UNL A   1      48.660  37.226  29.598  1.00  0.00    -0.237 OA
ATOM     47  O   UNL A   1      48.691  37.334  27.128  1.00  0.00    -0.237 OA
ATOM     48  O   UNL A   1      46.668  38.008  28.366  1.00  0.00    -0.744 OA
ENDBRANCH  44  45
ENDBRANCH  23  37
BRANCH  24  49
ATOM     49  C   UNL A   1      43.156  23.418  27.238  1.00  0.00     0.058 A 
ATOM     50  C   UNL A   1      43.009  22.402  28.193  1.00  0.00     0.135 A 
ATOM     51  C   UNL A   1      42.852  23.090  25.906  1.00  0.00     0.135 A 
ATOM     52  F   UNL A   1      43.255  22.658  29.487  1.00  0.00    -0.206 F 
ATOM     53  C   UNL A   1      42.656  21.101  27.832  1.00  0.00     0.059 A 
ATOM     54  C   UNL A   1      42.493  21.803  25.518  1.00  0.00     0.059 A 
ATOM     55  F   UNL A   1      42.886  24.034  24.954  1.00  0.00    -0.206 F 
ATOM     56  C   UNL A   1      42.419  20.808  26.488  1.00  0.00     0.060 A 
BRANCH  56  57
ATOM     57  S   UNL A   1      42.007  19.113  26.022  1.00  0.00     0.124 S 
ATOM     58  O   UNL A   1      42.831  18.924  24.835  1.00  0.00    -0.237 OA
ATOM     59  O   UNL A   1      42.415  18.370  27.211  1.00  0.00    -0.237 OA
ATOM     60  O   UNL A   1      40.567  19.170  25.788  1.00  0.00    -0.744 OA
ENDBRANCH  56  57
ENDBRANCH  24  49
BRANCH  36  61
ATOM     61  C   UNL A   1      49.398  26.495  26.532  1.00  0.00     0.058 A 
ATOM     62  C   UNL A   1      49.849  26.636  25.211  1.00  0.00     0.135 A 
ATOM     63  C   UNL A   1      50.271  25.926  27.473  1.00  0.00     0.135 A 
ATOM     64  F   UNL A   1      49.045  27.169  24.278  1.00  0.00    -0.206 F 
ATOM     65  C   UNL A   1      51.118  26.215  24.833  1.00  0.00     0.059 A 
ATOM     66  C   UNL A   1      51.554  25.522  27.121  1.00  0.00     0.059 A 
ATOM     67  F   UNL A   1      49.889  25.784  28.752  1.00  0.00    -0.206 F 
ATOM     68  C   UNL A   1      51.965  25.663  25.796  1.00  0.00     0.060 A 
BRANCH  68  69
ATOM     69  S   UNL A   1      53.628  25.163  25.302  1.00  0.00     0.124 S 
ATOM     70  O   UNL A   1      54.446  25.836  26.305  1.00  0.00    -0.237 OA
ATOM     71  O   UNL A   1      53.562  23.710  25.407  1.00  0.00    -0.237 OA
ATOM     72  O   UNL A   1      53.747  25.683  23.942  1.00  0.00    -0.744 OA
ENDBRANCH  68  69
ENDBRANCH  36  61
ENDBRANCH  10  11
ENDBRANCH   3   5
ENDBRANCH   2   3
ENDBRANCH   1   2
BRANCH   1  73
ATOM     73  C   UNL A   1      33.281  30.765  27.303  1.00  0.00     0.275 C 
BRANCH  73  74
ATOM     74  O   UNL A   1      32.221  29.800  27.278  1.00  0.00    -0.457 OA
BRANCH  74  75
ATOM     75  C   UNL A   1      31.836  29.403  26.025  1.00  0.00     0.357 C 
ATOM     76  O   UNL A   1      31.365  30.113  25.164  1.00  0.00    -0.244 OA
BRANCH  75  77
ATOM     77  C   UNL A   1      32.165  27.956  25.857  1.00  0.00     0.148 A 
ATOM     78  C   UNL A   1      31.450  26.975  26.530  1.00  0.00     0.040 A 
ATOM     79  N   UNL A   1      33.206  27.682  25.035  1.00  0.00    -0.245 NA
ATOM     80  C   UNL A   1      31.847  25.636  26.390  1.00  0.00     0.050 A 
ATOM     81  C   UNL A   1      33.568  26.378  24.940  1.00  0.00     0.158 A 
ATOM     82  C   UNL A   1      32.942  25.319  25.596  1.00  0.00     0.138 A 
BRANCH  82  83
ATOM     83  O   UNL A   1      33.509  24.096  25.397  1.00  0.00    -0.486 OA
BRANCH  83  84
ATOM     84  C   UNL A   1      34.231  23.439  26.448  1.00  0.00     0.277 C 
BRANCH  84  85
ATOM     85  C   UNL A   1      35.478  22.768  25.930  1.00  0.00     0.056 A 
ATOM     86  S   UNL A   1      37.003  23.559  25.886  1.00  0.00    -0.144 S 
ATOM     87  C   UNL A   1      35.599  21.504  25.381  1.00  0.00     0.035 A 
ATOM     88  C   UNL A   1      37.803  22.176  25.287  1.00  0.00     0.066 A 
ATOM     89  C   UNL A   1      36.929  21.142  25.051  1.00  0.00     0.028 A 
ATOM     90  Br  UNL A   1      34.184  20.298  25.037  1.00  0.00    -0.049 Br
ENDBRANCH  84  85
ENDBRANCH  83  84
ENDBRANCH  82  83
ENDBRANCH  75  77
ENDBRANCH  74  75
ENDBRANCH  73  74
ENDBRANCH   1  73
TORSDOF 17
ENDMDL
MODEL 3
REMARK VINA RESULT:     -10.7      7.013      9.166
REMARK SMILES O=C(OCCOC(=O)c1ccc(OCc2sccc2Br)cn1)c1ccc(-c2c3nc(c(-c4c(F)cc(S(=O)(=O)[O-])cc4F)c4ccc([nH]4)c(-c4c(F)cc(S(=O)(=O)[O-])cc4F)c4nc(c(-c5c(F)cc(S(=O)(=O)[O-])cc5F)c5ccc2[nH]5)C=C4)C=C3)cc1
REMARK SMILES IDX 4 1 3 2 2 3 1 4 23 5 24 6 88 7 25 8 87 9 26 10 27 11 28 12
REMARK SMILES IDX 81 13 29 14 86 15 80 16 82 17 30 18 85 19 79 20 78 21 31 23
REMARK SMILES IDX 65 24 44 25 64 26 45 27 48 28 63 29 83 30 46 31 47 32 62 34
REMARK SMILES IDX 84 35 49 36 32 37 33 38 42 39 34 40 35 41 41 42 43 43 36 44
REMARK SMILES IDX 37 45 38 46 39 47 40 48 66 49 67 50 76 51 68 52 69 53 75 54
REMARK SMILES IDX 77 55 70 56 71 57 72 58 73 59 74 60 50 61 51 62 60 63 52 64
REMARK SMILES IDX 53 65 59 66 61 67 54 68 55 69 56 70 57 71 58 72 5 73 6 74
REMARK SMILES IDX 7 75 8 76 9 77 10 78 22 79 11 80 21 81 12 82 13 83 14 84
REMARK SMILES IDX 15 85 16 86 19 87 17 88 18 89 20 90
REMARK H PARENT 82 22 48 33
REMARK Flexibility Score: inf
ROOT
ATOM      1  C   UNL A   1      42.638  18.467  26.277  1.00  0.00     0.275 C 
ENDROOT
BRANCH   1   2
ATOM      2  O   UNL A   1      43.103  18.977  25.019  1.00  0.00    -0.458 OA
BRANCH   2   3
ATOM      3  C   UNL A   1      44.300  19.573  24.786  1.00  0.00     0.338 C 
ATOM      4  O   UNL A   1      45.298  18.885  24.589  1.00  0.00    -0.246 OA
BRANCH   3   5
ATOM      5  C   UNL A   1      44.476  21.045  24.962  1.00  0.00     0.060 A 
ATOM      6  C   UNL A   1      44.356  22.007  23.954  1.00  0.00     0.016 A 
ATOM      7  C   UNL A   1      44.843  21.470  26.245  1.00  0.00     0.016 A 
ATOM      8  C   UNL A   1      44.498  23.370  24.239  1.00  0.00     0.010 A 
ATOM      9  C   UNL A   1      45.001  22.828  26.527  1.00  0.00     0.010 A 
ATOM     10  C   UNL A   1      44.813  23.793  25.530  1.00  0.00    -0.014 A 
BRANCH  10  11
ATOM     11  C   UNL A   1      45.043  25.227  25.830  1.00  0.00     0.031 A 
ATOM     12  C   UNL A   1      46.453  25.740  25.849  1.00  0.00     0.074 A 
ATOM     13  C   UNL A   1      44.008  26.032  26.142  1.00  0.00     0.049 A 
ATOM     14  N   UNL A   1      46.899  26.920  26.188  1.00  0.00    -0.248 NA
ATOM     15  C   UNL A   1      47.503  24.801  25.418  1.00  0.00     0.031 C 
ATOM     16  C   UNL A   1      42.600  25.640  26.107  1.00  0.00     0.029 A 
ATOM     17  N   UNL A   1      43.974  27.325  26.606  1.00  0.00    -0.354 N 
ATOM     18  C   UNL A   1      48.276  26.864  26.017  1.00  0.00     0.074 A 
ATOM     19  C   UNL A   1      48.598  25.533  25.559  1.00  0.00     0.031 C 
ATOM     20  C   UNL A   1      41.851  26.624  26.631  1.00  0.00     0.029 A 
ATOM     21  C   UNL A   1      42.726  27.716  27.044  1.00  0.00     0.049 A 
ATOM     22  H   UNL A   1      44.762  27.915  26.622  1.00  0.00     0.167 HD
ATOM     23  C   UNL A   1      49.185  27.842  26.236  1.00  0.00     0.037 A 
ATOM     24  C   UNL A   1      42.348  28.802  27.748  1.00  0.00     0.037 A 
ATOM     25  C   UNL A   1      48.843  29.143  26.744  1.00  0.00     0.049 A 
ATOM     26  C   UNL A   1      43.397  29.845  28.059  1.00  0.00     0.074 A 
ATOM     27  C   UNL A   1      49.677  30.220  26.988  1.00  0.00     0.029 A 
ATOM     28  N   UNL A   1      47.563  29.533  27.113  1.00  0.00    -0.354 N 
ATOM     29  N   UNL A   1      44.676  29.840  27.756  1.00  0.00    -0.248 NA
ATOM     30  C   UNL A   1      42.964  31.046  28.787  1.00  0.00     0.031 C 
ATOM     31  C   UNL A   1      48.911  31.237  27.567  1.00  0.00     0.029 A 
ATOM     32  C   UNL A   1      47.594  30.811  27.641  1.00  0.00     0.049 A 
ATOM     33  H   UNL A   1      46.754  28.981  27.015  1.00  0.00     0.167 HD
ATOM     34  C   UNL A   1      45.187  31.046  28.223  1.00  0.00     0.074 A 
ATOM     35  C   UNL A   1      44.079  31.764  28.817  1.00  0.00     0.031 C 
ATOM     36  C   UNL A   1      46.457  31.517  28.176  1.00  0.00     0.037 A 
BRANCH  23  37
ATOM     37  C   UNL A   1      50.628  27.531  25.960  1.00  0.00     0.058 A 
ATOM     38  C   UNL A   1      51.196  27.746  24.694  1.00  0.00     0.135 A 
ATOM     39  C   UNL A   1      51.465  27.057  26.982  1.00  0.00     0.135 A 
ATOM     40  F   UNL A   1      50.435  28.176  23.675  1.00  0.00    -0.206 F 
ATOM     41  C   UNL A   1      52.542  27.495  24.450  1.00  0.00     0.059 A 
ATOM     42  C   UNL A   1      52.820  26.821  26.766  1.00  0.00     0.059 A 
ATOM     43  F   UNL A   1      50.968  26.823  28.207  1.00  0.00    -0.206 F 
ATOM     44  C   UNL A   1      53.348  27.039  25.495  1.00  0.00     0.060 A 
BRANCH  44  45
ATOM     45  S   UNL A   1      55.104  26.763  25.171  1.00  0.00     0.124 S 
ATOM     46  O   UNL A   1      55.661  28.085  25.440  1.00  0.00    -0.237 OA
ATOM     47  O   UNL A   1      55.438  25.725  26.140  1.00  0.00    -0.237 OA
ATOM     48  O   UNL A   1      55.129  26.342  23.773  1.00  0.00    -0.744 OA
ENDBRANCH  44  45
ENDBRANCH  23  37
BRANCH  24  49
ATOM     49  C   UNL A   1      40.959  28.928  28.285  1.00  0.00     0.058 A 
ATOM     50  C   UNL A   1      39.868  29.268  27.471  1.00  0.00     0.135 A 
ATOM     51  C   UNL A   1      40.707  28.784  29.660  1.00  0.00     0.135 A 
ATOM     52  F   UNL A   1      40.035  29.391  26.145  1.00  0.00    -0.206 F 
ATOM     53  C   UNL A   1      38.607  29.531  28.005  1.00  0.00     0.059 A 
ATOM     54  C   UNL A   1      39.459  29.037  30.220  1.00  0.00     0.059 A 
ATOM     55  F   UNL A   1      41.682  28.377  30.485  1.00  0.00    -0.206 F 
ATOM     56  C   UNL A   1      38.418  29.432  29.384  1.00  0.00     0.060 A 
BRANCH  56  57
ATOM     57  S   UNL A   1      36.795  29.819  30.075  1.00  0.00     0.124 S 
ATOM     58  O   UNL A   1      35.912  29.462  28.972  1.00  0.00    -0.237 OA
ATOM     59  O   UNL A   1      36.751  28.943  31.242  1.00  0.00    -0.237 OA
ATOM     60  O   UNL A   1      36.888  31.246  30.372  1.00  0.00    -0.744 OA
ENDBRANCH  56  57
ENDBRANCH  24  49
BRANCH  36  61
ATOM     61  C   UNL A   1      46.705  32.890  28.729  1.00  0.00     0.058 A 
ATOM     62  C   UNL A   1      47.081  33.084  30.067  1.00  0.00     0.135 A 
ATOM     63  C   UNL A   1      46.640  34.015  27.891  1.00  0.00     0.135 A 
ATOM     64  F   UNL A   1      47.151  32.038  30.906  1.00  0.00    -0.206 F 
ATOM     65  C   UNL A   1      47.370  34.350  30.560  1.00  0.00     0.059 A 
ATOM     66  C   UNL A   1      46.949  35.288  28.357  1.00  0.00     0.059 A 
ATOM     67  F   UNL A   1      46.299  33.877  26.599  1.00  0.00    -0.206 F 
ATOM     68  C   UNL A   1      47.305  35.446  29.696  1.00  0.00     0.060 A 
BRANCH  68  69
ATOM     69  S   UNL A   1      47.728  37.079  30.336  1.00  0.00     0.124 S 
ATOM     70  O   UNL A   1      46.869  37.941  29.532  1.00  0.00    -0.237 OA
ATOM     71  O   UNL A   1      47.371  36.965  31.746  1.00  0.00    -0.237 OA
ATOM     72  O   UNL A   1      49.159  37.189  30.066  1.00  0.00    -0.744 OA
ENDBRANCH  68  69
ENDBRANCH  36  61
ENDBRANCH  10  11
ENDBRANCH   3   5
ENDBRANCH   2   3
ENDBRANCH   1   2
BRANCH   1  73
ATOM     73  C   UNL A   1      41.909  19.491  27.151  1.00  0.00     0.275 C 
BRANCH  73  74
ATOM     74  O   UNL A   1      41.195  20.482  26.399  1.00  0.00    -0.457 OA
BRANCH  74  75
ATOM     75  C   UNL A   1      41.027  21.679  27.041  1.00  0.00     0.357 C 
ATOM     76  O   UNL A   1      41.802  22.186  27.822  1.00  0.00    -0.244 OA
BRANCH  75  77
ATOM     77  C   UNL A   1      39.760  22.308  26.563  1.00  0.00     0.148 A 
ATOM     78  C   UNL A   1      39.430  23.610  26.912  1.00  0.00     0.040 A 
ATOM     79  N   UNL A   1      38.966  21.522  25.798  1.00  0.00    -0.245 NA
ATOM     80  C   UNL A   1      38.195  24.128  26.493  1.00  0.00     0.050 A 
ATOM     81  C   UNL A   1      37.775  22.054  25.427  1.00  0.00     0.158 A 
ATOM     82  C   UNL A   1      37.329  23.335  25.749  1.00  0.00     0.138 A 
BRANCH  82  83
ATOM     83  O   UNL A   1      36.074  23.639  25.316  1.00  0.00    -0.486 OA
BRANCH  83  84
ATOM     84  C   UNL A   1      35.204  22.621  24.802  1.00  0.00     0.277 C 
BRANCH  84  85
ATOM     85  C   UNL A   1      33.795  22.785  25.310  1.00  0.00     0.056 A 
ATOM     86  S   UNL A   1      33.288  24.164  26.200  1.00  0.00    -0.144 S 
ATOM     87  C   UNL A   1      32.744  21.890  25.210  1.00  0.00     0.035 A 
ATOM     88  C   UNL A   1      31.675  23.617  26.301  1.00  0.00     0.066 A 
ATOM     89  C   UNL A   1      31.520  22.374  25.735  1.00  0.00     0.028 A 
ATOM     90  Br  UNL A   1      32.830  20.147  24.480  1.00  0.00    -0.049 Br
ENDBRANCH  84  85
ENDBRANCH  83  84
ENDBRANCH  82  83
ENDBRANCH  75  77
ENDBRANCH  74  75
ENDBRANCH  73  74
ENDBRANCH   1  73
TORSDOF 17
ENDMDL
