MODEL 1
REMARK VINA RESULT:     -11.0      0.000      0.000
REMARK SMILES C[NH+](C)[C@H]1CCN(C(=O)C(=O)c2ccccc2)C[C@H]1CCC(=O)OCCOC(=O)c1ccc(-c2c3nc(c(-c4c(F)cc(S(=O)(=O)[O-])cc4F)c4ccc([nH]4)c(-c4c(F)cc(S(=O)(=O)[O-])cc4F)c4nc(c(-c5c(F)cc(S(=O)(=O)[O-])cc5F)c5ccc2[nH]5)C=C4)C=C3)cc1
REMARK SMILES IDX 25 1 24 2 22 3 23 4 21 5 20 6 19 7 4 8 5 9 6 10 18 11 7 12
REMARK SMILES IDX 2 13 1 14 3 15 8 17 9 18 10 19 11 20 12 21 13 22 17 23 14 24
REMARK SMILES IDX 16 25 15 26 26 27 27 28 28 29 29 30 30 31 31 32 95 33 32 34
REMARK SMILES IDX 94 35 33 36 34 37 35 38 88 39 36 40 93 41 87 42 89 43 37 44
REMARK SMILES IDX 92 45 86 46 85 47 38 49 72 50 51 51 71 52 52 53 55 54 70 55
REMARK SMILES IDX 90 56 53 57 54 58 69 60 91 61 56 62 39 63 40 64 49 65 41 66
REMARK SMILES IDX 42 67 48 68 50 69 43 70 44 71 45 72 46 73 47 74 73 75 74 76
REMARK SMILES IDX 83 77 75 78 76 79 82 80 84 81 77 82 78 83 79 84 80 85 81 86
REMARK SMILES IDX 57 87 58 88 67 89 59 90 60 91 66 92 68 93 61 94 62 95 63 96
REMARK SMILES IDX 64 97 65 98
REMARK H PARENT 2 16 89 48 55 59
REMARK Flexibility Score: inf
ROOT
ATOM      1  C   UNL A   1      32.135  28.642  26.294  1.00  0.00     0.274 C 
ENDROOT
BRANCH   1   2
ATOM      2  O   UNL A   1      31.319  27.761  27.091  1.00  0.00    -0.462 OA
BRANCH   2   3
ATOM      3  C   UNL A   1      31.121  26.501  26.628  1.00  0.00     0.305 C 
ATOM      4  O   UNL A   1      30.024  25.962  26.533  1.00  0.00    -0.252 OA
BRANCH   3   5
ATOM      5  C   UNL A   1      32.401  25.825  26.179  1.00  0.00     0.123 C 
BRANCH   5   6
ATOM      6  C   UNL A   1      32.280  24.446  25.529  1.00  0.00     0.023 C 
BRANCH   6   7
ATOM      7  C   UNL A   1      33.566  23.776  24.972  1.00  0.00     0.067 C 
ATOM      8  C   UNL A   1      33.391  22.350  24.357  1.00  0.00     0.190 C 
ATOM      9  C   UNL A   1      32.545  22.471  23.072  1.00  0.00     0.087 C 
ATOM     10  C   UNL A   1      33.178  23.441  22.084  1.00  0.00     0.126 C 
ATOM     11  C   UNL A   1      34.189  24.736  23.931  1.00  0.00     0.129 C 
ATOM     12  N   UNL A   1      33.448  24.745  22.669  1.00  0.00    -0.335 N 
BRANCH   8  13
ATOM     13  N   UNL A   1      32.867  21.388  25.354  1.00  0.00    -0.337 N 
ATOM     14  C   UNL A   1      33.763  21.199  26.497  1.00  0.00     0.332 C 
ATOM     15  C   UNL A   1      32.466  20.083  24.833  1.00  0.00     0.332 C 
ATOM     16  H   UNL A   1      32.011  21.849  25.662  1.00  0.00     0.347 HD
ENDBRANCH   8  13
BRANCH  12  17
ATOM     17  C   UNL A   1      33.191  25.877  21.881  1.00  0.00     0.294 C 
ATOM     18  O   UNL A   1      33.200  25.843  20.651  1.00  0.00    -0.265 OA
BRANCH  17  19
ATOM     19  C   UNL A   1      32.952  27.237  22.544  1.00  0.00     0.250 C 
ATOM     20  O   UNL A   1      33.901  27.989  22.743  1.00  0.00    -0.283 OA
BRANCH  19  21
ATOM     21  C   UNL A   1      31.553  27.701  22.790  1.00  0.00     0.028 A 
ATOM     22  C   UNL A   1      31.261  29.058  22.584  1.00  0.00     0.012 A 
ATOM     23  C   UNL A   1      30.522  26.832  23.167  1.00  0.00     0.012 A 
ATOM     24  C   UNL A   1      29.953  29.530  22.708  1.00  0.00     0.001 A 
ATOM     25  C   UNL A   1      29.212  27.308  23.293  1.00  0.00     0.001 A 
ATOM     26  C   UNL A   1      28.927  28.653  23.054  1.00  0.00     0.000 A 
ENDBRANCH  19  21
ENDBRANCH  17  19
ENDBRANCH  12  17
ENDBRANCH   6   7
ENDBRANCH   5   6
ENDBRANCH   3   5
ENDBRANCH   2   3
ENDBRANCH   1   2
BRANCH   1  27
ATOM     27  C   UNL A   1      32.599  29.827  27.142  1.00  0.00     0.275 C 
BRANCH  27  28
ATOM     28  O   UNL A   1      33.844  29.509  27.784  1.00  0.00    -0.458 OA
BRANCH  28  29
ATOM     29  C   UNL A   1      34.584  30.578  28.154  1.00  0.00     0.338 C 
ATOM     30  O   UNL A   1      34.187  31.690  28.471  1.00  0.00    -0.246 OA
BRANCH  29  31
ATOM     31  C   UNL A   1      35.973  30.139  28.315  1.00  0.00     0.060 A 
ATOM     32  C   UNL A   1      36.350  29.630  29.558  1.00  0.00     0.016 A 
ATOM     33  C   UNL A   1      36.899  30.254  27.281  1.00  0.00     0.016 A 
ATOM     34  C   UNL A   1      37.659  29.232  29.788  1.00  0.00     0.010 A 
ATOM     35  C   UNL A   1      38.216  29.849  27.508  1.00  0.00     0.010 A 
ATOM     36  C   UNL A   1      38.604  29.343  28.763  1.00  0.00    -0.014 A 
BRANCH  36  37
ATOM     37  C   UNL A   1      40.018  28.993  29.021  1.00  0.00     0.031 A 
ATOM     38  C   UNL A   1      40.939  30.038  29.575  1.00  0.00     0.074 A 
ATOM     39  C   UNL A   1      40.463  27.750  28.762  1.00  0.00     0.049 A 
ATOM     40  N   UNL A   1      42.239  30.013  29.698  1.00  0.00    -0.248 NA
ATOM     41  C   UNL A   1      40.310  31.284  30.047  1.00  0.00     0.031 C 
ATOM     42  C   UNL A   1      39.637  26.637  28.292  1.00  0.00     0.029 A 
ATOM     43  N   UNL A   1      41.724  27.218  28.847  1.00  0.00    -0.354 N 
ATOM     44  C   UNL A   1      42.591  31.252  30.223  1.00  0.00     0.074 A 
ATOM     45  C   UNL A   1      41.366  32.004  30.396  1.00  0.00     0.031 C 
ATOM     46  C   UNL A   1      40.416  25.556  28.121  1.00  0.00     0.029 A 
ATOM     47  C   UNL A   1      41.800  25.918  28.409  1.00  0.00     0.049 A 
ATOM     48  H   UNL A   1      42.499  27.719  29.188  1.00  0.00     0.167 HD
ATOM     49  C   UNL A   1      43.827  31.714  30.522  1.00  0.00     0.037 A 
ATOM     50  C   UNL A   1      42.873  25.125  28.218  1.00  0.00     0.037 A 
ATOM     51  C   UNL A   1      45.030  30.940  30.363  1.00  0.00     0.049 A 
ATOM     52  C   UNL A   1      44.242  25.678  28.507  1.00  0.00     0.074 A 
ATOM     53  C   UNL A   1      46.337  31.308  30.630  1.00  0.00     0.029 A 
ATOM     54  N   UNL A   1      45.069  29.631  29.900  1.00  0.00    -0.354 N 
ATOM     55  N   UNL A   1      44.572  26.868  28.954  1.00  0.00    -0.248 NA
ATOM     56  C   UNL A   1      45.385  24.793  28.250  1.00  0.00     0.031 C 
ATOM     57  C   UNL A   1      47.168  30.232  30.300  1.00  0.00     0.029 A 
ATOM     58  C   UNL A   1      46.377  29.181  29.862  1.00  0.00     0.049 A 
ATOM     59  H   UNL A   1      44.281  29.102  29.637  1.00  0.00     0.167 HD
ATOM     60  C   UNL A   1      45.958  26.871  29.042  1.00  0.00     0.074 A 
ATOM     61  C   UNL A   1      46.405  25.559  28.615  1.00  0.00     0.031 C 
ATOM     62  C   UNL A   1      46.789  27.867  29.436  1.00  0.00     0.037 A 
BRANCH  49  63
ATOM     63  C   UNL A   1      43.938  33.132  31.006  1.00  0.00     0.058 A 
ATOM     64  C   UNL A   1      44.057  34.213  30.118  1.00  0.00     0.135 A 
ATOM     65  C   UNL A   1      43.919  33.413  32.381  1.00  0.00     0.135 A 
ATOM     66  F   UNL A   1      44.102  33.997  28.794  1.00  0.00    -0.206 F 
ATOM     67  C   UNL A   1      44.180  35.520  30.578  1.00  0.00     0.059 A 
ATOM     68  C   UNL A   1      44.019  34.715  32.863  1.00  0.00     0.059 A 
ATOM     69  F   UNL A   1      43.813  32.416  33.274  1.00  0.00    -0.206 F 
ATOM     70  C   UNL A   1      44.165  35.761  31.953  1.00  0.00     0.060 A 
BRANCH  70  71
ATOM     71  S   UNL A   1      44.333  37.461  32.538  1.00  0.00     0.124 S 
ATOM     72  O   UNL A   1      43.366  37.489  33.631  1.00  0.00    -0.237 OA
ATOM     73  O   UNL A   1      45.736  37.521  32.933  1.00  0.00    -0.237 OA
ATOM     74  O   UNL A   1      43.980  38.259  31.368  1.00  0.00    -0.744 OA
ENDBRANCH  70  71
ENDBRANCH  49  63
BRANCH  50  75
ATOM     75  C   UNL A   1      42.694  23.749  27.687  1.00  0.00     0.058 A 
ATOM     76  C   UNL A   1      42.582  22.650  28.549  1.00  0.00     0.135 A 
ATOM     77  C   UNL A   1      42.607  23.510  26.306  1.00  0.00     0.135 A 
ATOM     78  F   UNL A   1      42.670  22.827  29.877  1.00  0.00    -0.206 F 
ATOM     79  C   UNL A   1      42.395  21.359  28.063  1.00  0.00     0.059 A 
ATOM     80  C   UNL A   1      42.397  22.232  25.797  1.00  0.00     0.059 A 
ATOM     81  F   UNL A   1      42.699  24.530  25.439  1.00  0.00    -0.206 F 
ATOM     82  C   UNL A   1      42.299  21.160  26.684  1.00  0.00     0.060 A 
BRANCH  82  83
ATOM     83  S   UNL A   1      41.996  19.492  26.062  1.00  0.00     0.124 S 
ATOM     84  O   UNL A   1      40.563  19.533  25.797  1.00  0.00    -0.237 OA
ATOM     85  O   UNL A   1      42.862  19.436  24.888  1.00  0.00    -0.237 OA
ATOM     86  O   UNL A   1      42.409  18.641  27.175  1.00  0.00    -0.744 OA
ENDBRANCH  82  83
ENDBRANCH  50  75
BRANCH  62  87
ATOM     87  C   UNL A   1      48.260  27.568  29.446  1.00  0.00     0.058 A 
ATOM     88  C   UNL A   1      49.074  27.858  28.342  1.00  0.00     0.135 A 
ATOM     89  C   UNL A   1      48.869  27.040  30.595  1.00  0.00     0.135 A 
ATOM     90  F   UNL A   1      48.535  28.358  27.218  1.00  0.00    -0.206 F 
ATOM     91  C   UNL A   1      50.444  27.624  28.371  1.00  0.00     0.059 A 
ATOM     92  C   UNL A   1      50.241  26.816  30.654  1.00  0.00     0.059 A 
ATOM     93  F   UNL A   1      48.131  26.753  31.680  1.00  0.00    -0.206 F 
ATOM     94  C   UNL A   1      51.018  27.104  29.533  1.00  0.00     0.060 A 
BRANCH  94  95
ATOM     95  S   UNL A   1      52.805  26.844  29.577  1.00  0.00     0.124 S 
ATOM     96  O   UNL A   1      53.297  28.213  29.695  1.00  0.00    -0.237 OA
ATOM     97  O   UNL A   1      52.972  26.006  30.761  1.00  0.00    -0.237 OA
ATOM     98  O   UNL A   1      53.082  26.184  28.306  1.00  0.00    -0.744 OA
ENDBRANCH  94  95
ENDBRANCH  62  87
ENDBRANCH  36  37
ENDBRANCH  29  31
ENDBRANCH  28  29
ENDBRANCH  27  28
ENDBRANCH   1  27
TORSDOF 20
ENDMDL
MODEL 2
REMARK VINA RESULT:     -10.8      2.333      3.984
REMARK SMILES C[NH+](C)[C@H]1CCN(C(=O)C(=O)c2ccccc2)C[C@H]1CCC(=O)OCCOC(=O)c1ccc(-c2c3nc(c(-c4c(F)cc(S(=O)(=O)[O-])cc4F)c4ccc([nH]4)c(-c4c(F)cc(S(=O)(=O)[O-])cc4F)c4nc(c(-c5c(F)cc(S(=O)(=O)[O-])cc5F)c5ccc2[nH]5)C=C4)C=C3)cc1
REMARK SMILES IDX 25 1 24 2 22 3 23 4 21 5 20 6 19 7 4 8 5 9 6 10 18 11 7 12
REMARK SMILES IDX 2 13 1 14 3 15 8 17 9 18 10 19 11 20 12 21 13 22 17 23 14 24
REMARK SMILES IDX 16 25 15 26 26 27 27 28 28 29 29 30 30 31 31 32 95 33 32 34
REMARK SMILES IDX 94 35 33 36 34 37 35 38 88 39 36 40 93 41 87 42 89 43 37 44
REMARK SMILES IDX 92 45 86 46 85 47 38 49 72 50 51 51 71 52 52 53 55 54 70 55
REMARK SMILES IDX 90 56 53 57 54 58 69 60 91 61 56 62 39 63 40 64 49 65 41 66
REMARK SMILES IDX 42 67 48 68 50 69 43 70 44 71 45 72 46 73 47 74 73 75 74 76
REMARK SMILES IDX 83 77 75 78 76 79 82 80 84 81 77 82 78 83 79 84 80 85 81 86
REMARK SMILES IDX 57 87 58 88 67 89 59 90 60 91 66 92 68 93 61 94 62 95 63 96
REMARK SMILES IDX 64 97 65 98
REMARK H PARENT 2 16 89 48 55 59
REMARK Flexibility Score: inf
ROOT
ATOM      1  C   UNL A   1      33.126  30.516  27.360  1.00  0.00     0.274 C 
ENDROOT
BRANCH   1   2
ATOM      2  O   UNL A   1      33.046  29.484  26.359  1.00  0.00    -0.462 OA
BRANCH   2   3
ATOM      3  C   UNL A   1      32.832  28.213  26.784  1.00  0.00     0.305 C 
ATOM      4  O   UNL A   1      31.972  27.891  27.596  1.00  0.00    -0.252 OA
BRANCH   3   5
ATOM      5  C   UNL A   1      33.735  27.199  26.109  1.00  0.00     0.123 C 
BRANCH   5   6
ATOM      6  C   UNL A   1      33.101  26.271  25.073  1.00  0.00     0.023 C 
BRANCH   6   7
ATOM      7  C   UNL A   1      31.614  26.503  24.685  1.00  0.00     0.067 C 
ATOM      8  C   UNL A   1      31.286  26.469  23.157  1.00  0.00     0.190 C 
ATOM      9  C   UNL A   1      31.502  25.031  22.641  1.00  0.00     0.087 C 
ATOM     10  C   UNL A   1      30.661  24.032  23.423  1.00  0.00     0.126 C 
ATOM     11  C   UNL A   1      30.758  25.458  25.440  1.00  0.00     0.129 C 
ATOM     12  N   UNL A   1      30.873  24.120  24.859  1.00  0.00    -0.335 N 
BRANCH   8  13
ATOM     13  N   UNL A   1      32.035  27.511  22.417  1.00  0.00    -0.337 N 
ATOM     14  C   UNL A   1      33.367  27.074  21.997  1.00  0.00     0.332 C 
ATOM     15  C   UNL A   1      32.137  28.813  23.076  1.00  0.00     0.332 C 
ATOM     16  H   UNL A   1      31.445  27.652  21.597  1.00  0.00     0.347 HD
ENDBRANCH   8  13
BRANCH  12  17
ATOM     17  C   UNL A   1      30.934  22.918  25.581  1.00  0.00     0.294 C 
ATOM     18  O   UNL A   1      30.099  22.613  26.432  1.00  0.00    -0.265 OA
BRANCH  17  19
ATOM     19  C   UNL A   1      32.110  21.958  25.377  1.00  0.00     0.250 C 
ATOM     20  O   UNL A   1      31.895  20.760  25.222  1.00  0.00    -0.283 OA
BRANCH  19  21
ATOM     21  C   UNL A   1      33.489  22.508  25.205  1.00  0.00     0.028 A 
ATOM     22  C   UNL A   1      34.002  22.609  23.902  1.00  0.00     0.012 A 
ATOM     23  C   UNL A   1      34.262  22.966  26.279  1.00  0.00     0.012 A 
ATOM     24  C   UNL A   1      35.246  23.200  23.673  1.00  0.00     0.001 A 
ATOM     25  C   UNL A   1      35.509  23.557  26.046  1.00  0.00     0.001 A 
ATOM     26  C   UNL A   1      35.995  23.682  24.744  1.00  0.00     0.000 A 
ENDBRANCH  19  21
ENDBRANCH  17  19
ENDBRANCH  12  17
ENDBRANCH   6   7
ENDBRANCH   5   6
ENDBRANCH   3   5
ENDBRANCH   2   3
ENDBRANCH   1   2
BRANCH   1  27
ATOM     27  C   UNL A   1      34.578  30.963  27.530  1.00  0.00     0.275 C 
BRANCH  27  28
ATOM     28  O   UNL A   1      35.318  29.957  28.241  1.00  0.00    -0.458 OA
BRANCH  28  29
ATOM     29  C   UNL A   1      36.119  30.427  29.224  1.00  0.00     0.338 C 
ATOM     30  O   UNL A   1      35.789  31.027  30.236  1.00  0.00    -0.246 OA
BRANCH  29  31
ATOM     31  C   UNL A   1      37.474  29.924  28.987  1.00  0.00     0.060 A 
ATOM     32  C   UNL A   1      38.255  29.620  30.103  1.00  0.00     0.016 A 
ATOM     33  C   UNL A   1      37.987  29.785  27.700  1.00  0.00     0.016 A 
ATOM     34  C   UNL A   1      39.560  29.175  29.949  1.00  0.00     0.010 A 
ATOM     35  C   UNL A   1      39.299  29.331  27.542  1.00  0.00     0.010 A 
ATOM     36  C   UNL A   1      40.093  29.031  28.665  1.00  0.00    -0.014 A 
BRANCH  36  37
ATOM     37  C   UNL A   1      41.507  28.631  28.492  1.00  0.00     0.031 A 
ATOM     38  C   UNL A   1      42.578  29.675  28.593  1.00  0.00     0.074 A 
ATOM     39  C   UNL A   1      41.819  27.344  28.251  1.00  0.00     0.049 A 
ATOM     40  N   UNL A   1      43.846  29.590  28.292  1.00  0.00    -0.248 NA
ATOM     41  C   UNL A   1      42.162  30.996  29.093  1.00  0.00     0.031 C 
ATOM     42  C   UNL A   1      40.863  26.237  28.206  1.00  0.00     0.029 A 
ATOM     43  N   UNL A   1      43.028  26.754  27.986  1.00  0.00    -0.354 N 
ATOM     44  C   UNL A   1      44.374  30.854  28.526  1.00  0.00     0.074 A 
ATOM     45  C   UNL A   1      43.288  31.688  28.996  1.00  0.00     0.031 C 
ATOM     46  C   UNL A   1      41.522  25.101  27.921  1.00  0.00     0.029 A 
ATOM     47  C   UNL A   1      42.931  25.413  27.703  1.00  0.00     0.049 A 
ATOM     48  H   UNL A   1      43.882  27.243  27.998  1.00  0.00     0.167 HD
ATOM     49  C   UNL A   1      45.648  31.275  28.354  1.00  0.00     0.037 A 
ATOM     50  C   UNL A   1      43.868  24.546  27.271  1.00  0.00     0.037 A 
ATOM     51  C   UNL A   1      46.718  30.421  27.908  1.00  0.00     0.049 A 
ATOM     52  C   UNL A   1      45.266  25.048  27.036  1.00  0.00     0.074 A 
ATOM     53  C   UNL A   1      48.047  30.742  27.694  1.00  0.00     0.029 A 
ATOM     54  N   UNL A   1      46.579  29.072  27.614  1.00  0.00    -0.354 N 
ATOM     55  N   UNL A   1      45.746  26.257  27.210  1.00  0.00    -0.248 NA
ATOM     56  C   UNL A   1      46.245  24.077  26.530  1.00  0.00     0.031 C 
ATOM     57  C   UNL A   1      48.705  29.591  27.242  1.00  0.00     0.029 A 
ATOM     58  C   UNL A   1      47.794  28.547  27.209  1.00  0.00     0.049 A 
ATOM     59  H   UNL A   1      45.738  28.563  27.683  1.00  0.00     0.167 HD
ATOM     60  C   UNL A   1      47.086  26.191  26.845  1.00  0.00     0.074 A 
ATOM     61  C   UNL A   1      47.343  24.818  26.454  1.00  0.00     0.031 C 
ATOM     62  C   UNL A   1      48.019  27.174  26.831  1.00  0.00     0.037 A 
BRANCH  49  63
ATOM     63  C   UNL A   1      45.939  32.727  28.607  1.00  0.00     0.058 A 
ATOM     64  C   UNL A   1      46.357  33.193  29.863  1.00  0.00     0.135 A 
ATOM     65  C   UNL A   1      45.802  33.666  27.572  1.00  0.00     0.135 A 
ATOM     66  F   UNL A   1      46.483  32.340  30.892  1.00  0.00    -0.206 F 
ATOM     67  C   UNL A   1      46.605  34.543  30.091  1.00  0.00     0.059 A 
ATOM     68  C   UNL A   1      46.065  35.019  27.772  1.00  0.00     0.059 A 
ATOM     69  F   UNL A   1      45.399  33.274  26.353  1.00  0.00    -0.206 F 
ATOM     70  C   UNL A   1      46.451  35.449  29.040  1.00  0.00     0.060 A 
BRANCH  70  71
ATOM     71  S   UNL A   1      46.767  37.199  29.350  1.00  0.00     0.124 S 
ATOM     72  O   UNL A   1      48.219  37.262  29.208  1.00  0.00    -0.237 OA
ATOM     73  O   UNL A   1      45.999  37.851  28.294  1.00  0.00    -0.237 OA
ATOM     74  O   UNL A   1      46.261  37.401  30.704  1.00  0.00    -0.744 OA
ENDBRANCH  70  71
ENDBRANCH  49  63
BRANCH  50  75
ATOM     75  C   UNL A   1      43.498  23.134  26.991  1.00  0.00     0.058 A 
ATOM     76  C   UNL A   1      43.287  22.221  28.033  1.00  0.00     0.135 A 
ATOM     77  C   UNL A   1      43.325  22.676  25.675  1.00  0.00     0.135 A 
ATOM     78  F   UNL A   1      43.451  22.609  29.308  1.00  0.00    -0.206 F 
ATOM     79  C   UNL A   1      42.921  20.901  27.783  1.00  0.00     0.059 A 
ATOM     80  C   UNL A   1      42.938  21.368  25.401  1.00  0.00     0.059 A 
ATOM     81  F   UNL A   1      43.507  23.512  24.642  1.00  0.00    -0.206 F 
ATOM     82  C   UNL A   1      42.746  20.484  26.462  1.00  0.00     0.060 A 
BRANCH  82  83
ATOM     83  S   UNL A   1      42.214  18.787  26.147  1.00  0.00     0.124 S 
ATOM     84  O   UNL A   1      40.840  18.989  25.701  1.00  0.00    -0.237 OA
ATOM     85  O   UNL A   1      43.160  18.351  25.125  1.00  0.00    -0.237 OA
ATOM     86  O   UNL A   1      42.368  18.142  27.447  1.00  0.00    -0.744 OA
ENDBRANCH  82  83
ENDBRANCH  50  75
BRANCH  62  87
ATOM     87  C   UNL A   1      49.406  26.795  26.401  1.00  0.00     0.058 A 
ATOM     88  C   UNL A   1      50.307  26.188  27.286  1.00  0.00     0.135 A 
ATOM     89  C   UNL A   1      49.814  26.990  25.072  1.00  0.00     0.135 A 
ATOM     90  F   UNL A   1      49.964  25.988  28.569  1.00  0.00    -0.206 F 
ATOM     91  C   UNL A   1      51.576  25.796  26.872  1.00  0.00     0.059 A 
ATOM     92  C   UNL A   1      51.071  26.587  24.631  1.00  0.00     0.059 A 
ATOM     93  F   UNL A   1      48.983  27.560  24.185  1.00  0.00    -0.206 F 
ATOM     94  C   UNL A   1      51.947  25.998  25.542  1.00  0.00     0.060 A 
BRANCH  94  95
ATOM     95  S   UNL A   1      53.579  25.445  25.002  1.00  0.00     0.124 S 
ATOM     96  O   UNL A   1      54.451  26.154  25.933  1.00  0.00    -0.237 OA
ATOM     97  O   UNL A   1      53.498  23.999  25.186  1.00  0.00    -0.237 OA
ATOM     98  O   UNL A   1      53.645  25.891  23.614  1.00  0.00    -0.744 OA
ENDBRANCH  94  95
ENDBRANCH  62  87
ENDBRANCH  36  37
ENDBRANCH  29  31
ENDBRANCH  28  29
ENDBRANCH  27  28
ENDBRANCH   1  27
TORSDOF 20
ENDMDL
MODEL 3
REMARK VINA RESULT:     -10.7      1.030      3.279
REMARK SMILES C[NH+](C)[C@H]1CCN(C(=O)C(=O)c2ccccc2)C[C@H]1CCC(=O)OCCOC(=O)c1ccc(-c2c3nc(c(-c4c(F)cc(S(=O)(=O)[O-])cc4F)c4ccc([nH]4)c(-c4c(F)cc(S(=O)(=O)[O-])cc4F)c4nc(c(-c5c(F)cc(S(=O)(=O)[O-])cc5F)c5ccc2[nH]5)C=C4)C=C3)cc1
REMARK SMILES IDX 25 1 24 2 22 3 23 4 21 5 20 6 19 7 4 8 5 9 6 10 18 11 7 12
REMARK SMILES IDX 2 13 1 14 3 15 8 17 9 18 10 19 11 20 12 21 13 22 17 23 14 24
REMARK SMILES IDX 16 25 15 26 26 27 27 28 28 29 29 30 30 31 31 32 95 33 32 34
REMARK SMILES IDX 94 35 33 36 34 37 35 38 88 39 36 40 93 41 87 42 89 43 37 44
REMARK SMILES IDX 92 45 86 46 85 47 38 49 72 50 51 51 71 52 52 53 55 54 70 55
REMARK SMILES IDX 90 56 53 57 54 58 69 60 91 61 56 62 39 63 40 64 49 65 41 66
REMARK SMILES IDX 42 67 48 68 50 69 43 70 44 71 45 72 46 73 47 74 73 75 74 76
REMARK SMILES IDX 83 77 75 78 76 79 82 80 84 81 77 82 78 83 79 84 80 85 81 86
REMARK SMILES IDX 57 87 58 88 67 89 59 90 60 91 66 92 68 93 61 94 62 95 63 96
REMARK SMILES IDX 64 97 65 98
REMARK H PARENT 2 16 89 48 55 59
REMARK Flexibility Score: inf
ROOT
ATOM      1  C   UNL A   1      31.982  29.900  26.233  1.00  0.00     0.274 C 
ENDROOT
BRANCH   1   2
ATOM      2  O   UNL A   1      31.325  28.672  25.865  1.00  0.00    -0.462 OA
BRANCH   2   3
ATOM      3  C   UNL A   1      31.074  27.775  26.853  1.00  0.00     0.305 C 
ATOM      4  O   UNL A   1      31.093  28.040  28.049  1.00  0.00    -0.252 OA
BRANCH   3   5
ATOM      5  C   UNL A   1      30.705  26.401  26.329  1.00  0.00     0.123 C 
BRANCH   5   6
ATOM      6  C   UNL A   1      31.590  25.804  25.235  1.00  0.00     0.023 C 
BRANCH   6   7
ATOM      7  C   UNL A   1      30.948  25.488  23.855  1.00  0.00     0.067 C 
ATOM      8  C   UNL A   1      31.118  26.577  22.748  1.00  0.00     0.190 C 
ATOM      9  C   UNL A   1      32.611  26.658  22.364  1.00  0.00     0.087 C 
ATOM     10  C   UNL A   1      33.137  25.302  21.912  1.00  0.00     0.126 C 
ATOM     11  C   UNL A   1      31.516  24.134  23.367  1.00  0.00     0.129 C 
ATOM     12  N   UNL A   1      32.893  24.249  22.885  1.00  0.00    -0.335 N 
BRANCH   8  13
ATOM     13  N   UNL A   1      30.514  27.867  23.157  1.00  0.00    -0.337 N 
ATOM     14  C   UNL A   1      29.052  27.822  23.224  1.00  0.00     0.332 C 
ATOM     15  C   UNL A   1      30.928  29.039  22.387  1.00  0.00     0.332 C 
ATOM     16  H   UNL A   1      30.897  27.991  24.094  1.00  0.00     0.347 HD
ENDBRANCH   8  13
BRANCH  12  17
ATOM     17  C   UNL A   1      33.914  23.311  23.096  1.00  0.00     0.294 C 
ATOM     18  O   UNL A   1      34.813  23.115  22.279  1.00  0.00    -0.265 OA
BRANCH  17  19
ATOM     19  C   UNL A   1      33.902  22.432  24.351  1.00  0.00     0.250 C 
ATOM     20  O   UNL A   1      34.010  22.952  25.457  1.00  0.00    -0.283 OA
BRANCH  19  21
ATOM     21  C   UNL A   1      33.595  20.975  24.226  1.00  0.00     0.028 A 
ATOM     22  C   UNL A   1      32.468  20.598  23.479  1.00  0.00     0.012 A 
ATOM     23  C   UNL A   1      34.409  19.979  24.781  1.00  0.00     0.012 A 
ATOM     24  C   UNL A   1      32.185  19.249  23.252  1.00  0.00     0.001 A 
ATOM     25  C   UNL A   1      34.122  18.628  24.552  1.00  0.00     0.001 A 
ATOM     26  C   UNL A   1      33.018  18.265  23.781  1.00  0.00     0.000 A 
ENDBRANCH  19  21
ENDBRANCH  17  19
ENDBRANCH  12  17
ENDBRANCH   6   7
ENDBRANCH   5   6
ENDBRANCH   3   5
ENDBRANCH   2   3
ENDBRANCH   1   2
BRANCH   1  27
ATOM     27  C   UNL A   1      33.496  29.687  26.269  1.00  0.00     0.275 C 
BRANCH  27  28
ATOM     28  O   UNL A   1      33.927  29.487  27.625  1.00  0.00    -0.458 OA
BRANCH  28  29
ATOM     29  C   UNL A   1      34.644  30.506  28.151  1.00  0.00     0.338 C 
ATOM     30  O   UNL A   1      34.226  31.569  28.586  1.00  0.00    -0.246 OA
BRANCH  29  31
ATOM     31  C   UNL A   1      36.029  30.055  28.311  1.00  0.00     0.060 A 
ATOM     32  C   UNL A   1      36.422  29.609  29.573  1.00  0.00     0.016 A 
ATOM     33  C   UNL A   1      36.937  30.099  27.256  1.00  0.00     0.016 A 
ATOM     34  C   UNL A   1      37.730  29.204  29.801  1.00  0.00     0.010 A 
ATOM     35  C   UNL A   1      38.252  29.687  27.481  1.00  0.00     0.010 A 
ATOM     36  C   UNL A   1      38.657  29.244  28.755  1.00  0.00    -0.014 A 
BRANCH  36  37
ATOM     37  C   UNL A   1      40.070  28.887  29.006  1.00  0.00     0.031 A 
ATOM     38  C   UNL A   1      40.999  29.928  29.555  1.00  0.00     0.074 A 
ATOM     39  C   UNL A   1      40.507  27.641  28.746  1.00  0.00     0.049 A 
ATOM     40  N   UNL A   1      42.299  29.897  29.672  1.00  0.00    -0.248 NA
ATOM     41  C   UNL A   1      40.378  31.177  30.029  1.00  0.00     0.031 C 
ATOM     42  C   UNL A   1      39.674  26.532  28.281  1.00  0.00     0.029 A 
ATOM     43  N   UNL A   1      41.766  27.103  28.825  1.00  0.00    -0.354 N 
ATOM     44  C   UNL A   1      42.660  31.134  30.194  1.00  0.00     0.074 A 
ATOM     45  C   UNL A   1      41.440  31.892  30.373  1.00  0.00     0.031 C 
ATOM     46  C   UNL A   1      40.445  25.447  28.107  1.00  0.00     0.029 A 
ATOM     47  C   UNL A   1      41.833  25.802  28.388  1.00  0.00     0.049 A 
ATOM     48  H   UNL A   1      42.545  27.600  29.162  1.00  0.00     0.167 HD
ATOM     49  C   UNL A   1      43.899  31.590  30.486  1.00  0.00     0.037 A 
ATOM     50  C   UNL A   1      42.901  25.004  28.192  1.00  0.00     0.037 A 
ATOM     51  C   UNL A   1      45.098  30.809  30.322  1.00  0.00     0.049 A 
ATOM     52  C   UNL A   1      44.274  25.550  28.474  1.00  0.00     0.074 A 
ATOM     53  C   UNL A   1      46.408  31.171  30.583  1.00  0.00     0.029 A 
ATOM     54  N   UNL A   1      45.128  29.500  29.860  1.00  0.00    -0.354 N 
ATOM     55  N   UNL A   1      44.612  26.739  28.918  1.00  0.00    -0.248 NA
ATOM     56  C   UNL A   1      45.411  24.659  28.212  1.00  0.00     0.031 C 
ATOM     57  C   UNL A   1      47.232  30.090  30.250  1.00  0.00     0.029 A 
ATOM     58  C   UNL A   1      46.434  29.043  29.816  1.00  0.00     0.049 A 
ATOM     59  H   UNL A   1      44.336  28.974  29.602  1.00  0.00     0.167 HD
ATOM     60  C   UNL A   1      45.999  26.734  29.000  1.00  0.00     0.074 A 
ATOM     61  C   UNL A   1      46.437  25.420  28.571  1.00  0.00     0.031 C 
ATOM     62  C   UNL A   1      46.837  27.726  29.389  1.00  0.00     0.037 A 
BRANCH  49  63
ATOM     63  C   UNL A   1      44.020  33.007  30.969  1.00  0.00     0.058 A 
ATOM     64  C   UNL A   1      44.225  34.078  30.084  1.00  0.00     0.135 A 
ATOM     65  C   UNL A   1      43.925  33.298  32.339  1.00  0.00     0.135 A 
ATOM     66  F   UNL A   1      44.345  33.852  28.767  1.00  0.00    -0.206 F 
ATOM     67  C   UNL A   1      44.355  35.385  30.545  1.00  0.00     0.059 A 
ATOM     68  C   UNL A   1      44.031  34.601  32.819  1.00  0.00     0.059 A 
ATOM     69  F   UNL A   1      43.736  32.311  33.229  1.00  0.00    -0.206 F 
ATOM     70  C   UNL A   1      44.262  35.636  31.915  1.00  0.00     0.060 A 
BRANCH  70  71
ATOM     71  S   UNL A   1      44.441  37.334  32.499  1.00  0.00     0.124 S 
ATOM     72  O   UNL A   1      43.696  37.289  33.753  1.00  0.00    -0.237 OA
ATOM     73  O   UNL A   1      45.888  37.473  32.628  1.00  0.00    -0.237 OA
ATOM     74  O   UNL A   1      43.832  38.126  31.435  1.00  0.00    -0.744 OA
ENDBRANCH  70  71
ENDBRANCH  49  63
BRANCH  50  75
ATOM     75  C   UNL A   1      42.712  23.629  27.663  1.00  0.00     0.058 A 
ATOM     76  C   UNL A   1      42.666  23.384  26.284  1.00  0.00     0.135 A 
ATOM     77  C   UNL A   1      42.597  22.527  28.527  1.00  0.00     0.135 A 
ATOM     78  F   UNL A   1      42.760  24.406  25.418  1.00  0.00    -0.206 F 
ATOM     79  C   UNL A   1      42.509  22.098  25.776  1.00  0.00     0.059 A 
ATOM     80  C   UNL A   1      42.462  21.230  28.043  1.00  0.00     0.059 A 
ATOM     81  F   UNL A   1      42.643  22.707  29.855  1.00  0.00    -0.206 F 
ATOM     82  C   UNL A   1      42.411  21.025  26.665  1.00  0.00     0.060 A 
BRANCH  82  83
ATOM     83  S   UNL A   1      42.267  19.352  25.999  1.00  0.00     0.124 S 
ATOM     84  O   UNL A   1      42.713  18.547  27.131  1.00  0.00    -0.237 OA
ATOM     85  O   UNL A   1      40.846  19.268  25.676  1.00  0.00    -0.237 OA
ATOM     86  O   UNL A   1      43.162  19.373  24.847  1.00  0.00    -0.744 OA
ENDBRANCH  82  83
ENDBRANCH  50  75
BRANCH  62  87
ATOM     87  C   UNL A   1      48.306  27.420  29.392  1.00  0.00     0.058 A 
ATOM     88  C   UNL A   1      49.105  27.652  28.264  1.00  0.00     0.135 A 
ATOM     89  C   UNL A   1      48.930  26.945  30.557  1.00  0.00     0.135 A 
ATOM     90  F   UNL A   1      48.552  28.098  27.124  1.00  0.00    -0.206 F 
ATOM     91  C   UNL A   1      50.474  27.411  28.284  1.00  0.00     0.059 A 
ATOM     92  C   UNL A   1      50.301  26.717  30.606  1.00  0.00     0.059 A 
ATOM     93  F   UNL A   1      48.207  26.716  31.665  1.00  0.00    -0.206 F 
ATOM     94  C   UNL A   1      51.063  26.945  29.461  1.00  0.00     0.060 A 
BRANCH  94  95
ATOM     95  S   UNL A   1      52.849  26.678  29.492  1.00  0.00     0.124 S 
ATOM     96  O   UNL A   1      52.990  25.768  30.624  1.00  0.00    -0.237 OA
ATOM     97  O   UNL A   1      53.103  26.098  28.177  1.00  0.00    -0.237 OA
ATOM     98  O   UNL A   1      53.387  28.019  29.693  1.00  0.00    -0.744 OA
ENDBRANCH  94  95
ENDBRANCH  62  87
ENDBRANCH  36  37
ENDBRANCH  29  31
ENDBRANCH  28  29
ENDBRANCH  27  28
ENDBRANCH   1  27
TORSDOF 20
ENDMDL
