MODEL 1
REMARK VINA RESULT:     -11.9      0.000      0.000
REMARK SMILES O=C(OCCOC(=O)c1ccc(-c2c3nc(c(-c4c(F)cc(S(=O)(=O)[O-])cc4F)c4ccc([nH]4)c(-c4c(F)cc(S(=O)(=O)[O-])cc4F)c4nc(c(-c5c(F)cc(S(=O)(=O)[O-])cc5F)c5ccc2[nH]5)C=C4)C=C3)cc1)C1=Cc2cc(Cl)ccc2O[C@@H]1C(F)(F)F
REMARK SMILES IDX 5 1 4 2 3 3 2 4 1 5 75 6 76 7 85 8 77 9 84 10 78 11 83 12
REMARK SMILES IDX 79 13 82 14 80 15 81 16 86 17 87 18 88 19 89 20 6 21 7 22
REMARK SMILES IDX 8 23 9 24 10 25 74 26 11 27 73 28 12 29 13 30 14 31 67 32
REMARK SMILES IDX 15 33 72 34 66 35 68 36 16 37 71 38 65 39 64 40 17 42 51 43
REMARK SMILES IDX 30 44 50 45 31 46 34 47 49 48 69 49 32 50 33 51 48 53 70 54
REMARK SMILES IDX 35 55 18 56 19 57 28 58 20 59 21 60 27 61 29 62 22 63 23 64
REMARK SMILES IDX 24 65 25 66 26 67 52 68 53 69 62 70 54 71 55 72 61 73 63 74
REMARK SMILES IDX 56 75 57 76 58 77 59 78 60 79 36 80 37 81 46 82 38 83 39 84
REMARK SMILES IDX 45 85 47 86 40 87 41 88 42 89 43 90 44 91
REMARK H PARENT 68 41 34 52
REMARK Flexibility Score: inf
ROOT
ATOM      1  C   UNL A   1      39.471  20.366  26.004  1.00  0.00     0.275 C 
ENDROOT
BRANCH   1   2
ATOM      2  C   UNL A   1      41.470  19.496  25.971  1.00  0.00     0.275 C 
BRANCH   2   3
ATOM      3  O   UNL A   1      42.753  20.175  25.430  1.00  0.00    -0.459 OA
BRANCH   3   4
ATOM      4  C   UNL A   1      43.155  21.217  26.167  1.00  0.00     0.338 C 
ATOM      5  O   UNL A   1      42.797  21.579  27.256  1.00  0.00    -0.246 OA
BRANCH   4   6
ATOM      6  C   UNL A   1      43.832  21.891  25.085  1.00  0.00     0.087 C 
ATOM      7  C   UNL A   1      43.280  23.237  24.846  1.00  0.00     0.027 C 
ATOM      8  C   UNL A   1      45.621  21.511  25.706  1.00  0.00     0.316 C 
ATOM      9  C   UNL A   1      44.151  24.757  25.293  1.00  0.00     0.019 A 
ATOM     10  O   UNL A   1      46.551  23.118  26.228  1.00  0.00    -0.475 OA
ATOM     11  C   UNL A   1      43.446  25.926  25.284  1.00  0.00     0.032 A 
ATOM     12  C   UNL A   1      45.723  24.735  26.041  1.00  0.00     0.128 A 
ATOM     13  C   UNL A   1      44.093  27.002  25.914  1.00  0.00     0.041 A 
ATOM     14  C   UNL A   1      46.285  25.836  26.616  1.00  0.00     0.048 A 
ATOM     15  Cl  UNL A   1      43.194  28.486  26.015  1.00  0.00    -0.084 Cl
ATOM     16  C   UNL A   1      45.420  26.963  26.536  1.00  0.00     0.024 A 
BRANCH   8  17
ATOM     17  C   UNL A   1      45.945  20.353  24.689  1.00  0.00     0.430 C 
ATOM     18  F   UNL A   1      47.237  20.340  24.341  1.00  0.00    -0.167 F 
ATOM     19  F   UNL A   1      45.764  19.159  25.335  1.00  0.00    -0.167 F 
ATOM     20  F   UNL A   1      45.145  20.230  23.618  1.00  0.00    -0.167 F 
ENDBRANCH   8  17
ENDBRANCH   4   6
ENDBRANCH   3   4
ENDBRANCH   2   3
ENDBRANCH   1   2
BRANCH   1  21
ATOM     21  O   UNL A   1      39.100  21.972  26.453  1.00  0.00    -0.458 OA
BRANCH  21  22
ATOM     22  C   UNL A   1      38.611  23.166  25.988  1.00  0.00     0.338 C 
ATOM     23  O   UNL A   1      37.626  23.399  25.316  1.00  0.00    -0.246 OA
BRANCH  22  24
ATOM     24  C   UNL A   1      39.328  24.203  26.794  1.00  0.00     0.060 A 
ATOM     25  C   UNL A   1      40.042  25.213  26.125  1.00  0.00     0.016 A 
ATOM     26  C   UNL A   1      38.973  24.374  28.134  1.00  0.00     0.016 A 
ATOM     27  C   UNL A   1      40.218  26.466  26.741  1.00  0.00     0.010 A 
ATOM     28  C   UNL A   1      39.145  25.621  28.741  1.00  0.00     0.010 A 
ATOM     29  C   UNL A   1      39.722  26.693  28.035  1.00  0.00    -0.014 A 
BRANCH  29  30
ATOM     30  C   UNL A   1      40.087  27.927  28.780  1.00  0.00     0.031 A 
ATOM     31  C   UNL A   1      41.485  27.936  29.327  1.00  0.00     0.074 A 
ATOM     32  C   UNL A   1      39.244  28.954  29.025  1.00  0.00     0.049 A 
ATOM     33  N   UNL A   1      42.104  28.840  30.035  1.00  0.00    -0.248 NA
ATOM     34  C   UNL A   1      42.285  26.727  29.054  1.00  0.00     0.031 C 
ATOM     35  C   UNL A   1      37.854  29.058  28.580  1.00  0.00     0.029 A 
ATOM     36  N   UNL A   1      39.444  30.119  29.735  1.00  0.00    -0.354 N 
ATOM     37  C   UNL A   1      43.362  28.308  30.281  1.00  0.00     0.074 A 
ATOM     38  C   UNL A   1      43.392  26.976  29.726  1.00  0.00     0.031 C 
ATOM     39  C   UNL A   1      37.332  30.222  29.021  1.00  0.00     0.029 A 
ATOM     40  C   UNL A   1      38.343  30.949  29.788  1.00  0.00     0.049 A 
ATOM     41  H   UNL A   1      40.300  30.341  30.167  1.00  0.00     0.167 HD
ATOM     42  C   UNL A   1      44.422  28.886  30.883  1.00  0.00     0.037 A 
ATOM     43  C   UNL A   1      38.189  32.157  30.379  1.00  0.00     0.037 A 
ATOM     44  C   UNL A   1      44.385  30.198  31.455  1.00  0.00     0.049 A 
ATOM     45  C   UNL A   1      39.377  32.768  31.100  1.00  0.00     0.074 A 
ATOM     46  C   UNL A   1      45.396  30.892  32.086  1.00  0.00     0.029 A 
ATOM     47  N   UNL A   1      43.257  31.006  31.476  1.00  0.00    -0.354 N 
ATOM     48  N   UNL A   1      40.593  32.291  31.249  1.00  0.00    -0.248 NA
ATOM     49  C   UNL A   1      39.178  34.089  31.720  1.00  0.00     0.031 C 
ATOM     50  C   UNL A   1      44.867  32.105  32.535  1.00  0.00     0.029 A 
ATOM     51  C   UNL A   1      43.543  32.190  32.127  1.00  0.00     0.049 A 
ATOM     52  H   UNL A   1      42.384  30.771  31.086  1.00  0.00     0.167 HD
ATOM     53  C   UNL A   1      41.312  33.273  31.927  1.00  0.00     0.074 A 
ATOM     54  C   UNL A   1      40.395  34.370  32.162  1.00  0.00     0.031 C 
ATOM     55  C   UNL A   1      42.613  33.276  32.316  1.00  0.00     0.037 A 
BRANCH  42  56
ATOM     56  C   UNL A   1      45.677  28.067  30.954  1.00  0.00     0.058 A 
ATOM     57  C   UNL A   1      45.948  27.237  32.057  1.00  0.00     0.135 A 
ATOM     58  C   UNL A   1      46.655  28.176  29.956  1.00  0.00     0.135 A 
ATOM     59  F   UNL A   1      45.061  27.132  33.061  1.00  0.00    -0.206 F 
ATOM     60  C   UNL A   1      47.167  26.585  32.192  1.00  0.00     0.059 A 
ATOM     61  C   UNL A   1      47.869  27.504  30.053  1.00  0.00     0.059 A 
ATOM     62  F   UNL A   1      46.453  28.970  28.894  1.00  0.00    -0.206 F 
ATOM     63  C   UNL A   1      48.124  26.730  31.186  1.00  0.00     0.060 A 
BRANCH  63  64
ATOM     64  S   UNL A   1      49.711  25.898  31.385  1.00  0.00     0.124 S 
ATOM     65  O   UNL A   1      50.582  27.012  31.740  1.00  0.00    -0.237 OA
ATOM     66  O   UNL A   1      49.430  24.947  32.458  1.00  0.00    -0.237 OA
ATOM     67  O   UNL A   1      49.950  25.305  30.074  1.00  0.00    -0.744 OA
ENDBRANCH  63  64
ENDBRANCH  42  56
BRANCH  43  68
ATOM     68  C   UNL A   1      36.900  32.915  30.298  1.00  0.00     0.058 A 
ATOM     69  C   UNL A   1      36.590  33.696  29.170  1.00  0.00     0.135 A 
ATOM     70  C   UNL A   1      35.984  32.939  31.362  1.00  0.00     0.135 A 
ATOM     71  F   UNL A   1      37.437  33.736  28.130  1.00  0.00    -0.206 F 
ATOM     72  C   UNL A   1      35.442  34.486  29.108  1.00  0.00     0.059 A 
ATOM     73  C   UNL A   1      34.815  33.702  31.313  1.00  0.00     0.059 A 
ATOM     74  F   UNL A   1      36.222  32.221  32.469  1.00  0.00    -0.206 F 
ATOM     75  C   UNL A   1      34.558  34.483  30.187  1.00  0.00     0.060 A 
BRANCH  75  76
ATOM     76  S   UNL A   1      33.061  35.493  30.084  1.00  0.00     0.124 S 
ATOM     77  O   UNL A   1      32.462  35.014  28.844  1.00  0.00    -0.237 OA
ATOM     78  O   UNL A   1      32.360  35.129  31.312  1.00  0.00    -0.237 OA
ATOM     79  O   UNL A   1      33.577  36.859  30.047  1.00  0.00    -0.744 OA
ENDBRANCH  75  76
ENDBRANCH  43  68
BRANCH  55  80
ATOM     80  C   UNL A   1      43.151  34.521  32.968  1.00  0.00     0.058 A 
ATOM     81  C   UNL A   1      43.626  35.609  32.222  1.00  0.00     0.135 A 
ATOM     82  C   UNL A   1      43.103  34.654  34.367  1.00  0.00     0.135 A 
ATOM     83  F   UNL A   1      43.688  35.536  30.882  1.00  0.00    -0.206 F 
ATOM     84  C   UNL A   1      44.059  36.777  32.840  1.00  0.00     0.059 A 
ATOM     85  C   UNL A   1      43.499  35.825  35.002  1.00  0.00     0.059 A 
ATOM     86  F   UNL A   1      42.638  33.650  35.126  1.00  0.00    -0.206 F 
ATOM     87  C   UNL A   1      43.989  36.877  34.231  1.00  0.00     0.060 A 
BRANCH  87  88
ATOM     88  S   UNL A   1      44.519  38.411  35.019  1.00  0.00     0.124 S 
ATOM     89  O   UNL A   1      45.965  38.350  34.837  1.00  0.00    -0.237 OA
ATOM     90  O   UNL A   1      43.822  39.424  34.232  1.00  0.00    -0.237 OA
ATOM     91  O   UNL A   1      44.053  38.266  36.395  1.00  0.00    -0.744 OA
ENDBRANCH  87  88
ENDBRANCH  55  80
ENDBRANCH  29  30
ENDBRANCH  22  24
ENDBRANCH  21  22
ENDBRANCH   1  21
TORSDOF 15
ENDMDL
MODEL 2
REMARK VINA RESULT:     -11.8      2.862     11.925
REMARK SMILES O=C(OCCOC(=O)c1ccc(-c2c3nc(c(-c4c(F)cc(S(=O)(=O)[O-])cc4F)c4ccc([nH]4)c(-c4c(F)cc(S(=O)(=O)[O-])cc4F)c4nc(c(-c5c(F)cc(S(=O)(=O)[O-])cc5F)c5ccc2[nH]5)C=C4)C=C3)cc1)C1=Cc2cc(Cl)ccc2O[C@@H]1C(F)(F)F
REMARK SMILES IDX 5 1 4 2 3 3 2 4 1 5 75 6 76 7 85 8 77 9 84 10 78 11 83 12
REMARK SMILES IDX 79 13 82 14 80 15 81 16 86 17 87 18 88 19 89 20 6 21 7 22
REMARK SMILES IDX 8 23 9 24 10 25 74 26 11 27 73 28 12 29 13 30 14 31 67 32
REMARK SMILES IDX 15 33 72 34 66 35 68 36 16 37 71 38 65 39 64 40 17 42 51 43
REMARK SMILES IDX 30 44 50 45 31 46 34 47 49 48 69 49 32 50 33 51 48 53 70 54
REMARK SMILES IDX 35 55 18 56 19 57 28 58 20 59 21 60 27 61 29 62 22 63 23 64
REMARK SMILES IDX 24 65 25 66 26 67 52 68 53 69 62 70 54 71 55 72 61 73 63 74
REMARK SMILES IDX 56 75 57 76 58 77 59 78 60 79 36 80 37 81 46 82 38 83 39 84
REMARK SMILES IDX 45 85 47 86 40 87 41 88 42 89 43 90 44 91
REMARK H PARENT 68 41 34 52
REMARK Flexibility Score: inf
ROOT
ATOM      1  C   UNL A   1      32.985  32.846  27.492  1.00  0.00     0.275 C 
ENDROOT
BRANCH   1   2
ATOM      2  C   UNL A   1      32.994  34.619  28.762  1.00  0.00     0.275 C 
BRANCH   2   3
ATOM      3  O   UNL A   1      33.401  34.671  30.256  1.00  0.00    -0.459 OA
BRANCH   3   4
ATOM      4  C   UNL A   1      34.689  34.370  30.467  1.00  0.00     0.338 C 
ATOM      5  O   UNL A   1      35.592  34.241  29.683  1.00  0.00    -0.246 OA
BRANCH   4   6
ATOM      6  C   UNL A   1      34.499  33.922  31.825  1.00  0.00     0.087 C 
ATOM      7  C   UNL A   1      34.959  32.534  32.013  1.00  0.00     0.027 C 
ATOM      8  C   UNL A   1      35.280  35.481  32.657  1.00  0.00     0.316 C 
ATOM      9  C   UNL A   1      36.466  32.106  32.915  1.00  0.00     0.019 A 
ATOM     10  O   UNL A   1      36.913  35.050  33.587  1.00  0.00    -0.475 OA
ATOM     11  C   UNL A   1      36.944  30.832  32.797  1.00  0.00     0.032 A 
ATOM     12  C   UNL A   1      37.489  33.318  33.634  1.00  0.00     0.128 A 
ATOM     13  C   UNL A   1      38.253  30.654  33.275  1.00  0.00     0.041 A 
ATOM     14  C   UNL A   1      38.746  33.051  34.091  1.00  0.00     0.048 A 
ATOM     15  Cl  UNL A   1      38.941  29.072  33.057  1.00  0.00    -0.084 Cl
ATOM     16  C   UNL A   1      39.096  31.688  33.881  1.00  0.00     0.024 A 
BRANCH   8  17
ATOM     17  C   UNL A   1      33.932  36.171  33.094  1.00  0.00     0.430 C 
ATOM     18  F   UNL A   1      34.055  36.811  34.262  1.00  0.00    -0.167 F 
ATOM     19  F   UNL A   1      33.657  37.168  32.197  1.00  0.00    -0.167 F 
ATOM     20  F   UNL A   1      32.817  35.426  33.055  1.00  0.00    -0.167 F 
ENDBRANCH   8  17
ENDBRANCH   4   6
ENDBRANCH   3   4
ENDBRANCH   2   3
ENDBRANCH   1   2
BRANCH   1  21
ATOM     21  O   UNL A   1      34.158  31.605  27.523  1.00  0.00    -0.458 OA
BRANCH  21  22
ATOM     22  C   UNL A   1      34.368  30.288  27.845  1.00  0.00     0.338 C 
ATOM     23  O   UNL A   1      33.709  29.302  27.577  1.00  0.00    -0.246 OA
BRANCH  22  24
ATOM     24  C   UNL A   1      35.797  30.234  28.285  1.00  0.00     0.060 A 
ATOM     25  C   UNL A   1      36.101  29.705  29.552  1.00  0.00     0.016 A 
ATOM     26  C   UNL A   1      36.800  30.344  27.319  1.00  0.00     0.016 A 
ATOM     27  C   UNL A   1      37.354  29.105  29.774  1.00  0.00     0.010 A 
ATOM     28  C   UNL A   1      38.042  29.743  27.542  1.00  0.00     0.010 A 
ATOM     29  C   UNL A   1      38.314  29.074  28.750  1.00  0.00    -0.014 A 
BRANCH  29  30
ATOM     30  C   UNL A   1      39.710  28.645  29.032  1.00  0.00     0.031 A 
ATOM     31  C   UNL A   1      40.553  29.677  29.723  1.00  0.00     0.074 A 
ATOM     32  C   UNL A   1      40.239  27.459  28.660  1.00  0.00     0.049 A 
ATOM     33  N   UNL A   1      41.804  29.632  30.088  1.00  0.00    -0.248 NA
ATOM     34  C   UNL A   1      39.883  30.959  30.014  1.00  0.00     0.031 C 
ATOM     35  C   UNL A   1      39.540  26.382  27.958  1.00  0.00     0.029 A 
ATOM     36  N   UNL A   1      41.517  26.966  28.819  1.00  0.00    -0.354 N 
ATOM     37  C   UNL A   1      42.061  30.873  30.655  1.00  0.00     0.074 A 
ATOM     38  C   UNL A   1      40.872  31.677  30.509  1.00  0.00     0.031 C 
ATOM     39  C   UNL A   1      40.395  25.358  27.752  1.00  0.00     0.029 A 
ATOM     40  C   UNL A   1      41.707  25.701  28.301  1.00  0.00     0.049 A 
ATOM     41  H   UNL A   1      42.233  27.473  29.265  1.00  0.00     0.167 HD
ATOM     42  C   UNL A   1      43.177  31.303  31.280  1.00  0.00     0.037 A 
ATOM     43  C   UNL A   1      42.813  24.921  28.289  1.00  0.00     0.037 A 
ATOM     44  C   UNL A   1      44.365  30.514  31.402  1.00  0.00     0.049 A 
ATOM     45  C   UNL A   1      44.076  25.444  28.949  1.00  0.00     0.074 A 
ATOM     46  C   UNL A   1      45.556  30.839  32.018  1.00  0.00     0.029 A 
ATOM     47  N   UNL A   1      44.511  29.239  30.876  1.00  0.00    -0.354 N 
ATOM     48  N   UNL A   1      44.280  26.588  29.563  1.00  0.00    -0.248 NA
ATOM     49  C   UNL A   1      45.255  24.563  28.931  1.00  0.00     0.031 C 
ATOM     50  C   UNL A   1      46.443  29.777  31.821  1.00  0.00     0.029 A 
ATOM     51  C   UNL A   1      45.782  28.767  31.137  1.00  0.00     0.049 A 
ATOM     52  H   UNL A   1      43.813  28.744  30.388  1.00  0.00     0.167 HD
ATOM     53  C   UNL A   1      45.585  26.540  30.046  1.00  0.00     0.074 A 
ATOM     54  C   UNL A   1      46.125  25.254  29.653  1.00  0.00     0.031 C 
ATOM     55  C   UNL A   1      46.277  27.467  30.758  1.00  0.00     0.037 A 
BRANCH  42  56
ATOM     56  C   UNL A   1      43.132  32.694  31.840  1.00  0.00     0.058 A 
ATOM     57  C   UNL A   1      43.549  33.802  31.081  1.00  0.00     0.135 A 
ATOM     58  C   UNL A   1      42.755  32.912  33.172  1.00  0.00     0.135 A 
ATOM     59  F   UNL A   1      43.962  33.639  29.813  1.00  0.00    -0.206 F 
ATOM     60  C   UNL A   1      43.640  35.071  31.640  1.00  0.00     0.059 A 
ATOM     61  C   UNL A   1      42.804  34.180  33.741  1.00  0.00     0.059 A 
ATOM     62  F   UNL A   1      42.369  31.885  33.944  1.00  0.00    -0.206 F 
ATOM     63  C   UNL A   1      43.270  35.248  32.974  1.00  0.00     0.060 A 
BRANCH  63  64
ATOM     64  S   UNL A   1      43.417  36.895  33.693  1.00  0.00     0.124 S 
ATOM     65  O   UNL A   1      42.198  36.975  34.490  1.00  0.00    -0.237 OA
ATOM     66  O   UNL A   1      44.663  36.795  34.448  1.00  0.00    -0.237 OA
ATOM     67  O   UNL A   1      43.463  37.771  32.527  1.00  0.00    -0.744 OA
ENDBRANCH  63  64
ENDBRANCH  42  56
BRANCH  43  68
ATOM     68  C   UNL A   1      42.803  23.550  27.688  1.00  0.00     0.058 A 
ATOM     69  C   UNL A   1      42.978  23.365  26.304  1.00  0.00     0.135 A 
ATOM     70  C   UNL A   1      42.550  22.403  28.457  1.00  0.00     0.135 A 
ATOM     71  F   UNL A   1      43.198  24.425  25.510  1.00  0.00    -0.206 F 
ATOM     72  C   UNL A   1      42.880  22.109  25.706  1.00  0.00     0.059 A 
ATOM     73  C   UNL A   1      42.472  21.131  27.884  1.00  0.00     0.059 A 
ATOM     74  F   UNL A   1      42.368  22.510  29.781  1.00  0.00    -0.206 F 
ATOM     75  C   UNL A   1      42.625  20.995  26.505  1.00  0.00     0.060 A 
BRANCH  75  76
ATOM     76  S   UNL A   1      42.524  19.368  25.720  1.00  0.00     0.124 S 
ATOM     77  O   UNL A   1      41.125  19.320  25.312  1.00  0.00    -0.237 OA
ATOM     78  O   UNL A   1      43.499  19.488  24.640  1.00  0.00    -0.237 OA
ATOM     79  O   UNL A   1      42.898  18.452  26.794  1.00  0.00    -0.744 OA
ENDBRANCH  75  76
ENDBRANCH  43  68
BRANCH  55  80
ATOM     80  C   UNL A   1      47.662  27.108  31.224  1.00  0.00     0.058 A 
ATOM     81  C   UNL A   1      47.890  26.405  32.415  1.00  0.00     0.135 A 
ATOM     82  C   UNL A   1      48.771  27.401  30.410  1.00  0.00     0.135 A 
ATOM     83  F   UNL A   1      46.866  26.096  33.226  1.00  0.00    -0.206 F 
ATOM     84  C   UNL A   1      49.173  26.025  32.797  1.00  0.00     0.059 A 
ATOM     85  C   UNL A   1      50.056  27.001  30.756  1.00  0.00     0.059 A 
ATOM     86  F   UNL A   1      48.604  28.054  29.249  1.00  0.00    -0.206 F 
ATOM     87  C   UNL A   1      50.249  26.325  31.959  1.00  0.00     0.060 A 
BRANCH  87  88
ATOM     88  S   UNL A   1      51.903  25.795  32.448  1.00  0.00     0.124 S 
ATOM     89  O   UNL A   1      52.206  26.732  33.524  1.00  0.00    -0.237 OA
ATOM     90  O   UNL A   1      51.681  24.411  32.856  1.00  0.00    -0.237 OA
ATOM     91  O   UNL A   1      52.689  25.963  31.229  1.00  0.00    -0.744 OA
ENDBRANCH  87  88
ENDBRANCH  55  80
ENDBRANCH  29  30
ENDBRANCH  22  24
ENDBRANCH  21  22
ENDBRANCH   1  21
TORSDOF 15
ENDMDL
MODEL 3
REMARK VINA RESULT:     -11.7      4.827     10.399
REMARK SMILES O=C(OCCOC(=O)c1ccc(-c2c3nc(c(-c4c(F)cc(S(=O)(=O)[O-])cc4F)c4ccc([nH]4)c(-c4c(F)cc(S(=O)(=O)[O-])cc4F)c4nc(c(-c5c(F)cc(S(=O)(=O)[O-])cc5F)c5ccc2[nH]5)C=C4)C=C3)cc1)C1=Cc2cc(Cl)ccc2O[C@@H]1C(F)(F)F
REMARK SMILES IDX 5 1 4 2 3 3 2 4 1 5 75 6 76 7 85 8 77 9 84 10 78 11 83 12
REMARK SMILES IDX 79 13 82 14 80 15 81 16 86 17 87 18 88 19 89 20 6 21 7 22
REMARK SMILES IDX 8 23 9 24 10 25 74 26 11 27 73 28 12 29 13 30 14 31 67 32
REMARK SMILES IDX 15 33 72 34 66 35 68 36 16 37 71 38 65 39 64 40 17 42 51 43
REMARK SMILES IDX 30 44 50 45 31 46 34 47 49 48 69 49 32 50 33 51 48 53 70 54
REMARK SMILES IDX 35 55 18 56 19 57 28 58 20 59 21 60 27 61 29 62 22 63 23 64
REMARK SMILES IDX 24 65 25 66 26 67 52 68 53 69 62 70 54 71 55 72 61 73 63 74
REMARK SMILES IDX 56 75 57 76 58 77 59 78 60 79 36 80 37 81 46 82 38 83 39 84
REMARK SMILES IDX 45 85 47 86 40 87 41 88 42 89 43 90 44 91
REMARK H PARENT 68 41 34 52
REMARK Flexibility Score: inf
ROOT
ATOM      1  C   UNL A   1      39.324  22.990  26.636  1.00  0.00     0.275 C 
ENDROOT
BRANCH   1   2
ATOM      2  C   UNL A   1      38.181  21.657  25.342  1.00  0.00     0.275 C 
BRANCH   2   3
ATOM      3  O   UNL A   1      36.638  21.526  25.300  1.00  0.00    -0.459 OA
BRANCH   3   4
ATOM      4  C   UNL A   1      36.075  22.188  24.283  1.00  0.00     0.338 C 
ATOM      5  O   UNL A   1      36.548  22.551  23.238  1.00  0.00    -0.246 OA
BRANCH   4   6
ATOM      6  C   UNL A   1      34.906  22.599  25.023  1.00  0.00     0.087 C 
ATOM      7  C   UNL A   1      34.871  24.058  25.228  1.00  0.00     0.027 C 
ATOM      8  C   UNL A   1      33.641  21.588  23.969  1.00  0.00     0.316 C 
ATOM      9  C   UNL A   1      33.732  25.153  24.350  1.00  0.00     0.019 A 
ATOM     10  O   UNL A   1      32.445  22.742  22.990  1.00  0.00    -0.475 OA
ATOM     11  C   UNL A   1      33.965  26.498  24.405  1.00  0.00     0.032 A 
ATOM     12  C   UNL A   1      32.581  24.552  23.190  1.00  0.00     0.128 A 
ATOM     13  C   UNL A   1      33.231  27.255  23.477  1.00  0.00     0.041 A 
ATOM     14  C   UNL A   1      31.897  25.365  22.336  1.00  0.00     0.048 A 
ATOM     15  Cl  UNL A   1      33.566  28.960  23.442  1.00  0.00    -0.084 Cl
ATOM     16  C   UNL A   1      32.264  26.729  22.510  1.00  0.00     0.024 A 
BRANCH   8  17
ATOM     17  C   UNL A   1      33.417  20.414  24.995  1.00  0.00     0.430 C 
ATOM     18  F   UNL A   1      33.100  20.869  26.213  1.00  0.00    -0.167 F 
ATOM     19  F   UNL A   1      32.307  19.715  24.603  1.00  0.00    -0.167 F 
ATOM     20  F   UNL A   1      34.358  19.459  25.055  1.00  0.00    -0.167 F 
ENDBRANCH   8  17
ENDBRANCH   4   6
ENDBRANCH   3   4
ENDBRANCH   2   3
ENDBRANCH   1   2
BRANCH   1  21
ATOM     21  O   UNL A   1      39.593  24.653  26.350  1.00  0.00    -0.458 OA
BRANCH  21  22
ATOM     22  C   UNL A   1      40.567  25.601  26.169  1.00  0.00     0.338 C 
ATOM     23  O   UNL A   1      41.313  25.786  25.228  1.00  0.00    -0.246 OA
BRANCH  22  24
ATOM     24  C   UNL A   1      40.286  26.630  27.219  1.00  0.00     0.060 A 
ATOM     25  C   UNL A   1      39.431  26.299  28.285  1.00  0.00     0.016 A 
ATOM     26  C   UNL A   1      41.146  27.725  27.331  1.00  0.00     0.016 A 
ATOM     27  C   UNL A   1      39.587  26.942  29.528  1.00  0.00     0.010 A 
ATOM     28  C   UNL A   1      41.301  28.357  28.568  1.00  0.00     0.010 A 
ATOM     29  C   UNL A   1      40.561  27.940  29.690  1.00  0.00    -0.014 A 
BRANCH  29  30
ATOM     30  C   UNL A   1      40.593  28.775  30.919  1.00  0.00     0.031 A 
ATOM     31  C   UNL A   1      39.583  29.887  30.945  1.00  0.00     0.074 A 
ATOM     32  C   UNL A   1      41.479  28.625  31.928  1.00  0.00     0.049 A 
ATOM     33  N   UNL A   1      39.364  30.800  31.849  1.00  0.00    -0.248 NA
ATOM     34  C   UNL A   1      38.719  29.992  29.755  1.00  0.00     0.031 C 
ATOM     35  C   UNL A   1      42.528  27.608  32.014  1.00  0.00     0.029 A 
ATOM     36  N   UNL A   1      41.641  29.355  33.086  1.00  0.00    -0.354 N 
ATOM     37  C   UNL A   1      38.334  31.577  31.336  1.00  0.00     0.074 A 
ATOM     38  C   UNL A   1      38.032  31.087  30.013  1.00  0.00     0.031 C 
ATOM     39  C   UNL A   1      43.218  27.778  33.162  1.00  0.00     0.029 A 
ATOM     40  C   UNL A   1      42.669  28.917  33.896  1.00  0.00     0.049 A 
ATOM     41  H   UNL A   1      41.071  30.123  33.317  1.00  0.00     0.167 HD
ATOM     42  C   UNL A   1      37.665  32.591  31.925  1.00  0.00     0.037 A 
ATOM     43  C   UNL A   1      43.096  29.384  35.092  1.00  0.00     0.037 A 
ATOM     44  C   UNL A   1      37.982  33.093  33.227  1.00  0.00     0.049 A 
ATOM     45  C   UNL A   1      42.365  30.561  35.714  1.00  0.00     0.074 A 
ATOM     46  C   UNL A   1      37.371  34.111  33.930  1.00  0.00     0.029 A 
ATOM     47  N   UNL A   1      39.019  32.614  34.015  1.00  0.00    -0.354 N 
ATOM     48  N   UNL A   1      41.332  31.233  35.257  1.00  0.00    -0.248 NA
ATOM     49  C   UNL A   1      42.848  31.034  37.022  1.00  0.00     0.031 C 
ATOM     50  C   UNL A   1      38.072  34.283  35.128  1.00  0.00     0.029 A 
ATOM     51  C   UNL A   1      39.078  33.330  35.195  1.00  0.00     0.049 A 
ATOM     52  H   UNL A   1      39.622  31.875  33.771  1.00  0.00     0.167 HD
ATOM     53  C   UNL A   1      41.011  32.164  36.241  1.00  0.00     0.074 A 
ATOM     54  C   UNL A   1      41.960  31.972  37.318  1.00  0.00     0.031 C 
ATOM     55  C   UNL A   1      40.018  33.090  36.262  1.00  0.00     0.037 A 
BRANCH  42  56
ATOM     56  C   UNL A   1      36.555  33.208  31.127  1.00  0.00     0.058 A 
ATOM     57  C   UNL A   1      36.821  34.074  30.051  1.00  0.00     0.135 A 
ATOM     58  C   UNL A   1      35.218  33.003  31.492  1.00  0.00     0.135 A 
ATOM     59  F   UNL A   1      38.088  34.337  29.689  1.00  0.00    -0.206 F 
ATOM     60  C   UNL A   1      35.801  34.755  29.398  1.00  0.00     0.059 A 
ATOM     61  C   UNL A   1      34.178  33.647  30.829  1.00  0.00     0.059 A 
ATOM     62  F   UNL A   1      34.913  32.202  32.524  1.00  0.00    -0.206 F 
ATOM     63  C   UNL A   1      34.482  34.538  29.799  1.00  0.00     0.060 A 
BRANCH  63  64
ATOM     64  S   UNL A   1      33.170  35.446  28.960  1.00  0.00     0.124 S 
ATOM     65  O   UNL A   1      32.398  35.954  30.088  1.00  0.00    -0.237 OA
ATOM     66  O   UNL A   1      33.919  36.446  28.204  1.00  0.00    -0.237 OA
ATOM     67  O   UNL A   1      32.510  34.423  28.156  1.00  0.00    -0.744 OA
ENDBRANCH  63  64
ENDBRANCH  42  56
BRANCH  43  68
ATOM     68  C   UNL A   1      44.231  28.742  35.829  1.00  0.00     0.058 A 
ATOM     69  C   UNL A   1      43.997  27.731  36.778  1.00  0.00     0.135 A 
ATOM     70  C   UNL A   1      45.559  29.164  35.661  1.00  0.00     0.135 A 
ATOM     71  F   UNL A   1      42.746  27.300  37.003  1.00  0.00    -0.206 F 
ATOM     72  C   UNL A   1      45.025  27.182  37.545  1.00  0.00     0.059 A 
ATOM     73  C   UNL A   1      46.609  28.613  36.399  1.00  0.00     0.059 A 
ATOM     74  F   UNL A   1      45.850  30.129  34.776  1.00  0.00    -0.206 F 
ATOM     75  C   UNL A   1      46.331  27.631  37.349  1.00  0.00     0.060 A 
BRANCH  75  76
ATOM     76  S   UNL A   1      47.658  26.894  38.333  1.00  0.00     0.124 S 
ATOM     77  O   UNL A   1      48.227  28.065  38.990  1.00  0.00    -0.237 OA
ATOM     78  O   UNL A   1      46.925  25.973  39.196  1.00  0.00    -0.237 OA
ATOM     79  O   UNL A   1      48.510  26.260  37.330  1.00  0.00    -0.744 OA
ENDBRANCH  75  76
ENDBRANCH  43  68
BRANCH  55  80
ATOM     80  C   UNL A   1      39.854  33.920  37.507  1.00  0.00     0.058 A 
ATOM     81  C   UNL A   1      40.521  35.140  37.685  1.00  0.00     0.135 A 
ATOM     82  C   UNL A   1      38.938  33.520  38.497  1.00  0.00     0.135 A 
ATOM     83  F   UNL A   1      41.402  35.570  36.768  1.00  0.00    -0.206 F 
ATOM     84  C   UNL A   1      40.306  35.924  38.814  1.00  0.00     0.059 A 
ATOM     85  C   UNL A   1      38.684  34.304  39.615  1.00  0.00     0.059 A 
ATOM     86  F   UNL A   1      38.258  32.370  38.364  1.00  0.00    -0.206 F 
ATOM     87  C   UNL A   1      39.383  35.500  39.772  1.00  0.00     0.060 A 
BRANCH  87  88
ATOM     88  S   UNL A   1      39.087  36.544  41.213  1.00  0.00     0.124 S 
ATOM     89  O   UNL A   1      38.035  35.803  41.901  1.00  0.00    -0.237 OA
ATOM     90  O   UNL A   1      40.391  36.551  41.868  1.00  0.00    -0.237 OA
ATOM     91  O   UNL A   1      38.678  37.819  40.631  1.00  0.00    -0.744 OA
ENDBRANCH  87  88
ENDBRANCH  55  80
ENDBRANCH  29  30
ENDBRANCH  22  24
ENDBRANCH  21  22
ENDBRANCH   1  21
TORSDOF 15
ENDMDL
