MODEL 1
REMARK VINA RESULT:     -11.3      0.000      0.000
REMARK SMILES CC(C)[C@@H](NC(=O)c1ccc2[nH]nnc2c1)C(=O)OCCOC(=O)c1ccc(-c2c3nc(c(-c4c(F)cc(S(=O)(=O)[O-])cc4F)c4ccc([nH]4)c(-c4c(F)cc(S(=O)(=O)[O-])cc4F)c4nc(c(-c5c(F)cc(S(=O)(=O)[O-])cc5F)c5ccc2[nH]5)C=C4)C=C3)cc1
REMARK SMILES IDX 21 1 20 2 19 3 17 4 18 5 4 6 2 7 1 8 3 9 5 10 6 11 7 13 8 14
REMARK SMILES IDX 9 15 16 16 10 17 15 18 11 19 14 20 12 21 13 22 22 24 23 25
REMARK SMILES IDX 24 26 25 27 26 28 90 29 27 30 89 31 28 32 29 33 30 34 83 35
REMARK SMILES IDX 31 36 88 37 82 38 84 39 32 40 87 41 81 42 80 43 33 45 67 46
REMARK SMILES IDX 46 47 66 48 47 49 50 50 65 51 85 52 48 53 49 54 64 56 86 57
REMARK SMILES IDX 51 58 34 59 35 60 44 61 36 62 37 63 43 64 45 65 38 66 39 67
REMARK SMILES IDX 40 68 41 69 42 70 68 71 69 72 78 73 70 74 71 75 77 76 79 77
REMARK SMILES IDX 72 78 73 79 74 80 75 81 76 82 52 83 53 84 62 85 54 86 55 87
REMARK SMILES IDX 61 88 63 89 56 90 57 91 58 92 59 93 60 94
REMARK H PARENT 5 12 12 23 84 44 50 55
REMARK Flexibility Score: inf
ROOT
ATOM      1  C   UNL A   1      33.674  29.142  27.530  1.00  0.00     0.275 C 
ENDROOT
BRANCH   1   2
ATOM      2  C   UNL A   1      33.003  28.647  26.244  1.00  0.00     0.274 C 
BRANCH   2   3
ATOM      3  O   UNL A   1      33.332  27.288  25.878  1.00  0.00    -0.461 OA
BRANCH   3   4
ATOM      4  C   UNL A   1      32.298  26.409  25.927  1.00  0.00     0.329 C 
ATOM      5  O   UNL A   1      31.492  26.352  26.852  1.00  0.00    -0.250 OA
BRANCH   4   6
ATOM      6  C   UNL A   1      32.283  25.372  24.787  1.00  0.00     0.195 C 
BRANCH   6   7
ATOM      7  C   UNL A   1      31.368  25.732  23.578  1.00  0.00     0.017 C 
ATOM      8  C   UNL A   1      30.408  24.571  23.256  1.00  0.00     0.010 C 
ATOM      9  C   UNL A   1      30.510  26.983  23.783  1.00  0.00     0.010 C 
ENDBRANCH   6   7
BRANCH   6  10
ATOM     10  N   UNL A   1      33.623  24.957  24.296  1.00  0.00    -0.338 N 
ATOM     11  C   UNL A   1      34.013  23.720  23.843  1.00  0.00     0.252 C 
ATOM     12  H   UNL A   1      34.318  25.654  24.296  1.00  0.00     0.164 HD
ATOM     13  O   UNL A   1      34.730  23.607  22.857  1.00  0.00    -0.269 OA
BRANCH  11  14
ATOM     14  C   UNL A   1      33.733  22.541  24.673  1.00  0.00     0.042 A 
ATOM     15  C   UNL A   1      34.198  22.476  25.992  1.00  0.00     0.016 A 
ATOM     16  C   UNL A   1      32.989  21.502  24.092  1.00  0.00     0.046 A 
ATOM     17  C   UNL A   1      34.009  21.317  26.755  1.00  0.00     0.031 A 
ATOM     18  C   UNL A   1      32.793  20.346  24.853  1.00  0.00     0.113 A 
ATOM     19  C   UNL A   1      33.313  20.274  26.139  1.00  0.00     0.086 A 
ATOM     20  N   UNL A   1      32.177  19.164  24.540  1.00  0.00    -0.130 NA
ATOM     21  N   UNL A   1      32.991  19.004  26.528  1.00  0.00    -0.258 N 
ATOM     22  N   UNL A   1      32.312  18.342  25.574  1.00  0.00    -0.069 NA
ATOM     23  H   UNL A   1      33.227  18.620  27.403  1.00  0.00     0.192 HD
ENDBRANCH  11  14
ENDBRANCH   6  10
ENDBRANCH   4   6
ENDBRANCH   3   4
ENDBRANCH   2   3
ENDBRANCH   1   2
BRANCH   1  24
ATOM     24  O   UNL A   1      33.717  30.580  27.595  1.00  0.00    -0.458 OA
BRANCH  24  25
ATOM     25  C   UNL A   1      34.580  31.084  28.499  1.00  0.00     0.338 C 
ATOM     26  O   UNL A   1      34.364  32.001  29.291  1.00  0.00    -0.246 OA
BRANCH  25  27
ATOM     27  C   UNL A   1      35.835  30.324  28.527  1.00  0.00     0.060 A 
ATOM     28  C   UNL A   1      36.275  29.827  29.759  1.00  0.00     0.016 A 
ATOM     29  C   UNL A   1      36.654  30.253  27.400  1.00  0.00     0.016 A 
ATOM     30  C   UNL A   1      37.558  29.304  29.888  1.00  0.00     0.010 A 
ATOM     31  C   UNL A   1      37.945  29.731  27.530  1.00  0.00     0.010 A 
ATOM     32  C   UNL A   1      38.414  29.293  28.783  1.00  0.00    -0.014 A 
BRANCH  32  33
ATOM     33  C   UNL A   1      39.846  28.971  28.973  1.00  0.00     0.031 A 
ATOM     34  C   UNL A   1      40.765  30.037  29.502  1.00  0.00     0.074 A 
ATOM     35  C   UNL A   1      40.312  27.739  28.711  1.00  0.00     0.049 A 
ATOM     36  N   UNL A   1      42.065  30.022  29.629  1.00  0.00    -0.248 NA
ATOM     37  C   UNL A   1      40.130  31.289  29.950  1.00  0.00     0.031 C 
ATOM     38  C   UNL A   1      39.502  26.605  28.269  1.00  0.00     0.029 A 
ATOM     39  N   UNL A   1      41.589  27.240  28.771  1.00  0.00    -0.354 N 
ATOM     40  C   UNL A   1      42.409  31.266  30.145  1.00  0.00     0.074 A 
ATOM     41  C   UNL A   1      41.179  32.013  30.308  1.00  0.00     0.031 C 
ATOM     42  C   UNL A   1      40.306  25.543  28.079  1.00  0.00     0.029 A 
ATOM     43  C   UNL A   1      41.687  25.937  28.345  1.00  0.00     0.049 A 
ATOM     44  H   UNL A   1      42.358  27.764  29.088  1.00  0.00     0.167 HD
ATOM     45  C   UNL A   1      43.638  31.741  30.451  1.00  0.00     0.037 A 
ATOM     46  C   UNL A   1      42.776  25.165  28.157  1.00  0.00     0.037 A 
ATOM     47  C   UNL A   1      44.855  30.989  30.293  1.00  0.00     0.049 A 
ATOM     48  C   UNL A   1      44.139  25.734  28.444  1.00  0.00     0.074 A 
ATOM     49  C   UNL A   1      46.154  31.384  30.552  1.00  0.00     0.029 A 
ATOM     50  N   UNL A   1      44.916  29.681  29.838  1.00  0.00    -0.354 N 
ATOM     51  N   UNL A   1      44.457  26.928  28.887  1.00  0.00    -0.248 NA
ATOM     52  C   UNL A   1      45.291  24.857  28.196  1.00  0.00     0.031 C 
ATOM     53  C   UNL A   1      47.006  30.321  30.229  1.00  0.00     0.029 A 
ATOM     54  C   UNL A   1      46.232  29.254  29.800  1.00  0.00     0.049 A 
ATOM     55  H   UNL A   1      44.138  29.134  29.581  1.00  0.00     0.167 HD
ATOM     56  C   UNL A   1      45.843  26.941  28.984  1.00  0.00     0.074 A 
ATOM     57  C   UNL A   1      46.304  25.633  28.563  1.00  0.00     0.031 C 
ATOM     58  C   UNL A   1      46.663  27.945  29.382  1.00  0.00     0.037 A 
BRANCH  45  59
ATOM     59  C   UNL A   1      43.726  33.155  30.946  1.00  0.00     0.058 A 
ATOM     60  C   UNL A   1      43.817  34.243  30.063  1.00  0.00     0.135 A 
ATOM     61  C   UNL A   1      43.714  33.427  32.323  1.00  0.00     0.135 A 
ATOM     62  F   UNL A   1      43.855  34.036  28.737  1.00  0.00    -0.206 F 
ATOM     63  C   UNL A   1      43.916  35.550  30.530  1.00  0.00     0.059 A 
ATOM     64  C   UNL A   1      43.793  34.726  32.812  1.00  0.00     0.059 A 
ATOM     65  F   UNL A   1      43.635  32.420  33.209  1.00  0.00    -0.206 F 
ATOM     66  C   UNL A   1      43.909  35.781  31.907  1.00  0.00     0.060 A 
BRANCH  66  67
ATOM     67  S   UNL A   1      44.049  37.479  32.505  1.00  0.00     0.124 S 
ATOM     68  O   UNL A   1      43.821  38.238  31.278  1.00  0.00    -0.237 OA
ATOM     69  O   UNL A   1      42.985  37.552  33.502  1.00  0.00    -0.237 OA
ATOM     70  O   UNL A   1      45.406  37.540  33.037  1.00  0.00    -0.744 OA
ENDBRANCH  66  67
ENDBRANCH  45  59
BRANCH  46  71
ATOM     71  C   UNL A   1      42.620  23.786  27.630  1.00  0.00     0.058 A 
ATOM     72  C   UNL A   1      42.574  23.538  26.251  1.00  0.00     0.135 A 
ATOM     73  C   UNL A   1      42.531  22.687  28.498  1.00  0.00     0.135 A 
ATOM     74  F   UNL A   1      42.645  24.559  25.383  1.00  0.00    -0.206 F 
ATOM     75  C   UNL A   1      42.438  22.247  25.749  1.00  0.00     0.059 A 
ATOM     76  C   UNL A   1      42.414  21.386  28.021  1.00  0.00     0.059 A 
ATOM     77  F   UNL A   1      42.580  22.874  29.827  1.00  0.00    -0.206 F 
ATOM     78  C   UNL A   1      42.360  21.178  26.644  1.00  0.00     0.060 A 
BRANCH  78  79
ATOM     79  S   UNL A   1      42.247  19.498  25.989  1.00  0.00     0.124 S 
ATOM     80  O   UNL A   1      43.159  19.565  24.853  1.00  0.00    -0.237 OA
ATOM     81  O   UNL A   1      42.692  18.691  27.120  1.00  0.00    -0.237 OA
ATOM     82  O   UNL A   1      40.831  19.367  25.657  1.00  0.00    -0.744 OA
ENDBRANCH  78  79
ENDBRANCH  46  71
BRANCH  58  83
ATOM     83  C   UNL A   1      48.137  27.658  29.406  1.00  0.00     0.058 A 
ATOM     84  C   UNL A   1      48.752  27.092  30.531  1.00  0.00     0.135 A 
ATOM     85  C   UNL A   1      48.927  27.904  28.273  1.00  0.00     0.135 A 
ATOM     86  F   UNL A   1      48.037  26.844  31.641  1.00  0.00    -0.206 F 
ATOM     87  C   UNL A   1      50.111  26.793  30.540  1.00  0.00     0.059 A 
ATOM     88  C   UNL A   1      50.284  27.597  28.253  1.00  0.00     0.059 A 
ATOM     89  F   UNL A   1      48.380  28.436  27.169  1.00  0.00    -0.206 F 
ATOM     90  C   UNL A   1      50.868  27.050  29.395  1.00  0.00     0.060 A 
BRANCH  90  91
ATOM     91  S   UNL A   1      52.623  26.626  29.399  1.00  0.00     0.124 S 
ATOM     92  O   UNL A   1      52.714  25.764  30.572  1.00  0.00    -0.237 OA
ATOM     93  O   UNL A   1      52.793  25.962  28.110  1.00  0.00    -0.237 OA
ATOM     94  O   UNL A   1      53.283  27.923  29.518  1.00  0.00    -0.744 OA
ENDBRANCH  90  91
ENDBRANCH  58  83
ENDBRANCH  32  33
ENDBRANCH  25  27
ENDBRANCH  24  25
ENDBRANCH   1  24
TORSDOF 17
ENDMDL
MODEL 2
REMARK VINA RESULT:     -11.3      5.211     10.638
REMARK SMILES CC(C)[C@@H](NC(=O)c1ccc2[nH]nnc2c1)C(=O)OCCOC(=O)c1ccc(-c2c3nc(c(-c4c(F)cc(S(=O)(=O)[O-])cc4F)c4ccc([nH]4)c(-c4c(F)cc(S(=O)(=O)[O-])cc4F)c4nc(c(-c5c(F)cc(S(=O)(=O)[O-])cc5F)c5ccc2[nH]5)C=C4)C=C3)cc1
REMARK SMILES IDX 21 1 20 2 19 3 17 4 18 5 4 6 2 7 1 8 3 9 5 10 6 11 7 13 8 14
REMARK SMILES IDX 9 15 16 16 10 17 15 18 11 19 14 20 12 21 13 22 22 24 23 25
REMARK SMILES IDX 24 26 25 27 26 28 90 29 27 30 89 31 28 32 29 33 30 34 83 35
REMARK SMILES IDX 31 36 88 37 82 38 84 39 32 40 87 41 81 42 80 43 33 45 67 46
REMARK SMILES IDX 46 47 66 48 47 49 50 50 65 51 85 52 48 53 49 54 64 56 86 57
REMARK SMILES IDX 51 58 34 59 35 60 44 61 36 62 37 63 43 64 45 65 38 66 39 67
REMARK SMILES IDX 40 68 41 69 42 70 68 71 69 72 78 73 70 74 71 75 77 76 79 77
REMARK SMILES IDX 72 78 73 79 74 80 75 81 76 82 52 83 53 84 62 85 54 86 55 87
REMARK SMILES IDX 61 88 63 89 56 90 57 91 58 92 59 93 60 94
REMARK H PARENT 5 12 12 23 84 44 50 55
REMARK Flexibility Score: inf
ROOT
ATOM      1  C   UNL A   1      40.296  22.823  26.611  1.00  0.00     0.275 C 
ENDROOT
BRANCH   1   2
ATOM      2  C   UNL A   1      39.349  21.723  26.120  1.00  0.00     0.274 C 
BRANCH   2   3
ATOM      3  O   UNL A   1      38.010  22.174  25.812  1.00  0.00    -0.461 OA
BRANCH   3   4
ATOM      4  C   UNL A   1      37.169  21.214  25.346  1.00  0.00     0.329 C 
ATOM      5  O   UNL A   1      37.543  20.126  24.917  1.00  0.00    -0.250 OA
BRANCH   4   6
ATOM      6  C   UNL A   1      35.691  21.644  25.260  1.00  0.00     0.195 C 
BRANCH   6   7
ATOM      7  C   UNL A   1      35.370  22.687  24.148  1.00  0.00     0.017 C 
ATOM      8  C   UNL A   1      35.222  24.097  24.749  1.00  0.00     0.010 C 
ATOM      9  C   UNL A   1      36.423  22.777  23.040  1.00  0.00     0.010 C 
ENDBRANCH   6   7
BRANCH   6  10
ATOM     10  N   UNL A   1      34.714  20.526  25.196  1.00  0.00    -0.338 N 
ATOM     11  C   UNL A   1      33.540  20.468  24.484  1.00  0.00     0.252 C 
ATOM     12  H   UNL A   1      34.933  19.729  25.731  1.00  0.00     0.164 HD
ATOM     13  O   UNL A   1      33.216  19.449  23.885  1.00  0.00    -0.269 OA
BRANCH  11  14
ATOM     14  C   UNL A   1      32.575  21.567  24.618  1.00  0.00     0.042 A 
ATOM     15  C   UNL A   1      32.087  22.224  23.482  1.00  0.00     0.016 A 
ATOM     16  C   UNL A   1      32.173  21.921  25.916  1.00  0.00     0.046 A 
ATOM     17  C   UNL A   1      31.238  23.330  23.612  1.00  0.00     0.031 A 
ATOM     18  C   UNL A   1      31.319  23.019  26.048  1.00  0.00     0.113 A 
ATOM     19  C   UNL A   1      30.892  23.698  24.914  1.00  0.00     0.086 A 
ATOM     20  N   UNL A   1      30.816  23.630  27.166  1.00  0.00    -0.130 NA
ATOM     21  N   UNL A   1      30.154  24.725  25.434  1.00  0.00    -0.258 N 
ATOM     22  N   UNL A   1      30.108  24.683  26.777  1.00  0.00    -0.069 NA
ATOM     23  H   UNL A   1      29.708  25.413  24.888  1.00  0.00     0.192 HD
ENDBRANCH  11  14
ENDBRANCH   6  10
ENDBRANCH   4   6
ENDBRANCH   3   4
ENDBRANCH   2   3
ENDBRANCH   1   2
BRANCH   1  24
ATOM     24  O   UNL A   1      39.668  24.120  26.594  1.00  0.00    -0.458 OA
BRANCH  24  25
ATOM     25  C   UNL A   1      40.510  25.157  26.419  1.00  0.00     0.338 C 
ATOM     26  O   UNL A   1      41.002  25.534  25.355  1.00  0.00    -0.246 OA
BRANCH  25  27
ATOM     27  C   UNL A   1      40.709  25.905  27.666  1.00  0.00     0.060 A 
ATOM     28  C   UNL A   1      39.687  25.874  28.622  1.00  0.00     0.016 A 
ATOM     29  C   UNL A   1      41.798  26.764  27.819  1.00  0.00     0.016 A 
ATOM     30  C   UNL A   1      39.717  26.740  29.711  1.00  0.00     0.010 A 
ATOM     31  C   UNL A   1      41.827  27.636  28.912  1.00  0.00     0.010 A 
ATOM     32  C   UNL A   1      40.767  27.654  29.837  1.00  0.00    -0.014 A 
BRANCH  32  33
ATOM     33  C   UNL A   1      40.676  28.732  30.847  1.00  0.00     0.031 A 
ATOM     34  C   UNL A   1      41.626  28.716  32.013  1.00  0.00     0.074 A 
ATOM     35  C   UNL A   1      39.784  29.727  30.709  1.00  0.00     0.049 A 
ATOM     36  N   UNL A   1      41.649  29.478  33.074  1.00  0.00    -0.248 NA
ATOM     37  C   UNL A   1      42.696  27.704  31.974  1.00  0.00     0.031 C 
ATOM     38  C   UNL A   1      38.868  29.891  29.583  1.00  0.00     0.029 A 
ATOM     39  N   UNL A   1      39.500  30.787  31.533  1.00  0.00    -0.354 N 
ATOM     40  C   UNL A   1      42.715  29.024  33.842  1.00  0.00     0.074 A 
ATOM     41  C   UNL A   1      43.314  27.919  33.125  1.00  0.00     0.031 C 
ATOM     42  C   UNL A   1      38.106  30.979  29.795  1.00  0.00     0.029 A 
ATOM     43  C   UNL A   1      38.455  31.560  31.089  1.00  0.00     0.049 A 
ATOM     44  H   UNL A   1      39.997  30.975  32.361  1.00  0.00     0.167 HD
ATOM     45  C   UNL A   1      43.148  29.485  35.038  1.00  0.00     0.037 A 
ATOM     46  C   UNL A   1      37.828  32.596  31.681  1.00  0.00     0.037 A 
ATOM     47  C   UNL A   1      42.550  30.590  35.740  1.00  0.00     0.049 A 
ATOM     48  C   UNL A   1      38.287  33.054  33.038  1.00  0.00     0.074 A 
ATOM     49  C   UNL A   1      42.898  31.123  36.967  1.00  0.00     0.029 A 
ATOM     50  N   UNL A   1      41.479  31.333  35.268  1.00  0.00    -0.354 N 
ATOM     51  N   UNL A   1      39.265  32.587  33.778  1.00  0.00    -0.248 NA
ATOM     52  C   UNL A   1      37.551  34.170  33.648  1.00  0.00     0.031 C 
ATOM     53  C   UNL A   1      42.020  32.176  37.251  1.00  0.00     0.029 A 
ATOM     54  C   UNL A   1      41.146  32.316  36.184  1.00  0.00     0.049 A 
ATOM     55  H   UNL A   1      41.022  31.185  34.409  1.00  0.00     0.167 HD
ATOM     56  C   UNL A   1      39.272  33.361  34.933  1.00  0.00     0.074 A 
ATOM     57  C   UNL A   1      38.206  34.332  34.790  1.00  0.00     0.031 C 
ATOM     58  C   UNL A   1      40.083  33.275  36.015  1.00  0.00     0.037 A 
BRANCH  45  59
ATOM     59  C   UNL A   1      44.300  28.765  35.677  1.00  0.00     0.058 A 
ATOM     60  C   UNL A   1      45.630  29.137  35.431  1.00  0.00     0.135 A 
ATOM     61  C   UNL A   1      44.068  27.692  36.551  1.00  0.00     0.135 A 
ATOM     62  F   UNL A   1      45.906  30.142  34.585  1.00  0.00    -0.206 F 
ATOM     63  C   UNL A   1      46.694  28.454  36.013  1.00  0.00     0.059 A 
ATOM     64  C   UNL A   1      45.114  27.007  37.159  1.00  0.00     0.059 A 
ATOM     65  F   UNL A   1      42.813  27.294  36.814  1.00  0.00    -0.206 F 
ATOM     66  C   UNL A   1      46.425  27.386  36.871  1.00  0.00     0.060 A 
BRANCH  66  67
ATOM     67  S   UNL A   1      47.811  26.497  37.614  1.00  0.00     0.124 S 
ATOM     68  O   UNL A   1      47.759  26.979  38.991  1.00  0.00    -0.237 OA
ATOM     69  O   UNL A   1      47.433  25.100  37.417  1.00  0.00    -0.237 OA
ATOM     70  O   UNL A   1      48.959  26.947  36.834  1.00  0.00    -0.744 OA
ENDBRANCH  66  67
ENDBRANCH  45  59
BRANCH  46  71
ATOM     71  C   UNL A   1      36.672  33.241  31.009  1.00  0.00     0.058 A 
ATOM     72  C   UNL A   1      35.363  33.039  31.468  1.00  0.00     0.135 A 
ATOM     73  C   UNL A   1      36.857  34.083  29.902  1.00  0.00     0.135 A 
ATOM     74  F   UNL A   1      35.136  32.233  32.516  1.00  0.00    -0.206 F 
ATOM     75  C   UNL A   1      34.274  33.647  30.849  1.00  0.00     0.059 A 
ATOM     76  C   UNL A   1      35.788  34.718  29.279  1.00  0.00     0.059 A 
ATOM     77  F   UNL A   1      38.094  34.314  29.433  1.00  0.00    -0.206 F 
ATOM     78  C   UNL A   1      34.499  34.487  29.756  1.00  0.00     0.060 A 
BRANCH  78  79
ATOM     79  S   UNL A   1      33.091  35.324  28.995  1.00  0.00     0.124 S 
ATOM     80  O   UNL A   1      32.633  34.319  28.042  1.00  0.00    -0.237 OA
ATOM     81  O   UNL A   1      32.216  35.567  30.138  1.00  0.00    -0.237 OA
ATOM     82  O   UNL A   1      33.693  36.521  28.413  1.00  0.00    -0.744 OA
ENDBRANCH  78  79
ENDBRANCH  46  71
BRANCH  58  83
ATOM     83  C   UNL A   1      39.867  34.272  37.116  1.00  0.00     0.058 A 
ATOM     84  C   UNL A   1      39.050  33.980  38.218  1.00  0.00     0.135 A 
ATOM     85  C   UNL A   1      40.526  35.511  37.092  1.00  0.00     0.135 A 
ATOM     86  F   UNL A   1      38.395  32.810  38.282  1.00  0.00    -0.206 F 
ATOM     87  C   UNL A   1      38.880  34.891  39.255  1.00  0.00     0.059 A 
ATOM     88  C   UNL A   1      40.385  36.430  38.127  1.00  0.00     0.059 A 
ATOM     89  F   UNL A   1      41.327  35.832  36.063  1.00  0.00    -0.206 F 
ATOM     90  C   UNL A   1      39.551  36.114  39.199  1.00  0.00     0.060 A 
BRANCH  90  91
ATOM     91  S   UNL A   1      39.356  37.278  40.566  1.00  0.00     0.124 S 
ATOM     92  O   UNL A   1      38.342  38.184  40.036  1.00  0.00    -0.237 OA
ATOM     93  O   UNL A   1      38.924  36.414  41.660  1.00  0.00    -0.237 OA
ATOM     94  O   UNL A   1      40.692  37.848  40.717  1.00  0.00    -0.744 OA
ENDBRANCH  90  91
ENDBRANCH  58  83
ENDBRANCH  32  33
ENDBRANCH  25  27
ENDBRANCH  24  25
ENDBRANCH   1  24
TORSDOF 17
ENDMDL
MODEL 3
REMARK VINA RESULT:     -11.1      4.638     10.380
REMARK SMILES CC(C)[C@@H](NC(=O)c1ccc2[nH]nnc2c1)C(=O)OCCOC(=O)c1ccc(-c2c3nc(c(-c4c(F)cc(S(=O)(=O)[O-])cc4F)c4ccc([nH]4)c(-c4c(F)cc(S(=O)(=O)[O-])cc4F)c4nc(c(-c5c(F)cc(S(=O)(=O)[O-])cc5F)c5ccc2[nH]5)C=C4)C=C3)cc1
REMARK SMILES IDX 21 1 20 2 19 3 17 4 18 5 4 6 2 7 1 8 3 9 5 10 6 11 7 13 8 14
REMARK SMILES IDX 9 15 16 16 10 17 15 18 11 19 14 20 12 21 13 22 22 24 23 25
REMARK SMILES IDX 24 26 25 27 26 28 90 29 27 30 89 31 28 32 29 33 30 34 83 35
REMARK SMILES IDX 31 36 88 37 82 38 84 39 32 40 87 41 81 42 80 43 33 45 67 46
REMARK SMILES IDX 46 47 66 48 47 49 50 50 65 51 85 52 48 53 49 54 64 56 86 57
REMARK SMILES IDX 51 58 34 59 35 60 44 61 36 62 37 63 43 64 45 65 38 66 39 67
REMARK SMILES IDX 40 68 41 69 42 70 68 71 69 72 78 73 70 74 71 75 77 76 79 77
REMARK SMILES IDX 72 78 73 79 74 80 75 81 76 82 52 83 53 84 62 85 54 86 55 87
REMARK SMILES IDX 61 88 63 89 56 90 57 91 58 92 59 93 60 94
REMARK H PARENT 5 12 12 23 84 44 50 55
REMARK Flexibility Score: inf
ROOT
ATOM      1  C   UNL A   1      36.547  31.664  32.276  1.00  0.00     0.275 C 
ENDROOT
BRANCH   1   2
ATOM      2  C   UNL A   1      35.161  32.121  31.809  1.00  0.00     0.274 C 
BRANCH   2   3
ATOM      3  O   UNL A   1      34.537  33.114  32.655  1.00  0.00    -0.461 OA
BRANCH   3   4
ATOM      4  C   UNL A   1      34.833  34.404  32.347  1.00  0.00     0.329 C 
ATOM      5  O   UNL A   1      35.875  34.964  32.674  1.00  0.00    -0.250 OA
BRANCH   4   6
ATOM      6  C   UNL A   1      33.688  35.178  31.663  1.00  0.00     0.195 C 
BRANCH   6   7
ATOM      7  C   UNL A   1      32.867  36.110  32.602  1.00  0.00     0.017 C 
ATOM      8  C   UNL A   1      33.044  37.585  32.198  1.00  0.00     0.010 C 
ATOM      9  C   UNL A   1      31.363  35.825  32.622  1.00  0.00     0.010 C 
ENDBRANCH   6   7
BRANCH   6  10
ATOM     10  N   UNL A   1      34.076  35.919  30.434  1.00  0.00    -0.338 N 
ATOM     11  C   UNL A   1      33.941  35.519  29.127  1.00  0.00     0.252 C 
ATOM     12  H   UNL A   1      34.481  36.805  30.574  1.00  0.00     0.164 HD
ATOM     13  O   UNL A   1      33.562  36.302  28.264  1.00  0.00    -0.269 OA
BRANCH  11  14
ATOM     14  C   UNL A   1      34.454  34.201  28.733  1.00  0.00     0.042 A 
ATOM     15  C   UNL A   1      35.832  33.954  28.707  1.00  0.00     0.016 A 
ATOM     16  C   UNL A   1      33.514  33.216  28.389  1.00  0.00     0.046 A 
ATOM     17  C   UNL A   1      36.326  32.727  28.246  1.00  0.00     0.031 A 
ATOM     18  C   UNL A   1      34.003  31.988  27.936  1.00  0.00     0.113 A 
ATOM     19  C   UNL A   1      35.374  31.781  27.859  1.00  0.00     0.086 A 
ATOM     20  N   UNL A   1      33.344  30.878  27.477  1.00  0.00    -0.130 NA
ATOM     21  N   UNL A   1      35.464  30.528  27.319  1.00  0.00    -0.258 N 
ATOM     22  N   UNL A   1      34.252  29.990  27.092  1.00  0.00    -0.069 NA
ATOM     23  H   UNL A   1      36.315  30.074  27.120  1.00  0.00     0.192 HD
ENDBRANCH  11  14
ENDBRANCH   6  10
ENDBRANCH   4   6
ENDBRANCH   3   4
ENDBRANCH   2   3
ENDBRANCH   1   2
BRANCH   1  24
ATOM     24  O   UNL A   1      36.695  30.233  32.202  1.00  0.00    -0.458 OA
BRANCH  24  25
ATOM     25  C   UNL A   1      36.886  29.744  30.961  1.00  0.00     0.338 C 
ATOM     26  O   UNL A   1      36.019  29.321  30.196  1.00  0.00    -0.246 OA
BRANCH  25  27
ATOM     27  C   UNL A   1      38.286  29.872  30.541  1.00  0.00     0.060 A 
ATOM     28  C   UNL A   1      38.545  30.197  29.204  1.00  0.00     0.016 A 
ATOM     29  C   UNL A   1      39.326  29.505  31.396  1.00  0.00     0.016 A 
ATOM     30  C   UNL A   1      39.837  30.105  28.697  1.00  0.00     0.010 A 
ATOM     31  C   UNL A   1      40.625  29.410  30.885  1.00  0.00     0.010 A 
ATOM     32  C   UNL A   1      40.876  29.671  29.525  1.00  0.00    -0.014 A 
BRANCH  32  33
ATOM     33  C   UNL A   1      42.190  29.338  28.932  1.00  0.00     0.031 A 
ATOM     34  C   UNL A   1      42.428  27.939  28.434  1.00  0.00     0.074 A 
ATOM     35  C   UNL A   1      43.144  30.276  28.808  1.00  0.00     0.049 A 
ATOM     36  N   UNL A   1      43.531  27.391  27.998  1.00  0.00    -0.248 NA
ATOM     37  C   UNL A   1      41.263  27.037  28.428  1.00  0.00     0.031 C 
ATOM     38  C   UNL A   1      43.000  31.682  29.181  1.00  0.00     0.029 A 
ATOM     39  N   UNL A   1      44.429  30.181  28.338  1.00  0.00    -0.354 N 
ATOM     40  C   UNL A   1      43.203  26.076  27.689  1.00  0.00     0.074 A 
ATOM     41  C   UNL A   1      41.797  25.908  27.989  1.00  0.00     0.031 C 
ATOM     42  C   UNL A   1      44.161  32.317  28.944  1.00  0.00     0.029 A 
ATOM     43  C   UNL A   1      45.138  31.353  28.442  1.00  0.00     0.049 A 
ATOM     44  H   UNL A   1      44.806  29.353  27.963  1.00  0.00     0.167 HD
ATOM     45  C   UNL A   1      44.004  25.099  27.204  1.00  0.00     0.037 A 
ATOM     46  C   UNL A   1      46.439  31.606  28.195  1.00  0.00     0.037 A 
ATOM     47  C   UNL A   1      45.399  25.277  26.901  1.00  0.00     0.049 A 
ATOM     48  C   UNL A   1      47.326  30.490  27.715  1.00  0.00     0.074 A 
ATOM     49  C   UNL A   1      46.306  24.348  26.427  1.00  0.00     0.029 A 
ATOM     50  N   UNL A   1      46.086  26.474  27.041  1.00  0.00    -0.354 N 
ATOM     51  N   UNL A   1      47.017  29.238  27.471  1.00  0.00    -0.248 NA
ATOM     52  C   UNL A   1      48.741  30.816  27.487  1.00  0.00     0.031 C 
ATOM     53  C   UNL A   1      47.550  24.976  26.303  1.00  0.00     0.029 A 
ATOM     54  C   UNL A   1      47.409  26.305  26.670  1.00  0.00     0.049 A 
ATOM     55  H   UNL A   1      45.692  27.319  27.357  1.00  0.00     0.167 HD
ATOM     56  C   UNL A   1      48.194  28.631  27.049  1.00  0.00     0.074 A 
ATOM     57  C   UNL A   1      49.219  29.655  27.060  1.00  0.00     0.031 C 
ATOM     58  C   UNL A   1      48.409  27.343  26.686  1.00  0.00     0.037 A 
BRANCH  45  59
ATOM     59  C   UNL A   1      43.394  23.741  27.012  1.00  0.00     0.058 A 
ATOM     60  C   UNL A   1      43.232  22.847  28.082  1.00  0.00     0.135 A 
ATOM     61  C   UNL A   1      42.961  23.331  25.742  1.00  0.00     0.135 A 
ATOM     62  F   UNL A   1      43.651  23.182  29.313  1.00  0.00    -0.206 F 
ATOM     63  C   UNL A   1      42.683  21.582  27.894  1.00  0.00     0.059 A 
ATOM     64  C   UNL A   1      42.392  22.079  25.534  1.00  0.00     0.059 A 
ATOM     65  F   UNL A   1      43.100  24.148  24.685  1.00  0.00    -0.206 F 
ATOM     66  C   UNL A   1      42.271  21.206  26.614  1.00  0.00     0.060 A 
BRANCH  66  67
ATOM     67  S   UNL A   1      41.568  19.559  26.375  1.00  0.00     0.124 S 
ATOM     68  O   UNL A   1      40.174  19.879  26.082  1.00  0.00    -0.237 OA
ATOM     69  O   UNL A   1      42.349  19.041  25.255  1.00  0.00    -0.237 OA
ATOM     70  O   UNL A   1      41.806  18.902  27.656  1.00  0.00    -0.744 OA
ENDBRANCH  66  67
ENDBRANCH  45  59
BRANCH  46  71
ATOM     71  C   UNL A   1      46.985  32.964  28.440  1.00  0.00     0.058 A 
ATOM     72  C   UNL A   1      46.981  33.940  27.433  1.00  0.00     0.135 A 
ATOM     73  C   UNL A   1      47.510  33.317  29.693  1.00  0.00     0.135 A 
ATOM     74  F   UNL A   1      46.499  33.645  26.217  1.00  0.00    -0.206 F 
ATOM     75  C   UNL A   1      47.483  35.218  27.658  1.00  0.00     0.059 A 
ATOM     76  C   UNL A   1      48.000  34.593  29.948  1.00  0.00     0.059 A 
ATOM     77  F   UNL A   1      47.527  32.419  30.691  1.00  0.00    -0.206 F 
ATOM     78  C   UNL A   1      47.989  35.535  28.920  1.00  0.00     0.060 A 
BRANCH  78  79
ATOM     79  S   UNL A   1      48.582  37.213  29.227  1.00  0.00     0.124 S 
ATOM     80  O   UNL A   1      49.868  37.199  28.540  1.00  0.00    -0.237 OA
ATOM     81  O   UNL A   1      47.539  38.030  28.614  1.00  0.00    -0.237 OA
ATOM     82  O   UNL A   1      48.642  37.281  30.685  1.00  0.00    -0.744 OA
ENDBRANCH  78  79
ENDBRANCH  46  71
BRANCH  58  83
ATOM     83  C   UNL A   1      49.797  26.976  26.247  1.00  0.00     0.058 A 
ATOM     84  C   UNL A   1      50.701  26.357  27.123  1.00  0.00     0.135 A 
ATOM     85  C   UNL A   1      50.206  27.198  24.924  1.00  0.00     0.135 A 
ATOM     86  F   UNL A   1      50.356  26.129  28.401  1.00  0.00    -0.206 F 
ATOM     87  C   UNL A   1      51.974  25.984  26.705  1.00  0.00     0.059 A 
ATOM     88  C   UNL A   1      51.468  26.818  24.478  1.00  0.00     0.059 A 
ATOM     89  F   UNL A   1      49.371  27.779  24.046  1.00  0.00    -0.206 F 
ATOM     90  C   UNL A   1      52.348  26.220  25.380  1.00  0.00     0.060 A 
BRANCH  90  91
ATOM     91  S   UNL A   1      53.989  25.701  24.833  1.00  0.00     0.124 S 
ATOM     92  O   UNL A   1      53.911  24.255  25.006  1.00  0.00    -0.237 OA
ATOM     93  O   UNL A   1      54.027  26.173  23.452  1.00  0.00    -0.237 OA
ATOM     94  O   UNL A   1      54.886  26.398  25.750  1.00  0.00    -0.744 OA
ENDBRANCH  90  91
ENDBRANCH  58  83
ENDBRANCH  32  33
ENDBRANCH  25  27
ENDBRANCH  24  25
ENDBRANCH   1  24
TORSDOF 17
ENDMDL
