MODEL 1
REMARK VINA RESULT:     -12.7      0.000      0.000
REMARK SMILES O=C(OCCOC(=O)[C@H]1C(C(=O)Nc2ccccc2-c2ccccc2)[C@@H]2C=C[C@H]1O2)c1ccc(-c2c3nc(c(-c4c(F)cc(S(=O)(=O)[O-])cc4F)c4ccc([nH]4)c(-c4c(F)cc(S(=O)(=O)[O-])cc4F)c4nc(c(-c5c(F)cc(S(=O)(=O)[O-])cc5F)c5ccc2[nH]5)C=C4)C=C3)cc1
REMARK SMILES IDX 4 1 3 2 2 3 1 4 31 5 32 6 96 7 33 8 95 9 34 10 35 11 36 12
REMARK SMILES IDX 89 13 37 14 94 15 88 16 90 17 38 18 93 19 87 20 86 21 39 23
REMARK SMILES IDX 73 24 52 25 72 26 53 27 56 28 71 29 91 30 54 31 55 32 70 34
REMARK SMILES IDX 92 35 57 36 40 37 41 38 50 39 42 40 43 41 49 42 51 43 44 44
REMARK SMILES IDX 45 45 46 46 47 47 48 48 74 49 75 50 84 51 76 52 77 53 83 54
REMARK SMILES IDX 85 55 78 56 79 57 80 58 81 59 82 60 58 61 59 62 68 63 60 64
REMARK SMILES IDX 61 65 67 66 69 67 62 68 63 69 64 70 65 71 66 72 5 73 6 74
REMARK SMILES IDX 7 75 8 76 9 77 10 78 29 79 26 80 28 81 30 82 27 83 11 84
REMARK SMILES IDX 12 85 13 86 14 88 15 89 19 90 16 91 18 92 17 93 20 94 21 95
REMARK SMILES IDX 25 96 22 97 24 98 23 99
REMARK H PARENT 90 22 56 33 13 87
REMARK Flexibility Score: inf
ROOT
ATOM      1  C   UNL A   1      47.099  39.538  27.082  1.00  0.00     0.275 C 
ENDROOT
BRANCH   1   2
ATOM      2  O   UNL A   1      47.469  38.367  27.848  1.00  0.00    -0.458 OA
BRANCH   2   3
ATOM      3  C   UNL A   1      46.757  38.066  28.969  1.00  0.00     0.338 C 
ATOM      4  O   UNL A   1      46.334  38.964  29.662  1.00  0.00    -0.246 OA
BRANCH   3   5
ATOM      5  C   UNL A   1      46.695  36.492  29.051  1.00  0.00     0.060 A 
ATOM      6  C   UNL A   1      45.140  36.096  28.199  1.00  0.00     0.016 A 
ATOM      7  C   UNL A   1      47.400  35.086  30.145  1.00  0.00     0.016 A 
ATOM      8  C   UNL A   1      44.404  34.583  28.224  1.00  0.00     0.010 A 
ATOM      9  C   UNL A   1      46.436  33.538  30.203  1.00  0.00     0.010 A 
ATOM     10  C   UNL A   1      44.984  33.328  29.176  1.00  0.00    -0.014 A 
BRANCH  10  11
ATOM     11  C   UNL A   1      44.348  31.994  28.806  1.00  0.00     0.031 A 
ATOM     12  C   UNL A   1      43.049  31.617  29.392  1.00  0.00     0.074 A 
ATOM     13  C   UNL A   1      44.683  31.204  27.738  1.00  0.00     0.049 A 
ATOM     14  N   UNL A   1      42.505  30.437  29.408  1.00  0.00    -0.248 NA
ATOM     15  C   UNL A   1      42.223  32.702  29.925  1.00  0.00     0.031 C 
ATOM     16  C   UNL A   1      45.484  31.528  26.565  1.00  0.00     0.029 A 
ATOM     17  N   UNL A   1      44.737  29.820  27.719  1.00  0.00    -0.354 N 
ATOM     18  C   UNL A   1      41.222  30.647  29.858  1.00  0.00     0.074 A 
ATOM     19  C   UNL A   1      41.132  32.033  30.269  1.00  0.00     0.031 C 
ATOM     20  C   UNL A   1      46.281  30.482  26.252  1.00  0.00     0.029 A 
ATOM     21  C   UNL A   1      45.875  29.355  27.054  1.00  0.00     0.049 A 
ATOM     22  H   UNL A   1      44.058  29.234  28.125  1.00  0.00     0.167 HD
ATOM     23  C   UNL A   1      40.202  29.764  29.811  1.00  0.00     0.037 A 
ATOM     24  C   UNL A   1      46.499  28.161  27.138  1.00  0.00     0.037 A 
ATOM     25  C   UNL A   1      40.369  28.402  29.379  1.00  0.00     0.049 A 
ATOM     26  C   UNL A   1      45.569  27.063  27.551  1.00  0.00     0.074 A 
ATOM     27  C   UNL A   1      39.448  27.376  29.353  1.00  0.00     0.029 A 
ATOM     28  N   UNL A   1      41.571  27.877  28.904  1.00  0.00    -0.354 N 
ATOM     29  N   UNL A   1      44.368  27.194  28.063  1.00  0.00    -0.248 NA
ATOM     30  C   UNL A   1      45.944  25.685  27.225  1.00  0.00     0.031 C 
ATOM     31  C   UNL A   1      40.113  26.214  28.938  1.00  0.00     0.029 A 
ATOM     32  C   UNL A   1      41.435  26.526  28.644  1.00  0.00     0.049 A 
ATOM     33  H   UNL A   1      42.397  28.394  28.771  1.00  0.00     0.167 HD
ATOM     34  C   UNL A   1      43.774  25.956  27.953  1.00  0.00     0.074 A 
ATOM     35  C   UNL A   1      44.797  25.053  27.452  1.00  0.00     0.031 C 
ATOM     36  C   UNL A   1      42.475  25.641  28.160  1.00  0.00     0.037 A 
BRANCH  23  37
ATOM     37  C   UNL A   1      38.891  30.299  30.283  1.00  0.00     0.058 A 
ATOM     38  C   UNL A   1      37.972  30.870  29.382  1.00  0.00     0.135 A 
ATOM     39  C   UNL A   1      38.657  30.452  31.654  1.00  0.00     0.135 A 
ATOM     40  F   UNL A   1      38.181  30.786  28.058  1.00  0.00    -0.206 F 
ATOM     41  C   UNL A   1      36.916  31.654  29.830  1.00  0.00     0.059 A 
ATOM     42  C   UNL A   1      37.588  31.206  32.124  1.00  0.00     0.059 A 
ATOM     43  F   UNL A   1      39.515  29.938  32.549  1.00  0.00    -0.206 F 
ATOM     44  C   UNL A   1      36.749  31.836  31.204  1.00  0.00     0.060 A 
BRANCH  44  45
ATOM     45  S   UNL A   1      35.455  32.957  31.772  1.00  0.00     0.124 S 
ATOM     46  O   UNL A   1      35.247  32.491  33.140  1.00  0.00    -0.237 OA
ATOM     47  O   UNL A   1      36.091  34.263  31.638  1.00  0.00    -0.237 OA
ATOM     48  O   UNL A   1      34.356  32.699  30.848  1.00  0.00    -0.744 OA
ENDBRANCH  44  45
ENDBRANCH  23  37
BRANCH  24  49
ATOM     49  C   UNL A   1      47.901  27.882  26.688  1.00  0.00     0.058 A 
ATOM     50  C   UNL A   1      48.237  27.588  25.358  1.00  0.00     0.135 A 
ATOM     51  C   UNL A   1      48.950  27.815  27.629  1.00  0.00     0.135 A 
ATOM     52  F   UNL A   1      47.285  27.599  24.414  1.00  0.00    -0.206 F 
ATOM     53  C   UNL A   1      49.538  27.233  24.978  1.00  0.00     0.059 A 
ATOM     54  C   UNL A   1      50.261  27.468  27.273  1.00  0.00     0.059 A 
ATOM     55  F   UNL A   1      48.701  28.058  28.926  1.00  0.00    -0.206 F 
ATOM     56  C   UNL A   1      50.546  27.176  25.942  1.00  0.00     0.060 A 
BRANCH  56  57
ATOM     57  S   UNL A   1      52.228  26.733  25.424  1.00  0.00     0.124 S 
ATOM     58  O   UNL A   1      53.039  27.332  26.479  1.00  0.00    -0.237 OA
ATOM     59  O   UNL A   1      52.171  25.275  25.417  1.00  0.00    -0.237 OA
ATOM     60  O   UNL A   1      52.356  27.353  24.108  1.00  0.00    -0.744 OA
ENDBRANCH  56  57
ENDBRANCH  24  49
BRANCH  36  61
ATOM     61  C   UNL A   1      42.056  24.247  27.827  1.00  0.00     0.058 A 
ATOM     62  C   UNL A   1      41.490  23.942  26.584  1.00  0.00     0.135 A 
ATOM     63  C   UNL A   1      42.390  23.194  28.693  1.00  0.00     0.135 A 
ATOM     64  F   UNL A   1      41.134  24.924  25.741  1.00  0.00    -0.206 F 
ATOM     65  C   UNL A   1      41.310  22.626  26.187  1.00  0.00     0.059 A 
ATOM     66  C   UNL A   1      42.245  21.870  28.304  1.00  0.00     0.059 A 
ATOM     67  F   UNL A   1      42.926  23.449  29.898  1.00  0.00    -0.206 F 
ATOM     68  C   UNL A   1      41.720  21.599  27.042  1.00  0.00     0.060 A 
BRANCH  68  69
ATOM     69  S   UNL A   1      41.644  19.903  26.435  1.00  0.00     0.124 S 
ATOM     70  O   UNL A   1      40.255  19.808  25.999  1.00  0.00    -0.237 OA
ATOM     71  O   UNL A   1      42.645  19.911  25.373  1.00  0.00    -0.237 OA
ATOM     72  O   UNL A   1      41.992  19.107  27.609  1.00  0.00    -0.744 OA
ENDBRANCH  68  69
ENDBRANCH  36  61
ENDBRANCH  10  11
ENDBRANCH   3   5
ENDBRANCH   2   3
ENDBRANCH   1   2
BRANCH   1  73
ATOM     73  C   UNL A   1      45.885  39.385  26.122  1.00  0.00     0.274 C 
BRANCH  73  74
ATOM     74  O   UNL A   1      45.779  40.487  25.182  1.00  0.00    -0.462 OA
BRANCH  74  75
ATOM     75  C   UNL A   1      44.806  41.401  25.393  1.00  0.00     0.312 C 
ATOM     76  O   UNL A   1      44.038  41.300  26.348  1.00  0.00    -0.252 OA
BRANCH  75  77
ATOM     77  C   UNL A   1      44.848  42.684  24.543  1.00  0.00     0.147 C 
ATOM     78  C   UNL A   1      43.651  43.675  23.631  1.00  0.00     0.129 C 
ATOM     79  C   UNL A   1      45.927  43.719  24.966  1.00  0.00     0.157 C 
ATOM     80  C   UNL A   1      44.527  45.096  23.969  1.00  0.00     0.155 C 
ATOM     81  C   UNL A   1      46.677  44.437  23.866  1.00  0.00     0.004 C 
ATOM     82  O   UNL A   1      45.055  44.785  25.279  1.00  0.00    -0.365 OA
ATOM     83  C   UNL A   1      45.823  45.232  23.219  1.00  0.00     0.004 C 
BRANCH  78  84
ATOM     84  C   UNL A   1      41.793  43.249  22.544  1.00  0.00     0.231 C 
ATOM     85  O   UNL A   1      40.645  42.825  22.871  1.00  0.00    -0.274 OA
ATOM     86  N   UNL A   1      41.668  43.413  20.808  1.00  0.00    -0.325 N 
ATOM     87  H   UNL A   1      40.793  43.101  20.480  1.00  0.00     0.169 HD
BRANCH  86  88
ATOM     88  C   UNL A   1      42.633  43.957  19.549  1.00  0.00     0.049 A 
ATOM     89  C   UNL A   1      41.817  44.512  18.538  1.00  0.00     0.027 A 
ATOM     90  C   UNL A   1      44.145  44.020  19.246  1.00  0.00     0.005 A 
ATOM     91  C   UNL A   1      42.338  45.097  17.361  1.00  0.00     0.002 A 
ATOM     92  C   UNL A   1      44.572  44.626  18.030  1.00  0.00     0.011 A 
ATOM     93  C   UNL A   1      43.698  45.157  17.109  1.00  0.00     0.001 A 
BRANCH  90  94
ATOM     94  C   UNL A   1      45.469  43.579  19.942  1.00  0.00    -0.016 A 
ATOM     95  C   UNL A   1      46.724  44.066  19.507  1.00  0.00     0.009 A 
ATOM     96  C   UNL A   1      45.561  42.415  20.751  1.00  0.00     0.009 A 
ATOM     97  C   UNL A   1      47.947  43.504  19.939  1.00  0.00     0.001 A 
ATOM     98  C   UNL A   1      46.772  41.898  21.251  1.00  0.00     0.001 A 
ATOM     99  C   UNL A   1      47.971  42.450  20.848  1.00  0.00     0.000 A 
ENDBRANCH  90  94
ENDBRANCH  86  88
ENDBRANCH  78  84
ENDBRANCH  75  77
ENDBRANCH  74  75
ENDBRANCH  73  74
ENDBRANCH   1  73
TORSDOF 17
ENDMDL
MODEL 2
REMARK VINA RESULT:     -12.5      9.435     20.532
REMARK SMILES O=C(OCCOC(=O)[C@H]1C(C(=O)Nc2ccccc2-c2ccccc2)[C@@H]2C=C[C@H]1O2)c1ccc(-c2c3nc(c(-c4c(F)cc(S(=O)(=O)[O-])cc4F)c4ccc([nH]4)c(-c4c(F)cc(S(=O)(=O)[O-])cc4F)c4nc(c(-c5c(F)cc(S(=O)(=O)[O-])cc5F)c5ccc2[nH]5)C=C4)C=C3)cc1
REMARK SMILES IDX 4 1 3 2 2 3 1 4 31 5 32 6 96 7 33 8 95 9 34 10 35 11 36 12
REMARK SMILES IDX 89 13 37 14 94 15 88 16 90 17 38 18 93 19 87 20 86 21 39 23
REMARK SMILES IDX 73 24 52 25 72 26 53 27 56 28 71 29 91 30 54 31 55 32 70 34
REMARK SMILES IDX 92 35 57 36 40 37 41 38 50 39 42 40 43 41 49 42 51 43 44 44
REMARK SMILES IDX 45 45 46 46 47 47 48 48 74 49 75 50 84 51 76 52 77 53 83 54
REMARK SMILES IDX 85 55 78 56 79 57 80 58 81 59 82 60 58 61 59 62 68 63 60 64
REMARK SMILES IDX 61 65 67 66 69 67 62 68 63 69 64 70 65 71 66 72 5 73 6 74
REMARK SMILES IDX 7 75 8 76 9 77 10 78 29 79 26 80 28 81 30 82 27 83 11 84
REMARK SMILES IDX 12 85 13 86 14 88 15 89 19 90 16 91 18 92 17 93 20 94 21 95
REMARK SMILES IDX 25 96 22 97 24 98 23 99
REMARK H PARENT 90 22 56 33 13 87
REMARK Flexibility Score: inf
ROOT
ATOM      1  C   UNL A   1      47.470  24.565  39.559  1.00  0.00     0.275 C 
ENDROOT
BRANCH   1   2
ATOM      2  O   UNL A   1      47.498  25.750  38.728  1.00  0.00    -0.458 OA
BRANCH   2   3
ATOM      3  C   UNL A   1      47.645  25.602  37.382  1.00  0.00     0.338 C 
ATOM      4  O   UNL A   1      48.368  24.730  36.957  1.00  0.00    -0.246 OA
BRANCH   3   5
ATOM      5  C   UNL A   1      46.760  26.720  36.709  1.00  0.00     0.060 A 
ATOM      6  C   UNL A   1      45.339  25.788  36.065  1.00  0.00     0.016 A 
ATOM      7  C   UNL A   1      46.984  28.471  35.963  1.00  0.00     0.016 A 
ATOM      8  C   UNL A   1      44.200  26.414  34.997  1.00  0.00     0.010 A 
ATOM      9  C   UNL A   1      45.763  28.984  34.708  1.00  0.00     0.010 A 
ATOM     10  C   UNL A   1      44.365  27.939  34.314  1.00  0.00    -0.014 A 
BRANCH  10  11
ATOM     11  C   UNL A   1      43.081  28.397  33.633  1.00  0.00     0.031 A 
ATOM     12  C   UNL A   1      42.834  28.041  32.224  1.00  0.00     0.074 A 
ATOM     13  C   UNL A   1      41.950  28.854  34.257  1.00  0.00     0.049 A 
ATOM     14  N   UNL A   1      41.954  28.562  31.422  1.00  0.00    -0.248 NA
ATOM     15  C   UNL A   1      43.584  26.904  31.687  1.00  0.00     0.031 C 
ATOM     16  C   UNL A   1      41.569  28.763  35.660  1.00  0.00     0.029 A 
ATOM     17  N   UNL A   1      41.129  29.884  33.828  1.00  0.00    -0.354 N 
ATOM     18  C   UNL A   1      41.965  27.751  30.312  1.00  0.00     0.074 A 
ATOM     19  C   UNL A   1      43.060  26.815  30.473  1.00  0.00     0.031 C 
ATOM     20  C   UNL A   1      40.992  29.920  36.054  1.00  0.00     0.029 A 
ATOM     21  C   UNL A   1      40.760  30.726  34.881  1.00  0.00     0.049 A 
ATOM     22  H   UNL A   1      40.840  30.009  32.895  1.00  0.00     0.167 HD
ATOM     23  C   UNL A   1      41.053  27.742  29.317  1.00  0.00     0.037 A 
ATOM     24  C   UNL A   1      40.323  32.003  34.856  1.00  0.00     0.037 A 
ATOM     25  C   UNL A   1      39.985  28.701  29.231  1.00  0.00     0.049 A 
ATOM     26  C   UNL A   1      39.646  32.345  33.565  1.00  0.00     0.074 A 
ATOM     27  C   UNL A   1      39.037  28.865  28.243  1.00  0.00     0.029 A 
ATOM     28  N   UNL A   1      39.739  29.683  30.191  1.00  0.00    -0.354 N 
ATOM     29  N   UNL A   1      39.684  31.659  32.447  1.00  0.00    -0.248 NA
ATOM     30  C   UNL A   1      38.716  33.477  33.555  1.00  0.00     0.031 C 
ATOM     31  C   UNL A   1      38.270  29.992  28.566  1.00  0.00     0.029 A 
ATOM     32  C   UNL A   1      38.698  30.499  29.788  1.00  0.00     0.049 A 
ATOM     33  H   UNL A   1      40.236  29.782  31.034  1.00  0.00     0.167 HD
ATOM     34  C   UNL A   1      38.661  32.154  31.668  1.00  0.00     0.074 A 
ATOM     35  C   UNL A   1      38.110  33.290  32.387  1.00  0.00     0.031 C 
ATOM     36  C   UNL A   1      38.176  31.638  30.515  1.00  0.00     0.037 A 
BRANCH  23  37
ATOM     37  C   UNL A   1      41.264  26.684  28.285  1.00  0.00     0.058 A 
ATOM     38  C   UNL A   1      40.535  25.480  28.319  1.00  0.00     0.135 A 
ATOM     39  C   UNL A   1      42.352  26.775  27.410  1.00  0.00     0.135 A 
ATOM     40  F   UNL A   1      39.511  25.333  29.176  1.00  0.00    -0.206 F 
ATOM     41  C   UNL A   1      40.938  24.373  27.585  1.00  0.00     0.059 A 
ATOM     42  C   UNL A   1      42.754  25.688  26.643  1.00  0.00     0.059 A 
ATOM     43  F   UNL A   1      43.085  27.898  27.356  1.00  0.00    -0.206 F 
ATOM     44  C   UNL A   1      42.065  24.481  26.769  1.00  0.00     0.060 A 
BRANCH  44  45
ATOM     45  S   UNL A   1      42.657  23.005  25.918  1.00  0.00     0.124 S 
ATOM     46  O   UNL A   1      43.607  22.469  26.889  1.00  0.00    -0.237 OA
ATOM     47  O   UNL A   1      41.432  22.234  25.739  1.00  0.00    -0.237 OA
ATOM     48  O   UNL A   1      43.247  23.536  24.692  1.00  0.00    -0.744 OA
ENDBRANCH  44  45
ENDBRANCH  23  37
BRANCH  24  49
ATOM     49  C   UNL A   1      40.312  32.938  36.026  1.00  0.00     0.058 A 
ATOM     50  C   UNL A   1      39.243  33.026  36.930  1.00  0.00     0.135 A 
ATOM     51  C   UNL A   1      41.368  33.855  36.214  1.00  0.00     0.135 A 
ATOM     52  F   UNL A   1      38.188  32.209  36.793  1.00  0.00    -0.206 F 
ATOM     53  C   UNL A   1      39.211  33.977  37.959  1.00  0.00     0.059 A 
ATOM     54  C   UNL A   1      41.363  34.811  37.238  1.00  0.00     0.059 A 
ATOM     55  F   UNL A   1      42.415  33.850  35.373  1.00  0.00    -0.206 F 
ATOM     56  C   UNL A   1      40.276  34.867  38.107  1.00  0.00     0.060 A 
BRANCH  56  57
ATOM     57  S   UNL A   1      40.223  36.078  39.458  1.00  0.00     0.124 S 
ATOM     58  O   UNL A   1      38.959  36.762  39.204  1.00  0.00    -0.237 OA
ATOM     59  O   UNL A   1      40.256  35.220  40.638  1.00  0.00    -0.237 OA
ATOM     60  O   UNL A   1      41.423  36.883  39.245  1.00  0.00    -0.744 OA
ENDBRANCH  56  57
ENDBRANCH  24  49
BRANCH  36  61
ATOM     61  C   UNL A   1      36.958  32.286  29.944  1.00  0.00     0.058 A 
ATOM     62  C   UNL A   1      35.682  31.971  30.423  1.00  0.00     0.135 A 
ATOM     63  C   UNL A   1      37.095  33.352  29.040  1.00  0.00     0.135 A 
ATOM     64  F   UNL A   1      35.509  30.942  31.267  1.00  0.00    -0.206 F 
ATOM     65  C   UNL A   1      34.578  32.726  30.058  1.00  0.00     0.059 A 
ATOM     66  C   UNL A   1      36.010  34.138  28.685  1.00  0.00     0.059 A 
ATOM     67  F   UNL A   1      38.304  33.677  28.551  1.00  0.00    -0.206 F 
ATOM     68  C   UNL A   1      34.758  33.826  29.214  1.00  0.00     0.060 A 
BRANCH  68  69
ATOM     69  S   UNL A   1      33.345  34.899  28.898  1.00  0.00     0.124 S 
ATOM     70  O   UNL A   1      32.720  34.959  30.215  1.00  0.00    -0.237 OA
ATOM     71  O   UNL A   1      33.988  36.128  28.443  1.00  0.00    -0.237 OA
ATOM     72  O   UNL A   1      32.593  34.178  27.875  1.00  0.00    -0.744 OA
ENDBRANCH  68  69
ENDBRANCH  36  61
ENDBRANCH  10  11
ENDBRANCH   3   5
ENDBRANCH   2   3
ENDBRANCH   1   2
BRANCH   1  73
ATOM     73  C   UNL A   1      46.138  23.764  39.582  1.00  0.00     0.274 C 
BRANCH  73  74
ATOM     74  O   UNL A   1      46.267  22.495  40.276  1.00  0.00    -0.462 OA
BRANCH  74  75
ATOM     75  C   UNL A   1      46.161  21.365  39.541  1.00  0.00     0.312 C 
ATOM     76  O   UNL A   1      45.869  21.409  38.348  1.00  0.00    -0.252 OA
BRANCH  75  77
ATOM     77  C   UNL A   1      46.648  20.055  40.188  1.00  0.00     0.147 C 
ATOM     78  C   UNL A   1      45.928  18.784  41.243  1.00  0.00     0.129 C 
ATOM     79  C   UNL A   1      47.731  19.286  39.382  1.00  0.00     0.157 C 
ATOM     80  C   UNL A   1      46.907  17.591  40.522  1.00  0.00     0.155 C 
ATOM     81  C   UNL A   1      48.862  18.649  40.160  1.00  0.00     0.004 C 
ATOM     82  O   UNL A   1      47.001  18.096  39.170  1.00  0.00    -0.365 OA
ATOM     83  C   UNL A   1      48.362  17.656  40.898  1.00  0.00     0.004 C 
BRANCH  78  84
ATOM     84  C   UNL A   1      44.391  18.755  42.808  1.00  0.00     0.231 C 
ATOM     85  O   UNL A   1      43.472  19.549  43.170  1.00  0.00    -0.274 OA
ATOM     86  N   UNL A   1      44.264  17.455  43.969  1.00  0.00    -0.325 N 
ATOM     87  H   UNL A   1      43.576  17.645  44.648  1.00  0.00     0.169 HD
BRANCH  86  88
ATOM     88  C   UNL A   1      44.995  15.970  44.242  1.00  0.00     0.049 A 
ATOM     89  C   UNL A   1      46.314  16.175  44.705  1.00  0.00     0.027 A 
ATOM     90  C   UNL A   1      44.585  14.487  44.137  1.00  0.00     0.005 A 
ATOM     91  C   UNL A   1      47.178  15.115  45.065  1.00  0.00     0.002 A 
ATOM     92  C   UNL A   1      45.527  13.491  44.520  1.00  0.00     0.011 A 
ATOM     93  C   UNL A   1      46.790  13.788  44.978  1.00  0.00     0.001 A 
BRANCH  90  94
ATOM     94  C   UNL A   1      43.325  13.677  43.698  1.00  0.00    -0.016 A 
ATOM     95  C   UNL A   1      42.028  14.234  43.788  1.00  0.00     0.009 A 
ATOM     96  C   UNL A   1      43.329  12.263  43.566  1.00  0.00     0.009 A 
ATOM     97  C   UNL A   1      40.857  13.456  43.643  1.00  0.00     0.001 A 
ATOM     98  C   UNL A   1      42.172  11.491  43.339  1.00  0.00     0.001 A 
ATOM     99  C   UNL A   1      40.930  12.093  43.371  1.00  0.00     0.000 A 
ENDBRANCH  90  94
ENDBRANCH  86  88
ENDBRANCH  78  84
ENDBRANCH  75  77
ENDBRANCH  74  75
ENDBRANCH  73  74
ENDBRANCH   1  73
TORSDOF 17
ENDMDL
MODEL 3
REMARK VINA RESULT:     -12.5      1.271      2.237
REMARK SMILES O=C(OCCOC(=O)[C@H]1C(C(=O)Nc2ccccc2-c2ccccc2)[C@@H]2C=C[C@H]1O2)c1ccc(-c2c3nc(c(-c4c(F)cc(S(=O)(=O)[O-])cc4F)c4ccc([nH]4)c(-c4c(F)cc(S(=O)(=O)[O-])cc4F)c4nc(c(-c5c(F)cc(S(=O)(=O)[O-])cc5F)c5ccc2[nH]5)C=C4)C=C3)cc1
REMARK SMILES IDX 4 1 3 2 2 3 1 4 31 5 32 6 96 7 33 8 95 9 34 10 35 11 36 12
REMARK SMILES IDX 89 13 37 14 94 15 88 16 90 17 38 18 93 19 87 20 86 21 39 23
REMARK SMILES IDX 73 24 52 25 72 26 53 27 56 28 71 29 91 30 54 31 55 32 70 34
REMARK SMILES IDX 92 35 57 36 40 37 41 38 50 39 42 40 43 41 49 42 51 43 44 44
REMARK SMILES IDX 45 45 46 46 47 47 48 48 74 49 75 50 84 51 76 52 77 53 83 54
REMARK SMILES IDX 85 55 78 56 79 57 80 58 81 59 82 60 58 61 59 62 68 63 60 64
REMARK SMILES IDX 61 65 67 66 69 67 62 68 63 69 64 70 65 71 66 72 5 73 6 74
REMARK SMILES IDX 7 75 8 76 9 77 10 78 29 79 26 80 28 81 30 82 27 83 11 84
REMARK SMILES IDX 12 85 13 86 14 88 15 89 19 90 16 91 18 92 17 93 20 94 21 95
REMARK SMILES IDX 25 96 22 97 24 98 23 99
REMARK H PARENT 90 22 56 33 13 87
REMARK Flexibility Score: inf
ROOT
ATOM      1  C   UNL A   1      47.274  39.663  27.694  1.00  0.00     0.275 C 
ENDROOT
BRANCH   1   2
ATOM      2  O   UNL A   1      46.726  38.360  28.004  1.00  0.00    -0.458 OA
BRANCH   2   3
ATOM      3  C   UNL A   1      46.561  38.012  29.310  1.00  0.00     0.338 C 
ATOM      4  O   UNL A   1      46.488  38.880  30.150  1.00  0.00    -0.246 OA
BRANCH   3   5
ATOM      5  C   UNL A   1      46.522  36.436  29.353  1.00  0.00     0.060 A 
ATOM      6  C   UNL A   1      44.986  36.037  28.469  1.00  0.00     0.016 A 
ATOM      7  C   UNL A   1      47.233  35.014  30.422  1.00  0.00     0.016 A 
ATOM      8  C   UNL A   1      44.273  34.514  28.447  1.00  0.00     0.010 A 
ATOM      9  C   UNL A   1      46.292  33.450  30.429  1.00  0.00     0.010 A 
ATOM     10  C   UNL A   1      44.859  33.244  29.376  1.00  0.00    -0.014 A 
BRANCH  10  11
ATOM     11  C   UNL A   1      44.248  31.911  28.964  1.00  0.00     0.031 A 
ATOM     12  C   UNL A   1      42.908  31.539  29.453  1.00  0.00     0.074 A 
ATOM     13  C   UNL A   1      44.660  31.115  27.927  1.00  0.00     0.049 A 
ATOM     14  N   UNL A   1      42.361  30.361  29.433  1.00  0.00    -0.248 NA
ATOM     15  C   UNL A   1      42.047  32.628  29.919  1.00  0.00     0.031 C 
ATOM     16  C   UNL A   1      45.548  31.432  26.817  1.00  0.00     0.029 A 
ATOM     17  N   UNL A   1      44.711  29.731  27.918  1.00  0.00    -0.354 N 
ATOM     18  C   UNL A   1      41.049  30.575  29.785  1.00  0.00     0.074 A 
ATOM     19  C   UNL A   1      40.931  31.963  30.183  1.00  0.00     0.031 C 
ATOM     20  C   UNL A   1      46.363  30.383  26.569  1.00  0.00     0.029 A 
ATOM     21  C   UNL A   1      45.894  29.261  27.342  1.00  0.00     0.049 A 
ATOM     22  H   UNL A   1      44.002  29.148  28.275  1.00  0.00     0.167 HD
ATOM     23  C   UNL A   1      40.032  29.694  29.664  1.00  0.00     0.037 A 
ATOM     24  C   UNL A   1      46.507  28.065  27.477  1.00  0.00     0.037 A 
ATOM     25  C   UNL A   1      40.227  28.331  29.252  1.00  0.00     0.049 A 
ATOM     26  C   UNL A   1      45.546  26.971  27.823  1.00  0.00     0.074 A 
ATOM     27  C   UNL A   1      39.308  27.307  29.161  1.00  0.00     0.029 A 
ATOM     28  N   UNL A   1      41.460  27.801  28.870  1.00  0.00    -0.354 N 
ATOM     29  N   UNL A   1      44.310  27.108  28.243  1.00  0.00    -0.248 NA
ATOM     30  C   UNL A   1      45.941  25.591  27.531  1.00  0.00     0.031 C 
ATOM     31  C   UNL A   1      39.999  26.142  28.801  1.00  0.00     0.029 A 
ATOM     32  C   UNL A   1      41.340  26.449  28.606  1.00  0.00     0.049 A 
ATOM     33  H   UNL A   1      42.296  28.315  28.797  1.00  0.00     0.167 HD
ATOM     34  C   UNL A   1      43.723  25.870  28.094  1.00  0.00     0.074 A 
ATOM     35  C   UNL A   1      44.778  24.963  27.674  1.00  0.00     0.031 C 
ATOM     36  C   UNL A   1      42.411  25.559  28.204  1.00  0.00     0.037 A 
BRANCH  23  37
ATOM     37  C   UNL A   1      38.691  30.235  30.035  1.00  0.00     0.058 A 
ATOM     38  C   UNL A   1      37.784  30.666  29.049  1.00  0.00     0.135 A 
ATOM     39  C   UNL A   1      38.409  30.536  31.372  1.00  0.00     0.135 A 
ATOM     40  F   UNL A   1      38.036  30.438  27.750  1.00  0.00    -0.206 F 
ATOM     41  C   UNL A   1      36.690  31.459  29.373  1.00  0.00     0.059 A 
ATOM     42  C   UNL A   1      37.304  31.303  31.722  1.00  0.00     0.059 A 
ATOM     43  F   UNL A   1      39.255  30.159  32.344  1.00  0.00    -0.206 F 
ATOM     44  C   UNL A   1      36.475  31.793  30.712  1.00  0.00     0.060 A 
BRANCH  44  45
ATOM     45  S   UNL A   1      35.130  32.926  31.111  1.00  0.00     0.124 S 
ATOM     46  O   UNL A   1      35.864  34.097  31.580  1.00  0.00    -0.237 OA
ATOM     47  O   UNL A   1      34.454  33.074  29.826  1.00  0.00    -0.237 OA
ATOM     48  O   UNL A   1      34.376  32.208  32.134  1.00  0.00    -0.744 OA
ENDBRANCH  44  45
ENDBRANCH  23  37
BRANCH  24  49
ATOM     49  C   UNL A   1      47.938  27.781  27.134  1.00  0.00     0.058 A 
ATOM     50  C   UNL A   1      48.379  27.529  25.827  1.00  0.00     0.135 A 
ATOM     51  C   UNL A   1      48.904  27.664  28.156  1.00  0.00     0.135 A 
ATOM     52  F   UNL A   1      47.510  27.589  24.809  1.00  0.00    -0.206 F 
ATOM     53  C   UNL A   1      49.704  27.168  25.543  1.00  0.00     0.059 A 
ATOM     54  C   UNL A   1      50.236  27.310  27.897  1.00  0.00     0.059 A 
ATOM     55  F   UNL A   1      48.552  27.865  29.436  1.00  0.00    -0.206 F 
ATOM     56  C   UNL A   1      50.628  27.061  26.584  1.00  0.00     0.060 A 
BRANCH  56  57
ATOM     57  S   UNL A   1      52.341  26.611  26.191  1.00  0.00     0.124 S 
ATOM     58  O   UNL A   1      53.085  27.295  27.243  1.00  0.00    -0.237 OA
ATOM     59  O   UNL A   1      52.303  25.155  26.284  1.00  0.00    -0.237 OA
ATOM     60  O   UNL A   1      52.534  27.140  24.843  1.00  0.00    -0.744 OA
ENDBRANCH  56  57
ENDBRANCH  24  49
BRANCH  36  61
ATOM     61  C   UNL A   1      42.014  24.166  27.846  1.00  0.00     0.058 A 
ATOM     62  C   UNL A   1      41.526  23.860  26.571  1.00  0.00     0.135 A 
ATOM     63  C   UNL A   1      42.296  23.112  28.730  1.00  0.00     0.135 A 
ATOM     64  F   UNL A   1      41.220  24.842  25.708  1.00  0.00    -0.206 F 
ATOM     65  C   UNL A   1      41.371  22.544  26.164  1.00  0.00     0.059 A 
ATOM     66  C   UNL A   1      42.176  21.789  28.334  1.00  0.00     0.059 A 
ATOM     67  F   UNL A   1      42.757  23.367  29.966  1.00  0.00    -0.206 F 
ATOM     68  C   UNL A   1      41.729  21.517  27.041  1.00  0.00     0.060 A 
BRANCH  68  69
ATOM     69  S   UNL A   1      41.692  19.821  26.431  1.00  0.00     0.124 S 
ATOM     70  O   UNL A   1      40.301  19.691  26.010  1.00  0.00    -0.237 OA
ATOM     71  O   UNL A   1      42.680  19.859  25.358  1.00  0.00    -0.237 OA
ATOM     72  O   UNL A   1      42.073  19.032  27.598  1.00  0.00    -0.744 OA
ENDBRANCH  68  69
ENDBRANCH  36  61
ENDBRANCH  10  11
ENDBRANCH   3   5
ENDBRANCH   2   3
ENDBRANCH   1   2
BRANCH   1  73
ATOM     73  C   UNL A   1      47.622  39.935  26.204  1.00  0.00     0.274 C 
BRANCH  73  74
ATOM     74  O   UNL A   1      47.011  41.155  25.706  1.00  0.00    -0.462 OA
BRANCH  74  75
ATOM     75  C   UNL A   1      46.663  41.194  24.400  1.00  0.00     0.312 C 
ATOM     76  O   UNL A   1      46.746  40.193  23.691  1.00  0.00    -0.252 OA
BRANCH  75  77
ATOM     77  C   UNL A   1      45.942  42.460  23.901  1.00  0.00     0.147 C 
ATOM     78  C   UNL A   1      45.335  43.066  22.317  1.00  0.00     0.129 C 
ATOM     79  C   UNL A   1      44.989  43.124  24.933  1.00  0.00     0.157 C 
ATOM     80  C   UNL A   1      44.055  43.885  23.089  1.00  0.00     0.155 C 
ATOM     81  C   UNL A   1      44.976  44.636  25.001  1.00  0.00     0.004 C 
ATOM     82  O   UNL A   1      43.791  42.993  24.197  1.00  0.00    -0.365 OA
ATOM     83  C   UNL A   1      44.464  45.107  23.863  1.00  0.00     0.004 C 
BRANCH  78  84
ATOM     84  C   UNL A   1      45.957  42.834  20.226  1.00  0.00     0.231 C 
ATOM     85  O   UNL A   1      46.988  42.377  19.647  1.00  0.00    -0.274 OA
ATOM     86  N   UNL A   1      44.977  43.394  18.892  1.00  0.00    -0.325 N 
ATOM     87  H   UNL A   1      45.445  43.286  18.032  1.00  0.00     0.169 HD
BRANCH  86  88
ATOM     88  C   UNL A   1      43.455  44.065  18.677  1.00  0.00     0.049 A 
ATOM     89  C   UNL A   1      42.477  43.182  19.186  1.00  0.00     0.027 A 
ATOM     90  C   UNL A   1      42.883  45.378  18.102  1.00  0.00     0.005 A 
ATOM     91  C   UNL A   1      41.095  43.482  19.191  1.00  0.00     0.002 A 
ATOM     92  C   UNL A   1      41.476  45.586  18.149  1.00  0.00     0.011 A 
ATOM     93  C   UNL A   1      40.598  44.670  18.682  1.00  0.00     0.001 A 
BRANCH  90  94
ATOM     94  C   UNL A   1      43.441  46.667  17.423  1.00  0.00    -0.016 A 
ATOM     95  C   UNL A   1      44.803  46.771  17.054  1.00  0.00     0.009 A 
ATOM     96  C   UNL A   1      42.771  47.918  17.483  1.00  0.00     0.009 A 
ATOM     97  C   UNL A   1      45.394  47.997  16.676  1.00  0.00     0.001 A 
ATOM     98  C   UNL A   1      43.327  49.130  17.030  1.00  0.00     0.001 A 
ATOM     99  C   UNL A   1      44.644  49.168  16.618  1.00  0.00     0.000 A 
ENDBRANCH  90  94
ENDBRANCH  86  88
ENDBRANCH  78  84
ENDBRANCH  75  77
ENDBRANCH  74  75
ENDBRANCH  73  74
ENDBRANCH   1  73
TORSDOF 17
ENDMDL
