MODEL 1
REMARK VINA RESULT:     -10.1      0.000      0.000
REMARK SMILES CCN(CC)c1ccc([C@@H]2c3[nH]c4ccccc4c3C[C@@H](C(=O)OCCOC(=O)c3ccc(-c4c5nc(c(-c6c(F)cc(S(=O)(=O)[O-])cc6F)c6ccc([nH]6)c(-c6c(F)cc(S(=O)(=O)[O-])cc6F)c6nc(c(-c7c(F)cc(S(=O)(=O)[O-])cc7F)c7ccc4[nH]7)C=C6)C=C5)cc3)N2C(C)=O)cc1
REMARK SMILES IDX 25 1 24 2 22 3 23 4 21 5 10 6 11 7 96 8 12 9 19 10 13 11
REMARK SMILES IDX 18 13 20 14 14 15 17 16 15 17 16 18 9 19 6 20 7 21 101 22
REMARK SMILES IDX 8 23 100 24 3 25 2 26 1 27 4 28 5 29 97 30 98 31 99 32 26 33
REMARK SMILES IDX 27 34 28 35 29 36 30 37 31 38 95 39 32 40 94 41 33 42 34 43
REMARK SMILES IDX 35 44 88 45 36 46 93 47 87 48 89 49 37 50 92 51 86 52 85 53
REMARK SMILES IDX 38 55 72 56 51 57 71 58 52 59 55 60 70 61 90 62 53 63 54 64
REMARK SMILES IDX 69 66 91 67 56 68 39 69 40 70 49 71 41 72 42 73 48 74 50 75
REMARK SMILES IDX 43 76 44 77 45 78 46 79 47 80 73 81 74 82 83 83 75 84 76 85
REMARK SMILES IDX 82 86 84 87 77 88 78 89 79 90 80 91 81 92 57 93 58 94 67 95
REMARK SMILES IDX 59 96 60 97 66 98 68 99 61 100 62 101 63 102 64 103 65 104
REMARK H PARENT 12 12 89 54 55 65
REMARK Flexibility Score: inf
ROOT
ATOM      1  C   UNL A   1      50.679  26.198  37.220  1.00  0.00     0.274 C 
ENDROOT
BRANCH   1   2
ATOM      2  O   UNL A   1      49.987  25.159  36.501  1.00  0.00    -0.461 OA
BRANCH   2   3
ATOM      3  C   UNL A   1      49.972  23.891  36.968  1.00  0.00     0.329 C 
ATOM      4  O   UNL A   1      50.448  23.562  38.049  1.00  0.00    -0.250 OA
BRANCH   3   5
ATOM      5  C   UNL A   1      49.571  22.866  35.860  1.00  0.00     0.200 C 
ATOM      6  C   UNL A   1      47.783  21.610  37.112  1.00  0.00     0.163 C 
ATOM      7  C   UNL A   1      46.837  22.600  36.472  1.00  0.00     0.047 A 
ATOM      8  N   UNL A   1      48.889  21.543  36.140  1.00  0.00    -0.316 N 
ATOM      9  N   UNL A   1      45.490  22.709  36.671  1.00  0.00    -0.356 N 
ATOM     10  C   UNL A   1      47.179  23.507  35.469  1.00  0.00    -0.014 A 
ATOM     11  C   UNL A   1      44.939  23.242  35.523  1.00  0.00     0.046 A 
ATOM     12  H   UNL A   1      45.000  22.452  37.486  1.00  0.00     0.166 HD
ATOM     13  C   UNL A   1      45.975  23.850  34.813  1.00  0.00     0.003 A 
ATOM     14  C   UNL A   1      48.592  23.709  34.984  1.00  0.00     0.075 C 
ATOM     15  C   UNL A   1      43.636  23.171  35.032  1.00  0.00     0.026 A 
ATOM     16  C   UNL A   1      45.699  24.484  33.590  1.00  0.00     0.010 A 
ATOM     17  C   UNL A   1      43.405  23.713  33.763  1.00  0.00     0.002 A 
ATOM     18  C   UNL A   1      44.412  24.377  33.061  1.00  0.00     0.001 A 
BRANCH   6  19
ATOM     19  C   UNL A   1      47.304  20.274  37.658  1.00  0.00    -0.019 A 
ATOM     20  C   UNL A   1      46.263  18.045  39.104  1.00  0.00     0.037 A 
ATOM     21  C   UNL A   1      45.655  18.514  37.937  1.00  0.00     0.026 A 
ATOM     22  C   UNL A   1      47.491  18.617  39.437  1.00  0.00     0.026 A 
ATOM     23  C   UNL A   1      46.171  19.596  37.214  1.00  0.00     0.008 A 
ATOM     24  C   UNL A   1      48.007  19.704  38.730  1.00  0.00     0.008 A 
BRANCH  20  25
ATOM     25  N   UNL A   1      45.669  17.104  39.927  1.00  0.00    -0.372 N 
BRANCH  25  26
ATOM     26  C   UNL A   1      45.105  15.897  39.310  1.00  0.00     0.113 C 
ATOM     27  C   UNL A   1      43.586  15.919  39.246  1.00  0.00     0.027 C 
ENDBRANCH  25  26
BRANCH  25  28
ATOM     28  C   UNL A   1      45.804  17.144  41.383  1.00  0.00     0.113 C 
ATOM     29  C   UNL A   1      44.783  18.053  42.057  1.00  0.00     0.027 C 
ENDBRANCH  25  28
ENDBRANCH  20  25
ENDBRANCH   6  19
BRANCH   8  30
ATOM     30  C   UNL A   1      48.667  20.661  35.056  1.00  0.00     0.221 C 
ATOM     31  C   UNL A   1      49.851  19.920  34.500  1.00  0.00     0.114 C 
ATOM     32  O   UNL A   1      47.576  20.501  34.506  1.00  0.00    -0.275 OA
ENDBRANCH   8  30
ENDBRANCH   3   5
ENDBRANCH   2   3
ENDBRANCH   1   2
BRANCH   1  33
ATOM     33  C   UNL A   1      49.626  26.954  38.032  1.00  0.00     0.275 C 
BRANCH  33  34
ATOM     34  O   UNL A   1      48.476  27.085  37.180  1.00  0.00    -0.458 OA
BRANCH  34  35
ATOM     35  C   UNL A   1      47.324  26.551  37.629  1.00  0.00     0.338 C 
ATOM     36  O   UNL A   1      47.165  25.771  38.562  1.00  0.00    -0.246 OA
BRANCH  35  37
ATOM     37  C   UNL A   1      46.251  27.220  36.887  1.00  0.00     0.060 A 
ATOM     38  C   UNL A   1      44.957  26.696  36.993  1.00  0.00     0.016 A 
ATOM     39  C   UNL A   1      46.500  28.355  36.123  1.00  0.00     0.016 A 
ATOM     40  C   UNL A   1      43.898  27.309  36.341  1.00  0.00     0.010 A 
ATOM     41  C   UNL A   1      45.427  28.996  35.499  1.00  0.00     0.010 A 
ATOM     42  C   UNL A   1      44.121  28.477  35.605  1.00  0.00    -0.014 A 
BRANCH  42  43
ATOM     43  C   UNL A   1      42.985  29.133  34.923  1.00  0.00     0.031 A 
ATOM     44  C   UNL A   1      42.579  28.675  33.554  1.00  0.00     0.074 A 
ATOM     45  C   UNL A   1      42.312  30.121  35.547  1.00  0.00     0.049 A 
ATOM     46  N   UNL A   1      41.684  29.177  32.746  1.00  0.00    -0.248 NA
ATOM     47  C   UNL A   1      43.279  27.493  33.024  1.00  0.00     0.031 C 
ATOM     48  C   UNL A   1      42.594  30.613  36.899  1.00  0.00     0.029 A 
ATOM     49  N   UNL A   1      41.255  30.886  35.129  1.00  0.00    -0.354 N 
ATOM     50  C   UNL A   1      41.731  28.396  31.599  1.00  0.00     0.074 A 
ATOM     51  C   UNL A   1      42.752  27.392  31.811  1.00  0.00     0.031 C 
ATOM     52  C   UNL A   1      41.726  31.592  37.199  1.00  0.00     0.029 A 
ATOM     53  C   UNL A   1      40.863  31.831  36.047  1.00  0.00     0.049 A 
ATOM     54  H   UNL A   1      40.818  30.769  34.254  1.00  0.00     0.167 HD
ATOM     55  C   UNL A   1      40.989  28.511  30.473  1.00  0.00     0.037 A 
ATOM     56  C   UNL A   1      39.930  32.799  35.956  1.00  0.00     0.037 A 
ATOM     57  C   UNL A   1      39.966  29.507  30.284  1.00  0.00     0.049 A 
ATOM     58  C   UNL A   1      39.136  32.920  34.684  1.00  0.00     0.074 A 
ATOM     59  C   UNL A   1      39.163  29.722  29.178  1.00  0.00     0.029 A 
ATOM     60  N   UNL A   1      39.599  30.452  31.233  1.00  0.00    -0.354 N 
ATOM     61  N   UNL A   1      39.217  32.199  33.591  1.00  0.00    -0.248 NA
ATOM     62  C   UNL A   1      38.125  33.984  34.633  1.00  0.00     0.031 C 
ATOM     63  C   UNL A   1      38.331  30.815  29.448  1.00  0.00     0.029 A 
ATOM     64  C   UNL A   1      38.585  31.255  30.738  1.00  0.00     0.049 A 
ATOM     65  H   UNL A   1      40.002  30.538  32.128  1.00  0.00     0.167 HD
ATOM     66  C   UNL A   1      38.255  32.709  32.727  1.00  0.00     0.074 A 
ATOM     67  C   UNL A   1      37.594  33.788  33.435  1.00  0.00     0.031 C 
ATOM     68  C   UNL A   1      37.944  32.321  31.465  1.00  0.00     0.037 A 
BRANCH  55  69
ATOM     69  C   UNL A   1      41.288  27.558  29.350  1.00  0.00     0.058 A 
ATOM     70  C   UNL A   1      40.434  26.488  29.036  1.00  0.00     0.135 A 
ATOM     71  C   UNL A   1      42.447  27.719  28.573  1.00  0.00     0.135 A 
ATOM     72  F   UNL A   1      39.325  26.275  29.762  1.00  0.00    -0.206 F 
ATOM     73  C   UNL A   1      40.732  25.595  28.012  1.00  0.00     0.059 A 
ATOM     74  C   UNL A   1      42.754  26.853  27.528  1.00  0.00     0.059 A 
ATOM     75  F   UNL A   1      43.301  28.721  28.834  1.00  0.00    -0.206 F 
ATOM     76  C   UNL A   1      41.898  25.784  27.265  1.00  0.00     0.060 A 
BRANCH  76  77
ATOM     77  S   UNL A   1      42.279  24.617  25.942  1.00  0.00     0.124 S 
ATOM     78  O   UNL A   1      41.152  23.693  26.035  1.00  0.00    -0.237 OA
ATOM     79  O   UNL A   1      42.299  25.474  24.761  1.00  0.00    -0.237 OA
ATOM     80  O   UNL A   1      43.573  24.068  26.335  1.00  0.00    -0.744 OA
ENDBRANCH  76  77
ENDBRANCH  55  69
BRANCH  56  81
ATOM     81  C   UNL A   1      39.709  33.731  37.092  1.00  0.00     0.058 A 
ATOM     82  C   UNL A   1      40.371  34.966  37.156  1.00  0.00     0.135 A 
ATOM     83  C   UNL A   1      38.821  33.413  38.132  1.00  0.00     0.135 A 
ATOM     84  F   UNL A   1      41.236  35.313  36.191  1.00  0.00    -0.206 F 
ATOM     85  C   UNL A   1      40.171  35.846  38.214  1.00  0.00     0.059 A 
ATOM     86  C   UNL A   1      38.585  34.287  39.188  1.00  0.00     0.059 A 
ATOM     87  F   UNL A   1      38.152  32.249  38.112  1.00  0.00    -0.206 F 
ATOM     88  C   UNL A   1      39.274  35.499  39.226  1.00  0.00     0.060 A 
BRANCH  88  89
ATOM     89  S   UNL A   1      38.978  36.671  40.568  1.00  0.00     0.124 S 
ATOM     90  O   UNL A   1      40.322  36.847  41.105  1.00  0.00    -0.237 OA
ATOM     91  O   UNL A   1      38.419  37.818  39.859  1.00  0.00    -0.237 OA
ATOM     92  O   UNL A   1      38.039  35.960  41.431  1.00  0.00    -0.744 OA
ENDBRANCH  88  89
ENDBRANCH  56  81
BRANCH  68  93
ATOM     93  C   UNL A   1      36.814  33.050  30.793  1.00  0.00     0.058 A 
ATOM     94  C   UNL A   1      37.043  33.987  29.773  1.00  0.00     0.135 A 
ATOM     95  C   UNL A   1      35.486  32.800  31.172  1.00  0.00     0.135 A 
ATOM     96  F   UNL A   1      38.296  34.264  29.378  1.00  0.00    -0.206 F 
ATOM     97  C   UNL A   1      35.995  34.683  29.181  1.00  0.00     0.059 A 
ATOM     98  C   UNL A   1      34.421  33.466  30.576  1.00  0.00     0.059 A 
ATOM     99  F   UNL A   1      35.214  31.904  32.134  1.00  0.00    -0.206 F 
ATOM    100  C   UNL A   1      34.687  34.422  29.596  1.00  0.00     0.060 A 
BRANCH 100 101
ATOM    101  S   UNL A   1      33.332  35.335  28.830  1.00  0.00     0.124 S 
ATOM    102  O   UNL A   1      32.737  34.313  27.975  1.00  0.00    -0.237 OA
ATOM    103  O   UNL A   1      32.533  35.742  29.983  1.00  0.00    -0.237 OA
ATOM    104  O   UNL A   1      34.010  36.423  28.131  1.00  0.00    -0.744 OA
ENDBRANCH 100 101
ENDBRANCH  68  93
ENDBRANCH  42  43
ENDBRANCH  35  37
ENDBRANCH  34  35
ENDBRANCH  33  34
ENDBRANCH   1  33
TORSDOF 19
ENDMDL
MODEL 2
REMARK VINA RESULT:     -10.0      3.187      9.576
REMARK SMILES CCN(CC)c1ccc([C@@H]2c3[nH]c4ccccc4c3C[C@@H](C(=O)OCCOC(=O)c3ccc(-c4c5nc(c(-c6c(F)cc(S(=O)(=O)[O-])cc6F)c6ccc([nH]6)c(-c6c(F)cc(S(=O)(=O)[O-])cc6F)c6nc(c(-c7c(F)cc(S(=O)(=O)[O-])cc7F)c7ccc4[nH]7)C=C6)C=C5)cc3)N2C(C)=O)cc1
REMARK SMILES IDX 25 1 24 2 22 3 23 4 21 5 10 6 11 7 96 8 12 9 19 10 13 11
REMARK SMILES IDX 18 13 20 14 14 15 17 16 15 17 16 18 9 19 6 20 7 21 101 22
REMARK SMILES IDX 8 23 100 24 3 25 2 26 1 27 4 28 5 29 97 30 98 31 99 32 26 33
REMARK SMILES IDX 27 34 28 35 29 36 30 37 31 38 95 39 32 40 94 41 33 42 34 43
REMARK SMILES IDX 35 44 88 45 36 46 93 47 87 48 89 49 37 50 92 51 86 52 85 53
REMARK SMILES IDX 38 55 72 56 51 57 71 58 52 59 55 60 70 61 90 62 53 63 54 64
REMARK SMILES IDX 69 66 91 67 56 68 39 69 40 70 49 71 41 72 42 73 48 74 50 75
REMARK SMILES IDX 43 76 44 77 45 78 46 79 47 80 73 81 74 82 83 83 75 84 76 85
REMARK SMILES IDX 82 86 84 87 77 88 78 89 79 90 80 91 81 92 57 93 58 94 67 95
REMARK SMILES IDX 59 96 60 97 66 98 68 99 61 100 62 101 63 102 64 103 65 104
REMARK H PARENT 12 12 89 54 55 65
REMARK Flexibility Score: inf
ROOT
ATOM      1  C   UNL A   1      43.463  23.347  24.898  1.00  0.00     0.274 C 
ENDROOT
BRANCH   1   2
ATOM      2  O   UNL A   1      43.849  24.677  25.291  1.00  0.00    -0.461 OA
BRANCH   2   3
ATOM      3  C   UNL A   1      45.086  25.146  25.018  1.00  0.00     0.329 C 
ATOM      4  O   UNL A   1      45.923  24.515  24.380  1.00  0.00    -0.250 OA
BRANCH   3   5
ATOM      5  C   UNL A   1      45.427  26.420  25.854  1.00  0.00     0.200 C 
ATOM      6  C   UNL A   1      45.894  25.324  28.073  1.00  0.00     0.163 C 
ATOM      7  C   UNL A   1      47.330  25.307  27.603  1.00  0.00     0.047 A 
ATOM      8  N   UNL A   1      45.334  26.490  27.364  1.00  0.00    -0.316 N 
ATOM      9  N   UNL A   1      48.407  24.763  28.244  1.00  0.00    -0.356 N 
ATOM     10  C   UNL A   1      47.814  25.958  26.468  1.00  0.00    -0.014 A 
ATOM     11  C   UNL A   1      49.528  25.465  27.849  1.00  0.00     0.046 A 
ATOM     12  H   UNL A   1      48.387  24.007  28.874  1.00  0.00     0.166 HD
ATOM     13  C   UNL A   1      49.202  26.130  26.666  1.00  0.00     0.003 A 
ATOM     14  C   UNL A   1      46.921  26.661  25.476  1.00  0.00     0.075 C 
ATOM     15  C   UNL A   1      50.764  25.617  28.477  1.00  0.00     0.026 A 
ATOM     16  C   UNL A   1      50.168  26.929  26.031  1.00  0.00     0.010 A 
ATOM     17  C   UNL A   1      51.671  26.502  27.886  1.00  0.00     0.002 A 
ATOM     18  C   UNL A   1      51.390  27.133  26.673  1.00  0.00     0.001 A 
BRANCH   6  19
ATOM     19  C   UNL A   1      45.526  25.208  29.544  1.00  0.00    -0.019 A 
ATOM     20  C   UNL A   1      44.992  24.494  32.255  1.00  0.00     0.037 A 
ATOM     21  C   UNL A   1      46.000  25.400  31.917  1.00  0.00     0.026 A 
ATOM     22  C   UNL A   1      44.157  24.079  31.217  1.00  0.00     0.026 A 
ATOM     23  C   UNL A   1      46.254  25.768  30.591  1.00  0.00     0.008 A 
ATOM     24  C   UNL A   1      44.411  24.430  29.889  1.00  0.00     0.008 A 
BRANCH  20  25
ATOM     25  N   UNL A   1      44.849  23.980  33.532  1.00  0.00    -0.372 N 
BRANCH  25  26
ATOM     26  C   UNL A   1      45.937  24.197  34.495  1.00  0.00     0.113 C 
ATOM     27  C   UNL A   1      46.155  23.008  35.417  1.00  0.00     0.027 C 
ENDBRANCH  25  26
BRANCH  25  28
ATOM     28  C   UNL A   1      43.574  23.461  34.026  1.00  0.00     0.113 C 
ATOM     29  C   UNL A   1      42.835  24.442  34.929  1.00  0.00     0.027 C 
ENDBRANCH  25  28
ENDBRANCH  20  25
ENDBRANCH   6  19
BRANCH   8  30
ATOM     30  C   UNL A   1      45.577  27.734  27.994  1.00  0.00     0.221 C 
ATOM     31  C   UNL A   1      44.546  28.815  27.831  1.00  0.00     0.114 C 
ATOM     32  O   UNL A   1      46.601  28.002  28.624  1.00  0.00    -0.275 OA
ENDBRANCH   8  30
ENDBRANCH   3   5
ENDBRANCH   2   3
ENDBRANCH   1   2
BRANCH   1  33
ATOM     33  C   UNL A   1      42.266  22.955  25.766  1.00  0.00     0.275 C 
BRANCH  33  34
ATOM     34  O   UNL A   1      41.984  24.092  26.600  1.00  0.00    -0.458 OA
BRANCH  34  35
ATOM     35  C   UNL A   1      40.691  24.317  26.902  1.00  0.00     0.338 C 
ATOM     36  O   UNL A   1      39.711  23.661  26.567  1.00  0.00    -0.246 OA
BRANCH  35  37
ATOM     37  C   UNL A   1      40.686  25.422  27.865  1.00  0.00     0.060 A 
ATOM     38  C   UNL A   1      39.546  25.593  28.660  1.00  0.00     0.016 A 
ATOM     39  C   UNL A   1      41.787  26.260  28.009  1.00  0.00     0.016 A 
ATOM     40  C   UNL A   1      39.501  26.600  29.612  1.00  0.00     0.010 A 
ATOM     41  C   UNL A   1      41.757  27.249  28.996  1.00  0.00     0.010 A 
ATOM     42  C   UNL A   1      40.615  27.423  29.802  1.00  0.00    -0.014 A 
BRANCH  42  43
ATOM     43  C   UNL A   1      40.564  28.487  30.829  1.00  0.00     0.031 A 
ATOM     44  C   UNL A   1      41.532  28.455  31.974  1.00  0.00     0.074 A 
ATOM     45  C   UNL A   1      39.665  29.484  30.713  1.00  0.00     0.049 A 
ATOM     46  N   UNL A   1      41.591  29.226  33.027  1.00  0.00    -0.248 NA
ATOM     47  C   UNL A   1      42.569  27.411  31.928  1.00  0.00     0.031 C 
ATOM     48  C   UNL A   1      38.708  29.636  29.613  1.00  0.00     0.029 A 
ATOM     49  N   UNL A   1      39.409  30.556  31.527  1.00  0.00    -0.354 N 
ATOM     50  C   UNL A   1      42.650  28.745  33.786  1.00  0.00     0.074 A 
ATOM     51  C   UNL A   1      43.198  27.607  33.078  1.00  0.00     0.031 C 
ATOM     52  C   UNL A   1      37.975  30.743  29.820  1.00  0.00     0.029 A 
ATOM     53  C   UNL A   1      38.374  31.346  31.087  1.00  0.00     0.049 A 
ATOM     54  H   UNL A   1      39.919  30.743  32.349  1.00  0.00     0.167 HD
ATOM     55  C   UNL A   1      43.118  29.213  34.967  1.00  0.00     0.037 A 
ATOM     56  C   UNL A   1      37.795  32.420  31.658  1.00  0.00     0.037 A 
ATOM     57  C   UNL A   1      42.571  30.357  35.650  1.00  0.00     0.049 A 
ATOM     58  C   UNL A   1      38.319  32.905  32.982  1.00  0.00     0.074 A 
ATOM     59  C   UNL A   1      42.959  30.909  36.858  1.00  0.00     0.029 A 
ATOM     60  N   UNL A   1      41.519  31.130  35.178  1.00  0.00    -0.354 N 
ATOM     61  N   UNL A   1      39.297  32.418  33.709  1.00  0.00    -0.248 NA
ATOM     62  C   UNL A   1      37.663  34.084  33.562  1.00  0.00     0.031 C 
ATOM     63  C   UNL A   1      42.123  31.999  37.129  1.00  0.00     0.029 A 
ATOM     64  C   UNL A   1      41.241  32.152  36.070  1.00  0.00     0.049 A 
ATOM     65  H   UNL A   1      41.040  30.974  34.331  1.00  0.00     0.167 HD
ATOM     66  C   UNL A   1      39.386  33.243  34.825  1.00  0.00     0.074 A 
ATOM     67  C   UNL A   1      38.374  34.268  34.665  1.00  0.00     0.031 C 
ATOM     68  C   UNL A   1      40.229  33.160  35.886  1.00  0.00     0.037 A 
BRANCH  55  69
ATOM     69  C   UNL A   1      44.253  28.462  35.605  1.00  0.00     0.058 A 
ATOM     70  C   UNL A   1      45.590  28.685  35.239  1.00  0.00     0.135 A 
ATOM     71  C   UNL A   1      43.998  27.506  36.602  1.00  0.00     0.135 A 
ATOM     72  F   UNL A   1      45.887  29.570  34.276  1.00  0.00    -0.206 F 
ATOM     73  C   UNL A   1      46.632  27.966  35.817  1.00  0.00     0.059 A 
ATOM     74  C   UNL A   1      45.025  26.792  37.211  1.00  0.00     0.059 A 
ATOM     75  F   UNL A   1      42.737  27.249  36.985  1.00  0.00    -0.206 F 
ATOM     76  C   UNL A   1      46.339  27.018  36.801  1.00  0.00     0.060 A 
BRANCH  76  77
ATOM     77  S   UNL A   1      47.697  26.086  37.540  1.00  0.00     0.124 S 
ATOM     78  O   UNL A   1      48.243  27.063  38.478  1.00  0.00    -0.237 OA
ATOM     79  O   UNL A   1      47.007  24.948  38.141  1.00  0.00    -0.237 OA
ATOM     80  O   UNL A   1      48.550  25.767  36.400  1.00  0.00    -0.744 OA
ENDBRANCH  76  77
ENDBRANCH  55  69
BRANCH  56  81
ATOM     81  C   UNL A   1      36.653  33.096  30.988  1.00  0.00     0.058 A 
ATOM     82  C   UNL A   1      35.341  32.941  31.460  1.00  0.00     0.135 A 
ATOM     83  C   UNL A   1      36.851  33.923  29.871  1.00  0.00     0.135 A 
ATOM     84  F   UNL A   1      35.099  32.154  32.520  1.00  0.00    -0.206 F 
ATOM     85  C   UNL A   1      34.265  33.569  30.841  1.00  0.00     0.059 A 
ATOM     86  C   UNL A   1      35.794  34.582  29.250  1.00  0.00     0.059 A 
ATOM     87  F   UNL A   1      38.088  34.116  29.388  1.00  0.00    -0.206 F 
ATOM     88  C   UNL A   1      34.502  34.391  29.738  1.00  0.00     0.060 A 
BRANCH  88  89
ATOM     89  S   UNL A   1      33.106  35.246  28.974  1.00  0.00     0.124 S 
ATOM     90  O   UNL A   1      32.254  35.505  30.127  1.00  0.00    -0.237 OA
ATOM     91  O   UNL A   1      33.749  36.414  28.379  1.00  0.00    -0.237 OA
ATOM     92  O   UNL A   1      32.598  34.267  28.018  1.00  0.00    -0.744 OA
ENDBRANCH  88  89
ENDBRANCH  56  81
BRANCH  68  93
ATOM     93  C   UNL A   1      40.108  34.235  36.929  1.00  0.00     0.058 A 
ATOM     94  C   UNL A   1      40.912  35.385  36.902  1.00  0.00     0.135 A 
ATOM     95  C   UNL A   1      39.169  34.112  37.966  1.00  0.00     0.135 A 
ATOM     96  F   UNL A   1      41.828  35.546  35.934  1.00  0.00    -0.206 F 
ATOM     97  C   UNL A   1      40.819  36.358  37.892  1.00  0.00     0.059 A 
ATOM     98  C   UNL A   1      39.041  35.084  38.952  1.00  0.00     0.059 A 
ATOM     99  F   UNL A   1      38.368  33.036  38.029  1.00  0.00    -0.206 F 
ATOM    100  C   UNL A   1      39.886  36.194  38.917  1.00  0.00     0.060 A 
BRANCH 100 101
ATOM    101  S   UNL A   1      39.775  37.456  40.204  1.00  0.00     0.124 S 
ATOM    102  O   UNL A   1      40.301  36.739  41.361  1.00  0.00    -0.237 OA
ATOM    103  O   UNL A   1      40.625  38.520  39.676  1.00  0.00    -0.237 OA
ATOM    104  O   UNL A   1      38.350  37.766  40.250  1.00  0.00    -0.744 OA
ENDBRANCH 100 101
ENDBRANCH  68  93
ENDBRANCH  42  43
ENDBRANCH  35  37
ENDBRANCH  34  35
ENDBRANCH  33  34
ENDBRANCH   1  33
TORSDOF 19
ENDMDL
MODEL 3
REMARK VINA RESULT:     -10.0      5.338     13.313
REMARK SMILES CCN(CC)c1ccc([C@@H]2c3[nH]c4ccccc4c3C[C@@H](C(=O)OCCOC(=O)c3ccc(-c4c5nc(c(-c6c(F)cc(S(=O)(=O)[O-])cc6F)c6ccc([nH]6)c(-c6c(F)cc(S(=O)(=O)[O-])cc6F)c6nc(c(-c7c(F)cc(S(=O)(=O)[O-])cc7F)c7ccc4[nH]7)C=C6)C=C5)cc3)N2C(C)=O)cc1
REMARK SMILES IDX 25 1 24 2 22 3 23 4 21 5 10 6 11 7 96 8 12 9 19 10 13 11
REMARK SMILES IDX 18 13 20 14 14 15 17 16 15 17 16 18 9 19 6 20 7 21 101 22
REMARK SMILES IDX 8 23 100 24 3 25 2 26 1 27 4 28 5 29 97 30 98 31 99 32 26 33
REMARK SMILES IDX 27 34 28 35 29 36 30 37 31 38 95 39 32 40 94 41 33 42 34 43
REMARK SMILES IDX 35 44 88 45 36 46 93 47 87 48 89 49 37 50 92 51 86 52 85 53
REMARK SMILES IDX 38 55 72 56 51 57 71 58 52 59 55 60 70 61 90 62 53 63 54 64
REMARK SMILES IDX 69 66 91 67 56 68 39 69 40 70 49 71 41 72 42 73 48 74 50 75
REMARK SMILES IDX 43 76 44 77 45 78 46 79 47 80 73 81 74 82 83 83 75 84 76 85
REMARK SMILES IDX 82 86 84 87 77 88 78 89 79 90 80 91 81 92 57 93 58 94 67 95
REMARK SMILES IDX 59 96 60 97 66 98 68 99 61 100 62 101 63 102 64 103 65 104
REMARK H PARENT 12 12 89 54 55 65
REMARK Flexibility Score: inf
ROOT
ATOM      1  C   UNL A   1      39.231  21.825  25.976  1.00  0.00     0.274 C 
ENDROOT
BRANCH   1   2
ATOM      2  O   UNL A   1      38.201  22.691  26.489  1.00  0.00    -0.461 OA
BRANCH   2   3
ATOM      3  C   UNL A   1      37.216  23.144  25.682  1.00  0.00     0.329 C 
ATOM      4  O   UNL A   1      37.423  23.772  24.650  1.00  0.00    -0.250 OA
BRANCH   3   5
ATOM      5  C   UNL A   1      35.813  23.049  26.362  1.00  0.00     0.200 C 
ATOM      6  C   UNL A   1      34.401  23.958  24.487  1.00  0.00     0.163 C 
ATOM      7  C   UNL A   1      34.252  22.509  24.084  1.00  0.00     0.047 A 
ATOM      8  N   UNL A   1      34.613  23.871  25.943  1.00  0.00    -0.316 N 
ATOM      9  N   UNL A   1      33.605  22.014  22.988  1.00  0.00    -0.356 N 
ATOM     10  C   UNL A   1      34.664  21.415  24.847  1.00  0.00    -0.014 A 
ATOM     11  C   UNL A   1      33.168  20.742  23.299  1.00  0.00     0.046 A 
ATOM     12  H   UNL A   1      33.474  22.480  22.131  1.00  0.00     0.166 HD
ATOM     13  C   UNL A   1      33.910  20.308  24.398  1.00  0.00     0.003 A 
ATOM     14  C   UNL A   1      35.446  21.550  26.129  1.00  0.00     0.075 C 
ATOM     15  C   UNL A   1      32.137  19.982  22.744  1.00  0.00     0.026 A 
ATOM     16  C   UNL A   1      33.674  19.030  24.933  1.00  0.00     0.010 A 
ATOM     17  C   UNL A   1      31.847  18.761  23.361  1.00  0.00     0.002 A 
ATOM     18  C   UNL A   1      32.614  18.280  24.423  1.00  0.00     0.001 A 
BRANCH   6  19
ATOM     19  C   UNL A   1      33.423  25.027  24.026  1.00  0.00    -0.019 A 
ATOM     20  C   UNL A   1      31.297  26.875  23.567  1.00  0.00     0.037 A 
ATOM     21  C   UNL A   1      32.569  27.299  23.961  1.00  0.00     0.026 A 
ATOM     22  C   UNL A   1      31.162  25.522  23.255  1.00  0.00     0.026 A 
ATOM     23  C   UNL A   1      33.619  26.398  24.169  1.00  0.00     0.008 A 
ATOM     24  C   UNL A   1      32.201  24.614  23.473  1.00  0.00     0.008 A 
BRANCH  20  25
ATOM     25  N   UNL A   1      30.205  27.725  23.537  1.00  0.00    -0.372 N 
BRANCH  25  26
ATOM     26  C   UNL A   1      30.430  29.135  23.195  1.00  0.00     0.113 C 
ATOM     27  C   UNL A   1      30.592  30.021  24.420  1.00  0.00     0.027 C 
ENDBRANCH  25  26
BRANCH  25  28
ATOM     28  C   UNL A   1      28.829  27.230  23.580  1.00  0.00     0.113 C 
ATOM     29  C   UNL A   1      27.801  28.272  23.156  1.00  0.00     0.027 C 
ENDBRANCH  25  28
ENDBRANCH  20  25
ENDBRANCH   6  19
BRANCH   8  30
ATOM     30  C   UNL A   1      33.425  23.761  26.705  1.00  0.00     0.221 C 
ATOM     31  C   UNL A   1      33.346  22.661  27.726  1.00  0.00     0.114 C 
ATOM     32  O   UNL A   1      32.434  24.476  26.548  1.00  0.00    -0.275 OA
ENDBRANCH   8  30
ENDBRANCH   3   5
ENDBRANCH   2   3
ENDBRANCH   1   2
BRANCH   1  33
ATOM     33  C   UNL A   1      40.565  22.370  26.488  1.00  0.00     0.275 C 
BRANCH  33  34
ATOM     34  O   UNL A   1      40.363  23.772  26.729  1.00  0.00    -0.458 OA
BRANCH  34  35
ATOM     35  C   UNL A   1      41.421  24.581  26.534  1.00  0.00     0.338 C 
ATOM     36  O   UNL A   1      42.242  24.545  25.623  1.00  0.00    -0.246 OA
BRANCH  35  37
ATOM     37  C   UNL A   1      41.314  25.641  27.541  1.00  0.00     0.060 A 
ATOM     38  C   UNL A   1      40.207  25.621  28.397  1.00  0.00     0.016 A 
ATOM     39  C   UNL A   1      42.294  26.622  27.664  1.00  0.00     0.016 A 
ATOM     40  C   UNL A   1      40.074  26.578  29.391  1.00  0.00     0.010 A 
ATOM     41  C   UNL A   1      42.179  27.562  28.691  1.00  0.00     0.010 A 
ATOM     42  C   UNL A   1      41.070  27.545  29.559  1.00  0.00    -0.014 A 
BRANCH  42  43
ATOM     43  C   UNL A   1      40.928  28.555  30.630  1.00  0.00     0.031 A 
ATOM     44  C   UNL A   1      41.841  28.506  31.818  1.00  0.00     0.074 A 
ATOM     45  C   UNL A   1      39.994  29.520  30.518  1.00  0.00     0.049 A 
ATOM     46  N   UNL A   1      41.820  29.227  32.907  1.00  0.00    -0.248 NA
ATOM     47  C   UNL A   1      42.922  27.507  31.774  1.00  0.00     0.031 C 
ATOM     48  C   UNL A   1      39.084  29.688  29.381  1.00  0.00     0.029 A 
ATOM     49  N   UNL A   1      39.656  30.542  31.367  1.00  0.00    -0.354 N 
ATOM     50  C   UNL A   1      42.861  28.753  33.694  1.00  0.00     0.074 A 
ATOM     51  C   UNL A   1      43.488  27.673  32.962  1.00  0.00     0.031 C 
ATOM     52  C   UNL A   1      38.297  30.753  29.603  1.00  0.00     0.029 A 
ATOM     53  C   UNL A   1      38.610  31.310  30.913  1.00  0.00     0.049 A 
ATOM     54  H   UNL A   1      40.119  30.708  32.220  1.00  0.00     0.167 HD
ATOM     55  C   UNL A   1      43.253  29.182  34.917  1.00  0.00     0.037 A 
ATOM     56  C   UNL A   1      37.962  32.332  31.505  1.00  0.00     0.037 A 
ATOM     57  C   UNL A   1      42.628  30.269  35.624  1.00  0.00     0.049 A 
ATOM     58  C   UNL A   1      38.402  32.773  32.873  1.00  0.00     0.074 A 
ATOM     59  C   UNL A   1      42.936  30.778  36.874  1.00  0.00     0.029 A 
ATOM     60  N   UNL A   1      41.568  31.022  35.137  1.00  0.00    -0.354 N 
ATOM     61  N   UNL A   1      39.365  32.291  33.624  1.00  0.00    -0.248 NA
ATOM     62  C   UNL A   1      37.672  33.896  33.475  1.00  0.00     0.031 C 
ATOM     63  C   UNL A   1      42.044  31.819  37.154  1.00  0.00     0.029 A 
ATOM     64  C   UNL A   1      41.206  31.988  36.062  1.00  0.00     0.049 A 
ATOM     65  H   UNL A   1      41.136  30.888  34.263  1.00  0.00     0.167 HD
ATOM     66  C   UNL A   1      39.368  33.063  34.780  1.00  0.00     0.074 A 
ATOM     67  C   UNL A   1      38.322  34.055  34.618  1.00  0.00     0.031 C 
ATOM     68  C   UNL A   1      40.163  32.964  35.875  1.00  0.00     0.037 A 
BRANCH  55  69
ATOM     69  C   UNL A   1      44.388  28.446  35.574  1.00  0.00     0.058 A 
ATOM     70  C   UNL A   1      44.170  27.343  36.414  1.00  0.00     0.135 A 
ATOM     71  C   UNL A   1      45.715  28.851  35.355  1.00  0.00     0.135 A 
ATOM     72  F   UNL A   1      42.920  26.929  36.674  1.00  0.00    -0.206 F 
ATOM     73  C   UNL A   1      45.225  26.684  37.038  1.00  0.00     0.059 A 
ATOM     74  C   UNL A   1      46.787  28.193  35.950  1.00  0.00     0.059 A 
ATOM     75  F   UNL A   1      45.979  29.904  34.566  1.00  0.00    -0.206 F 
ATOM     76  C   UNL A   1      46.531  27.120  36.803  1.00  0.00     0.060 A 
BRANCH  76  77
ATOM     77  S   UNL A   1      47.892  26.263  37.622  1.00  0.00     0.124 S 
ATOM     78  O   UNL A   1      49.042  27.038  37.165  1.00  0.00    -0.237 OA
ATOM     79  O   UNL A   1      47.552  26.408  39.034  1.00  0.00    -0.237 OA
ATOM     80  O   UNL A   1      47.804  24.904  37.096  1.00  0.00    -0.744 OA
ENDBRANCH  76  77
ENDBRANCH  55  69
BRANCH  56  81
ATOM     81  C   UNL A   1      36.825  32.994  30.812  1.00  0.00     0.058 A 
ATOM     82  C   UNL A   1      35.497  32.683  31.140  1.00  0.00     0.135 A 
ATOM     83  C   UNL A   1      37.042  33.961  29.818  1.00  0.00     0.135 A 
ATOM     84  F   UNL A   1      35.237  31.759  32.077  1.00  0.00    -0.206 F 
ATOM     85  C   UNL A   1      34.425  33.296  30.499  1.00  0.00     0.059 A 
ATOM     86  C   UNL A   1      35.987  34.607  29.180  1.00  0.00     0.059 A 
ATOM     87  F   UNL A   1      38.294  34.305  29.477  1.00  0.00    -0.206 F 
ATOM     88  C   UNL A   1      34.680  34.260  29.521  1.00  0.00     0.060 A 
BRANCH  88  89
ATOM     89  S   UNL A   1      33.284  35.091  28.732  1.00  0.00     0.124 S 
ATOM     90  O   UNL A   1      33.958  36.128  27.961  1.00  0.00    -0.237 OA
ATOM     91  O   UNL A   1      32.679  34.011  27.959  1.00  0.00    -0.237 OA
ATOM     92  O   UNL A   1      32.491  35.559  29.866  1.00  0.00    -0.744 OA
ENDBRANCH  88  89
ENDBRANCH  56  81
BRANCH  68  93
ATOM     93  C   UNL A   1      39.949  33.981  36.960  1.00  0.00     0.058 A 
ATOM     94  C   UNL A   1      39.090  33.737  38.042  1.00  0.00     0.135 A 
ATOM     95  C   UNL A   1      40.618  35.214  36.916  1.00  0.00     0.135 A 
ATOM     96  F   UNL A   1      38.422  32.575  38.127  1.00  0.00    -0.206 F 
ATOM     97  C   UNL A   1      38.869  34.697  39.024  1.00  0.00     0.059 A 
ATOM     98  C   UNL A   1      40.433  36.179  37.900  1.00  0.00     0.059 A 
ATOM     99  F   UNL A   1      41.461  35.491  35.908  1.00  0.00    -0.206 F 
ATOM    100  C   UNL A   1      39.539  35.919  38.939  1.00  0.00     0.060 A 
BRANCH 100 101
ATOM    101  S   UNL A   1      39.242  37.165  40.211  1.00  0.00     0.124 S 
ATOM    102  O   UNL A   1      38.449  38.147  39.478  1.00  0.00    -0.237 OA
ATOM    103  O   UNL A   1      38.527  36.408  41.235  1.00  0.00    -0.237 OA
ATOM    104  O   UNL A   1      40.586  37.594  40.583  1.00  0.00    -0.744 OA
ENDBRANCH 100 101
ENDBRANCH  68  93
ENDBRANCH  42  43
ENDBRANCH  35  37
ENDBRANCH  34  35
ENDBRANCH  33  34
ENDBRANCH   1  33
TORSDOF 19
ENDMDL
