MODEL 1
REMARK VINA RESULT:     -12.6      0.000      0.000
REMARK SMILES CC(=O)Nc1cc(NC(C)=O)cc(C(=O)Nc2ccc(Br)cc2C(=O)OCCOC(=O)c2ccc(-c3c4nc(c(-c5c(F)cc(S(=O)(=O)[O-])cc5F)c5ccc([nH]5)c(-c5c(F)cc(S(=O)(=O)[O-])cc5F)c5nc(c(-c6c(F)cc(S(=O)(=O)[O-])cc6F)c6ccc3[nH]6)C=C5)C=C4)cc2)c1
REMARK SMILES IDX 27 1 26 2 24 3 25 4 23 5 17 6 18 7 19 8 22 9 20 10 21 11
REMARK SMILES IDX 16 12 14 13 15 14 13 16 5 17 6 18 98 19 7 20 12 21 4 22 1 23
REMARK SMILES IDX 2 24 3 25 8 27 9 28 10 30 11 31 28 32 29 33 30 34 31 35
REMARK SMILES IDX 32 36 33 37 97 38 34 39 96 40 35 41 36 42 37 43 90 44 38 45
REMARK SMILES IDX 95 46 89 47 91 48 39 49 94 50 88 51 87 52 40 54 74 55 53 56
REMARK SMILES IDX 73 57 54 58 57 59 72 60 92 61 55 62 56 63 71 65 93 66 58 67
REMARK SMILES IDX 41 68 42 69 51 70 43 71 44 72 50 73 52 74 45 75 46 76 47 77
REMARK SMILES IDX 48 78 49 79 75 80 76 81 85 82 77 83 78 84 84 85 86 86 79 87
REMARK SMILES IDX 80 88 81 89 82 90 83 91 59 92 60 93 69 94 61 95 62 96 68 97
REMARK SMILES IDX 70 98 63 99 64 100 65 101 66 102 67 103
REMARK H PARENT 16 15 4 26 8 29 91 53 57 64
REMARK Flexibility Score: inf
ROOT
ATOM      1  C   UNL A   1      33.208  29.897  27.337  1.00  0.00     0.275 C 
ENDROOT
BRANCH   1   2
ATOM      2  O   UNL A   1      33.119  28.620  26.666  1.00  0.00    -0.458 OA
BRANCH   2   3
ATOM      3  C   UNL A   1      31.960  27.959  26.896  1.00  0.00     0.340 C 
ATOM      4  O   UNL A   1      31.524  27.679  27.999  1.00  0.00    -0.246 OA
BRANCH   3   5
ATOM      5  C   UNL A   1      31.253  27.550  25.663  1.00  0.00     0.084 A 
ATOM      6  C   UNL A   1      30.585  26.326  25.509  1.00  0.00     0.056 A 
ATOM      7  C   UNL A   1      29.999  26.031  24.261  1.00  0.00     0.028 A 
ATOM      8  C   UNL A   1      29.941  26.986  23.241  1.00  0.00     0.018 A 
ATOM      9  C   UNL A   1      31.187  28.499  24.626  1.00  0.00     0.033 A 
ATOM     10  C   UNL A   1      30.513  28.230  23.440  1.00  0.00     0.018 A 
ATOM     11  Br  UNL A   1      30.343  29.580  22.129  1.00  0.00    -0.051 Br
BRANCH   6  12
ATOM     12  N   UNL A   1      30.366  25.352  26.506  1.00  0.00    -0.321 N 
ATOM     13  C   UNL A   1      30.757  24.034  26.638  1.00  0.00     0.255 C 
ATOM     14  O   UNL A   1      30.209  23.343  27.499  1.00  0.00    -0.269 OA
ATOM     15  H   UNL A   1      29.824  25.677  27.261  1.00  0.00     0.170 HD
BRANCH  13  16
ATOM     16  C   UNL A   1      31.860  23.424  25.842  1.00  0.00     0.044 A 
ATOM     17  C   UNL A   1      32.690  21.742  24.319  1.00  0.00     0.044 A 
ATOM     18  C   UNL A   1      33.999  22.052  24.725  1.00  0.00     0.052 A 
ATOM     19  C   UNL A   1      31.629  22.501  24.813  1.00  0.00     0.040 A 
ATOM     20  C   UNL A   1      34.258  23.068  25.647  1.00  0.00     0.044 A 
ATOM     21  C   UNL A   1      33.176  23.751  26.207  1.00  0.00     0.040 A 
BRANCH  17  22
ATOM     22  N   UNL A   1      32.538  20.532  23.614  1.00  0.00    -0.326 N 
ATOM     23  C   UNL A   1      32.555  18.776  25.378  1.00  0.00     0.114 C 
ATOM     24  C   UNL A   1      32.705  19.225  23.956  1.00  0.00     0.221 C 
ATOM     25  O   UNL A   1      32.948  18.407  23.066  1.00  0.00    -0.275 OA
ATOM     26  H   UNL A   1      32.251  20.657  22.680  1.00  0.00     0.169 HD
ENDBRANCH  17  22
BRANCH  20  27
ATOM     27  N   UNL A   1      35.552  23.407  26.102  1.00  0.00    -0.326 N 
ATOM     28  C   UNL A   1      36.684  23.603  25.330  1.00  0.00     0.221 C 
ATOM     29  H   UNL A   1      35.661  23.514  27.075  1.00  0.00     0.169 HD
ATOM     30  C   UNL A   1      37.900  23.988  26.136  1.00  0.00     0.114 C 
ATOM     31  O   UNL A   1      36.769  23.506  24.111  1.00  0.00    -0.275 OA
ENDBRANCH  20  27
ENDBRANCH  13  16
ENDBRANCH   6  12
ENDBRANCH   3   5
ENDBRANCH   2   3
ENDBRANCH   1   2
BRANCH   1  32
ATOM     32  C   UNL A   1      34.639  30.412  27.520  1.00  0.00     0.275 C 
BRANCH  32  33
ATOM     33  O   UNL A   1      35.536  29.380  27.969  1.00  0.00    -0.458 OA
BRANCH  33  34
ATOM     34  C   UNL A   1      36.166  29.662  29.130  1.00  0.00     0.338 C 
ATOM     35  O   UNL A   1      35.665  29.689  30.245  1.00  0.00    -0.246 OA
BRANCH  34  36
ATOM     36  C   UNL A   1      37.613  29.842  28.938  1.00  0.00     0.060 A 
ATOM     37  C   UNL A   1      38.102  29.682  27.650  1.00  0.00     0.016 A 
ATOM     38  C   UNL A   1      38.497  29.851  30.011  1.00  0.00     0.016 A 
ATOM     39  C   UNL A   1      39.419  29.327  27.431  1.00  0.00     0.010 A 
ATOM     40  C   UNL A   1      39.866  29.655  29.772  1.00  0.00     0.010 A 
ATOM     41  C   UNL A   1      40.331  29.322  28.485  1.00  0.00    -0.014 A 
BRANCH  41  42
ATOM     42  C   UNL A   1      41.733  28.896  28.216  1.00  0.00     0.031 A 
ATOM     43  C   UNL A   1      42.858  29.892  28.332  1.00  0.00     0.074 A 
ATOM     44  C   UNL A   1      42.005  27.600  27.955  1.00  0.00     0.049 A 
ATOM     45  N   UNL A   1      44.119  29.754  28.014  1.00  0.00    -0.248 NA
ATOM     46  C   UNL A   1      42.520  31.223  28.861  1.00  0.00     0.031 C 
ATOM     47  C   UNL A   1      41.013  26.519  27.891  1.00  0.00     0.029 A 
ATOM     48  N   UNL A   1      43.195  26.959  27.727  1.00  0.00    -0.354 N 
ATOM     49  C   UNL A   1      44.707  30.995  28.237  1.00  0.00     0.074 A 
ATOM     50  C   UNL A   1      43.664  31.877  28.711  1.00  0.00     0.031 C 
ATOM     51  C   UNL A   1      41.640  25.349  27.708  1.00  0.00     0.029 A 
ATOM     52  C   UNL A   1      43.060  25.605  27.519  1.00  0.00     0.049 A 
ATOM     53  H   UNL A   1      44.064  27.423  27.713  1.00  0.00     0.167 HD
ATOM     54  C   UNL A   1      46.000  31.360  28.059  1.00  0.00     0.037 A 
ATOM     55  C   UNL A   1      43.966  24.675  27.162  1.00  0.00     0.037 A 
ATOM     56  C   UNL A   1      47.037  30.447  27.647  1.00  0.00     0.049 A 
ATOM     57  C   UNL A   1      45.386  25.110  26.942  1.00  0.00     0.074 A 
ATOM     58  C   UNL A   1      48.382  30.704  27.442  1.00  0.00     0.029 A 
ATOM     59  N   UNL A   1      46.848  29.094  27.393  1.00  0.00    -0.354 N 
ATOM     60  N   UNL A   1      45.912  26.304  27.080  1.00  0.00    -0.248 NA
ATOM     61  C   UNL A   1      46.330  24.079  26.499  1.00  0.00     0.031 C 
ATOM     62  C   UNL A   1      48.995  29.520  27.019  1.00  0.00     0.029 A 
ATOM     63  C   UNL A   1      48.046  28.509  27.015  1.00  0.00     0.049 A 
ATOM     64  H   UNL A   1      45.988  28.621  27.472  1.00  0.00     0.167 HD
ATOM     65  C   UNL A   1      47.253  26.168  26.747  1.00  0.00     0.074 A 
ATOM     66  C   UNL A   1      47.461  24.766  26.434  1.00  0.00     0.031 C 
ATOM     67  C   UNL A   1      48.225  27.113  26.696  1.00  0.00     0.037 A 
BRANCH  54  68
ATOM     68  C   UNL A   1      46.354  32.811  28.260  1.00  0.00     0.058 A 
ATOM     69  C   UNL A   1      46.820  33.314  29.484  1.00  0.00     0.135 A 
ATOM     70  C   UNL A   1      46.236  33.715  27.188  1.00  0.00     0.135 A 
ATOM     71  F   UNL A   1      46.933  32.504  30.549  1.00  0.00    -0.206 F 
ATOM     72  C   UNL A   1      47.126  34.663  29.650  1.00  0.00     0.059 A 
ATOM     73  C   UNL A   1      46.567  35.060  27.322  1.00  0.00     0.059 A 
ATOM     74  F   UNL A   1      45.793  33.293  25.994  1.00  0.00    -0.206 F 
ATOM     75  C   UNL A   1      46.996  35.529  28.563  1.00  0.00     0.060 A 
BRANCH  75  76
ATOM     76  S   UNL A   1      47.399  37.275  28.791  1.00  0.00     0.124 S 
ATOM     77  O   UNL A   1      47.255  37.421  30.236  1.00  0.00    -0.237 OA
ATOM     78  O   UNL A   1      48.764  37.348  28.280  1.00  0.00    -0.237 OA
ATOM     79  O   UNL A   1      46.395  37.964  27.988  1.00  0.00    -0.744 OA
ENDBRANCH  75  76
ENDBRANCH  54  68
BRANCH  55  80
ATOM     80  C   UNL A   1      43.538  23.267  26.938  1.00  0.00     0.058 A 
ATOM     81  C   UNL A   1      43.215  22.421  28.009  1.00  0.00     0.135 A 
ATOM     82  C   UNL A   1      43.420  22.742  25.639  1.00  0.00     0.135 A 
ATOM     83  F   UNL A   1      43.323  22.867  29.271  1.00  0.00    -0.206 F 
ATOM     84  C   UNL A   1      42.800  21.109  27.805  1.00  0.00     0.059 A 
ATOM     85  C   UNL A   1      42.975  21.445  25.407  1.00  0.00     0.059 A 
ATOM     86  F   UNL A   1      43.708  23.509  24.575  1.00  0.00    -0.206 F 
ATOM     87  C   UNL A   1      42.678  20.631  26.498  1.00  0.00     0.060 A 
BRANCH  87  88
ATOM     88  S   UNL A   1      42.098  18.941  26.240  1.00  0.00     0.124 S 
ATOM     89  O   UNL A   1      42.254  18.370  27.572  1.00  0.00    -0.237 OA
ATOM     90  O   UNL A   1      40.724  19.150  25.792  1.00  0.00    -0.237 OA
ATOM     91  O   UNL A   1      43.008  18.424  25.221  1.00  0.00    -0.744 OA
ENDBRANCH  87  88
ENDBRANCH  55  80
BRANCH  67  92
ATOM     92  C   UNL A   1      49.599  26.645  26.307  1.00  0.00     0.058 A 
ATOM     93  C   UNL A   1      50.422  25.945  27.204  1.00  0.00     0.135 A 
ATOM     94  C   UNL A   1      50.102  26.908  25.023  1.00  0.00     0.135 A 
ATOM     95  F   UNL A   1      49.990  25.673  28.445  1.00  0.00    -0.206 F 
ATOM     96  C   UNL A   1      51.715  25.569  26.859  1.00  0.00     0.059 A 
ATOM     97  C   UNL A   1      51.380  26.511  24.645  1.00  0.00     0.059 A 
ATOM     98  F   UNL A   1      49.352  27.562  24.121  1.00  0.00    -0.206 F 
ATOM     99  C   UNL A   1      52.188  25.863  25.579  1.00  0.00     0.060 A 
BRANCH  99 100
ATOM    100  S   UNL A   1      53.873  25.386  25.147  1.00  0.00     0.124 S 
ATOM    101  O   UNL A   1      53.818  23.937  25.311  1.00  0.00    -0.237 OA
ATOM    102  O   UNL A   1      53.993  25.864  23.774  1.00  0.00    -0.237 OA
ATOM    103  O   UNL A   1      54.690  26.097  26.125  1.00  0.00    -0.744 OA
ENDBRANCH  99 100
ENDBRANCH  67  92
ENDBRANCH  41  42
ENDBRANCH  34  36
ENDBRANCH  33  34
ENDBRANCH  32  33
ENDBRANCH   1  32
TORSDOF 18
ENDMDL
MODEL 2
REMARK VINA RESULT:     -12.6      6.682     12.046
REMARK SMILES CC(=O)Nc1cc(NC(C)=O)cc(C(=O)Nc2ccc(Br)cc2C(=O)OCCOC(=O)c2ccc(-c3c4nc(c(-c5c(F)cc(S(=O)(=O)[O-])cc5F)c5ccc([nH]5)c(-c5c(F)cc(S(=O)(=O)[O-])cc5F)c5nc(c(-c6c(F)cc(S(=O)(=O)[O-])cc6F)c6ccc3[nH]6)C=C5)C=C4)cc2)c1
REMARK SMILES IDX 27 1 26 2 24 3 25 4 23 5 17 6 18 7 19 8 22 9 20 10 21 11
REMARK SMILES IDX 16 12 14 13 15 14 13 16 5 17 6 18 98 19 7 20 12 21 4 22 1 23
REMARK SMILES IDX 2 24 3 25 8 27 9 28 10 30 11 31 28 32 29 33 30 34 31 35
REMARK SMILES IDX 32 36 33 37 97 38 34 39 96 40 35 41 36 42 37 43 90 44 38 45
REMARK SMILES IDX 95 46 89 47 91 48 39 49 94 50 88 51 87 52 40 54 74 55 53 56
REMARK SMILES IDX 73 57 54 58 57 59 72 60 92 61 55 62 56 63 71 65 93 66 58 67
REMARK SMILES IDX 41 68 42 69 51 70 43 71 44 72 50 73 52 74 45 75 46 76 47 77
REMARK SMILES IDX 48 78 49 79 75 80 76 81 85 82 77 83 78 84 84 85 86 86 79 87
REMARK SMILES IDX 80 88 81 89 82 90 83 91 59 92 60 93 69 94 61 95 62 96 68 97
REMARK SMILES IDX 70 98 63 99 64 100 65 101 66 102 67 103
REMARK H PARENT 16 15 4 26 8 29 91 53 57 64
REMARK Flexibility Score: inf
ROOT
ATOM      1  C   UNL A   1      37.937  23.117  26.138  1.00  0.00     0.275 C 
ENDROOT
BRANCH   1   2
ATOM      2  O   UNL A   1      36.956  22.202  25.597  1.00  0.00    -0.458 OA
BRANCH   2   3
ATOM      3  C   UNL A   1      36.371  22.635  24.456  1.00  0.00     0.340 C 
ATOM      4  O   UNL A   1      36.873  23.419  23.669  1.00  0.00    -0.246 OA
BRANCH   3   5
ATOM      5  C   UNL A   1      35.009  22.099  24.246  1.00  0.00     0.084 A 
ATOM      6  C   UNL A   1      34.025  22.734  23.473  1.00  0.00     0.056 A 
ATOM      7  C   UNL A   1      32.745  22.148  23.399  1.00  0.00     0.028 A 
ATOM      8  C   UNL A   1      32.490  20.887  23.946  1.00  0.00     0.018 A 
ATOM      9  C   UNL A   1      34.735  20.831  24.792  1.00  0.00     0.033 A 
ATOM     10  C   UNL A   1      33.499  20.220  24.619  1.00  0.00     0.018 A 
ATOM     11  Br  UNL A   1      33.220  18.466  25.262  1.00  0.00    -0.051 Br
BRANCH   6  12
ATOM     12  N   UNL A   1      34.188  23.892  22.684  1.00  0.00    -0.321 N 
ATOM     13  C   UNL A   1      33.662  25.167  22.759  1.00  0.00     0.255 C 
ATOM     14  O   UNL A   1      33.785  25.911  21.785  1.00  0.00    -0.269 OA
ATOM     15  H   UNL A   1      34.801  23.766  21.923  1.00  0.00     0.170 HD
BRANCH  13  16
ATOM     16  C   UNL A   1      33.018  25.714  23.988  1.00  0.00     0.044 A 
ATOM     17  C   UNL A   1      33.053  27.140  25.937  1.00  0.00     0.044 A 
ATOM     18  C   UNL A   1      32.000  26.386  26.481  1.00  0.00     0.052 A 
ATOM     19  C   UNL A   1      33.494  26.857  24.645  1.00  0.00     0.040 A 
ATOM     20  C   UNL A   1      31.417  25.330  25.777  1.00  0.00     0.044 A 
ATOM     21  C   UNL A   1      31.939  24.995  24.525  1.00  0.00     0.040 A 
BRANCH  17  22
ATOM     22  N   UNL A   1      33.734  27.980  26.841  1.00  0.00    -0.326 N 
ATOM     23  C   UNL A   1      32.393  30.076  26.875  1.00  0.00     0.114 C 
ATOM     24  C   UNL A   1      33.659  29.311  27.116  1.00  0.00     0.221 C 
ATOM     25  O   UNL A   1      34.643  29.871  27.603  1.00  0.00    -0.275 OA
ATOM     26  H   UNL A   1      34.403  27.506  27.386  1.00  0.00     0.169 HD
ENDBRANCH  17  22
BRANCH  20  27
ATOM     27  N   UNL A   1      30.370  24.528  26.286  1.00  0.00    -0.326 N 
ATOM     28  C   UNL A   1      30.481  23.265  26.842  1.00  0.00     0.221 C 
ATOM     29  H   UNL A   1      29.464  24.909  26.238  1.00  0.00     0.169 HD
ATOM     30  C   UNL A   1      29.164  22.703  27.316  1.00  0.00     0.114 C 
ATOM     31  O   UNL A   1      31.507  22.610  26.981  1.00  0.00    -0.275 OA
ENDBRANCH  20  27
ENDBRANCH  13  16
ENDBRANCH   6  12
ENDBRANCH   3   5
ENDBRANCH   2   3
ENDBRANCH   1   2
BRANCH   1  32
ATOM     32  C   UNL A   1      39.329  22.507  26.326  1.00  0.00     0.275 C 
BRANCH  32  33
ATOM     33  O   UNL A   1      40.046  23.115  27.417  1.00  0.00    -0.458 OA
BRANCH  33  34
ATOM     34  C   UNL A   1      40.786  24.188  27.063  1.00  0.00     0.338 C 
ATOM     35  O   UNL A   1      41.671  24.219  26.221  1.00  0.00    -0.246 OA
BRANCH  34  36
ATOM     36  C   UNL A   1      40.339  25.410  27.747  1.00  0.00     0.060 A 
ATOM     37  C   UNL A   1      41.199  26.498  27.721  1.00  0.00     0.016 A 
ATOM     38  C   UNL A   1      39.277  25.398  28.644  1.00  0.00     0.016 A 
ATOM     39  C   UNL A   1      41.144  27.470  28.701  1.00  0.00     0.010 A 
ATOM     40  C   UNL A   1      39.121  26.470  29.536  1.00  0.00     0.010 A 
ATOM     41  C   UNL A   1      40.094  27.485  29.619  1.00  0.00    -0.014 A 
BRANCH  41  42
ATOM     42  C   UNL A   1      40.091  28.525  30.684  1.00  0.00     0.031 A 
ATOM     43  C   UNL A   1      41.112  28.473  31.791  1.00  0.00     0.074 A 
ATOM     44  C   UNL A   1      39.230  29.562  30.610  1.00  0.00     0.049 A 
ATOM     45  N   UNL A   1      41.194  29.201  32.875  1.00  0.00    -0.248 NA
ATOM     46  C   UNL A   1      42.173  27.460  31.675  1.00  0.00     0.031 C 
ATOM     47  C   UNL A   1      38.240  29.772  29.546  1.00  0.00     0.029 A 
ATOM     48  N   UNL A   1      39.065  30.655  31.423  1.00  0.00    -0.354 N 
ATOM     49  C   UNL A   1      42.267  28.691  33.598  1.00  0.00     0.074 A 
ATOM     50  C   UNL A   1      42.802  27.586  32.835  1.00  0.00     0.031 C 
ATOM     51  C   UNL A   1      37.625  30.947  29.735  1.00  0.00     0.029 A 
ATOM     52  C   UNL A   1      38.082  31.516  30.994  1.00  0.00     0.049 A 
ATOM     53  H   UNL A   1      39.599  30.808  32.236  1.00  0.00     0.167 HD
ATOM     54  C   UNL A   1      42.755  29.110  34.791  1.00  0.00     0.037 A 
ATOM     55  C   UNL A   1      37.563  32.616  31.571  1.00  0.00     0.037 A 
ATOM     56  C   UNL A   1      42.247  30.255  35.504  1.00  0.00     0.049 A 
ATOM     57  C   UNL A   1      38.100  33.042  32.907  1.00  0.00     0.074 A 
ATOM     58  C   UNL A   1      42.669  30.774  36.715  1.00  0.00     0.029 A 
ATOM     59  N   UNL A   1      41.212  31.070  35.061  1.00  0.00    -0.354 N 
ATOM     60  N   UNL A   1      39.063  32.502  33.616  1.00  0.00    -0.248 NA
ATOM     61  C   UNL A   1      37.470  34.212  33.528  1.00  0.00     0.031 C 
ATOM     62  C   UNL A   1      41.860  31.872  37.027  1.00  0.00     0.029 A 
ATOM     63  C   UNL A   1      40.969  32.075  35.983  1.00  0.00     0.049 A 
ATOM     64  H   UNL A   1      40.724  30.950  34.214  1.00  0.00     0.167 HD
ATOM     65  C   UNL A   1      39.160  33.272  34.769  1.00  0.00     0.074 A 
ATOM     66  C   UNL A   1      38.179  34.333  34.641  1.00  0.00     0.031 C 
ATOM     67  C   UNL A   1      39.978  33.113  35.840  1.00  0.00     0.037 A 
BRANCH  54  68
ATOM     68  C   UNL A   1      43.859  28.299  35.420  1.00  0.00     0.058 A 
ATOM     69  C   UNL A   1      45.214  28.496  35.109  1.00  0.00     0.135 A 
ATOM     70  C   UNL A   1      43.547  27.312  36.372  1.00  0.00     0.135 A 
ATOM     71  F   UNL A   1      45.571  29.409  34.192  1.00  0.00    -0.206 F 
ATOM     72  C   UNL A   1      46.216  27.723  35.693  1.00  0.00     0.059 A 
ATOM     73  C   UNL A   1      44.534  26.551  36.992  1.00  0.00     0.059 A 
ATOM     74  F   UNL A   1      42.270  27.077  36.709  1.00  0.00    -0.206 F 
ATOM     75  C   UNL A   1      45.866  26.753  36.634  1.00  0.00     0.060 A 
BRANCH  75  76
ATOM     76  S   UNL A   1      47.175  25.761  37.385  1.00  0.00     0.124 S 
ATOM     77  O   UNL A   1      48.005  25.447  36.226  1.00  0.00    -0.237 OA
ATOM     78  O   UNL A   1      47.758  26.692  38.346  1.00  0.00    -0.237 OA
ATOM     79  O   UNL A   1      46.457  24.632  37.966  1.00  0.00    -0.744 OA
ENDBRANCH  75  76
ENDBRANCH  54  68
BRANCH  55  80
ATOM     80  C   UNL A   1      36.442  33.344  30.914  1.00  0.00     0.058 A 
ATOM     81  C   UNL A   1      35.135  33.281  31.418  1.00  0.00     0.135 A 
ATOM     82  C   UNL A   1      36.661  34.140  29.776  1.00  0.00     0.135 A 
ATOM     83  F   UNL A   1      34.867  32.525  32.494  1.00  0.00    -0.206 F 
ATOM     84  C   UNL A   1      34.086  33.970  30.816  1.00  0.00     0.059 A 
ATOM     85  C   UNL A   1      35.637  34.865  29.177  1.00  0.00     0.059 A 
ATOM     86  F   UNL A   1      37.894  34.243  29.254  1.00  0.00    -0.206 F 
ATOM     87  C   UNL A   1      34.348  34.765  29.698  1.00  0.00     0.060 A 
BRANCH  87  88
ATOM     88  S   UNL A   1      32.991  35.690  28.949  1.00  0.00     0.124 S 
ATOM     89  O   UNL A   1      32.352  34.665  28.132  1.00  0.00    -0.237 OA
ATOM     90  O   UNL A   1      32.237  36.133  30.118  1.00  0.00    -0.237 OA
ATOM     91  O   UNL A   1      33.671  36.751  28.213  1.00  0.00    -0.744 OA
ENDBRANCH  87  88
ENDBRANCH  55  80
BRANCH  67  92
ATOM     92  C   UNL A   1      39.851  34.130  36.940  1.00  0.00     0.058 A 
ATOM     93  C   UNL A   1      39.068  33.890  38.080  1.00  0.00     0.135 A 
ATOM     94  C   UNL A   1      40.514  35.364  36.845  1.00  0.00     0.135 A 
ATOM     95  F   UNL A   1      38.409  32.729  38.215  1.00  0.00    -0.206 F 
ATOM     96  C   UNL A   1      38.904  34.859  39.064  1.00  0.00     0.059 A 
ATOM     97  C   UNL A   1      40.391  36.334  37.834  1.00  0.00     0.059 A 
ATOM     98  F   UNL A   1      41.286  35.639  35.782  1.00  0.00    -0.206 F 
ATOM     99  C   UNL A   1      39.565  36.080  38.928  1.00  0.00     0.060 A 
BRANCH  99 100
ATOM    100  S   UNL A   1      39.333  37.337  40.202  1.00  0.00     0.124 S 
ATOM    101  O   UNL A   1      38.628  36.582  41.233  1.00  0.00    -0.237 OA
ATOM    102  O   UNL A   1      40.705  37.717  40.522  1.00  0.00    -0.237 OA
ATOM    103  O   UNL A   1      38.545  38.364  39.528  1.00  0.00    -0.744 OA
ENDBRANCH  99 100
ENDBRANCH  67  92
ENDBRANCH  41  42
ENDBRANCH  34  36
ENDBRANCH  33  34
ENDBRANCH  32  33
ENDBRANCH   1  32
TORSDOF 18
ENDMDL
MODEL 3
REMARK VINA RESULT:     -12.3      6.824     12.023
REMARK SMILES CC(=O)Nc1cc(NC(C)=O)cc(C(=O)Nc2ccc(Br)cc2C(=O)OCCOC(=O)c2ccc(-c3c4nc(c(-c5c(F)cc(S(=O)(=O)[O-])cc5F)c5ccc([nH]5)c(-c5c(F)cc(S(=O)(=O)[O-])cc5F)c5nc(c(-c6c(F)cc(S(=O)(=O)[O-])cc6F)c6ccc3[nH]6)C=C5)C=C4)cc2)c1
REMARK SMILES IDX 27 1 26 2 24 3 25 4 23 5 17 6 18 7 19 8 22 9 20 10 21 11
REMARK SMILES IDX 16 12 14 13 15 14 13 16 5 17 6 18 98 19 7 20 12 21 4 22 1 23
REMARK SMILES IDX 2 24 3 25 8 27 9 28 10 30 11 31 28 32 29 33 30 34 31 35
REMARK SMILES IDX 32 36 33 37 97 38 34 39 96 40 35 41 36 42 37 43 90 44 38 45
REMARK SMILES IDX 95 46 89 47 91 48 39 49 94 50 88 51 87 52 40 54 74 55 53 56
REMARK SMILES IDX 73 57 54 58 57 59 72 60 92 61 55 62 56 63 71 65 93 66 58 67
REMARK SMILES IDX 41 68 42 69 51 70 43 71 44 72 50 73 52 74 45 75 46 76 47 77
REMARK SMILES IDX 48 78 49 79 75 80 76 81 85 82 77 83 78 84 84 85 86 86 79 87
REMARK SMILES IDX 80 88 81 89 82 90 83 91 59 92 60 93 69 94 61 95 62 96 68 97
REMARK SMILES IDX 70 98 63 99 64 100 65 101 66 102 67 103
REMARK H PARENT 16 15 4 26 8 29 91 53 57 64
REMARK Flexibility Score: inf
ROOT
ATOM      1  C   UNL A   1      37.853  22.383  25.307  1.00  0.00     0.275 C 
ENDROOT
BRANCH   1   2
ATOM      2  O   UNL A   1      36.605  23.089  25.122  1.00  0.00    -0.458 OA
BRANCH   2   3
ATOM      3  C   UNL A   1      36.093  22.980  23.873  1.00  0.00     0.340 C 
ATOM      4  O   UNL A   1      36.668  23.313  22.852  1.00  0.00    -0.246 OA
BRANCH   3   5
ATOM      5  C   UNL A   1      34.715  22.443  23.841  1.00  0.00     0.084 A 
ATOM      6  C   UNL A   1      33.688  22.964  23.040  1.00  0.00     0.056 A 
ATOM      7  C   UNL A   1      32.401  22.397  23.145  1.00  0.00     0.028 A 
ATOM      8  C   UNL A   1      32.172  21.246  23.905  1.00  0.00     0.018 A 
ATOM      9  C   UNL A   1      34.468  21.286  24.602  1.00  0.00     0.033 A 
ATOM     10  C   UNL A   1      33.218  20.678  24.611  1.00  0.00     0.018 A 
ATOM     11  Br  UNL A   1      32.967  19.056  25.547  1.00  0.00    -0.051 Br
BRANCH   6  12
ATOM     12  N   UNL A   1      33.807  23.975  22.064  1.00  0.00    -0.321 N 
ATOM     13  C   UNL A   1      33.156  25.177  21.867  1.00  0.00     0.255 C 
ATOM     14  O   UNL A   1      33.292  25.747  20.783  1.00  0.00    -0.269 OA
ATOM     15  H   UNL A   1      34.495  23.786  21.385  1.00  0.00     0.170 HD
BRANCH  13  16
ATOM     16  C   UNL A   1      32.356  25.857  22.925  1.00  0.00     0.044 A 
ATOM     17  C   UNL A   1      30.344  26.966  23.671  1.00  0.00     0.044 A 
ATOM     18  C   UNL A   1      31.064  27.495  24.757  1.00  0.00     0.052 A 
ATOM     19  C   UNL A   1      30.976  26.068  22.812  1.00  0.00     0.040 A 
ATOM     20  C   UNL A   1      32.408  27.180  24.966  1.00  0.00     0.044 A 
ATOM     21  C   UNL A   1      33.052  26.359  24.037  1.00  0.00     0.040 A 
BRANCH  17  22
ATOM     22  N   UNL A   1      29.099  27.571  23.411  1.00  0.00    -0.326 N 
ATOM     23  C   UNL A   1      29.650  29.569  22.033  1.00  0.00     0.114 C 
ATOM     24  C   UNL A   1      28.735  28.791  22.930  1.00  0.00     0.221 C 
ATOM     25  O   UNL A   1      27.620  29.233  23.218  1.00  0.00    -0.275 OA
ATOM     26  H   UNL A   1      28.331  26.989  23.620  1.00  0.00     0.169 HD
ENDBRANCH  17  22
BRANCH  20  27
ATOM     27  N   UNL A   1      33.182  27.699  26.028  1.00  0.00    -0.326 N 
ATOM     28  C   UNL A   1      33.488  29.028  26.266  1.00  0.00     0.221 C 
ATOM     29  H   UNL A   1      33.543  27.044  26.668  1.00  0.00     0.169 HD
ATOM     30  C   UNL A   1      34.311  29.239  27.513  1.00  0.00     0.114 C 
ATOM     31  O   UNL A   1      33.152  29.993  25.589  1.00  0.00    -0.275 OA
ENDBRANCH  20  27
ENDBRANCH  13  16
ENDBRANCH   6  12
ENDBRANCH   3   5
ENDBRANCH   2   3
ENDBRANCH   1   2
BRANCH   1  32
ATOM     32  C   UNL A   1      38.730  22.940  26.432  1.00  0.00     0.275 C 
BRANCH  32  33
ATOM     33  O   UNL A   1      38.641  24.374  26.533  1.00  0.00    -0.458 OA
BRANCH  33  34
ATOM     34  C   UNL A   1      39.828  25.011  26.432  1.00  0.00     0.338 C 
ATOM     35  O   UNL A   1      40.504  25.140  25.422  1.00  0.00    -0.246 OA
BRANCH  34  36
ATOM     36  C   UNL A   1      40.209  25.660  27.695  1.00  0.00     0.060 A 
ATOM     37  C   UNL A   1      39.271  25.651  28.716  1.00  0.00     0.016 A 
ATOM     38  C   UNL A   1      41.302  26.516  27.775  1.00  0.00     0.016 A 
ATOM     39  C   UNL A   1      39.291  26.615  29.706  1.00  0.00     0.010 A 
ATOM     40  C   UNL A   1      41.412  27.385  28.871  1.00  0.00     0.010 A 
ATOM     41  C   UNL A   1      40.370  27.492  29.813  1.00  0.00    -0.014 A 
BRANCH  41  42
ATOM     42  C   UNL A   1      40.336  28.542  30.868  1.00  0.00     0.031 A 
ATOM     43  C   UNL A   1      41.340  28.514  31.991  1.00  0.00     0.074 A 
ATOM     44  C   UNL A   1      39.463  29.567  30.771  1.00  0.00     0.049 A 
ATOM     45  N   UNL A   1      41.396  29.253  33.069  1.00  0.00    -0.248 NA
ATOM     46  C   UNL A   1      42.416  27.514  31.901  1.00  0.00     0.031 C 
ATOM     47  C   UNL A   1      38.488  29.754  29.690  1.00  0.00     0.029 A 
ATOM     48  N   UNL A   1      39.271  30.665  31.571  1.00  0.00    -0.354 N 
ATOM     49  C   UNL A   1      42.464  28.764  33.813  1.00  0.00     0.074 A 
ATOM     50  C   UNL A   1      43.026  27.659  33.069  1.00  0.00     0.031 C 
ATOM     51  C   UNL A   1      37.854  30.922  29.858  1.00  0.00     0.029 A 
ATOM     52  C   UNL A   1      38.284  31.509  31.118  1.00  0.00     0.049 A 
ATOM     53  H   UNL A   1      39.791  30.833  32.391  1.00  0.00     0.167 HD
ATOM     54  C   UNL A   1      42.928  29.200  35.009  1.00  0.00     0.037 A 
ATOM     55  C   UNL A   1      37.742  32.608  31.677  1.00  0.00     0.037 A 
ATOM     56  C   UNL A   1      42.394  30.345  35.704  1.00  0.00     0.049 A 
ATOM     57  C   UNL A   1      38.252  33.053  33.016  1.00  0.00     0.074 A 
ATOM     58  C   UNL A   1      42.790  30.881  36.917  1.00  0.00     0.029 A 
ATOM     59  N   UNL A   1      41.356  31.142  35.237  1.00  0.00    -0.354 N 
ATOM     60  N   UNL A   1      39.211  32.533  33.746  1.00  0.00    -0.248 NA
ATOM     61  C   UNL A   1      37.598  34.220  33.617  1.00  0.00     0.031 C 
ATOM     62  C   UNL A   1      41.962  31.971  37.205  1.00  0.00     0.029 A 
ATOM     63  C   UNL A   1      41.086  32.152  36.146  1.00  0.00     0.049 A 
ATOM     64  H   UNL A   1      40.882  31.008  34.384  1.00  0.00     0.167 HD
ATOM     65  C   UNL A   1      39.280  33.314  34.893  1.00  0.00     0.074 A 
ATOM     66  C   UNL A   1      38.288  34.361  34.740  1.00  0.00     0.031 C 
ATOM     67  C   UNL A   1      40.083  33.176  35.977  1.00  0.00     0.037 A 
BRANCH  54  68
ATOM     68  C   UNL A   1      44.033  28.410  35.664  1.00  0.00     0.058 A 
ATOM     69  C   UNL A   1      45.392  28.675  35.433  1.00  0.00     0.135 A 
ATOM     70  C   UNL A   1      43.716  27.371  36.557  1.00  0.00     0.135 A 
ATOM     71  F   UNL A   1      45.756  29.640  34.574  1.00  0.00    -0.206 F 
ATOM     72  C   UNL A   1      46.395  27.921  36.038  1.00  0.00     0.059 A 
ATOM     73  C   UNL A   1      44.702  26.626  37.198  1.00  0.00     0.059 A 
ATOM     74  F   UNL A   1      42.434  27.069  36.816  1.00  0.00    -0.206 F 
ATOM     75  C   UNL A   1      46.040  26.898  36.919  1.00  0.00     0.060 A 
BRANCH  75  76
ATOM     76  S   UNL A   1      47.351  25.931  37.698  1.00  0.00     0.124 S 
ATOM     77  O   UNL A   1      46.985  26.025  39.108  1.00  0.00    -0.237 OA
ATOM     78  O   UNL A   1      47.175  24.618  37.086  1.00  0.00    -0.237 OA
ATOM     79  O   UNL A   1      48.569  26.638  37.318  1.00  0.00    -0.744 OA
ENDBRANCH  75  76
ENDBRANCH  54  68
BRANCH  55  80
ATOM     80  C   UNL A   1      36.622  33.314  30.995  1.00  0.00     0.058 A 
ATOM     81  C   UNL A   1      36.842  34.106  29.858  1.00  0.00     0.135 A 
ATOM     82  C   UNL A   1      35.299  33.192  31.455  1.00  0.00     0.135 A 
ATOM     83  F   UNL A   1      38.087  34.268  29.384  1.00  0.00    -0.206 F 
ATOM     84  C   UNL A   1      35.797  34.757  29.209  1.00  0.00     0.059 A 
ATOM     85  C   UNL A   1      34.234  33.804  30.803  1.00  0.00     0.059 A 
ATOM     86  F   UNL A   1      35.029  32.441  32.534  1.00  0.00    -0.206 F 
ATOM     87  C   UNL A   1      34.494  34.595  29.686  1.00  0.00     0.060 A 
BRANCH  87  88
ATOM     88  S   UNL A   1      33.140  35.408  28.812  1.00  0.00     0.124 S 
ATOM     89  O   UNL A   1      33.856  36.389  28.006  1.00  0.00    -0.237 OA
ATOM     90  O   UNL A   1      32.536  34.299  28.078  1.00  0.00    -0.237 OA
ATOM     91  O   UNL A   1      32.321  35.954  29.891  1.00  0.00    -0.744 OA
ENDBRANCH  87  88
ENDBRANCH  55  80
BRANCH  67  92
ATOM     92  C   UNL A   1      39.926  34.201  37.065  1.00  0.00     0.058 A 
ATOM     93  C   UNL A   1      39.171  33.942  38.220  1.00  0.00     0.135 A 
ATOM     94  C   UNL A   1      40.530  35.462  36.945  1.00  0.00     0.135 A 
ATOM     95  F   UNL A   1      38.567  32.754  38.381  1.00  0.00    -0.206 F 
ATOM     96  C   UNL A   1      38.977  34.916  39.194  1.00  0.00     0.059 A 
ATOM     97  C   UNL A   1      40.378  36.440  37.922  1.00  0.00     0.059 A 
ATOM     98  F   UNL A   1      41.275  35.758  35.867  1.00  0.00    -0.206 F 
ATOM     99  C   UNL A   1      39.580  36.164  39.032  1.00  0.00     0.060 A 
BRANCH  99 100
ATOM    100  S   UNL A   1      39.309  37.426  40.292  1.00  0.00     0.124 S 
ATOM    101  O   UNL A   1      38.620  36.663  41.328  1.00  0.00    -0.237 OA
ATOM    102  O   UNL A   1      40.669  37.846  40.614  1.00  0.00    -0.237 OA
ATOM    103  O   UNL A   1      38.498  38.426  39.605  1.00  0.00    -0.744 OA
ENDBRANCH  99 100
ENDBRANCH  67  92
ENDBRANCH  41  42
ENDBRANCH  34  36
ENDBRANCH  33  34
ENDBRANCH  32  33
ENDBRANCH   1  32
TORSDOF 18
ENDMDL
