MODEL 1
REMARK VINA RESULT:     -10.7      0.000      0.000
REMARK SMILES CN(CCc1cccs1)C(=O)N[C@@H]1COC[C@H]1C(=O)OCCOC(=O)c1ccc(-c2c3nc(c(-c4c(F)cc(S(=O)(=O)[O-])cc4F)c4ccc([nH]4)c(-c4c(F)cc(S(=O)(=O)[O-])cc4F)c4nc(c(-c5c(F)cc(S(=O)(=O)[O-])cc5F)c5ccc2[nH]5)C=C4)C=C3)cc1
REMARK SMILES IDX 21 1 20 2 18 3 19 4 17 5 13 6 14 7 15 8 16 9 12 10 10 11
REMARK SMILES IDX 11 12 2 14 1 15 3 16 4 17 5 18 6 19 9 20 7 21 8 22 22 23
REMARK SMILES IDX 23 24 24 25 25 26 26 27 27 28 91 29 28 30 90 31 29 32 30 33
REMARK SMILES IDX 31 34 84 35 32 36 89 37 83 38 85 39 33 40 88 41 82 42 81 43
REMARK SMILES IDX 34 45 68 46 47 47 67 48 48 49 51 50 66 51 86 52 49 53 50 54
REMARK SMILES IDX 65 56 87 57 52 58 35 59 36 60 45 61 37 62 38 63 44 64 46 65
REMARK SMILES IDX 39 66 40 67 41 68 42 69 43 70 69 71 70 72 79 73 71 74 72 75
REMARK SMILES IDX 78 76 80 77 73 78 74 79 75 80 76 81 77 82 53 83 54 84 63 85
REMARK SMILES IDX 55 86 56 87 62 88 64 89 57 90 58 91 59 92 60 93 61 94
REMARK H PARENT 12 13 85 44 51 55
REMARK Flexibility Score: inf
ROOT
ATOM      1  C   UNL A   1      37.181  22.923  25.283  1.00  0.00     0.274 C 
ENDROOT
BRANCH   1   2
ATOM      2  O   UNL A   1      36.113  22.281  26.009  1.00  0.00    -0.462 OA
BRANCH   2   3
ATOM      3  C   UNL A   1      35.670  21.083  25.545  1.00  0.00     0.313 C 
ATOM      4  O   UNL A   1      36.396  20.215  25.078  1.00  0.00    -0.252 OA
BRANCH   3   5
ATOM      5  C   UNL A   1      34.165  20.931  25.619  1.00  0.00     0.150 C 
ATOM      6  C   UNL A   1      33.348  22.039  24.954  1.00  0.00     0.126 C 
ATOM      7  C   UNL A   1      32.505  21.298  23.928  1.00  0.00     0.186 C 
ATOM      8  O   UNL A   1      32.480  19.919  24.315  1.00  0.00    -0.378 OA
ATOM      9  C   UNL A   1      33.754  19.656  24.911  1.00  0.00     0.177 C 
BRANCH   6  10
ATOM     10  N   UNL A   1      32.816  23.014  25.929  1.00  0.00    -0.332 N 
ATOM     11  C   UNL A   1      31.946  24.015  26.113  1.00  0.00     0.317 C 
ATOM     12  O   UNL A   1      31.514  24.095  27.272  1.00  0.00    -0.249 OA
ATOM     13  H   UNL A   1      33.289  22.872  26.779  1.00  0.00     0.165 HD
BRANCH  11  14
ATOM     14  N   UNL A   1      31.591  24.943  25.186  1.00  0.00    -0.328 N 
ATOM     15  C   UNL A   1      30.687  24.507  24.119  1.00  0.00     0.148 C 
BRANCH  14  16
ATOM     16  C   UNL A   1      31.719  26.384  25.316  1.00  0.00     0.126 C 
BRANCH  16  17
ATOM     17  C   UNL A   1      33.003  26.876  26.026  1.00  0.00     0.068 C 
BRANCH  17  18
ATOM     18  C   UNL A   1      33.023  28.325  26.446  1.00  0.00     0.006 A 
ATOM     19  C   UNL A   1      31.959  29.205  26.526  1.00  0.00     0.015 A 
ATOM     20  S   UNL A   1      34.495  29.123  26.830  1.00  0.00    -0.149 S 
ATOM     21  C   UNL A   1      32.324  30.455  27.104  1.00  0.00     0.012 A 
ATOM     22  C   UNL A   1      33.675  30.527  27.355  1.00  0.00     0.065 A 
ENDBRANCH  17  18
ENDBRANCH  16  17
ENDBRANCH  14  16
ENDBRANCH  11  14
ENDBRANCH   6  10
ENDBRANCH   3   5
ENDBRANCH   2   3
ENDBRANCH   1   2
BRANCH   1  23
ATOM     23  C   UNL A   1      38.438  23.062  26.151  1.00  0.00     0.275 C 
BRANCH  23  24
ATOM     24  O   UNL A   1      38.836  24.437  26.302  1.00  0.00    -0.458 OA
BRANCH  24  25
ATOM     25  C   UNL A   1      40.151  24.622  26.573  1.00  0.00     0.338 C 
ATOM     26  O   UNL A   1      41.091  24.164  25.943  1.00  0.00    -0.246 OA
BRANCH  25  27
ATOM     27  C   UNL A   1      40.305  25.645  27.624  1.00  0.00     0.060 A 
ATOM     28  C   UNL A   1      39.378  25.619  28.665  1.00  0.00     0.016 A 
ATOM     29  C   UNL A   1      41.285  26.637  27.586  1.00  0.00     0.016 A 
ATOM     30  C   UNL A   1      39.402  26.576  29.667  1.00  0.00     0.010 A 
ATOM     31  C   UNL A   1      41.317  27.603  28.602  1.00  0.00     0.010 A 
ATOM     32  C   UNL A   1      40.372  27.579  29.644  1.00  0.00    -0.014 A 
BRANCH  32  33
ATOM     33  C   UNL A   1      40.332  28.625  30.692  1.00  0.00     0.031 A 
ATOM     34  C   UNL A   1      41.323  28.583  31.818  1.00  0.00     0.074 A 
ATOM     35  C   UNL A   1      39.461  29.646  30.586  1.00  0.00     0.049 A 
ATOM     36  N   UNL A   1      41.395  29.340  32.881  1.00  0.00    -0.248 NA
ATOM     37  C   UNL A   1      42.373  27.557  31.733  1.00  0.00     0.031 C 
ATOM     38  C   UNL A   1      38.514  29.836  29.486  1.00  0.00     0.029 A 
ATOM     39  N   UNL A   1      39.240  30.722  31.407  1.00  0.00    -0.354 N 
ATOM     40  C   UNL A   1      42.473  28.858  33.613  1.00  0.00     0.074 A 
ATOM     41  C   UNL A   1      43.026  27.744  32.871  1.00  0.00     0.031 C 
ATOM     42  C   UNL A   1      37.818  30.965  29.697  1.00  0.00     0.029 A 
ATOM     43  C   UNL A   1      38.229  31.546  30.973  1.00  0.00     0.049 A 
ATOM     44  H   UNL A   1      39.757  30.889  32.229  1.00  0.00     0.167 HD
ATOM     45  C   UNL A   1      42.952  29.307  34.798  1.00  0.00     0.037 A 
ATOM     46  C   UNL A   1      37.673  32.625  31.556  1.00  0.00     0.037 A 
ATOM     47  C   UNL A   1      42.411  30.438  35.507  1.00  0.00     0.049 A 
ATOM     48  C   UNL A   1      38.189  33.075  32.896  1.00  0.00     0.074 A 
ATOM     49  C   UNL A   1      42.811  30.966  36.722  1.00  0.00     0.029 A 
ATOM     50  N   UNL A   1      41.360  31.224  35.057  1.00  0.00    -0.354 N 
ATOM     51  N   UNL A   1      39.167  32.572  33.612  1.00  0.00    -0.248 NA
ATOM     52  C   UNL A   1      37.519  34.226  33.515  1.00  0.00     0.031 C 
ATOM     53  C   UNL A   1      41.982  32.054  37.021  1.00  0.00     0.029 A 
ATOM     54  C   UNL A   1      41.090  32.227  35.973  1.00  0.00     0.049 A 
ATOM     55  H   UNL A   1      40.877  31.089  34.210  1.00  0.00     0.167 HD
ATOM     56  C   UNL A   1      39.237  33.352  34.761  1.00  0.00     0.074 A 
ATOM     57  C   UNL A   1      38.214  34.371  34.636  1.00  0.00     0.031 C 
ATOM     58  C   UNL A   1      40.069  33.234  35.824  1.00  0.00     0.037 A 
BRANCH  45  59
ATOM     59  C   UNL A   1      44.086  28.543  35.421  1.00  0.00     0.058 A 
ATOM     60  C   UNL A   1      43.867  27.476  36.305  1.00  0.00     0.135 A 
ATOM     61  C   UNL A   1      45.414  28.879  35.116  1.00  0.00     0.135 A 
ATOM     62  F   UNL A   1      42.616  27.126  36.647  1.00  0.00    -0.206 F 
ATOM     63  C   UNL A   1      44.927  26.785  36.886  1.00  0.00     0.059 A 
ATOM     64  C   UNL A   1      46.489  28.188  35.666  1.00  0.00     0.059 A 
ATOM     65  F   UNL A   1      45.679  29.893  34.277  1.00  0.00    -0.206 F 
ATOM     66  C   UNL A   1      46.235  27.151  36.563  1.00  0.00     0.060 A 
BRANCH  66  67
ATOM     67  S   UNL A   1      47.603  26.253  37.327  1.00  0.00     0.124 S 
ATOM     68  O   UNL A   1      48.757  26.918  36.733  1.00  0.00    -0.237 OA
ATOM     69  O   UNL A   1      47.389  26.505  38.749  1.00  0.00    -0.237 OA
ATOM     70  O   UNL A   1      47.382  24.874  36.900  1.00  0.00    -0.744 OA
ENDBRANCH  66  67
ENDBRANCH  45  59
BRANCH  46  71
ATOM     71  C   UNL A   1      36.539  33.323  30.896  1.00  0.00     0.058 A 
ATOM     72  C   UNL A   1      35.232  33.219  31.395  1.00  0.00     0.135 A 
ATOM     73  C   UNL A   1      36.743  34.123  29.761  1.00  0.00     0.135 A 
ATOM     74  F   UNL A   1      34.983  32.457  32.471  1.00  0.00    -0.206 F 
ATOM     75  C   UNL A   1      34.167  33.877  30.787  1.00  0.00     0.059 A 
ATOM     76  C   UNL A   1      35.699  34.810  29.151  1.00  0.00     0.059 A 
ATOM     77  F   UNL A   1      37.977  34.262  29.250  1.00  0.00    -0.206 F 
ATOM     78  C   UNL A   1      34.411  34.673  29.667  1.00  0.00     0.060 A 
BRANCH  78  79
ATOM     79  S   UNL A   1      33.034  35.571  28.917  1.00  0.00     0.124 S 
ATOM     80  O   UNL A   1      33.734  36.623  28.188  1.00  0.00    -0.237 OA
ATOM     81  O   UNL A   1      32.401  34.541  28.100  1.00  0.00    -0.237 OA
ATOM     82  O   UNL A   1      32.254  36.011  30.070  1.00  0.00    -0.744 OA
ENDBRANCH  78  79
ENDBRANCH  46  71
BRANCH  58  83
ATOM     83  C   UNL A   1      39.924  34.247  36.924  1.00  0.00     0.058 A 
ATOM     84  C   UNL A   1      40.517  35.515  36.836  1.00  0.00     0.135 A 
ATOM     85  C   UNL A   1      39.142  33.963  38.054  1.00  0.00     0.135 A 
ATOM     86  F   UNL A   1      41.280  35.833  35.777  1.00  0.00    -0.206 F 
ATOM     87  C   UNL A   1      40.356  36.463  37.842  1.00  0.00     0.059 A 
ATOM     88  C   UNL A   1      38.950  34.902  39.062  1.00  0.00     0.059 A 
ATOM     89  F   UNL A   1      38.546  32.767  38.181  1.00  0.00    -0.206 F 
ATOM     90  C   UNL A   1      39.570  36.146  38.951  1.00  0.00     0.060 A 
BRANCH  90  91
ATOM     91  S   UNL A   1      39.338  37.394  40.236  1.00  0.00     0.124 S 
ATOM     92  O   UNL A   1      40.711  37.830  40.472  1.00  0.00    -0.237 OA
ATOM     93  O   UNL A   1      38.469  38.365  39.579  1.00  0.00    -0.237 OA
ATOM     94  O   UNL A   1      38.720  36.647  41.326  1.00  0.00    -0.744 OA
ENDBRANCH  90  91
ENDBRANCH  58  83
ENDBRANCH  32  33
ENDBRANCH  25  27
ENDBRANCH  24  25
ENDBRANCH  23  24
ENDBRANCH   1  23
TORSDOF 19
ENDMDL
MODEL 2
REMARK VINA RESULT:     -10.5      1.264      2.479
REMARK SMILES CN(CCc1cccs1)C(=O)N[C@@H]1COC[C@H]1C(=O)OCCOC(=O)c1ccc(-c2c3nc(c(-c4c(F)cc(S(=O)(=O)[O-])cc4F)c4ccc([nH]4)c(-c4c(F)cc(S(=O)(=O)[O-])cc4F)c4nc(c(-c5c(F)cc(S(=O)(=O)[O-])cc5F)c5ccc2[nH]5)C=C4)C=C3)cc1
REMARK SMILES IDX 21 1 20 2 18 3 19 4 17 5 13 6 14 7 15 8 16 9 12 10 10 11
REMARK SMILES IDX 11 12 2 14 1 15 3 16 4 17 5 18 6 19 9 20 7 21 8 22 22 23
REMARK SMILES IDX 23 24 24 25 25 26 26 27 27 28 91 29 28 30 90 31 29 32 30 33
REMARK SMILES IDX 31 34 84 35 32 36 89 37 83 38 85 39 33 40 88 41 82 42 81 43
REMARK SMILES IDX 34 45 68 46 47 47 67 48 48 49 51 50 66 51 86 52 49 53 50 54
REMARK SMILES IDX 65 56 87 57 52 58 35 59 36 60 45 61 37 62 38 63 44 64 46 65
REMARK SMILES IDX 39 66 40 67 41 68 42 69 43 70 69 71 70 72 79 73 71 74 72 75
REMARK SMILES IDX 78 76 80 77 73 78 74 79 75 80 76 81 77 82 53 83 54 84 63 85
REMARK SMILES IDX 55 86 56 87 62 88 64 89 57 90 58 91 59 92 60 93 61 94
REMARK H PARENT 12 13 85 44 51 55
REMARK Flexibility Score: inf
ROOT
ATOM      1  C   UNL A   1      37.073  23.700  26.139  1.00  0.00     0.274 C 
ENDROOT
BRANCH   1   2
ATOM      2  O   UNL A   1      36.313  23.002  25.132  1.00  0.00    -0.462 OA
BRANCH   2   3
ATOM      3  C   UNL A   1      35.188  22.353  25.533  1.00  0.00     0.313 C 
ATOM      4  O   UNL A   1      34.786  21.306  25.042  1.00  0.00    -0.252 OA
BRANCH   3   5
ATOM      5  C   UNL A   1      34.439  23.076  26.633  1.00  0.00     0.150 C 
ATOM      6  C   UNL A   1      33.215  23.879  26.192  1.00  0.00     0.126 C 
ATOM      7  C   UNL A   1      32.078  23.274  27.001  1.00  0.00     0.186 C 
ATOM      8  O   UNL A   1      32.666  22.581  28.108  1.00  0.00    -0.378 OA
ATOM      9  C   UNL A   1      33.911  22.064  27.629  1.00  0.00     0.177 C 
BRANCH   6  10
ATOM     10  N   UNL A   1      33.493  25.327  26.089  1.00  0.00    -0.332 N 
ATOM     11  C   UNL A   1      32.944  26.542  25.972  1.00  0.00     0.317 C 
ATOM     12  O   UNL A   1      33.608  27.444  26.500  1.00  0.00    -0.249 OA
ATOM     13  H   UNL A   1      34.469  25.444  26.118  1.00  0.00     0.165 HD
BRANCH  11  14
ATOM     14  N   UNL A   1      31.813  26.841  25.279  1.00  0.00    -0.328 N 
ATOM     15  C   UNL A   1      31.873  27.986  24.368  1.00  0.00     0.148 C 
BRANCH  14  16
ATOM     16  C   UNL A   1      30.672  25.966  25.074  1.00  0.00     0.126 C 
BRANCH  16  17
ATOM     17  C   UNL A   1      30.480  25.451  23.627  1.00  0.00     0.068 C 
BRANCH  17  18
ATOM     18  C   UNL A   1      31.449  24.392  23.159  1.00  0.00     0.006 A 
ATOM     19  C   UNL A   1      31.362  23.022  23.324  1.00  0.00     0.015 A 
ATOM     20  S   UNL A   1      32.919  24.813  22.374  1.00  0.00    -0.149 S 
ATOM     21  C   UNL A   1      32.383  22.320  22.623  1.00  0.00     0.012 A 
ATOM     22  C   UNL A   1      33.277  23.178  22.025  1.00  0.00     0.065 A 
ENDBRANCH  17  18
ENDBRANCH  16  17
ENDBRANCH  14  16
ENDBRANCH  11  14
ENDBRANCH   6  10
ENDBRANCH   3   5
ENDBRANCH   2   3
ENDBRANCH   1   2
BRANCH   1  23
ATOM     23  C   UNL A   1      38.545  23.267  26.125  1.00  0.00     0.275 C 
BRANCH  23  24
ATOM     24  O   UNL A   1      39.434  24.393  26.002  1.00  0.00    -0.458 OA
BRANCH  24  25
ATOM     25  C   UNL A   1      40.464  24.401  26.883  1.00  0.00     0.338 C 
ATOM     26  O   UNL A   1      41.499  23.759  26.793  1.00  0.00    -0.246 OA
BRANCH  25  27
ATOM     27  C   UNL A   1      40.261  25.471  27.877  1.00  0.00     0.060 A 
ATOM     28  C   UNL A   1      41.212  26.490  27.905  1.00  0.00     0.016 A 
ATOM     29  C   UNL A   1      39.210  25.472  28.794  1.00  0.00     0.016 A 
ATOM     30  C   UNL A   1      41.141  27.508  28.843  1.00  0.00     0.010 A 
ATOM     31  C   UNL A   1      39.131  26.503  29.742  1.00  0.00     0.010 A 
ATOM     32  C   UNL A   1      40.100  27.523  29.773  1.00  0.00    -0.014 A 
BRANCH  32  33
ATOM     33  C   UNL A   1      40.088  28.586  30.804  1.00  0.00     0.031 A 
ATOM     34  C   UNL A   1      41.075  28.534  31.932  1.00  0.00     0.074 A 
ATOM     35  C   UNL A   1      39.248  29.630  30.679  1.00  0.00     0.049 A 
ATOM     36  N   UNL A   1      41.168  29.305  32.983  1.00  0.00    -0.248 NA
ATOM     37  C   UNL A   1      42.096  27.476  31.866  1.00  0.00     0.031 C 
ATOM     38  C   UNL A   1      38.308  29.829  29.574  1.00  0.00     0.029 A 
ATOM     39  N   UNL A   1      39.056  30.725  31.482  1.00  0.00    -0.354 N 
ATOM     40  C   UNL A   1      42.230  28.805  33.726  1.00  0.00     0.074 A 
ATOM     41  C   UNL A   1      42.752  27.664  33.003  1.00  0.00     0.031 C 
ATOM     42  C   UNL A   1      37.645  30.982  29.765  1.00  0.00     0.029 A 
ATOM     43  C   UNL A   1      38.070  31.571  31.032  1.00  0.00     0.049 A 
ATOM     44  H   UNL A   1      39.576  30.890  32.302  1.00  0.00     0.167 HD
ATOM     45  C   UNL A   1      42.719  29.259  34.904  1.00  0.00     0.037 A 
ATOM     46  C   UNL A   1      37.545  32.675  31.596  1.00  0.00     0.037 A 
ATOM     47  C   UNL A   1      42.210  30.416  35.593  1.00  0.00     0.049 A 
ATOM     48  C   UNL A   1      38.070  33.131  32.930  1.00  0.00     0.074 A 
ATOM     49  C   UNL A   1      42.622  30.952  36.801  1.00  0.00     0.029 A 
ATOM     50  N   UNL A   1      41.183  31.225  35.128  1.00  0.00    -0.354 N 
ATOM     51  N   UNL A   1      39.032  32.612  33.656  1.00  0.00    -0.248 NA
ATOM     52  C   UNL A   1      37.433  34.311  33.528  1.00  0.00     0.031 C 
ATOM     53  C   UNL A   1      41.824  32.068  37.080  1.00  0.00     0.029 A 
ATOM     54  C   UNL A   1      40.940  32.250  36.027  1.00  0.00     0.049 A 
ATOM     55  H   UNL A   1      40.698  31.091  34.282  1.00  0.00     0.167 HD
ATOM     56  C   UNL A   1      39.122  33.409  34.792  1.00  0.00     0.074 A 
ATOM     57  C   UNL A   1      38.129  34.454  34.648  1.00  0.00     0.031 C 
ATOM     58  C   UNL A   1      39.949  33.283  35.860  1.00  0.00     0.037 A 
BRANCH  45  59
ATOM     59  C   UNL A   1      43.829  28.473  35.542  1.00  0.00     0.058 A 
ATOM     60  C   UNL A   1      45.181  28.749  35.283  1.00  0.00     0.135 A 
ATOM     61  C   UNL A   1      43.533  27.434  36.438  1.00  0.00     0.135 A 
ATOM     62  F   UNL A   1      45.520  29.718  34.419  1.00  0.00    -0.206 F 
ATOM     63  C   UNL A   1      46.199  28.003  35.870  1.00  0.00     0.059 A 
ATOM     64  C   UNL A   1      44.534  26.691  37.055  1.00  0.00     0.059 A 
ATOM     65  F   UNL A   1      42.255  27.128  36.719  1.00  0.00    -0.206 F 
ATOM     66  C   UNL A   1      45.865  26.973  36.752  1.00  0.00     0.060 A 
BRANCH  66  67
ATOM     67  S   UNL A   1      47.194  26.008  37.504  1.00  0.00     0.124 S 
ATOM     68  O   UNL A   1      46.466  24.846  38.000  1.00  0.00    -0.237 OA
ATOM     69  O   UNL A   1      48.083  25.763  36.372  1.00  0.00    -0.237 OA
ATOM     70  O   UNL A   1      47.724  26.903  38.529  1.00  0.00    -0.744 OA
ENDBRANCH  66  67
ENDBRANCH  45  59
BRANCH  46  71
ATOM     71  C   UNL A   1      36.432  33.395  30.922  1.00  0.00     0.058 A 
ATOM     72  C   UNL A   1      35.115  33.303  31.395  1.00  0.00     0.135 A 
ATOM     73  C   UNL A   1      36.669  34.202  29.799  1.00  0.00     0.135 A 
ATOM     74  F   UNL A   1      34.836  32.534  32.459  1.00  0.00    -0.206 F 
ATOM     75  C   UNL A   1      34.071  33.981  30.774  1.00  0.00     0.059 A 
ATOM     76  C   UNL A   1      35.645  34.910  29.176  1.00  0.00     0.059 A 
ATOM     77  F   UNL A   1      37.913  34.330  29.312  1.00  0.00    -0.206 F 
ATOM     78  C   UNL A   1      34.346  34.785  29.667  1.00  0.00     0.060 A 
BRANCH  78  79
ATOM     79  S   UNL A   1      32.996  35.708  28.900  1.00  0.00     0.124 S 
ATOM     80  O   UNL A   1      33.715  36.807  28.267  1.00  0.00    -0.237 OA
ATOM     81  O   UNL A   1      32.417  34.719  27.997  1.00  0.00    -0.237 OA
ATOM     82  O   UNL A   1      32.154  36.075  30.036  1.00  0.00    -0.744 OA
ENDBRANCH  78  79
ENDBRANCH  46  71
BRANCH  58  83
ATOM     83  C   UNL A   1      39.831  34.318  36.942  1.00  0.00     0.058 A 
ATOM     84  C   UNL A   1      40.530  35.532  36.876  1.00  0.00     0.135 A 
ATOM     85  C   UNL A   1      38.970  34.112  38.032  1.00  0.00     0.135 A 
ATOM     86  F   UNL A   1      41.370  35.774  35.857  1.00  0.00    -0.206 F 
ATOM     87  C   UNL A   1      40.395  36.502  37.865  1.00  0.00     0.059 A 
ATOM     88  C   UNL A   1      38.804  35.077  39.021  1.00  0.00     0.059 A 
ATOM     89  F   UNL A   1      38.273  32.970  38.137  1.00  0.00    -0.206 F 
ATOM     90  C   UNL A   1      39.529  36.264  38.934  1.00  0.00     0.060 A 
BRANCH  90  91
ATOM     91  S   UNL A   1      39.335  37.542  40.194  1.00  0.00     0.124 S 
ATOM     92  O   UNL A   1      38.234  38.328  39.648  1.00  0.00    -0.237 OA
ATOM     93  O   UNL A   1      39.025  36.762  41.389  1.00  0.00    -0.237 OA
ATOM     94  O   UNL A   1      40.635  38.205  40.207  1.00  0.00    -0.744 OA
ENDBRANCH  90  91
ENDBRANCH  58  83
ENDBRANCH  32  33
ENDBRANCH  25  27
ENDBRANCH  24  25
ENDBRANCH  23  24
ENDBRANCH   1  23
TORSDOF 19
ENDMDL
MODEL 3
REMARK VINA RESULT:     -10.4      6.866     12.206
REMARK SMILES CN(CCc1cccs1)C(=O)N[C@@H]1COC[C@H]1C(=O)OCCOC(=O)c1ccc(-c2c3nc(c(-c4c(F)cc(S(=O)(=O)[O-])cc4F)c4ccc([nH]4)c(-c4c(F)cc(S(=O)(=O)[O-])cc4F)c4nc(c(-c5c(F)cc(S(=O)(=O)[O-])cc5F)c5ccc2[nH]5)C=C4)C=C3)cc1
REMARK SMILES IDX 21 1 20 2 18 3 19 4 17 5 13 6 14 7 15 8 16 9 12 10 10 11
REMARK SMILES IDX 11 12 2 14 1 15 3 16 4 17 5 18 6 19 9 20 7 21 8 22 22 23
REMARK SMILES IDX 23 24 24 25 25 26 26 27 27 28 91 29 28 30 90 31 29 32 30 33
REMARK SMILES IDX 31 34 84 35 32 36 89 37 83 38 85 39 33 40 88 41 82 42 81 43
REMARK SMILES IDX 34 45 68 46 47 47 67 48 48 49 51 50 66 51 86 52 49 53 50 54
REMARK SMILES IDX 65 56 87 57 52 58 35 59 36 60 45 61 37 62 38 63 44 64 46 65
REMARK SMILES IDX 39 66 40 67 41 68 42 69 43 70 69 71 70 72 79 73 71 74 72 75
REMARK SMILES IDX 78 76 80 77 73 78 74 79 75 80 76 81 77 82 53 83 54 84 63 85
REMARK SMILES IDX 55 86 56 87 62 88 64 89 57 90 58 91 59 92 60 93 61 94
REMARK H PARENT 12 13 85 44 51 55
REMARK Flexibility Score: inf
ROOT
ATOM      1  C   UNL A   1      33.920  28.549  26.900  1.00  0.00     0.274 C 
ENDROOT
BRANCH   1   2
ATOM      2  O   UNL A   1      32.554  28.127  27.090  1.00  0.00    -0.462 OA
BRANCH   2   3
ATOM      3  C   UNL A   1      32.125  27.051  26.380  1.00  0.00     0.313 C 
ATOM      4  O   UNL A   1      31.787  25.986  26.881  1.00  0.00    -0.252 OA
BRANCH   3   5
ATOM      5  C   UNL A   1      32.142  27.276  24.882  1.00  0.00     0.150 C 
ATOM      6  C   UNL A   1      31.780  26.066  24.021  1.00  0.00     0.126 C 
ATOM      7  C   UNL A   1      30.588  26.546  23.209  1.00  0.00     0.186 C 
ATOM      8  O   UNL A   1      30.601  27.978  23.240  1.00  0.00    -0.378 OA
ATOM      9  C   UNL A   1      31.121  28.337  24.523  1.00  0.00     0.177 C 
BRANCH   6  10
ATOM     10  N   UNL A   1      32.970  25.400  23.450  1.00  0.00    -0.332 N 
ATOM     11  C   UNL A   1      33.652  24.250  23.376  1.00  0.00     0.317 C 
ATOM     12  O   UNL A   1      34.263  24.099  22.309  1.00  0.00    -0.249 OA
ATOM     13  H   UNL A   1      33.452  26.066  22.910  1.00  0.00     0.165 HD
BRANCH  11  14
ATOM     14  N   UNL A   1      33.775  23.332  24.371  1.00  0.00    -0.328 N 
ATOM     15  C   UNL A   1      33.575  21.928  24.010  1.00  0.00     0.148 C 
BRANCH  14  16
ATOM     16  C   UNL A   1      34.414  23.539  25.659  1.00  0.00     0.126 C 
BRANCH  16  17
ATOM     17  C   UNL A   1      35.717  24.373  25.629  1.00  0.00     0.068 C 
BRANCH  17  18
ATOM     18  C   UNL A   1      37.007  23.607  25.790  1.00  0.00     0.006 A 
ATOM     19  C   UNL A   1      38.189  24.036  26.366  1.00  0.00     0.015 A 
ATOM     20  S   UNL A   1      37.187  22.019  25.158  1.00  0.00    -0.149 S 
ATOM     21  C   UNL A   1      39.154  22.994  26.478  1.00  0.00     0.012 A 
ATOM     22  C   UNL A   1      38.717  21.827  25.893  1.00  0.00     0.065 A 
ENDBRANCH  17  18
ENDBRANCH  16  17
ENDBRANCH  14  16
ENDBRANCH  11  14
ENDBRANCH   6  10
ENDBRANCH   3   5
ENDBRANCH   2   3
ENDBRANCH   1   2
BRANCH   1  23
ATOM     23  C   UNL A   1      34.331  29.593  27.946  1.00  0.00     0.275 C 
BRANCH  23  24
ATOM     24  O   UNL A   1      35.706  29.991  27.795  1.00  0.00    -0.458 OA
BRANCH  24  25
ATOM     25  C   UNL A   1      36.344  30.283  28.955  1.00  0.00     0.338 C 
ATOM     26  O   UNL A   1      35.817  30.577  30.017  1.00  0.00    -0.246 OA
BRANCH  25  27
ATOM     27  C   UNL A   1      37.781  29.984  28.822  1.00  0.00     0.060 A 
ATOM     28  C   UNL A   1      38.255  29.740  27.534  1.00  0.00     0.016 A 
ATOM     29  C   UNL A   1      38.646  29.891  29.913  1.00  0.00     0.016 A 
ATOM     30  C   UNL A   1      39.578  29.390  27.313  1.00  0.00     0.010 A 
ATOM     31  C   UNL A   1      39.987  29.544  29.694  1.00  0.00     0.010 A 
ATOM     32  C   UNL A   1      40.457  29.287  28.392  1.00  0.00    -0.014 A 
BRANCH  32  33
ATOM     33  C   UNL A   1      41.847  28.848  28.132  1.00  0.00     0.031 A 
ATOM     34  C   UNL A   1      42.965  29.846  28.209  1.00  0.00     0.074 A 
ATOM     35  C   UNL A   1      42.107  27.547  27.906  1.00  0.00     0.049 A 
ATOM     36  N   UNL A   1      44.230  29.690  27.922  1.00  0.00    -0.248 NA
ATOM     37  C   UNL A   1      42.612  31.196  28.675  1.00  0.00     0.031 C 
ATOM     38  C   UNL A   1      41.109  26.476  27.899  1.00  0.00     0.029 A 
ATOM     39  N   UNL A   1      43.291  26.902  27.652  1.00  0.00    -0.354 N 
ATOM     40  C   UNL A   1      44.820  30.930  28.133  1.00  0.00     0.074 A 
ATOM     41  C   UNL A   1      43.773  31.827  28.575  1.00  0.00     0.031 C 
ATOM     42  C   UNL A   1      41.724  25.306  27.660  1.00  0.00     0.029 A 
ATOM     43  C   UNL A   1      43.146  25.552  27.440  1.00  0.00     0.049 A 
ATOM     44  H   UNL A   1      44.161  27.363  27.624  1.00  0.00     0.167 HD
ATOM     45  C   UNL A   1      46.118  31.282  27.970  1.00  0.00     0.037 A 
ATOM     46  C   UNL A   1      44.053  24.626  27.074  1.00  0.00     0.037 A 
ATOM     47  C   UNL A   1      47.153  30.369  27.561  1.00  0.00     0.049 A 
ATOM     48  C   UNL A   1      45.478  25.051  26.849  1.00  0.00     0.074 A 
ATOM     49  C   UNL A   1      48.496  30.627  27.350  1.00  0.00     0.029 A 
ATOM     50  N   UNL A   1      46.963  29.017  27.316  1.00  0.00    -0.354 N 
ATOM     51  N   UNL A   1      46.013  26.241  26.989  1.00  0.00    -0.248 NA
ATOM     52  C   UNL A   1      46.419  24.015  26.404  1.00  0.00     0.031 C 
ATOM     53  C   UNL A   1      49.112  29.436  26.947  1.00  0.00     0.029 A 
ATOM     54  C   UNL A   1      48.160  28.427  26.945  1.00  0.00     0.049 A 
ATOM     55  H   UNL A   1      46.102  28.545  27.394  1.00  0.00     0.167 HD
ATOM     56  C   UNL A   1      47.356  26.094  26.659  1.00  0.00     0.074 A 
ATOM     57  C   UNL A   1      47.555  24.697  26.330  1.00  0.00     0.031 C 
ATOM     58  C   UNL A   1      48.335  27.032  26.627  1.00  0.00     0.037 A 
BRANCH  45  59
ATOM     59  C   UNL A   1      46.476  32.725  28.186  1.00  0.00     0.058 A 
ATOM     60  C   UNL A   1      46.362  33.681  27.164  1.00  0.00     0.135 A 
ATOM     61  C   UNL A   1      46.929  33.159  29.442  1.00  0.00     0.135 A 
ATOM     62  F   UNL A   1      45.953  33.317  25.939  1.00  0.00    -0.206 F 
ATOM     63  C   UNL A   1      46.711  35.013  27.375  1.00  0.00     0.059 A 
ATOM     64  C   UNL A   1      47.260  34.489  29.681  1.00  0.00     0.059 A 
ATOM     65  F   UNL A   1      47.057  32.284  30.453  1.00  0.00    -0.206 F 
ATOM     66  C   UNL A   1      47.163  35.406  28.636  1.00  0.00     0.060 A 
BRANCH  66  67
ATOM     67  S   UNL A   1      47.618  37.135  28.896  1.00  0.00     0.124 S 
ATOM     68  O   UNL A   1      48.630  37.328  27.863  1.00  0.00    -0.237 OA
ATOM     69  O   UNL A   1      46.352  37.829  28.679  1.00  0.00    -0.237 OA
ATOM     70  O   UNL A   1      48.110  37.152  30.270  1.00  0.00    -0.744 OA
ENDBRANCH  66  67
ENDBRANCH  45  59
BRANCH  46  71
ATOM     71  C   UNL A   1      43.628  23.217  26.856  1.00  0.00     0.058 A 
ATOM     72  C   UNL A   1      43.344  22.368  27.935  1.00  0.00     0.135 A 
ATOM     73  C   UNL A   1      43.482  22.699  25.560  1.00  0.00     0.135 A 
ATOM     74  F   UNL A   1      43.480  22.813  29.193  1.00  0.00    -0.206 F 
ATOM     75  C   UNL A   1      42.937  21.052  27.738  1.00  0.00     0.059 A 
ATOM     76  C   UNL A   1      43.052  21.395  25.337  1.00  0.00     0.059 A 
ATOM     77  F   UNL A   1      43.733  23.474  24.493  1.00  0.00    -0.206 F 
ATOM     78  C   UNL A   1      42.791  20.575  26.434  1.00  0.00     0.060 A 
BRANCH  78  79
ATOM     79  S   UNL A   1      42.208  18.884  26.183  1.00  0.00     0.124 S 
ATOM     80  O   UNL A   1      42.381  18.315  27.515  1.00  0.00    -0.237 OA
ATOM     81  O   UNL A   1      40.828  19.092  25.753  1.00  0.00    -0.237 OA
ATOM     82  O   UNL A   1      43.105  18.369  25.153  1.00  0.00    -0.744 OA
ENDBRANCH  78  79
ENDBRANCH  46  71
BRANCH  58  83
ATOM     83  C   UNL A   1      49.713  26.571  26.248  1.00  0.00     0.058 A 
ATOM     84  C   UNL A   1      50.222  26.764  24.955  1.00  0.00     0.135 A 
ATOM     85  C   UNL A   1      50.550  25.974  27.203  1.00  0.00     0.135 A 
ATOM     86  F   UNL A   1      49.458  27.325  24.004  1.00  0.00    -0.206 F 
ATOM     87  C   UNL A   1      51.510  26.362  24.615  1.00  0.00     0.059 A 
ATOM     88  C   UNL A   1      51.849  25.584  26.891  1.00  0.00     0.059 A 
ATOM     89  F   UNL A   1      50.113  25.775  28.456  1.00  0.00    -0.206 F 
ATOM     90  C   UNL A   1      52.316  25.773  25.591  1.00  0.00     0.060 A 
BRANCH  90  91
ATOM     91  S   UNL A   1      53.998  25.287  25.151  1.00  0.00     0.124 S 
ATOM     92  O   UNL A   1      53.842  23.852  24.936  1.00  0.00    -0.237 OA
ATOM     93  O   UNL A   1      54.253  26.082  23.953  1.00  0.00    -0.237 OA
ATOM     94  O   UNL A   1      54.779  25.665  26.324  1.00  0.00    -0.744 OA
ENDBRANCH  90  91
ENDBRANCH  58  83
ENDBRANCH  32  33
ENDBRANCH  25  27
ENDBRANCH  24  25
ENDBRANCH  23  24
ENDBRANCH   1  23
TORSDOF 19
ENDMDL
