MODEL 1
REMARK VINA RESULT:      -9.6      0.000      0.000
REMARK SMILES CCCN(CC(=O)OCCOC(=O)c1ccc(-c2c3nc(c(-c4c(F)cc(S(=O)(=O)[O-])cc4F)c4ccc([nH]4)c(-c4c(F)cc(S(=O)(=O)[O-])cc4F)c4nc(c(-c5c(F)cc(S(=O)(=O)[O-])cc5F)c5ccc2[nH]5)C=C4)C=C3)cc1)C(=O)Cc1ccc(F)c(F)c1
REMARK SMILES IDX 9 1 8 2 6 3 7 4 5 5 4 6 3 7 2 8 1 9 80 10 81 11 82 12 83 13
REMARK SMILES IDX 84 14 90 15 85 16 88 17 86 18 89 19 87 20 10 21 11 22 12 23
REMARK SMILES IDX 13 24 14 25 15 26 79 27 16 28 78 29 17 30 18 31 19 32 72 33
REMARK SMILES IDX 20 34 77 35 71 36 73 37 21 38 76 39 70 40 69 41 22 43 56 44
REMARK SMILES IDX 35 45 55 46 36 47 39 48 54 49 74 50 37 51 38 52 53 54 75 55
REMARK SMILES IDX 40 56 23 57 24 58 33 59 25 60 26 61 32 62 34 63 27 64 28 65
REMARK SMILES IDX 29 66 30 67 31 68 57 69 58 70 67 71 59 72 60 73 66 74 68 75
REMARK SMILES IDX 61 76 62 77 63 78 64 79 65 80 41 81 42 82 51 83 43 84 44 85
REMARK SMILES IDX 50 86 52 87 45 88 46 89 47 90 48 91 49 92
REMARK H PARENT 73 42 39 53
REMARK Flexibility Score: inf
ROOT
ATOM      1  C   UNL A   1      33.495  27.352  25.294  1.00  0.00     0.274 C 
ENDROOT
BRANCH   1   2
ATOM      2  O   UNL A   1      32.085  27.118  25.100  1.00  0.00    -0.461 OA
BRANCH   2   3
ATOM      3  C   UNL A   1      31.594  26.015  25.722  1.00  0.00     0.325 C 
ATOM      4  O   UNL A   1      31.187  25.991  26.881  1.00  0.00    -0.250 OA
BRANCH   3   5
ATOM      5  C   UNL A   1      31.432  24.813  24.797  1.00  0.00     0.242 C 
BRANCH   5   6
ATOM      6  N   UNL A   1      32.508  23.818  24.700  1.00  0.00    -0.331 N 
BRANCH   6   7
ATOM      7  C   UNL A   1      32.435  22.673  25.607  1.00  0.00     0.120 C 
BRANCH   7   8
ATOM      8  C   UNL A   1      33.053  22.977  26.986  1.00  0.00     0.018 C 
ATOM      9  C   UNL A   1      34.071  21.947  27.471  1.00  0.00     0.006 C 
ENDBRANCH   7   8
ENDBRANCH   6   7
BRANCH   6  10
ATOM     10  C   UNL A   1      33.565  23.854  23.800  1.00  0.00     0.227 C 
ATOM     11  O   UNL A   1      33.736  24.843  23.078  1.00  0.00    -0.275 OA
BRANCH  10  12
ATOM     12  C   UNL A   1      34.536  22.690  23.689  1.00  0.00     0.135 C 
BRANCH  12  13
ATOM     13  C   UNL A   1      35.876  22.727  24.411  1.00  0.00    -0.036 A 
ATOM     14  C   UNL A   1      36.411  23.839  25.081  1.00  0.00     0.007 A 
ATOM     15  C   UNL A   1      36.600  21.521  24.472  1.00  0.00     0.046 A 
ATOM     16  C   UNL A   1      37.563  23.730  25.868  1.00  0.00     0.043 A 
ATOM     17  C   UNL A   1      37.775  21.431  25.218  1.00  0.00     0.159 A 
ATOM     18  C   UNL A   1      38.237  22.519  25.938  1.00  0.00     0.158 A 
ATOM     19  F   UNL A   1      38.445  20.275  25.251  1.00  0.00    -0.204 F 
ATOM     20  F   UNL A   1      39.330  22.419  26.703  1.00  0.00    -0.204 F 
ENDBRANCH  12  13
ENDBRANCH  10  12
ENDBRANCH   6  10
ENDBRANCH   5   6
ENDBRANCH   3   5
ENDBRANCH   2   3
ENDBRANCH   1   2
BRANCH   1  21
ATOM     21  C   UNL A   1      33.746  28.762  25.828  1.00  0.00     0.275 C 
BRANCH  21  22
ATOM     22  O   UNL A   1      34.061  28.733  27.235  1.00  0.00    -0.458 OA
BRANCH  22  23
ATOM     23  C   UNL A   1      34.467  29.919  27.746  1.00  0.00     0.338 C 
ATOM     24  O   UNL A   1      33.798  30.929  27.879  1.00  0.00    -0.246 OA
BRANCH  23  25
ATOM     25  C   UNL A   1      35.882  29.871  28.149  1.00  0.00     0.060 A 
ATOM     26  C   UNL A   1      36.894  30.092  27.215  1.00  0.00     0.016 A 
ATOM     27  C   UNL A   1      36.194  29.416  29.432  1.00  0.00     0.016 A 
ATOM     28  C   UNL A   1      38.213  29.765  27.540  1.00  0.00     0.010 A 
ATOM     29  C   UNL A   1      37.527  29.175  29.779  1.00  0.00     0.010 A 
ATOM     30  C   UNL A   1      38.548  29.301  28.825  1.00  0.00    -0.014 A 
BRANCH  30  31
ATOM     31  C   UNL A   1      39.959  28.955  29.160  1.00  0.00     0.031 A 
ATOM     32  C   UNL A   1      40.857  29.928  29.886  1.00  0.00     0.074 A 
ATOM     33  C   UNL A   1      40.439  27.738  28.832  1.00  0.00     0.049 A 
ATOM     34  N   UNL A   1      42.099  29.771  30.274  1.00  0.00    -0.248 NA
ATOM     35  C   UNL A   1      40.290  31.243  30.228  1.00  0.00     0.031 C 
ATOM     36  C   UNL A   1      39.690  26.696  28.130  1.00  0.00     0.029 A 
ATOM     37  N   UNL A   1      41.673  27.174  29.046  1.00  0.00    -0.354 N 
ATOM     38  C   UNL A   1      42.440  30.937  30.951  1.00  0.00     0.074 A 
ATOM     39  C   UNL A   1      41.299  31.822  30.863  1.00  0.00     0.031 C 
ATOM     40  C   UNL A   1      40.468  25.612  27.993  1.00  0.00     0.029 A 
ATOM     41  C   UNL A   1      41.790  25.901  28.544  1.00  0.00     0.049 A 
ATOM     42  H   UNL A   1      42.404  27.637  29.515  1.00  0.00     0.167 HD
ATOM     43  C   UNL A   1      43.586  31.235  31.610  1.00  0.00     0.037 A 
ATOM     44  C   UNL A   1      42.844  25.063  28.497  1.00  0.00     0.037 A 
ATOM     45  C   UNL A   1      44.741  30.380  31.679  1.00  0.00     0.049 A 
ATOM     46  C   UNL A   1      44.159  25.487  29.079  1.00  0.00     0.074 A 
ATOM     47  C   UNL A   1      45.940  30.600  32.338  1.00  0.00     0.029 A 
ATOM     48  N   UNL A   1      44.852  29.150  31.050  1.00  0.00    -0.354 N 
ATOM     49  N   UNL A   1      44.453  26.585  29.731  1.00  0.00    -0.248 NA
ATOM     50  C   UNL A   1      45.292  24.567  28.903  1.00  0.00     0.031 C 
ATOM     51  C   UNL A   1      46.795  29.524  32.065  1.00  0.00     0.029 A 
ATOM     52  C   UNL A   1      46.116  28.621  31.263  1.00  0.00     0.049 A 
ATOM     53  H   UNL A   1      44.139  28.717  30.529  1.00  0.00     0.167 HD
ATOM     54  C   UNL A   1      45.803  26.488  30.046  1.00  0.00     0.074 A 
ATOM     55  C   UNL A   1      46.265  25.219  29.525  1.00  0.00     0.031 C 
ATOM     56  C   UNL A   1      46.583  27.375  30.713  1.00  0.00     0.037 A 
BRANCH  43  57
ATOM     57  C   UNL A   1      43.649  32.559  32.318  1.00  0.00     0.058 A 
ATOM     58  C   UNL A   1      44.109  33.712  31.661  1.00  0.00     0.135 A 
ATOM     59  C   UNL A   1      43.206  32.688  33.643  1.00  0.00     0.135 A 
ATOM     60  F   UNL A   1      44.552  33.638  30.396  1.00  0.00    -0.206 F 
ATOM     61  C   UNL A   1      44.142  34.947  32.300  1.00  0.00     0.059 A 
ATOM     62  C   UNL A   1      43.217  33.917  34.297  1.00  0.00     0.059 A 
ATOM     63  F   UNL A   1      42.760  31.615  34.313  1.00  0.00    -0.206 F 
ATOM     64  C   UNL A   1      43.697  35.039  33.620  1.00  0.00     0.060 A 
BRANCH  64  65
ATOM     65  S   UNL A   1      43.744  36.649  34.438  1.00  0.00     0.124 S 
ATOM     66  O   UNL A   1      44.146  36.276  35.790  1.00  0.00    -0.237 OA
ATOM     67  O   UNL A   1      44.743  37.371  33.656  1.00  0.00    -0.237 OA
ATOM     68  O   UNL A   1      42.376  37.138  34.304  1.00  0.00    -0.744 OA
ENDBRANCH  64  65
ENDBRANCH  43  57
BRANCH  44  69
ATOM     69  C   UNL A   1      42.692  23.748  27.825  1.00  0.00     0.058 A 
ATOM     70  C   UNL A   1      42.829  23.623  26.436  1.00  0.00     0.135 A 
ATOM     71  C   UNL A   1      42.464  22.583  28.573  1.00  0.00     0.135 A 
ATOM     72  F   UNL A   1      43.034  24.712  25.681  1.00  0.00    -0.206 F 
ATOM     73  C   UNL A   1      42.761  22.381  25.811  1.00  0.00     0.059 A 
ATOM     74  C   UNL A   1      42.414  21.330  27.973  1.00  0.00     0.059 A 
ATOM     75  F   UNL A   1      42.335  22.654  29.907  1.00  0.00    -0.206 F 
ATOM     76  C   UNL A   1      42.563  21.240  26.590  1.00  0.00     0.060 A 
BRANCH  76  77
ATOM     77  S   UNL A   1      42.582  19.618  25.795  1.00  0.00     0.124 S 
ATOM     78  O   UNL A   1      42.955  18.752  26.907  1.00  0.00    -0.237 OA
ATOM     79  O   UNL A   1      41.210  19.487  25.314  1.00  0.00    -0.237 OA
ATOM     80  O   UNL A   1      43.588  19.777  24.749  1.00  0.00    -0.744 OA
ENDBRANCH  76  77
ENDBRANCH  44  69
BRANCH  56  81
ATOM     81  C   UNL A   1      48.026  27.009  30.900  1.00  0.00     0.058 A 
ATOM     82  C   UNL A   1      49.014  27.479  30.022  1.00  0.00     0.135 A 
ATOM     83  C   UNL A   1      48.432  26.200  31.973  1.00  0.00     0.135 A 
ATOM     84  F   UNL A   1      48.675  28.249  28.976  1.00  0.00    -0.206 F 
ATOM     85  C   UNL A   1      50.354  27.145  30.188  1.00  0.00     0.059 A 
ATOM     86  C   UNL A   1      49.769  25.867  32.170  1.00  0.00     0.059 A 
ATOM     87  F   UNL A   1      47.525  25.729  32.845  1.00  0.00    -0.206 F 
ATOM     88  C   UNL A   1      50.721  26.333  31.263  1.00  0.00     0.060 A 
BRANCH  88  89
ATOM     89  S   UNL A   1      52.463  25.913  31.485  1.00  0.00     0.124 S 
ATOM     90  O   UNL A   1      52.372  24.557  32.017  1.00  0.00    -0.237 OA
ATOM     91  O   UNL A   1      52.993  26.025  30.129  1.00  0.00    -0.237 OA
ATOM     92  O   UNL A   1      52.938  26.927  32.422  1.00  0.00    -0.744 OA
ENDBRANCH  88  89
ENDBRANCH  56  81
ENDBRANCH  30  31
ENDBRANCH  23  25
ENDBRANCH  22  23
ENDBRANCH  21  22
ENDBRANCH   1  21
TORSDOF 20
ENDMDL
MODEL 2
REMARK VINA RESULT:      -9.5      4.132      5.557
REMARK SMILES CCCN(CC(=O)OCCOC(=O)c1ccc(-c2c3nc(c(-c4c(F)cc(S(=O)(=O)[O-])cc4F)c4ccc([nH]4)c(-c4c(F)cc(S(=O)(=O)[O-])cc4F)c4nc(c(-c5c(F)cc(S(=O)(=O)[O-])cc5F)c5ccc2[nH]5)C=C4)C=C3)cc1)C(=O)Cc1ccc(F)c(F)c1
REMARK SMILES IDX 9 1 8 2 6 3 7 4 5 5 4 6 3 7 2 8 1 9 80 10 81 11 82 12 83 13
REMARK SMILES IDX 84 14 90 15 85 16 88 17 86 18 89 19 87 20 10 21 11 22 12 23
REMARK SMILES IDX 13 24 14 25 15 26 79 27 16 28 78 29 17 30 18 31 19 32 72 33
REMARK SMILES IDX 20 34 77 35 71 36 73 37 21 38 76 39 70 40 69 41 22 43 56 44
REMARK SMILES IDX 35 45 55 46 36 47 39 48 54 49 74 50 37 51 38 52 53 54 75 55
REMARK SMILES IDX 40 56 23 57 24 58 33 59 25 60 26 61 32 62 34 63 27 64 28 65
REMARK SMILES IDX 29 66 30 67 31 68 57 69 58 70 67 71 59 72 60 73 66 74 68 75
REMARK SMILES IDX 61 76 62 77 63 78 64 79 65 80 41 81 42 82 51 83 43 84 44 85
REMARK SMILES IDX 50 86 52 87 45 88 46 89 47 90 48 91 49 92
REMARK H PARENT 73 42 39 53
REMARK Flexibility Score: inf
ROOT
ATOM      1  C   UNL A   1      33.894  30.225  27.091  1.00  0.00     0.274 C 
ENDROOT
BRANCH   1   2
ATOM      2  O   UNL A   1      32.494  29.969  27.322  1.00  0.00    -0.461 OA
BRANCH   2   3
ATOM      3  C   UNL A   1      32.136  28.660  27.294  1.00  0.00     0.325 C 
ATOM      4  O   UNL A   1      31.207  28.176  27.934  1.00  0.00    -0.250 OA
BRANCH   3   5
ATOM      5  C   UNL A   1      32.896  27.841  26.254  1.00  0.00     0.242 C 
BRANCH   5   6
ATOM      6  N   UNL A   1      32.305  27.618  24.928  1.00  0.00    -0.331 N 
BRANCH   6   7
ATOM      7  C   UNL A   1      32.291  26.242  24.431  1.00  0.00     0.120 C 
BRANCH   7   8
ATOM      8  C   UNL A   1      33.448  25.400  25.003  1.00  0.00     0.018 C 
ATOM      9  C   UNL A   1      33.013  24.176  25.805  1.00  0.00     0.006 C 
ENDBRANCH   7   8
ENDBRANCH   6   7
BRANCH   6  10
ATOM     10  C   UNL A   1      31.730  28.593  24.124  1.00  0.00     0.227 C 
ATOM     11  O   UNL A   1      32.415  29.198  23.290  1.00  0.00    -0.275 OA
BRANCH  10  12
ATOM     12  C   UNL A   1      30.254  28.932  24.242  1.00  0.00     0.135 C 
BRANCH  12  13
ATOM     13  C   UNL A   1      29.601  29.907  23.270  1.00  0.00    -0.036 A 
ATOM     14  C   UNL A   1      29.083  29.575  22.008  1.00  0.00     0.007 A 
ATOM     15  C   UNL A   1      29.441  31.234  23.711  1.00  0.00     0.046 A 
ATOM     16  C   UNL A   1      28.342  30.498  21.261  1.00  0.00     0.043 A 
ATOM     17  C   UNL A   1      28.744  32.162  22.939  1.00  0.00     0.159 A 
ATOM     18  C   UNL A   1      28.170  31.789  21.737  1.00  0.00     0.158 A 
ATOM     19  F   UNL A   1      28.615  33.418  23.380  1.00  0.00    -0.204 F 
ATOM     20  F   UNL A   1      27.448  32.662  21.022  1.00  0.00    -0.204 F 
ENDBRANCH  12  13
ENDBRANCH  10  12
ENDBRANCH   6  10
ENDBRANCH   5   6
ENDBRANCH   3   5
ENDBRANCH   2   3
ENDBRANCH   1   2
BRANCH   1  21
ATOM     21  C   UNL A   1      34.388  31.381  27.960  1.00  0.00     0.275 C 
BRANCH  21  22
ATOM     22  O   UNL A   1      35.828  31.387  28.044  1.00  0.00    -0.458 OA
BRANCH  22  23
ATOM     23  C   UNL A   1      36.325  30.947  29.224  1.00  0.00     0.338 C 
ATOM     24  O   UNL A   1      35.828  31.088  30.328  1.00  0.00    -0.246 OA
BRANCH  23  25
ATOM     25  C   UNL A   1      37.603  30.241  29.036  1.00  0.00     0.060 A 
ATOM     26  C   UNL A   1      38.489  30.082  30.099  1.00  0.00     0.016 A 
ATOM     27  C   UNL A   1      37.991  29.903  27.737  1.00  0.00     0.016 A 
ATOM     28  C   UNL A   1      39.801  29.672  29.846  1.00  0.00     0.010 A 
ATOM     29  C   UNL A   1      39.278  29.408  27.503  1.00  0.00     0.010 A 
ATOM     30  C   UNL A   1      40.215  29.331  28.546  1.00  0.00    -0.014 A 
BRANCH  30  31
ATOM     31  C   UNL A   1      41.617  28.895  28.288  1.00  0.00     0.031 A 
ATOM     32  C   UNL A   1      42.766  29.874  28.332  1.00  0.00     0.074 A 
ATOM     33  C   UNL A   1      41.871  27.595  28.035  1.00  0.00     0.049 A 
ATOM     34  N   UNL A   1      44.045  29.651  28.157  1.00  0.00    -0.248 NA
ATOM     35  C   UNL A   1      42.443  31.281  28.615  1.00  0.00     0.031 C 
ATOM     36  C   UNL A   1      40.864  26.536  27.961  1.00  0.00     0.029 A 
ATOM     37  N   UNL A   1      43.056  26.944  27.793  1.00  0.00    -0.354 N 
ATOM     38  C   UNL A   1      44.680  30.870  28.364  1.00  0.00     0.074 A 
ATOM     39  C   UNL A   1      43.641  31.847  28.611  1.00  0.00     0.031 C 
ATOM     40  C   UNL A   1      41.473  25.366  27.717  1.00  0.00     0.029 A 
ATOM     41  C   UNL A   1      42.906  25.599  27.559  1.00  0.00     0.049 A 
ATOM     42  H   UNL A   1      43.929  27.398  27.789  1.00  0.00     0.167 HD
ATOM     43  C   UNL A   1      46.006  31.150  28.377  1.00  0.00     0.037 A 
ATOM     44  C   UNL A   1      43.808  24.655  27.223  1.00  0.00     0.037 A 
ATOM     45  C   UNL A   1      47.049  30.197  28.101  1.00  0.00     0.049 A 
ATOM     46  C   UNL A   1      45.253  25.026  27.068  1.00  0.00     0.074 A 
ATOM     47  C   UNL A   1      48.420  30.394  28.106  1.00  0.00     0.029 A 
ATOM     48  N   UNL A   1      46.838  28.874  27.750  1.00  0.00    -0.354 N 
ATOM     49  N   UNL A   1      45.832  26.181  27.288  1.00  0.00    -0.248 NA
ATOM     50  C   UNL A   1      46.163  23.971  26.602  1.00  0.00     0.031 C 
ATOM     51  C   UNL A   1      49.037  29.200  27.708  1.00  0.00     0.029 A 
ATOM     52  C   UNL A   1      48.050  28.254  27.487  1.00  0.00     0.049 A 
ATOM     53  H   UNL A   1      45.958  28.438  27.695  1.00  0.00     0.167 HD
ATOM     54  C   UNL A   1      47.176  25.992  26.990  1.00  0.00     0.074 A 
ATOM     55  C   UNL A   1      47.326  24.610  26.586  1.00  0.00     0.031 C 
ATOM     56  C   UNL A   1      48.192  26.888  27.051  1.00  0.00     0.037 A 
BRANCH  43  57
ATOM     57  C   UNL A   1      46.410  32.560  28.702  1.00  0.00     0.058 A 
ATOM     58  C   UNL A   1      46.505  33.537  27.697  1.00  0.00     0.135 A 
ATOM     59  C   UNL A   1      46.659  32.950  30.026  1.00  0.00     0.135 A 
ATOM     60  F   UNL A   1      46.284  33.212  26.414  1.00  0.00    -0.206 F 
ATOM     61  C   UNL A   1      46.848  34.851  27.994  1.00  0.00     0.059 A 
ATOM     62  C   UNL A   1      46.992  34.263  30.347  1.00  0.00     0.059 A 
ATOM     63  F   UNL A   1      46.584  32.052  31.020  1.00  0.00    -0.206 F 
ATOM     64  C   UNL A   1      47.094  35.205  29.323  1.00  0.00     0.060 A 
BRANCH  64  65
ATOM     65  S   UNL A   1      47.539  36.915  29.695  1.00  0.00     0.124 S 
ATOM     66  O   UNL A   1      48.975  36.799  29.922  1.00  0.00    -0.237 OA
ATOM     67  O   UNL A   1      47.145  37.616  28.476  1.00  0.00    -0.237 OA
ATOM     68  O   UNL A   1      46.740  37.225  30.876  1.00  0.00    -0.744 OA
ENDBRANCH  64  65
ENDBRANCH  43  57
BRANCH  44  69
ATOM     69  C   UNL A   1      43.341  23.269  26.967  1.00  0.00     0.058 A 
ATOM     70  C   UNL A   1      43.088  22.818  25.665  1.00  0.00     0.135 A 
ATOM     71  C   UNL A   1      43.197  22.355  28.022  1.00  0.00     0.135 A 
ATOM     72  F   UNL A   1      43.200  23.662  24.628  1.00  0.00    -0.206 F 
ATOM     73  C   UNL A   1      42.721  21.499  25.414  1.00  0.00     0.059 A 
ATOM     74  C   UNL A   1      42.854  21.028  27.794  1.00  0.00     0.059 A 
ATOM     75  F   UNL A   1      43.437  22.741  29.285  1.00  0.00    -0.206 F 
ATOM     76  C   UNL A   1      42.617  20.610  26.485  1.00  0.00     0.060 A 
BRANCH  76  77
ATOM     77  S   UNL A   1      42.248  18.873  26.153  1.00  0.00     0.124 S 
ATOM     78  O   UNL A   1      42.516  18.264  27.450  1.00  0.00    -0.237 OA
ATOM     79  O   UNL A   1      40.847  18.921  25.746  1.00  0.00    -0.237 OA
ATOM     80  O   UNL A   1      43.187  18.535  25.087  1.00  0.00    -0.744 OA
ENDBRANCH  76  77
ENDBRANCH  44  69
BRANCH  56  81
ATOM     81  C   UNL A   1      49.555  26.405  26.654  1.00  0.00     0.058 A 
ATOM     82  C   UNL A   1      50.446  25.885  27.606  1.00  0.00     0.135 A 
ATOM     83  C   UNL A   1      49.972  26.440  25.315  1.00  0.00     0.135 A 
ATOM     84  F   UNL A   1      50.098  25.838  28.901  1.00  0.00    -0.206 F 
ATOM     85  C   UNL A   1      51.713  25.435  27.246  1.00  0.00     0.059 A 
ATOM     86  C   UNL A   1      51.227  25.979  24.929  1.00  0.00     0.059 A 
ATOM     87  F   UNL A   1      49.154  26.923  24.365  1.00  0.00    -0.206 F 
ATOM     88  C   UNL A   1      52.096  25.491  25.905  1.00  0.00     0.060 A 
BRANCH  88  89
ATOM     89  S   UNL A   1      53.735  24.892  25.440  1.00  0.00     0.124 S 
ATOM     90  O   UNL A   1      54.074  25.791  24.341  1.00  0.00    -0.237 OA
ATOM     91  O   UNL A   1      54.503  25.078  26.668  1.00  0.00    -0.237 OA
ATOM     92  O   UNL A   1      53.492  23.502  25.065  1.00  0.00    -0.744 OA
ENDBRANCH  88  89
ENDBRANCH  56  81
ENDBRANCH  30  31
ENDBRANCH  23  25
ENDBRANCH  22  23
ENDBRANCH  21  22
ENDBRANCH   1  21
TORSDOF 20
ENDMDL
MODEL 3
REMARK VINA RESULT:      -9.1      4.589      9.548
REMARK SMILES CCCN(CC(=O)OCCOC(=O)c1ccc(-c2c3nc(c(-c4c(F)cc(S(=O)(=O)[O-])cc4F)c4ccc([nH]4)c(-c4c(F)cc(S(=O)(=O)[O-])cc4F)c4nc(c(-c5c(F)cc(S(=O)(=O)[O-])cc5F)c5ccc2[nH]5)C=C4)C=C3)cc1)C(=O)Cc1ccc(F)c(F)c1
REMARK SMILES IDX 9 1 8 2 6 3 7 4 5 5 4 6 3 7 2 8 1 9 80 10 81 11 82 12 83 13
REMARK SMILES IDX 84 14 90 15 85 16 88 17 86 18 89 19 87 20 10 21 11 22 12 23
REMARK SMILES IDX 13 24 14 25 15 26 79 27 16 28 78 29 17 30 18 31 19 32 72 33
REMARK SMILES IDX 20 34 77 35 71 36 73 37 21 38 76 39 70 40 69 41 22 43 56 44
REMARK SMILES IDX 35 45 55 46 36 47 39 48 54 49 74 50 37 51 38 52 53 54 75 55
REMARK SMILES IDX 40 56 23 57 24 58 33 59 25 60 26 61 32 62 34 63 27 64 28 65
REMARK SMILES IDX 29 66 30 67 31 68 57 69 58 70 67 71 59 72 60 73 66 74 68 75
REMARK SMILES IDX 61 76 62 77 63 78 64 79 65 80 41 81 42 82 51 83 43 84 44 85
REMARK SMILES IDX 50 86 52 87 45 88 46 89 47 90 48 91 49 92
REMARK H PARENT 73 42 39 53
REMARK Flexibility Score: inf
ROOT
ATOM      1  C   UNL A   1      38.154  22.184  25.492  1.00  0.00     0.274 C 
ENDROOT
BRANCH   1   2
ATOM      2  O   UNL A   1      37.558  23.233  24.701  1.00  0.00    -0.461 OA
BRANCH   2   3
ATOM      3  C   UNL A   1      36.675  22.812  23.760  1.00  0.00     0.325 C 
ATOM      4  O   UNL A   1      36.727  23.112  22.571  1.00  0.00    -0.250 OA
BRANCH   3   5
ATOM      5  C   UNL A   1      35.676  21.780  24.277  1.00  0.00     0.242 C 
BRANCH   5   6
ATOM      6  N   UNL A   1      34.323  22.202  24.658  1.00  0.00    -0.331 N 
BRANCH   6   7
ATOM      7  C   UNL A   1      34.187  22.938  25.915  1.00  0.00     0.120 C 
BRANCH   7   8
ATOM      8  C   UNL A   1      34.151  22.004  27.141  1.00  0.00     0.018 C 
ATOM      9  C   UNL A   1      32.980  22.241  28.091  1.00  0.00     0.006 C 
ENDBRANCH   7   8
ENDBRANCH   6   7
BRANCH   6  10
ATOM     10  C   UNL A   1      33.170  21.992  23.913  1.00  0.00     0.227 C 
ATOM     11  O   UNL A   1      32.974  22.632  22.872  1.00  0.00    -0.275 OA
BRANCH  10  12
ATOM     12  C   UNL A   1      32.132  20.971  24.350  1.00  0.00     0.135 C 
BRANCH  12  13
ATOM     13  C   UNL A   1      32.400  19.480  24.199  1.00  0.00    -0.036 A 
ATOM     14  C   UNL A   1      32.607  18.808  22.984  1.00  0.00     0.007 A 
ATOM     15  C   UNL A   1      32.524  18.732  25.385  1.00  0.00     0.046 A 
ATOM     16  C   UNL A   1      33.024  17.472  22.953  1.00  0.00     0.043 A 
ATOM     17  C   UNL A   1      32.892  17.388  25.346  1.00  0.00     0.159 A 
ATOM     18  C   UNL A   1      33.172  16.769  24.140  1.00  0.00     0.158 A 
ATOM     19  F   UNL A   1      32.993  16.701  26.488  1.00  0.00    -0.204 F 
ATOM     20  F   UNL A   1      33.585  15.497  24.102  1.00  0.00    -0.204 F 
ENDBRANCH  12  13
ENDBRANCH  10  12
ENDBRANCH   6  10
ENDBRANCH   5   6
ENDBRANCH   3   5
ENDBRANCH   2   3
ENDBRANCH   1   2
BRANCH   1  21
ATOM     21  C   UNL A   1      39.164  22.756  26.486  1.00  0.00     0.275 C 
BRANCH  21  22
ATOM     22  O   UNL A   1      39.333  24.175  26.293  1.00  0.00    -0.458 OA
BRANCH  22  23
ATOM     23  C   UNL A   1      40.546  24.653  26.657  1.00  0.00     0.338 C 
ATOM     24  O   UNL A   1      41.636  24.221  26.324  1.00  0.00    -0.246 OA
BRANCH  23  25
ATOM     25  C   UNL A   1      40.415  25.815  27.552  1.00  0.00     0.060 A 
ATOM     26  C   UNL A   1      41.389  26.812  27.567  1.00  0.00     0.016 A 
ATOM     27  C   UNL A   1      39.403  25.804  28.514  1.00  0.00     0.016 A 
ATOM     28  C   UNL A   1      41.401  27.746  28.606  1.00  0.00     0.010 A 
ATOM     29  C   UNL A   1      39.370  26.795  29.501  1.00  0.00     0.010 A 
ATOM     30  C   UNL A   1      40.394  27.751  29.587  1.00  0.00    -0.014 A 
BRANCH  30  31
ATOM     31  C   UNL A   1      40.418  28.752  30.691  1.00  0.00     0.031 A 
ATOM     32  C   UNL A   1      39.493  29.946  30.692  1.00  0.00     0.074 A 
ATOM     33  C   UNL A   1      41.264  28.578  31.727  1.00  0.00     0.049 A 
ATOM     34  N   UNL A   1      39.370  30.893  31.589  1.00  0.00    -0.248 NA
ATOM     35  C   UNL A   1      38.583  30.094  29.544  1.00  0.00     0.031 C 
ATOM     36  C   UNL A   1      42.215  27.474  31.864  1.00  0.00     0.029 A 
ATOM     37  N   UNL A   1      41.461  29.328  32.860  1.00  0.00    -0.354 N 
ATOM     38  C   UNL A   1      38.339  31.713  31.144  1.00  0.00     0.074 A 
ATOM     39  C   UNL A   1      37.912  31.192  29.863  1.00  0.00     0.031 C 
ATOM     40  C   UNL A   1      42.876  27.604  33.024  1.00  0.00     0.029 A 
ATOM     41  C   UNL A   1      42.439  28.831  33.686  1.00  0.00     0.049 A 
ATOM     42  H   UNL A   1      40.949  30.144  33.062  1.00  0.00     0.167 HD
ATOM     43  C   UNL A   1      37.776  32.782  31.756  1.00  0.00     0.037 A 
ATOM     44  C   UNL A   1      42.957  29.314  34.832  1.00  0.00     0.037 A 
ATOM     45  C   UNL A   1      38.210  33.332  33.014  1.00  0.00     0.049 A 
ATOM     46  C   UNL A   1      42.437  30.600  35.401  1.00  0.00     0.074 A 
ATOM     47  C   UNL A   1      37.686  34.408  33.712  1.00  0.00     0.029 A 
ATOM     48  N   UNL A   1      39.284  32.864  33.752  1.00  0.00    -0.354 N 
ATOM     49  N   UNL A   1      41.449  31.347  34.974  1.00  0.00    -0.248 NA
ATOM     50  C   UNL A   1      43.115  31.121  36.597  1.00  0.00     0.031 C 
ATOM     51  C   UNL A   1      38.477  34.621  34.848  1.00  0.00     0.029 A 
ATOM     52  C   UNL A   1      39.472  33.658  34.873  1.00  0.00     0.049 A 
ATOM     53  H   UNL A   1      39.834  32.083  33.515  1.00  0.00     0.167 HD
ATOM     54  C   UNL A   1      41.383  32.424  35.849  1.00  0.00     0.074 A 
ATOM     55  C   UNL A   1      42.423  32.226  36.837  1.00  0.00     0.031 C 
ATOM     56  C   UNL A   1      40.531  33.478  35.833  1.00  0.00     0.037 A 
BRANCH  43  57
ATOM     57  C   UNL A   1      36.616  33.440  31.065  1.00  0.00     0.058 A 
ATOM     58  C   UNL A   1      35.314  33.346  31.584  1.00  0.00     0.135 A 
ATOM     59  C   UNL A   1      36.808  34.207  29.906  1.00  0.00     0.135 A 
ATOM     60  F   UNL A   1      35.076  32.617  32.686  1.00  0.00    -0.206 F 
ATOM     61  C   UNL A   1      34.239  33.977  30.967  1.00  0.00     0.059 A 
ATOM     62  C   UNL A   1      35.749  34.858  29.280  1.00  0.00     0.059 A 
ATOM     63  F   UNL A   1      38.033  34.324  29.371  1.00  0.00    -0.206 F 
ATOM     64  C   UNL A   1      34.466  34.729  29.812  1.00  0.00     0.060 A 
BRANCH  64  65
ATOM     65  S   UNL A   1      33.062  35.545  29.022  1.00  0.00     0.124 S 
ATOM     66  O   UNL A   1      32.520  34.464  28.205  1.00  0.00    -0.237 OA
ATOM     67  O   UNL A   1      32.247  35.946  30.163  1.00  0.00    -0.237 OA
ATOM     68  O   UNL A   1      33.679  36.641  28.282  1.00  0.00    -0.744 OA
ENDBRANCH  64  65
ENDBRANCH  43  57
BRANCH  44  69
ATOM     69  C   UNL A   1      44.070  28.581  35.487  1.00  0.00     0.058 A 
ATOM     70  C   UNL A   1      43.821  27.605  36.462  1.00  0.00     0.135 A 
ATOM     71  C   UNL A   1      45.401  28.806  35.104  1.00  0.00     0.135 A 
ATOM     72  F   UNL A   1      42.565  27.367  36.868  1.00  0.00    -0.206 F 
ATOM     73  C   UNL A   1      44.855  26.864  37.025  1.00  0.00     0.059 A 
ATOM     74  C   UNL A   1      46.448  28.063  35.636  1.00  0.00     0.059 A 
ATOM     75  F   UNL A   1      45.685  29.725  34.168  1.00  0.00    -0.206 F 
ATOM     76  C   UNL A   1      46.164  27.094  36.597  1.00  0.00     0.060 A 
BRANCH  76  77
ATOM     77  S   UNL A   1      47.496  26.060  37.246  1.00  0.00     0.124 S 
ATOM     78  O   UNL A   1      48.672  26.707  36.678  1.00  0.00    -0.237 OA
ATOM     79  O   UNL A   1      47.326  26.196  38.689  1.00  0.00    -0.237 OA
ATOM     80  O   UNL A   1      47.177  24.739  36.710  1.00  0.00    -0.744 OA
ENDBRANCH  76  77
ENDBRANCH  44  69
BRANCH  56  81
ATOM     81  C   UNL A   1      40.700  34.512  36.908  1.00  0.00     0.058 A 
ATOM     82  C   UNL A   1      40.040  34.391  38.140  1.00  0.00     0.135 A 
ATOM     83  C   UNL A   1      41.540  35.619  36.718  1.00  0.00     0.135 A 
ATOM     84  F   UNL A   1      39.219  33.354  38.368  1.00  0.00    -0.206 F 
ATOM     85  C   UNL A   1      40.191  35.345  39.142  1.00  0.00     0.059 A 
ATOM     86  C   UNL A   1      41.721  36.576  37.712  1.00  0.00     0.059 A 
ATOM     87  F   UNL A   1      42.199  35.777  35.558  1.00  0.00    -0.206 F 
ATOM     88  C   UNL A   1      41.031  36.438  38.916  1.00  0.00     0.060 A 
BRANCH  88  89
ATOM     89  S   UNL A   1      41.236  37.666  40.224  1.00  0.00     0.124 S 
ATOM     90  O   UNL A   1      41.486  36.817  41.385  1.00  0.00    -0.237 OA
ATOM     91  O   UNL A   1      42.378  38.444  39.753  1.00  0.00    -0.237 OA
ATOM     92  O   UNL A   1      39.961  38.375  40.224  1.00  0.00    -0.744 OA
ENDBRANCH  88  89
ENDBRANCH  56  81
ENDBRANCH  30  31
ENDBRANCH  23  25
ENDBRANCH  22  23
ENDBRANCH  21  22
ENDBRANCH   1  21
TORSDOF 20
ENDMDL
