MODEL 1
REMARK VINA RESULT:     -11.5      0.000      0.000
REMARK SMILES Cc1csc(CNC(=O)NC[C@H]2CC[C@@H](C(=O)OCCOC(=O)c3ccc(-c4c5nc(c(-c6c(F)cc(S(=O)(=O)[O-])cc6F)c6ccc([nH]6)c(-c6c(F)cc(S(=O)(=O)[O-])cc6F)c6nc(c(-c7c(F)cc(S(=O)(=O)[O-])cc7F)c7ccc4[nH]7)C=C6)C=C5)cc3)CC2)n1
REMARK SMILES IDX 19 1 18 2 16 3 17 4 15 5 12 6 13 7 91 8 14 9 90 10 11 11
REMARK SMILES IDX 10 12 7 13 8 14 9 16 6 18 5 19 1 20 2 21 3 22 92 23 4 24
REMARK SMILES IDX 20 25 21 26 22 27 23 28 24 29 25 30 89 31 26 32 88 33 27 34
REMARK SMILES IDX 28 35 29 36 82 37 30 38 87 39 81 40 83 41 31 42 86 43 80 44
REMARK SMILES IDX 79 45 32 47 66 48 45 49 65 50 46 51 49 52 64 53 84 54 47 55
REMARK SMILES IDX 48 56 63 58 85 59 50 60 33 61 34 62 43 63 35 64 36 65 42 66
REMARK SMILES IDX 44 67 37 68 38 69 39 70 40 71 41 72 67 73 68 74 77 75 69 76
REMARK SMILES IDX 70 77 76 78 78 79 71 80 72 81 73 82 74 83 75 84 51 85 52 86
REMARK SMILES IDX 61 87 53 88 54 89 60 90 62 91 55 92 56 93 57 94 58 95 59 96
REMARK H PARENT 7 15 10 17 83 46 49 57
REMARK Flexibility Score: inf
ROOT
ATOM      1  C   UNL A   1      39.835  21.276  26.211  1.00  0.00     0.274 C 
ENDROOT
BRANCH   1   2
ATOM      2  O   UNL A   1      38.612  22.035  26.231  1.00  0.00    -0.462 OA
BRANCH   2   3
ATOM      3  C   UNL A   1      37.738  21.845  25.210  1.00  0.00     0.309 C 
ATOM      4  O   UNL A   1      37.556  20.773  24.645  1.00  0.00    -0.252 OA
BRANCH   3   5
ATOM      5  C   UNL A   1      37.043  23.133  24.773  1.00  0.00     0.099 C 
ATOM      6  C   UNL A   1      34.107  22.748  25.189  1.00  0.00     0.008 C 
ATOM      7  C   UNL A   1      35.089  22.987  26.351  1.00  0.00     0.006 C 
ATOM      8  C   UNL A   1      34.782  22.310  23.879  1.00  0.00     0.006 C 
ATOM      9  C   UNL A   1      36.324  23.780  25.951  1.00  0.00     0.015 C 
ATOM     10  C   UNL A   1      36.100  23.018  23.574  1.00  0.00     0.015 C 
BRANCH   6  11
ATOM     11  C   UNL A   1      33.069  21.684  25.598  1.00  0.00     0.121 C 
BRANCH  11  12
ATOM     12  N   UNL A   1      32.084  22.215  26.516  1.00  0.00    -0.338 N 
ATOM     13  N   UNL A   1      30.592  23.516  25.231  1.00  0.00    -0.332 N 
ATOM     14  C   UNL A   1      31.015  23.004  26.387  1.00  0.00     0.315 C 
ATOM     15  H   UNL A   1      29.828  24.128  25.339  1.00  0.00     0.165 HD
ATOM     16  O   UNL A   1      30.386  23.292  27.408  1.00  0.00    -0.249 OA
ATOM     17  H   UNL A   1      32.235  21.928  27.445  1.00  0.00     0.165 HD
BRANCH  13  18
ATOM     18  C   UNL A   1      31.007  23.370  23.851  1.00  0.00     0.185 C 
BRANCH  18  19
ATOM     19  C   UNL A   1      31.252  24.717  23.228  1.00  0.00     0.112 A 
ATOM     20  C   UNL A   1      30.263  28.140  22.681  1.00  0.00     0.067 C 
ATOM     21  C   UNL A   1      30.999  26.851  22.656  1.00  0.00     0.049 A 
ATOM     22  C   UNL A   1      32.196  26.594  22.018  1.00  0.00     0.090 A 
ATOM     23  N   UNL A   1      30.463  25.769  23.332  1.00  0.00    -0.245 NA
ATOM     24  S   UNL A   1      32.664  24.967  22.272  1.00  0.00    -0.125 S 
ENDBRANCH  18  19
ENDBRANCH  13  18
ENDBRANCH  11  12
ENDBRANCH   6  11
ENDBRANCH   3   5
ENDBRANCH   2   3
ENDBRANCH   1   2
BRANCH   1  25
ATOM     25  C   UNL A   1      41.054  22.195  26.129  1.00  0.00     0.275 C 
BRANCH  25  26
ATOM     26  O   UNL A   1      40.935  23.293  27.049  1.00  0.00    -0.458 OA
BRANCH  26  27
ATOM     27  C   UNL A   1      41.494  24.450  26.627  1.00  0.00     0.338 C 
ATOM     28  O   UNL A   1      42.092  24.643  25.577  1.00  0.00    -0.246 OA
BRANCH  27  29
ATOM     29  C   UNL A   1      41.150  25.530  27.560  1.00  0.00     0.060 A 
ATOM     30  C   UNL A   1      42.042  26.599  27.677  1.00  0.00     0.016 A 
ATOM     31  C   UNL A   1      40.015  25.458  28.367  1.00  0.00     0.016 A 
ATOM     32  C   UNL A   1      41.813  27.600  28.614  1.00  0.00     0.010 A 
ATOM     33  C   UNL A   1      39.788  26.461  29.314  1.00  0.00     0.010 A 
ATOM     34  C   UNL A   1      40.698  27.524  29.456  1.00  0.00    -0.014 A 
BRANCH  34  35
ATOM     35  C   UNL A   1      40.557  28.502  30.559  1.00  0.00     0.031 A 
ATOM     36  C   UNL A   1      41.493  28.419  31.731  1.00  0.00     0.074 A 
ATOM     37  C   UNL A   1      39.642  29.484  30.482  1.00  0.00     0.049 A 
ATOM     38  N   UNL A   1      41.519  29.138  32.824  1.00  0.00    -0.248 NA
ATOM     39  C   UNL A   1      42.543  27.390  31.661  1.00  0.00     0.031 C 
ATOM     40  C   UNL A   1      38.730  29.703  29.359  1.00  0.00     0.029 A 
ATOM     41  N   UNL A   1      39.338  30.489  31.363  1.00  0.00    -0.354 N 
ATOM     42  C   UNL A   1      42.570  28.636  33.581  1.00  0.00     0.074 A 
ATOM     43  C   UNL A   1      43.147  27.541  32.830  1.00  0.00     0.031 C 
ATOM     44  C   UNL A   1      37.975  30.785  29.615  1.00  0.00     0.029 A 
ATOM     45  C   UNL A   1      38.322  31.308  30.934  1.00  0.00     0.049 A 
ATOM     46  H   UNL A   1      39.804  30.614  32.221  1.00  0.00     0.167 HD
ATOM     47  C   UNL A   1      43.014  29.053  34.791  1.00  0.00     0.037 A 
ATOM     48  C   UNL A   1      37.728  32.350  31.547  1.00  0.00     0.037 A 
ATOM     49  C   UNL A   1      42.438  30.149  35.525  1.00  0.00     0.049 A 
ATOM     50  C   UNL A   1      38.197  32.755  32.919  1.00  0.00     0.074 A 
ATOM     51  C   UNL A   1      42.798  30.642  36.767  1.00  0.00     0.029 A 
ATOM     52  N   UNL A   1      41.378  30.925  35.079  1.00  0.00    -0.354 N 
ATOM     53  N   UNL A   1      39.168  32.249  33.641  1.00  0.00    -0.248 NA
ATOM     54  C   UNL A   1      37.483  33.867  33.560  1.00  0.00     0.031 C 
ATOM     55  C   UNL A   1      41.936  31.699  37.084  1.00  0.00     0.029 A 
ATOM     56  C   UNL A   1      41.064  31.888  36.023  1.00  0.00     0.049 A 
ATOM     57  H   UNL A   1      40.917  30.809  34.217  1.00  0.00     0.167 HD
ATOM     58  C   UNL A   1      39.200  32.998  34.813  1.00  0.00     0.074 A 
ATOM     59  C   UNL A   1      38.153  33.994  34.698  1.00  0.00     0.031 C 
ATOM     60  C   UNL A   1      40.022  32.875  35.884  1.00  0.00     0.037 A 
BRANCH  47  61
ATOM     61  C   UNL A   1      44.152  28.285  35.402  1.00  0.00     0.058 A 
ATOM     62  C   UNL A   1      43.934  27.172  36.230  1.00  0.00     0.135 A 
ATOM     63  C   UNL A   1      45.479  28.683  35.177  1.00  0.00     0.135 A 
ATOM     64  F   UNL A   1      42.683  26.761  36.496  1.00  0.00    -0.206 F 
ATOM     65  C   UNL A   1      44.989  26.508  36.848  1.00  0.00     0.059 A 
ATOM     66  C   UNL A   1      46.551  28.019  35.765  1.00  0.00     0.059 A 
ATOM     67  F   UNL A   1      45.743  29.742  34.395  1.00  0.00    -0.206 F 
ATOM     68  C   UNL A   1      46.294  26.947  36.617  1.00  0.00     0.060 A 
BRANCH  68  69
ATOM     69  S   UNL A   1      47.654  26.105  37.455  1.00  0.00     0.124 S 
ATOM     70  O   UNL A   1      47.788  26.908  38.666  1.00  0.00    -0.237 OA
ATOM     71  O   UNL A   1      47.126  24.759  37.645  1.00  0.00    -0.237 OA
ATOM     72  O   UNL A   1      48.757  26.214  36.505  1.00  0.00    -0.744 OA
ENDBRANCH  68  69
ENDBRANCH  47  61
BRANCH  48  73
ATOM     73  C   UNL A   1      36.627  33.081  30.868  1.00  0.00     0.058 A 
ATOM     74  C   UNL A   1      36.891  33.946  29.796  1.00  0.00     0.135 A 
ATOM     75  C   UNL A   1      35.290  32.917  31.263  1.00  0.00     0.135 A 
ATOM     76  F   UNL A   1      38.153  34.143  29.389  1.00  0.00    -0.206 F 
ATOM     77  C   UNL A   1      35.870  34.629  29.143  1.00  0.00     0.059 A 
ATOM     78  C   UNL A   1      34.250  33.572  30.613  1.00  0.00     0.059 A 
ATOM     79  F   UNL A   1      34.986  32.093  32.278  1.00  0.00    -0.206 F 
ATOM     80  C   UNL A   1      34.551  34.433  29.557  1.00  0.00     0.060 A 
BRANCH  80  81
ATOM     81  S   UNL A   1      33.226  35.278  28.667  1.00  0.00     0.124 S 
ATOM     82  O   UNL A   1      32.488  35.898  29.760  1.00  0.00    -0.237 OA
ATOM     83  O   UNL A   1      33.968  36.188  27.800  1.00  0.00    -0.237 OA
ATOM     84  O   UNL A   1      32.539  34.189  27.977  1.00  0.00    -0.744 OA
ENDBRANCH  80  81
ENDBRANCH  48  73
BRANCH  60  85
ATOM     85  C   UNL A   1      39.848  33.868  36.999  1.00  0.00     0.058 A 
ATOM     86  C   UNL A   1      40.458  35.131  36.963  1.00  0.00     0.135 A 
ATOM     87  C   UNL A   1      39.030  33.562  38.098  1.00  0.00     0.135 A 
ATOM     88  F   UNL A   1      41.254  35.468  35.936  1.00  0.00    -0.206 F 
ATOM     89  C   UNL A   1      40.282  36.050  37.992  1.00  0.00     0.059 A 
ATOM     90  C   UNL A   1      38.823  34.474  39.128  1.00  0.00     0.059 A 
ATOM     91  F   UNL A   1      38.417  32.370  38.174  1.00  0.00    -0.206 F 
ATOM     92  C   UNL A   1      39.464  35.710  39.072  1.00  0.00     0.060 A 
BRANCH  92  93
ATOM     93  S   UNL A   1      39.220  36.919  40.392  1.00  0.00     0.124 S 
ATOM     94  O   UNL A   1      38.438  36.148  41.353  1.00  0.00    -0.237 OA
ATOM     95  O   UNL A   1      40.589  37.230  40.793  1.00  0.00    -0.237 OA
ATOM     96  O   UNL A   1      38.507  38.005  39.729  1.00  0.00    -0.744 OA
ENDBRANCH  92  93
ENDBRANCH  60  85
ENDBRANCH  34  35
ENDBRANCH  27  29
ENDBRANCH  26  27
ENDBRANCH  25  26
ENDBRANCH   1  25
TORSDOF 18
ENDMDL
MODEL 2
REMARK VINA RESULT:     -11.4      6.632     11.998
REMARK SMILES Cc1csc(CNC(=O)NC[C@H]2CC[C@@H](C(=O)OCCOC(=O)c3ccc(-c4c5nc(c(-c6c(F)cc(S(=O)(=O)[O-])cc6F)c6ccc([nH]6)c(-c6c(F)cc(S(=O)(=O)[O-])cc6F)c6nc(c(-c7c(F)cc(S(=O)(=O)[O-])cc7F)c7ccc4[nH]7)C=C6)C=C5)cc3)CC2)n1
REMARK SMILES IDX 19 1 18 2 16 3 17 4 15 5 12 6 13 7 91 8 14 9 90 10 11 11
REMARK SMILES IDX 10 12 7 13 8 14 9 16 6 18 5 19 1 20 2 21 3 22 92 23 4 24
REMARK SMILES IDX 20 25 21 26 22 27 23 28 24 29 25 30 89 31 26 32 88 33 27 34
REMARK SMILES IDX 28 35 29 36 82 37 30 38 87 39 81 40 83 41 31 42 86 43 80 44
REMARK SMILES IDX 79 45 32 47 66 48 45 49 65 50 46 51 49 52 64 53 84 54 47 55
REMARK SMILES IDX 48 56 63 58 85 59 50 60 33 61 34 62 43 63 35 64 36 65 42 66
REMARK SMILES IDX 44 67 37 68 38 69 39 70 40 71 41 72 67 73 68 74 77 75 69 76
REMARK SMILES IDX 70 77 76 78 78 79 71 80 72 81 73 82 74 83 75 84 51 85 52 86
REMARK SMILES IDX 61 87 53 88 54 89 60 90 62 91 55 92 56 93 57 94 58 95 59 96
REMARK H PARENT 7 15 10 17 83 46 49 57
REMARK Flexibility Score: inf
ROOT
ATOM      1  C   UNL A   1      33.266  29.739  27.256  1.00  0.00     0.274 C 
ENDROOT
BRANCH   1   2
ATOM      2  O   UNL A   1      33.403  28.477  26.576  1.00  0.00    -0.462 OA
BRANCH   2   3
ATOM      3  C   UNL A   1      32.274  27.895  26.099  1.00  0.00     0.309 C 
ATOM      4  O   UNL A   1      31.486  27.250  26.779  1.00  0.00    -0.252 OA
BRANCH   3   5
ATOM      5  C   UNL A   1      32.112  28.061  24.588  1.00  0.00     0.099 C 
ATOM      6  C   UNL A   1      31.163  25.442  23.502  1.00  0.00     0.008 C 
ATOM      7  C   UNL A   1      30.248  26.398  24.289  1.00  0.00     0.006 C 
ATOM      8  C   UNL A   1      32.663  25.725  23.677  1.00  0.00     0.006 C 
ATOM      9  C   UNL A   1      30.657  27.859  24.181  1.00  0.00     0.015 C 
ATOM     10  C   UNL A   1      33.031  27.207  23.713  1.00  0.00     0.015 C 
BRANCH   6  11
ATOM     11  C   UNL A   1      30.876  23.987  23.923  1.00  0.00     0.121 C 
BRANCH  11  12
ATOM     12  N   UNL A   1      30.492  23.892  25.315  1.00  0.00    -0.338 N 
ATOM     13  N   UNL A   1      31.334  21.838  26.114  1.00  0.00    -0.332 N 
ATOM     14  C   UNL A   1      30.671  22.983  26.275  1.00  0.00     0.315 C 
ATOM     15  H   UNL A   1      31.307  21.262  26.913  1.00  0.00     0.165 HD
ATOM     16  O   UNL A   1      30.176  23.210  27.382  1.00  0.00    -0.249 OA
ATOM     17  H   UNL A   1      29.984  24.677  25.623  1.00  0.00     0.165 HD
BRANCH  13  18
ATOM     18  C   UNL A   1      32.087  21.254  25.023  1.00  0.00     0.185 C 
BRANCH  18  19
ATOM     19  C   UNL A   1      33.527  21.684  25.086  1.00  0.00     0.112 A 
ATOM     20  C   UNL A   1      36.501  22.911  23.461  1.00  0.00     0.067 C 
ATOM     21  C   UNL A   1      35.534  22.421  24.475  1.00  0.00     0.049 A 
ATOM     22  C   UNL A   1      35.762  22.265  25.828  1.00  0.00     0.090 A 
ATOM     23  N   UNL A   1      34.260  22.074  24.060  1.00  0.00    -0.245 NA
ATOM     24  S   UNL A   1      34.351  21.675  26.599  1.00  0.00    -0.125 S 
ENDBRANCH  18  19
ENDBRANCH  13  18
ENDBRANCH  11  12
ENDBRANCH   6  11
ENDBRANCH   3   5
ENDBRANCH   2   3
ENDBRANCH   1   2
BRANCH   1  25
ATOM     25  C   UNL A   1      34.633  30.356  27.554  1.00  0.00     0.275 C 
BRANCH  25  26
ATOM     26  O   UNL A   1      35.477  29.428  28.256  1.00  0.00    -0.458 OA
BRANCH  26  27
ATOM     27  C   UNL A   1      36.168  29.958  29.289  1.00  0.00     0.338 C 
ATOM     28  O   UNL A   1      35.712  30.406  30.332  1.00  0.00    -0.246 OA
BRANCH  27  29
ATOM     29  C   UNL A   1      37.608  29.788  29.056  1.00  0.00     0.060 A 
ATOM     30  C   UNL A   1      38.047  29.679  27.734  1.00  0.00     0.016 A 
ATOM     31  C   UNL A   1      38.503  29.652  30.117  1.00  0.00     0.016 A 
ATOM     32  C   UNL A   1      39.385  29.420  27.461  1.00  0.00     0.010 A 
ATOM     33  C   UNL A   1      39.848  29.385  29.843  1.00  0.00     0.010 A 
ATOM     34  C   UNL A   1      40.289  29.247  28.516  1.00  0.00    -0.014 A 
BRANCH  34  35
ATOM     35  C   UNL A   1      41.671  28.806  28.217  1.00  0.00     0.031 A 
ATOM     36  C   UNL A   1      42.790  29.806  28.294  1.00  0.00     0.074 A 
ATOM     37  C   UNL A   1      41.925  27.516  27.936  1.00  0.00     0.049 A 
ATOM     38  N   UNL A   1      44.060  29.650  28.027  1.00  0.00    -0.248 NA
ATOM     39  C   UNL A   1      42.427  31.162  28.735  1.00  0.00     0.031 C 
ATOM     40  C   UNL A   1      40.927  26.446  27.903  1.00  0.00     0.029 A 
ATOM     41  N   UNL A   1      43.104  26.885  27.637  1.00  0.00    -0.354 N 
ATOM     42  C   UNL A   1      44.646  30.891  28.246  1.00  0.00     0.074 A 
ATOM     43  C   UNL A   1      43.589  31.792  28.652  1.00  0.00     0.031 C 
ATOM     44  C   UNL A   1      41.541  25.286  27.612  1.00  0.00     0.029 A 
ATOM     45  C   UNL A   1      42.963  25.539  27.398  1.00  0.00     0.049 A 
ATOM     46  H   UNL A   1      43.970  27.350  27.598  1.00  0.00     0.167 HD
ATOM     47  C   UNL A   1      45.948  31.244  28.122  1.00  0.00     0.037 A 
ATOM     48  C   UNL A   1      43.877  24.621  27.030  1.00  0.00     0.037 A 
ATOM     49  C   UNL A   1      46.993  30.337  27.725  1.00  0.00     0.049 A 
ATOM     50  C   UNL A   1      45.308  25.051  26.836  1.00  0.00     0.074 A 
ATOM     51  C   UNL A   1      48.342  30.595  27.550  1.00  0.00     0.029 A 
ATOM     52  N   UNL A   1      46.804  28.991  27.445  1.00  0.00    -0.354 N 
ATOM     53  N   UNL A   1      45.843  26.236  27.010  1.00  0.00    -0.248 NA
ATOM     54  C   UNL A   1      46.254  24.020  26.390  1.00  0.00     0.031 C 
ATOM     55  C   UNL A   1      48.962  29.410  27.136  1.00  0.00     0.029 A 
ATOM     56  C   UNL A   1      48.008  28.406  27.090  1.00  0.00     0.049 A 
ATOM     57  H   UNL A   1      45.941  28.520  27.493  1.00  0.00     0.167 HD
ATOM     58  C   UNL A   1      47.196  26.087  26.719  1.00  0.00     0.074 A 
ATOM     59  C   UNL A   1      47.394  24.696  26.363  1.00  0.00     0.031 C 
ATOM     60  C   UNL A   1      48.183  27.017  26.746  1.00  0.00     0.037 A 
BRANCH  47  61
ATOM     61  C   UNL A   1      46.293  32.683  28.379  1.00  0.00     0.058 A 
ATOM     62  C   UNL A   1      46.239  33.651  27.363  1.00  0.00     0.135 A 
ATOM     63  C   UNL A   1      46.707  33.097  29.654  1.00  0.00     0.135 A 
ATOM     64  F   UNL A   1      45.870  33.305  26.119  1.00  0.00    -0.206 F 
ATOM     65  C   UNL A   1      46.625  34.968  27.591  1.00  0.00     0.059 A 
ATOM     66  C   UNL A   1      47.074  34.414  29.913  1.00  0.00     0.059 A 
ATOM     67  F   UNL A   1      46.778  32.212  30.662  1.00  0.00    -0.206 F 
ATOM     68  C   UNL A   1      47.052  35.337  28.868  1.00  0.00     0.060 A 
BRANCH  68  69
ATOM     69  S   UNL A   1      47.590  37.038  29.146  1.00  0.00     0.124 S 
ATOM     70  O   UNL A   1      49.008  36.848  29.437  1.00  0.00    -0.237 OA
ATOM     71  O   UNL A   1      47.287  37.679  27.872  1.00  0.00    -0.237 OA
ATOM     72  O   UNL A   1      46.772  37.473  30.274  1.00  0.00    -0.744 OA
ENDBRANCH  68  69
ENDBRANCH  47  61
BRANCH  48  73
ATOM     73  C   UNL A   1      43.469  23.208  26.821  1.00  0.00     0.058 A 
ATOM     74  C   UNL A   1      43.388  22.666  25.530  1.00  0.00     0.135 A 
ATOM     75  C   UNL A   1      43.169  22.367  27.904  1.00  0.00     0.135 A 
ATOM     76  F   UNL A   1      43.654  23.433  24.463  1.00  0.00    -0.206 F 
ATOM     77  C   UNL A   1      43.018  21.342  25.318  1.00  0.00     0.059 A 
ATOM     78  C   UNL A   1      42.818  21.035  27.720  1.00  0.00     0.059 A 
ATOM     79  F   UNL A   1      43.241  22.837  29.159  1.00  0.00    -0.206 F 
ATOM     80  C   UNL A   1      42.738  20.532  26.421  1.00  0.00     0.060 A 
BRANCH  80  81
ATOM     81  S   UNL A   1      42.314  18.798  26.141  1.00  0.00     0.124 S 
ATOM     82  O   UNL A   1      40.911  18.898  25.758  1.00  0.00    -0.237 OA
ATOM     83  O   UNL A   1      43.241  18.423  25.078  1.00  0.00    -0.237 OA
ATOM     84  O   UNL A   1      42.575  18.177  27.437  1.00  0.00    -0.744 OA
ENDBRANCH  80  81
ENDBRANCH  48  73
BRANCH  60  85
ATOM     85  C   UNL A   1      49.573  26.548  26.421  1.00  0.00     0.058 A 
ATOM     86  C   UNL A   1      50.381  25.916  27.379  1.00  0.00     0.135 A 
ATOM     87  C   UNL A   1      50.088  26.703  25.124  1.00  0.00     0.135 A 
ATOM     88  F   UNL A   1      49.937  25.750  28.635  1.00  0.00    -0.206 F 
ATOM     89  C   UNL A   1      51.662  25.473  27.067  1.00  0.00     0.059 A 
ATOM     90  C   UNL A   1      51.357  26.248  24.785  1.00  0.00     0.059 A 
ATOM     91  F   UNL A   1      49.350  27.293  24.171  1.00  0.00    -0.206 F 
ATOM     92  C   UNL A   1      52.142  25.647  25.768  1.00  0.00     0.060 A 
BRANCH  92  93
ATOM     93  S   UNL A   1      53.798  25.047  25.364  1.00  0.00     0.124 S 
ATOM     94  O   UNL A   1      54.572  25.540  26.497  1.00  0.00    -0.237 OA
ATOM     95  O   UNL A   1      53.605  23.601  25.310  1.00  0.00    -0.237 OA
ATOM     96  O   UNL A   1      54.084  25.681  24.081  1.00  0.00    -0.744 OA
ENDBRANCH  92  93
ENDBRANCH  60  85
ENDBRANCH  34  35
ENDBRANCH  27  29
ENDBRANCH  26  27
ENDBRANCH  25  26
ENDBRANCH   1  25
TORSDOF 18
ENDMDL
MODEL 3
REMARK VINA RESULT:     -11.4      1.530      2.400
REMARK SMILES Cc1csc(CNC(=O)NC[C@H]2CC[C@@H](C(=O)OCCOC(=O)c3ccc(-c4c5nc(c(-c6c(F)cc(S(=O)(=O)[O-])cc6F)c6ccc([nH]6)c(-c6c(F)cc(S(=O)(=O)[O-])cc6F)c6nc(c(-c7c(F)cc(S(=O)(=O)[O-])cc7F)c7ccc4[nH]7)C=C6)C=C5)cc3)CC2)n1
REMARK SMILES IDX 19 1 18 2 16 3 17 4 15 5 12 6 13 7 91 8 14 9 90 10 11 11
REMARK SMILES IDX 10 12 7 13 8 14 9 16 6 18 5 19 1 20 2 21 3 22 92 23 4 24
REMARK SMILES IDX 20 25 21 26 22 27 23 28 24 29 25 30 89 31 26 32 88 33 27 34
REMARK SMILES IDX 28 35 29 36 82 37 30 38 87 39 81 40 83 41 31 42 86 43 80 44
REMARK SMILES IDX 79 45 32 47 66 48 45 49 65 50 46 51 49 52 64 53 84 54 47 55
REMARK SMILES IDX 48 56 63 58 85 59 50 60 33 61 34 62 43 63 35 64 36 65 42 66
REMARK SMILES IDX 44 67 37 68 38 69 39 70 40 71 41 72 67 73 68 74 77 75 69 76
REMARK SMILES IDX 70 77 76 78 78 79 71 80 72 81 73 82 74 83 75 84 51 85 52 86
REMARK SMILES IDX 61 87 53 88 54 89 60 90 62 91 55 92 56 93 57 94 58 95 59 96
REMARK H PARENT 7 15 10 17 83 46 49 57
REMARK Flexibility Score: inf
ROOT
ATOM      1  C   UNL A   1      37.509  22.521  25.653  1.00  0.00     0.274 C 
ENDROOT
BRANCH   1   2
ATOM      2  O   UNL A   1      37.164  23.188  24.425  1.00  0.00    -0.462 OA
BRANCH   2   3
ATOM      3  C   UNL A   1      35.855  23.207  24.068  1.00  0.00     0.309 C 
ATOM      4  O   UNL A   1      35.446  23.494  22.950  1.00  0.00    -0.252 OA
BRANCH   3   5
ATOM      5  C   UNL A   1      34.915  22.906  25.235  1.00  0.00     0.099 C 
ATOM      6  C   UNL A   1      32.133  23.497  24.313  1.00  0.00     0.008 C 
ATOM      7  C   UNL A   1      32.912  22.248  23.861  1.00  0.00     0.006 C 
ATOM      8  C   UNL A   1      33.015  24.602  24.915  1.00  0.00     0.006 C 
ATOM      9  C   UNL A   1      33.952  21.783  24.869  1.00  0.00     0.015 C 
ATOM     10  C   UNL A   1      34.146  24.098  25.808  1.00  0.00     0.015 C 
BRANCH   6  11
ATOM     11  C   UNL A   1      31.348  24.077  23.119  1.00  0.00     0.121 C 
BRANCH  11  12
ATOM     12  N   UNL A   1      32.223  24.458  22.031  1.00  0.00    -0.338 N 
ATOM     13  N   UNL A   1      31.766  26.724  21.555  1.00  0.00    -0.332 N 
ATOM     14  C   UNL A   1      32.421  25.583  21.340  1.00  0.00     0.315 C 
ATOM     15  H   UNL A   1      31.996  27.427  20.905  1.00  0.00     0.165 HD
ATOM     16  O   UNL A   1      33.254  25.560  20.430  1.00  0.00    -0.249 OA
ATOM     17  H   UNL A   1      32.805  23.722  21.735  1.00  0.00     0.165 HD
BRANCH  13  18
ATOM     18  C   UNL A   1      30.791  27.158  22.534  1.00  0.00     0.185 C 
BRANCH  18  19
ATOM     19  C   UNL A   1      31.472  27.835  23.693  1.00  0.00     0.112 A 
ATOM     20  C   UNL A   1      31.767  28.435  27.235  1.00  0.00     0.067 C 
ATOM     21  C   UNL A   1      31.980  28.459  25.765  1.00  0.00     0.049 A 
ATOM     22  C   UNL A   1      32.960  29.152  25.082  1.00  0.00     0.090 A 
ATOM     23  N   UNL A   1      31.129  27.722  24.961  1.00  0.00    -0.245 NA
ATOM     24  S   UNL A   1      32.816  28.873  23.399  1.00  0.00    -0.125 S 
ENDBRANCH  18  19
ENDBRANCH  13  18
ENDBRANCH  11  12
ENDBRANCH   6  11
ENDBRANCH   3   5
ENDBRANCH   2   3
ENDBRANCH   1   2
BRANCH   1  25
ATOM     25  C   UNL A   1      38.906  22.925  26.128  1.00  0.00     0.275 C 
BRANCH  25  26
ATOM     26  O   UNL A   1      38.922  24.288  26.582  1.00  0.00    -0.458 OA
BRANCH  26  27
ATOM     27  C   UNL A   1      40.142  24.871  26.582  1.00  0.00     0.338 C 
ATOM     28  O   UNL A   1      40.994  24.805  25.706  1.00  0.00    -0.246 OA
BRANCH  27  29
ATOM     29  C   UNL A   1      40.264  25.753  27.750  1.00  0.00     0.060 A 
ATOM     30  C   UNL A   1      39.250  25.711  28.709  1.00  0.00     0.016 A 
ATOM     31  C   UNL A   1      41.313  26.667  27.862  1.00  0.00     0.016 A 
ATOM     32  C   UNL A   1      39.267  26.592  29.783  1.00  0.00     0.010 A 
ATOM     33  C   UNL A   1      41.327  27.558  28.938  1.00  0.00     0.010 A 
ATOM     34  C   UNL A   1      40.293  27.538  29.891  1.00  0.00    -0.014 A 
BRANCH  34  35
ATOM     35  C   UNL A   1      40.209  28.578  30.942  1.00  0.00     0.031 A 
ATOM     36  C   UNL A   1      41.157  28.518  32.107  1.00  0.00     0.074 A 
ATOM     37  C   UNL A   1      39.335  29.592  30.824  1.00  0.00     0.049 A 
ATOM     38  N   UNL A   1      41.228  29.290  33.159  1.00  0.00    -0.248 NA
ATOM     39  C   UNL A   1      42.162  27.442  32.079  1.00  0.00     0.031 C 
ATOM     40  C   UNL A   1      38.417  29.791  29.702  1.00  0.00     0.029 A 
ATOM     41  N   UNL A   1      39.085  30.655  31.654  1.00  0.00    -0.354 N 
ATOM     42  C   UNL A   1      42.267  28.785  33.929  1.00  0.00     0.074 A 
ATOM     43  C   UNL A   1      42.788  27.629  33.231  1.00  0.00     0.031 C 
ATOM     44  C   UNL A   1      37.712  30.916  29.909  1.00  0.00     0.029 A 
ATOM     45  C   UNL A   1      38.098  31.492  31.194  1.00  0.00     0.049 A 
ATOM     46  H   UNL A   1      39.568  30.804  32.499  1.00  0.00     0.167 HD
ATOM     47  C   UNL A   1      42.746  29.245  35.110  1.00  0.00     0.037 A 
ATOM     48  C   UNL A   1      37.557  32.589  31.758  1.00  0.00     0.037 A 
ATOM     49  C   UNL A   1      42.226  30.402  35.792  1.00  0.00     0.049 A 
ATOM     50  C   UNL A   1      38.061  33.045  33.101  1.00  0.00     0.074 A 
ATOM     51  C   UNL A   1      42.624  30.944  37.002  1.00  0.00     0.029 A 
ATOM     52  N   UNL A   1      41.193  31.198  35.318  1.00  0.00    -0.354 N 
ATOM     53  N   UNL A   1      39.020  32.537  33.838  1.00  0.00    -0.248 NA
ATOM     54  C   UNL A   1      37.404  34.219  33.691  1.00  0.00     0.031 C 
ATOM     55  C   UNL A   1      41.811  32.051  37.272  1.00  0.00     0.029 A 
ATOM     56  C   UNL A   1      40.933  32.222  36.213  1.00  0.00     0.049 A 
ATOM     57  H   UNL A   1      40.716  31.057  34.469  1.00  0.00     0.167 HD
ATOM     58  C   UNL A   1      39.100  33.345  34.968  1.00  0.00     0.074 A 
ATOM     59  C   UNL A   1      38.094  34.377  34.813  1.00  0.00     0.031 C 
ATOM     60  C   UNL A   1      39.931  33.243  36.034  1.00  0.00     0.037 A 
BRANCH  47  61
ATOM     61  C   UNL A   1      43.858  28.464  35.748  1.00  0.00     0.058 A 
ATOM     62  C   UNL A   1      45.209  28.748  35.486  1.00  0.00     0.135 A 
ATOM     63  C   UNL A   1      43.572  27.398  36.615  1.00  0.00     0.135 A 
ATOM     64  F   UNL A   1      45.539  29.743  34.647  1.00  0.00    -0.206 F 
ATOM     65  C   UNL A   1      46.233  27.977  36.026  1.00  0.00     0.059 A 
ATOM     66  C   UNL A   1      44.580  26.628  37.187  1.00  0.00     0.059 A 
ATOM     67  F   UNL A   1      42.298  27.082  36.899  1.00  0.00    -0.206 F 
ATOM     68  C   UNL A   1      45.907  26.911  36.867  1.00  0.00     0.060 A 
BRANCH  68  69
ATOM     69  S   UNL A   1      47.240  25.890  37.531  1.00  0.00     0.124 S 
ATOM     70  O   UNL A   1      47.730  25.234  36.323  1.00  0.00    -0.237 OA
ATOM     71  O   UNL A   1      48.135  26.880  38.121  1.00  0.00    -0.237 OA
ATOM     72  O   UNL A   1      46.558  25.020  38.485  1.00  0.00    -0.744 OA
ENDBRANCH  68  69
ENDBRANCH  47  61
BRANCH  48  73
ATOM     73  C   UNL A   1      36.478  33.329  31.054  1.00  0.00     0.058 A 
ATOM     74  C   UNL A   1      36.775  34.202  29.997  1.00  0.00     0.135 A 
ATOM     75  C   UNL A   1      35.130  33.168  31.410  1.00  0.00     0.135 A 
ATOM     76  F   UNL A   1      38.049  34.397  29.627  1.00  0.00    -0.206 F 
ATOM     77  C   UNL A   1      35.776  34.894  29.321  1.00  0.00     0.059 A 
ATOM     78  C   UNL A   1      34.111  33.832  30.736  1.00  0.00     0.059 A 
ATOM     79  F   UNL A   1      34.794  32.337  32.410  1.00  0.00    -0.206 F 
ATOM     80  C   UNL A   1      34.445  34.699  29.696  1.00  0.00     0.060 A 
BRANCH  80  81
ATOM     81  S   UNL A   1      33.148  35.556  28.776  1.00  0.00     0.124 S 
ATOM     82  O   UNL A   1      32.522  34.454  28.056  1.00  0.00    -0.237 OA
ATOM     83  O   UNL A   1      32.354  36.154  29.845  1.00  0.00    -0.237 OA
ATOM     84  O   UNL A   1      33.893  36.507  27.954  1.00  0.00    -0.744 OA
ENDBRANCH  80  81
ENDBRANCH  48  73
BRANCH  60  85
ATOM     85  C   UNL A   1      39.814  34.300  37.097  1.00  0.00     0.058 A 
ATOM     86  C   UNL A   1      40.566  35.483  37.045  1.00  0.00     0.135 A 
ATOM     87  C   UNL A   1      38.911  34.139  38.159  1.00  0.00     0.135 A 
ATOM     88  F   UNL A   1      41.448  35.681  36.052  1.00  0.00    -0.206 F 
ATOM     89  C   UNL A   1      40.443  36.463  38.025  1.00  0.00     0.059 A 
ATOM     90  C   UNL A   1      38.756  35.114  39.138  1.00  0.00     0.059 A 
ATOM     91  F   UNL A   1      38.163  33.028  38.248  1.00  0.00    -0.206 F 
ATOM     92  C   UNL A   1      39.537  36.267  39.069  1.00  0.00     0.060 A 
BRANCH  92  93
ATOM     93  S   UNL A   1      39.364  37.555  40.324  1.00  0.00     0.124 S 
ATOM     94  O   UNL A   1      38.354  38.418  39.721  1.00  0.00    -0.237 OA
ATOM     95  O   UNL A   1      38.933  36.798  41.496  1.00  0.00    -0.237 OA
ATOM     96  O   UNL A   1      40.706  38.123  40.413  1.00  0.00    -0.744 OA
ENDBRANCH  92  93
ENDBRANCH  60  85
ENDBRANCH  34  35
ENDBRANCH  27  29
ENDBRANCH  26  27
ENDBRANCH  25  26
ENDBRANCH   1  25
TORSDOF 18
ENDMDL
