MODEL 1
REMARK VINA RESULT:     -10.9      0.000      0.000
REMARK SMILES CC1=CC[C@@H]2C(=O)N(c3ccc(Cl)c(C(=O)OCCOC(=O)c4ccc(-c5c6nc(c(-c7c(F)cc(S(=O)(=O)[O-])cc7F)c7ccc([nH]7)c(-c7c(F)cc(S(=O)(=O)[O-])cc7F)c7nc(c(-c8c(F)cc(S(=O)(=O)[O-])cc8F)c8ccc5[nH]8)C=C7)C=C6)cc4)c3)C(=O)[C@H]2C1
REMARK SMILES IDX 19 1 18 2 17 3 15 4 16 5 14 6 9 7 10 8 89 9 11 10 12 11
REMARK SMILES IDX 13 12 8 13 1 14 2 15 3 16 93 17 4 18 92 19 5 20 90 21 6 22
REMARK SMILES IDX 91 23 7 24 20 25 21 26 22 27 23 28 24 29 88 30 25 31 87 32
REMARK SMILES IDX 26 33 27 34 28 35 81 36 29 37 86 38 80 39 82 40 30 41 85 42
REMARK SMILES IDX 79 43 78 44 31 46 65 47 44 48 64 49 45 50 48 51 63 52 83 53
REMARK SMILES IDX 46 54 47 55 62 57 84 58 49 59 32 60 33 61 42 62 34 63 35 64
REMARK SMILES IDX 41 65 43 66 36 67 37 68 38 69 39 70 40 71 66 72 67 73 76 74
REMARK SMILES IDX 68 75 69 76 75 77 77 78 70 79 71 80 72 81 73 82 74 83 50 84
REMARK SMILES IDX 51 85 60 86 52 87 53 88 59 89 61 90 54 91 55 92 56 93 57 94
REMARK SMILES IDX 58 95
REMARK H PARENT 82 45 48 56
REMARK Flexibility Score: inf
ROOT
ATOM      1  C   UNL A   1      34.558  33.093  28.043  1.00  0.00     0.275 C 
ENDROOT
BRANCH   1   2
ATOM      2  C   UNL A   1      33.366  34.001  28.330  1.00  0.00     0.275 C 
BRANCH   2   3
ATOM      3  O   UNL A   1      33.207  34.208  29.750  1.00  0.00    -0.458 OA
BRANCH   3   4
ATOM      4  C   UNL A   1      33.583  35.426  30.207  1.00  0.00     0.339 C 
ATOM      5  O   UNL A   1      33.417  36.496  29.652  1.00  0.00    -0.246 OA
BRANCH   4   6
ATOM      6  C   UNL A   1      34.183  35.345  31.555  1.00  0.00     0.080 A 
ATOM      7  C   UNL A   1      35.850  34.223  32.941  1.00  0.00     0.053 A 
ATOM      8  C   UNL A   1      35.200  34.697  34.081  1.00  0.00     0.028 A 
ATOM      9  C   UNL A   1      35.337  34.556  31.686  1.00  0.00     0.044 A 
ATOM     10  C   UNL A   1      34.082  35.535  33.956  1.00  0.00     0.023 A 
ATOM     11  C   UNL A   1      33.561  35.851  32.696  1.00  0.00     0.055 A 
ATOM     12  Cl  UNL A   1      32.110  36.787  32.643  1.00  0.00    -0.083 Cl
BRANCH   7  13
ATOM     13  N   UNL A   1      36.959  33.357  33.031  1.00  0.00    -0.250 N 
ATOM     14  C   UNL A   1      40.883  28.711  32.963  1.00  0.00     0.039 C 
ATOM     15  C   UNL A   1      40.233  30.041  33.225  1.00  0.00    -0.076 C 
ATOM     16  C   UNL A   1      40.919  31.054  33.808  1.00  0.00    -0.027 C 
ATOM     17  C   UNL A   1      38.768  30.176  32.816  1.00  0.00     0.044 C 
ATOM     18  C   UNL A   1      40.360  32.448  34.003  1.00  0.00     0.041 C 
ATOM     19  C   UNL A   1      38.190  31.439  33.430  1.00  0.00     0.096 C 
ATOM     20  C   UNL A   1      39.132  32.595  33.126  1.00  0.00     0.096 C 
ATOM     21  C   UNL A   1      36.868  31.975  32.968  1.00  0.00     0.238 C 
ATOM     22  C   UNL A   1      38.248  33.794  33.272  1.00  0.00     0.238 C 
ATOM     23  O   UNL A   1      35.895  31.298  32.676  1.00  0.00    -0.274 OA
ATOM     24  O   UNL A   1      38.632  34.930  33.499  1.00  0.00    -0.274 OA
ENDBRANCH   7  13
ENDBRANCH   4   6
ENDBRANCH   3   4
ENDBRANCH   2   3
ENDBRANCH   1   2
BRANCH   1  25
ATOM     25  O   UNL A   1      34.493  31.933  28.891  1.00  0.00    -0.458 OA
BRANCH  25  26
ATOM     26  C   UNL A   1      34.454  30.745  28.252  1.00  0.00     0.338 C 
ATOM     27  O   UNL A   1      33.504  30.256  27.650  1.00  0.00    -0.246 OA
BRANCH  26  28
ATOM     28  C   UNL A   1      35.769  30.093  28.330  1.00  0.00     0.060 A 
ATOM     29  C   UNL A   1      36.218  29.628  29.560  1.00  0.00     0.016 A 
ATOM     30  C   UNL A   1      36.619  30.084  27.228  1.00  0.00     0.016 A 
ATOM     31  C   UNL A   1      37.561  29.304  29.733  1.00  0.00     0.010 A 
ATOM     32  C   UNL A   1      37.933  29.622  27.376  1.00  0.00     0.010 A 
ATOM     33  C   UNL A   1      38.444  29.282  28.643  1.00  0.00    -0.014 A 
BRANCH  33  34
ATOM     34  C   UNL A   1      39.891  28.951  28.831  1.00  0.00     0.031 A 
ATOM     35  C   UNL A   1      40.848  29.992  29.367  1.00  0.00     0.074 A 
ATOM     36  C   UNL A   1      40.367  27.724  28.532  1.00  0.00     0.049 A 
ATOM     37  N   UNL A   1      42.158  29.981  29.385  1.00  0.00    -0.248 NA
ATOM     38  C   UNL A   1      40.257  31.215  29.934  1.00  0.00     0.031 C 
ATOM     39  C   UNL A   1      39.571  26.598  28.038  1.00  0.00     0.029 A 
ATOM     40  N   UNL A   1      41.642  27.213  28.602  1.00  0.00    -0.354 N 
ATOM     41  C   UNL A   1      42.546  31.223  29.880  1.00  0.00     0.074 A 
ATOM     42  C   UNL A   1      41.331  31.959  30.160  1.00  0.00     0.031 C 
ATOM     43  C   UNL A   1      40.359  25.522  27.900  1.00  0.00     0.029 A 
ATOM     44  C   UNL A   1      41.736  25.905  28.187  1.00  0.00     0.049 A 
ATOM     45  H   UNL A   1      42.415  27.735  28.918  1.00  0.00     0.167 HD
ATOM     46  C   UNL A   1      43.797  31.706  30.078  1.00  0.00     0.037 A 
ATOM     47  C   UNL A   1      42.807  25.108  28.001  1.00  0.00     0.037 A 
ATOM     48  C   UNL A   1      45.001  30.940  29.883  1.00  0.00     0.049 A 
ATOM     49  C   UNL A   1      44.183  25.657  28.239  1.00  0.00     0.074 A 
ATOM     50  C   UNL A   1      46.314  31.331  30.091  1.00  0.00     0.029 A 
ATOM     51  N   UNL A   1      45.043  29.619  29.459  1.00  0.00    -0.354 N 
ATOM     52  N   UNL A   1      44.533  26.855  28.640  1.00  0.00    -0.248 NA
ATOM     53  C   UNL A   1      45.313  24.755  27.977  1.00  0.00     0.031 C 
ATOM     54  C   UNL A   1      47.149  30.255  29.769  1.00  0.00     0.029 A 
ATOM     55  C   UNL A   1      46.357  29.182  29.398  1.00  0.00     0.049 A 
ATOM     56  H   UNL A   1      44.255  29.074  29.234  1.00  0.00     0.167 HD
ATOM     57  C   UNL A   1      45.922  26.850  28.684  1.00  0.00     0.074 A 
ATOM     58  C   UNL A   1      46.348  25.522  28.290  1.00  0.00     0.031 C 
ATOM     59  C   UNL A   1      46.767  27.857  29.013  1.00  0.00     0.037 A 
BRANCH  46  60
ATOM     60  C   UNL A   1      43.938  33.143  30.506  1.00  0.00     0.058 A 
ATOM     61  C   UNL A   1      44.095  34.186  29.582  1.00  0.00     0.135 A 
ATOM     62  C   UNL A   1      43.866  33.482  31.868  1.00  0.00     0.135 A 
ATOM     63  F   UNL A   1      44.181  33.920  28.269  1.00  0.00    -0.206 F 
ATOM     64  C   UNL A   1      44.203  35.513  29.995  1.00  0.00     0.059 A 
ATOM     65  C   UNL A   1      43.943  34.803  32.301  1.00  0.00     0.059 A 
ATOM     66  F   UNL A   1      43.710  32.524  32.796  1.00  0.00    -0.206 F 
ATOM     67  C   UNL A   1      44.128  35.811  31.356  1.00  0.00     0.060 A 
BRANCH  67  68
ATOM     68  S   UNL A   1      44.257  37.536  31.877  1.00  0.00     0.124 S 
ATOM     69  O   UNL A   1      43.385  37.552  33.047  1.00  0.00    -0.237 OA
ATOM     70  O   UNL A   1      45.685  37.675  32.149  1.00  0.00    -0.237 OA
ATOM     71  O   UNL A   1      43.769  38.278  30.719  1.00  0.00    -0.744 OA
ENDBRANCH  67  68
ENDBRANCH  46  60
BRANCH  47  72
ATOM     72  C   UNL A   1      42.616  23.714  27.515  1.00  0.00     0.058 A 
ATOM     73  C   UNL A   1      42.650  23.417  26.145  1.00  0.00     0.135 A 
ATOM     74  C   UNL A   1      42.425  22.651  28.411  1.00  0.00     0.135 A 
ATOM     75  F   UNL A   1      42.818  24.403  25.249  1.00  0.00    -0.206 F 
ATOM     76  C   UNL A   1      42.498  22.116  25.678  1.00  0.00     0.059 A 
ATOM     77  C   UNL A   1      42.300  21.338  27.970  1.00  0.00     0.059 A 
ATOM     78  F   UNL A   1      42.397  22.880  29.733  1.00  0.00    -0.206 F 
ATOM     79  C   UNL A   1      42.329  21.082  26.600  1.00  0.00     0.060 A 
BRANCH  79  80
ATOM     80  S   UNL A   1      42.203  19.385  25.992  1.00  0.00     0.124 S 
ATOM     81  O   UNL A   1      43.096  19.421  24.841  1.00  0.00    -0.237 OA
ATOM     82  O   UNL A   1      42.670  18.610  27.139  1.00  0.00    -0.237 OA
ATOM     83  O   UNL A   1      40.783  19.245  25.689  1.00  0.00    -0.744 OA
ENDBRANCH  79  80
ENDBRANCH  47  72
BRANCH  59  84
ATOM     84  C   UNL A   1      48.238  27.551  28.998  1.00  0.00     0.058 A 
ATOM     85  C   UNL A   1      49.014  27.722  27.841  1.00  0.00     0.135 A 
ATOM     86  C   UNL A   1      48.883  27.114  30.165  1.00  0.00     0.135 A 
ATOM     87  F   UNL A   1      48.441  28.129  26.698  1.00  0.00    -0.206 F 
ATOM     88  C   UNL A   1      50.377  27.447  27.836  1.00  0.00     0.059 A 
ATOM     89  C   UNL A   1      50.250  26.855  30.189  1.00  0.00     0.059 A 
ATOM     90  F   UNL A   1      48.186  26.942  31.300  1.00  0.00    -0.206 F 
ATOM     91  C   UNL A   1      50.987  27.013  29.015  1.00  0.00     0.060 A 
BRANCH  91  92
ATOM     92  S   UNL A   1      52.761  26.681  29.006  1.00  0.00     0.124 S 
ATOM     93  O   UNL A   1      52.935  25.976  30.271  1.00  0.00    -0.237 OA
ATOM     94  O   UNL A   1      52.924  25.872  27.802  1.00  0.00    -0.237 OA
ATOM     95  O   UNL A   1      53.355  28.013  28.942  1.00  0.00    -0.744 OA
ENDBRANCH  91  92
ENDBRANCH  59  84
ENDBRANCH  33  34
ENDBRANCH  26  28
ENDBRANCH  25  26
ENDBRANCH   1  25
TORSDOF 15
ENDMDL
MODEL 2
REMARK VINA RESULT:     -10.9      4.031      6.727
REMARK SMILES CC1=CC[C@@H]2C(=O)N(c3ccc(Cl)c(C(=O)OCCOC(=O)c4ccc(-c5c6nc(c(-c7c(F)cc(S(=O)(=O)[O-])cc7F)c7ccc([nH]7)c(-c7c(F)cc(S(=O)(=O)[O-])cc7F)c7nc(c(-c8c(F)cc(S(=O)(=O)[O-])cc8F)c8ccc5[nH]8)C=C7)C=C6)cc4)c3)C(=O)[C@H]2C1
REMARK SMILES IDX 19 1 18 2 17 3 15 4 16 5 14 6 9 7 10 8 89 9 11 10 12 11
REMARK SMILES IDX 13 12 8 13 1 14 2 15 3 16 93 17 4 18 92 19 5 20 90 21 6 22
REMARK SMILES IDX 91 23 7 24 20 25 21 26 22 27 23 28 24 29 88 30 25 31 87 32
REMARK SMILES IDX 26 33 27 34 28 35 81 36 29 37 86 38 80 39 82 40 30 41 85 42
REMARK SMILES IDX 79 43 78 44 31 46 65 47 44 48 64 49 45 50 48 51 63 52 83 53
REMARK SMILES IDX 46 54 47 55 62 57 84 58 49 59 32 60 33 61 42 62 34 63 35 64
REMARK SMILES IDX 41 65 43 66 36 67 37 68 38 69 39 70 40 71 66 72 67 73 76 74
REMARK SMILES IDX 68 75 69 76 75 77 77 78 70 79 71 80 72 81 73 82 74 83 50 84
REMARK SMILES IDX 51 85 60 86 52 87 53 88 59 89 61 90 54 91 55 92 56 93 57 94
REMARK SMILES IDX 58 95
REMARK H PARENT 82 45 48 56
REMARK Flexibility Score: inf
ROOT
ATOM      1  C   UNL A   1      34.209  31.156  27.689  1.00  0.00     0.275 C 
ENDROOT
BRANCH   1   2
ATOM      2  C   UNL A   1      32.922  30.465  27.251  1.00  0.00     0.275 C 
BRANCH   2   3
ATOM      3  O   UNL A   1      33.146  29.057  27.023  1.00  0.00    -0.458 OA
BRANCH   3   4
ATOM      4  C   UNL A   1      32.042  28.274  27.081  1.00  0.00     0.339 C 
ATOM      5  O   UNL A   1      31.249  28.200  28.000  1.00  0.00    -0.246 OA
BRANCH   4   6
ATOM      6  C   UNL A   1      31.832  27.528  25.824  1.00  0.00     0.080 A 
ATOM      7  C   UNL A   1      32.336  25.472  24.607  1.00  0.00     0.053 A 
ATOM      8  C   UNL A   1      31.944  26.094  23.422  1.00  0.00     0.028 A 
ATOM      9  C   UNL A   1      32.273  26.193  25.800  1.00  0.00     0.044 A 
ATOM     10  C   UNL A   1      31.446  27.405  23.447  1.00  0.00     0.023 A 
ATOM     11  C   UNL A   1      31.401  28.131  24.643  1.00  0.00     0.055 A 
ATOM     12  Cl  UNL A   1      30.891  29.779  24.558  1.00  0.00    -0.083 Cl
BRANCH   7  13
ATOM     13  N   UNL A   1      32.867  24.165  24.613  1.00  0.00    -0.250 N 
ATOM     14  C   UNL A   1      33.890  18.173  24.431  1.00  0.00     0.039 C 
ATOM     15  C   UNL A   1      34.046  19.653  24.647  1.00  0.00    -0.076 C 
ATOM     16  C   UNL A   1      35.239  20.188  24.999  1.00  0.00    -0.027 C 
ATOM     17  C   UNL A   1      32.790  20.503  24.463  1.00  0.00     0.044 C 
ATOM     18  C   UNL A   1      35.490  21.677  25.127  1.00  0.00     0.041 C 
ATOM     19  C   UNL A   1      33.042  21.894  25.020  1.00  0.00     0.096 C 
ATOM     20  C   UNL A   1      34.353  22.411  24.445  1.00  0.00     0.096 C 
ATOM     21  C   UNL A   1      32.095  23.018  24.718  1.00  0.00     0.238 C 
ATOM     22  C   UNL A   1      34.223  23.894  24.598  1.00  0.00     0.238 C 
ATOM     23  O   UNL A   1      30.880  22.922  24.660  1.00  0.00    -0.274 OA
ATOM     24  O   UNL A   1      35.153  24.684  24.634  1.00  0.00    -0.274 OA
ENDBRANCH   7  13
ENDBRANCH   4   6
ENDBRANCH   3   4
ENDBRANCH   2   3
ENDBRANCH   1   2
BRANCH   1  25
ATOM     25  O   UNL A   1      35.045  30.217  28.387  1.00  0.00    -0.458 OA
BRANCH  25  26
ATOM     26  C   UNL A   1      36.039  30.757  29.123  1.00  0.00     0.338 C 
ATOM     27  O   UNL A   1      35.959  31.695  29.907  1.00  0.00    -0.246 OA
BRANCH  26  28
ATOM     28  C   UNL A   1      37.288  30.017  28.892  1.00  0.00     0.060 A 
ATOM     29  C   UNL A   1      38.038  29.602  29.987  1.00  0.00     0.016 A 
ATOM     30  C   UNL A   1      37.797  29.873  27.604  1.00  0.00     0.016 A 
ATOM     31  C   UNL A   1      39.357  29.193  29.812  1.00  0.00     0.010 A 
ATOM     32  C   UNL A   1      39.074  29.328  27.425  1.00  0.00     0.010 A 
ATOM     33  C   UNL A   1      39.899  29.035  28.528  1.00  0.00    -0.014 A 
BRANCH  33  34
ATOM     34  C   UNL A   1      41.323  28.613  28.340  1.00  0.00     0.031 A 
ATOM     35  C   UNL A   1      42.441  29.623  28.464  1.00  0.00     0.074 A 
ATOM     36  C   UNL A   1      41.634  27.329  28.061  1.00  0.00     0.049 A 
ATOM     37  N   UNL A   1      43.699  29.512  28.116  1.00  0.00    -0.248 NA
ATOM     38  C   UNL A   1      42.095  30.936  29.031  1.00  0.00     0.031 C 
ATOM     39  C   UNL A   1      40.678  26.226  27.942  1.00  0.00     0.029 A 
ATOM     40  N   UNL A   1      42.850  26.730  27.829  1.00  0.00    -0.354 N 
ATOM     41  C   UNL A   1      44.270  30.762  28.337  1.00  0.00     0.074 A 
ATOM     42  C   UNL A   1      43.222  31.613  28.861  1.00  0.00     0.031 C 
ATOM     43  C   UNL A   1      41.342  25.085  27.712  1.00  0.00     0.029 A 
ATOM     44  C   UNL A   1      42.759  25.385  27.556  1.00  0.00     0.049 A 
ATOM     45  H   UNL A   1      43.705  27.218  27.855  1.00  0.00     0.167 HD
ATOM     46  C   UNL A   1      45.546  31.163  28.121  1.00  0.00     0.037 A 
ATOM     47  C   UNL A   1      43.694  24.493  27.170  1.00  0.00     0.037 A 
ATOM     48  C   UNL A   1      46.607  30.291  27.686  1.00  0.00     0.049 A 
ATOM     49  C   UNL A   1      45.105  24.954  26.949  1.00  0.00     0.074 A 
ATOM     50  C   UNL A   1      47.941  30.597  27.472  1.00  0.00     0.029 A 
ATOM     51  N   UNL A   1      46.463  28.937  27.420  1.00  0.00    -0.354 N 
ATOM     52  N   UNL A   1      45.611  26.155  27.097  1.00  0.00    -0.248 NA
ATOM     53  C   UNL A   1      46.069  23.947  26.486  1.00  0.00     0.031 C 
ATOM     54  C   UNL A   1      48.598  29.434  27.054  1.00  0.00     0.029 A 
ATOM     55  C   UNL A   1      47.682  28.395  27.044  1.00  0.00     0.049 A 
ATOM     56  H   UNL A   1      45.619  28.435  27.488  1.00  0.00     0.167 HD
ATOM     57  C   UNL A   1      46.953  26.046  26.751  1.00  0.00     0.074 A 
ATOM     58  C   UNL A   1      47.185  24.657  26.408  1.00  0.00     0.031 C 
ATOM     59  C   UNL A   1      47.903  27.011  26.713  1.00  0.00     0.037 A 
BRANCH  46  60
ATOM     60  C   UNL A   1      45.872  32.619  28.326  1.00  0.00     0.058 A 
ATOM     61  C   UNL A   1      46.347  33.115  29.549  1.00  0.00     0.135 A 
ATOM     62  C   UNL A   1      45.752  33.524  27.257  1.00  0.00     0.135 A 
ATOM     63  F   UNL A   1      46.471  32.298  30.607  1.00  0.00    -0.206 F 
ATOM     64  C   UNL A   1      46.664  34.462  29.714  1.00  0.00     0.059 A 
ATOM     65  C   UNL A   1      46.089  34.868  27.391  1.00  0.00     0.059 A 
ATOM     66  F   UNL A   1      45.309  33.103  26.061  1.00  0.00    -0.206 F 
ATOM     67  C   UNL A   1      46.530  35.331  28.630  1.00  0.00     0.060 A 
BRANCH  67  68
ATOM     68  S   UNL A   1      46.956  37.072  28.854  1.00  0.00     0.124 S 
ATOM     69  O   UNL A   1      45.783  37.732  28.289  1.00  0.00    -0.237 OA
ATOM     70  O   UNL A   1      47.104  37.174  30.303  1.00  0.00    -0.237 OA
ATOM     71  O   UNL A   1      48.190  37.221  28.090  1.00  0.00    -0.744 OA
ENDBRANCH  67  68
ENDBRANCH  46  60
BRANCH  47  72
ATOM     72  C   UNL A   1      43.306  23.079  26.919  1.00  0.00     0.058 A 
ATOM     73  C   UNL A   1      43.245  22.568  25.615  1.00  0.00     0.135 A 
ATOM     74  C   UNL A   1      43.018  22.204  27.979  1.00  0.00     0.135 A 
ATOM     75  F   UNL A   1      43.500  23.370  24.568  1.00  0.00    -0.206 F 
ATOM     76  C   UNL A   1      42.908  21.242  25.367  1.00  0.00     0.059 A 
ATOM     77  C   UNL A   1      42.709  20.866  27.758  1.00  0.00     0.059 A 
ATOM     78  F   UNL A   1      43.076  22.639  29.247  1.00  0.00    -0.206 F 
ATOM     79  C   UNL A   1      42.648  20.396  26.447  1.00  0.00     0.060 A 
BRANCH  79  80
ATOM     80  S   UNL A   1      42.281  18.657  26.124  1.00  0.00     0.124 S 
ATOM     81  O   UNL A   1      43.215  18.358  25.045  1.00  0.00    -0.237 OA
ATOM     82  O   UNL A   1      42.572  18.035  27.413  1.00  0.00    -0.237 OA
ATOM     83  O   UNL A   1      40.870  18.678  25.752  1.00  0.00    -0.744 OA
ENDBRANCH  79  80
ENDBRANCH  47  72
BRANCH  59  84
ATOM     84  C   UNL A   1      49.291  26.592  26.322  1.00  0.00     0.058 A 
ATOM     85  C   UNL A   1      50.164  25.989  27.239  1.00  0.00     0.135 A 
ATOM     86  C   UNL A   1      49.740  26.769  25.003  1.00  0.00     0.135 A 
ATOM     87  F   UNL A   1      49.785  25.808  28.514  1.00  0.00    -0.206 F 
ATOM     88  C   UNL A   1      51.446  25.594  26.869  1.00  0.00     0.059 A 
ATOM     89  C   UNL A   1      51.009  26.360  24.605  1.00  0.00     0.059 A 
ATOM     90  F   UNL A   1      48.939  27.334  24.086  1.00  0.00    -0.206 F 
ATOM     91  C   UNL A   1      51.860  25.785  25.549  1.00  0.00     0.060 A 
BRANCH  91  92
ATOM     92  S   UNL A   1      53.516  25.248  25.071  1.00  0.00     0.124 S 
ATOM     93  O   UNL A   1      53.536  25.587  23.652  1.00  0.00    -0.237 OA
ATOM     94  O   UNL A   1      54.371  26.062  25.929  1.00  0.00    -0.237 OA
ATOM     95  O   UNL A   1      53.510  23.820  25.376  1.00  0.00    -0.744 OA
ENDBRANCH  91  92
ENDBRANCH  59  84
ENDBRANCH  33  34
ENDBRANCH  26  28
ENDBRANCH  25  26
ENDBRANCH   1  25
TORSDOF 15
ENDMDL
MODEL 3
REMARK VINA RESULT:     -10.6      4.018      6.735
REMARK SMILES CC1=CC[C@@H]2C(=O)N(c3ccc(Cl)c(C(=O)OCCOC(=O)c4ccc(-c5c6nc(c(-c7c(F)cc(S(=O)(=O)[O-])cc7F)c7ccc([nH]7)c(-c7c(F)cc(S(=O)(=O)[O-])cc7F)c7nc(c(-c8c(F)cc(S(=O)(=O)[O-])cc8F)c8ccc5[nH]8)C=C7)C=C6)cc4)c3)C(=O)[C@H]2C1
REMARK SMILES IDX 19 1 18 2 17 3 15 4 16 5 14 6 9 7 10 8 89 9 11 10 12 11
REMARK SMILES IDX 13 12 8 13 1 14 2 15 3 16 93 17 4 18 92 19 5 20 90 21 6 22
REMARK SMILES IDX 91 23 7 24 20 25 21 26 22 27 23 28 24 29 88 30 25 31 87 32
REMARK SMILES IDX 26 33 27 34 28 35 81 36 29 37 86 38 80 39 82 40 30 41 85 42
REMARK SMILES IDX 79 43 78 44 31 46 65 47 44 48 64 49 45 50 48 51 63 52 83 53
REMARK SMILES IDX 46 54 47 55 62 57 84 58 49 59 32 60 33 61 42 62 34 63 35 64
REMARK SMILES IDX 41 65 43 66 36 67 37 68 38 69 39 70 40 71 66 72 67 73 76 74
REMARK SMILES IDX 68 75 69 76 75 77 77 78 70 79 71 80 72 81 73 82 74 83 50 84
REMARK SMILES IDX 51 85 60 86 52 87 53 88 59 89 61 90 54 91 55 92 56 93 57 94
REMARK SMILES IDX 58 95
REMARK H PARENT 82 45 48 56
REMARK Flexibility Score: inf
ROOT
ATOM      1  C   UNL A   1      34.238  31.002  27.734  1.00  0.00     0.275 C 
ENDROOT
BRANCH   1   2
ATOM      2  C   UNL A   1      32.948  30.354  27.240  1.00  0.00     0.275 C 
BRANCH   2   3
ATOM      3  O   UNL A   1      33.133  28.939  27.023  1.00  0.00    -0.458 OA
BRANCH   3   4
ATOM      4  C   UNL A   1      32.008  28.187  27.089  1.00  0.00     0.339 C 
ATOM      5  O   UNL A   1      31.214  28.144  28.010  1.00  0.00    -0.246 OA
BRANCH   4   6
ATOM      6  C   UNL A   1      31.776  27.435  25.839  1.00  0.00     0.080 A 
ATOM      7  C   UNL A   1      32.257  25.373  24.624  1.00  0.00     0.053 A 
ATOM      8  C   UNL A   1      31.845  25.991  23.443  1.00  0.00     0.028 A 
ATOM      9  C   UNL A   1      32.214  26.100  25.814  1.00  0.00     0.044 A 
ATOM     10  C   UNL A   1      31.350  27.302  23.470  1.00  0.00     0.023 A 
ATOM     11  C   UNL A   1      31.325  28.034  24.664  1.00  0.00     0.055 A 
ATOM     12  Cl  UNL A   1      30.816  29.682  24.579  1.00  0.00    -0.083 Cl
BRANCH   7  13
ATOM     13  N   UNL A   1      32.786  24.066  24.627  1.00  0.00    -0.250 N 
ATOM     14  C   UNL A   1      33.786  18.067  24.632  1.00  0.00     0.039 C 
ATOM     15  C   UNL A   1      33.968  19.556  24.742  1.00  0.00    -0.076 C 
ATOM     16  C   UNL A   1      35.197  20.102  24.893  1.00  0.00    -0.027 C 
ATOM     17  C   UNL A   1      32.697  20.402  24.690  1.00  0.00     0.044 C 
ATOM     18  C   UNL A   1      35.461  21.595  24.903  1.00  0.00     0.041 C 
ATOM     19  C   UNL A   1      33.022  21.820  25.129  1.00  0.00     0.096 C 
ATOM     20  C   UNL A   1      34.237  22.297  24.348  1.00  0.00     0.096 C 
ATOM     21  C   UNL A   1      32.039  22.931  24.901  1.00  0.00     0.238 C 
ATOM     22  C   UNL A   1      34.127  23.787  24.436  1.00  0.00     0.238 C 
ATOM     23  O   UNL A   1      30.828  22.838  25.020  1.00  0.00    -0.274 OA
ATOM     24  O   UNL A   1      35.051  24.572  24.298  1.00  0.00    -0.274 OA
ENDBRANCH   7  13
ENDBRANCH   4   6
ENDBRANCH   3   4
ENDBRANCH   2   3
ENDBRANCH   1   2
BRANCH   1  25
ATOM     25  O   UNL A   1      35.055  30.011  28.381  1.00  0.00    -0.458 OA
BRANCH  25  26
ATOM     26  C   UNL A   1      36.017  30.491  29.197  1.00  0.00     0.338 C 
ATOM     27  O   UNL A   1      35.893  31.342  30.071  1.00  0.00    -0.246 OA
BRANCH  26  28
ATOM     28  C   UNL A   1      37.288  29.805  28.928  1.00  0.00     0.060 A 
ATOM     29  C   UNL A   1      37.995  29.254  29.991  1.00  0.00     0.016 A 
ATOM     30  C   UNL A   1      37.858  29.845  27.658  1.00  0.00     0.016 A 
ATOM     31  C   UNL A   1      39.328  28.888  29.825  1.00  0.00     0.010 A 
ATOM     32  C   UNL A   1      39.152  29.345  27.468  1.00  0.00     0.010 A 
ATOM     33  C   UNL A   1      39.931  28.914  28.559  1.00  0.00    -0.014 A 
BRANCH  33  34
ATOM     34  C   UNL A   1      41.369  28.538  28.383  1.00  0.00     0.031 A 
ATOM     35  C   UNL A   1      42.454  29.581  28.533  1.00  0.00     0.074 A 
ATOM     36  C   UNL A   1      41.724  27.269  28.092  1.00  0.00     0.049 A 
ATOM     37  N   UNL A   1      43.719  29.514  28.200  1.00  0.00    -0.248 NA
ATOM     38  C   UNL A   1      42.060  30.876  29.112  1.00  0.00     0.031 C 
ATOM     39  C   UNL A   1      40.804  26.138  27.948  1.00  0.00     0.029 A 
ATOM     40  N   UNL A   1      42.961  26.711  27.869  1.00  0.00    -0.354 N 
ATOM     41  C   UNL A   1      44.248  30.778  28.444  1.00  0.00     0.074 A 
ATOM     42  C   UNL A   1      43.167  31.590  28.964  1.00  0.00     0.031 C 
ATOM     43  C   UNL A   1      41.506  25.021  27.712  1.00  0.00     0.029 A 
ATOM     44  C   UNL A   1      42.915  25.367  27.578  1.00  0.00     0.049 A 
ATOM     45  H   UNL A   1      43.800  27.225  27.911  1.00  0.00     0.167 HD
ATOM     46  C   UNL A   1      45.513  31.222  28.249  1.00  0.00     0.037 A 
ATOM     47  C   UNL A   1      43.882  24.510  27.192  1.00  0.00     0.037 A 
ATOM     48  C   UNL A   1      46.606  30.388  27.816  1.00  0.00     0.049 A 
ATOM     49  C   UNL A   1      45.280  25.017  26.995  1.00  0.00     0.074 A 
ATOM     50  C   UNL A   1      47.933  30.738  27.622  1.00  0.00     0.029 A 
ATOM     51  N   UNL A   1      46.508  29.034  27.532  1.00  0.00    -0.354 N 
ATOM     52  N   UNL A   1      45.747  26.231  27.164  1.00  0.00    -0.248 NA
ATOM     53  C   UNL A   1      46.281  24.046  26.532  1.00  0.00     0.031 C 
ATOM     54  C   UNL A   1      48.630  29.602  27.198  1.00  0.00     0.029 A 
ATOM     55  C   UNL A   1      47.748  28.535  27.164  1.00  0.00     0.049 A 
ATOM     56  H   UNL A   1      45.679  28.505  27.583  1.00  0.00     0.167 HD
ATOM     57  C   UNL A   1      47.095  26.168  26.833  1.00  0.00     0.074 A 
ATOM     58  C   UNL A   1      47.375  24.792  26.476  1.00  0.00     0.031 C 
ATOM     59  C   UNL A   1      48.015  27.163  26.819  1.00  0.00     0.037 A 
BRANCH  46  60
ATOM     60  C   UNL A   1      45.791  32.684  28.475  1.00  0.00     0.058 A 
ATOM     61  C   UNL A   1      45.644  33.640  27.459  1.00  0.00     0.135 A 
ATOM     62  C   UNL A   1      46.165  33.141  29.751  1.00  0.00     0.135 A 
ATOM     63  F   UNL A   1      45.299  33.259  26.218  1.00  0.00    -0.206 F 
ATOM     64  C   UNL A   1      45.884  34.992  27.692  1.00  0.00     0.059 A 
ATOM     65  C   UNL A   1      46.383  34.491  30.014  1.00  0.00     0.059 A 
ATOM     66  F   UNL A   1      46.314  32.271  30.763  1.00  0.00    -0.206 F 
ATOM     67  C   UNL A   1      46.255  35.408  28.972  1.00  0.00     0.060 A 
BRANCH  67  68
ATOM     68  S   UNL A   1      46.552  37.165  29.263  1.00  0.00     0.124 S 
ATOM     69  O   UNL A   1      45.946  37.348  30.578  1.00  0.00    -0.237 OA
ATOM     70  O   UNL A   1      48.009  37.249  29.220  1.00  0.00    -0.237 OA
ATOM     71  O   UNL A   1      45.858  37.815  28.156  1.00  0.00    -0.744 OA
ENDBRANCH  67  68
ENDBRANCH  46  60
BRANCH  47  72
ATOM     72  C   UNL A   1      43.541  23.087  26.920  1.00  0.00     0.058 A 
ATOM     73  C   UNL A   1      43.206  22.213  27.964  1.00  0.00     0.135 A 
ATOM     74  C   UNL A   1      43.516  22.582  25.610  1.00  0.00     0.135 A 
ATOM     75  F   UNL A   1      43.228  22.647  29.234  1.00  0.00    -0.206 F 
ATOM     76  C   UNL A   1      42.861  20.888  27.721  1.00  0.00     0.059 A 
ATOM     77  C   UNL A   1      43.146  21.269  25.340  1.00  0.00     0.059 A 
ATOM     78  F   UNL A   1      43.816  23.381  24.574  1.00  0.00    -0.206 F 
ATOM     79  C   UNL A   1      42.828  20.427  26.404  1.00  0.00     0.060 A 
BRANCH  79  80
ATOM     80  S   UNL A   1      42.311  18.725  26.089  1.00  0.00     0.124 S 
ATOM     81  O   UNL A   1      42.585  18.094  27.374  1.00  0.00    -0.237 OA
ATOM     82  O   UNL A   1      40.900  18.889  25.746  1.00  0.00    -0.237 OA
ATOM     83  O   UNL A   1      43.172  18.314  24.984  1.00  0.00    -0.744 OA
ENDBRANCH  79  80
ENDBRANCH  47  72
BRANCH  59  84
ATOM     84  C   UNL A   1      49.421  26.793  26.440  1.00  0.00     0.058 A 
ATOM     85  C   UNL A   1      50.305  26.216  27.365  1.00  0.00     0.135 A 
ATOM     86  C   UNL A   1      49.876  26.988  25.127  1.00  0.00     0.135 A 
ATOM     87  F   UNL A   1      49.920  26.018  28.635  1.00  0.00    -0.206 F 
ATOM     88  C   UNL A   1      51.603  25.866  27.005  1.00  0.00     0.059 A 
ATOM     89  C   UNL A   1      51.162  26.624  24.740  1.00  0.00     0.059 A 
ATOM     90  F   UNL A   1      49.065  27.529  24.204  1.00  0.00    -0.206 F 
ATOM     91  C   UNL A   1      52.022  26.075  25.690  1.00  0.00     0.060 A 
BRANCH  91  92
ATOM     92  S   UNL A   1      53.700  25.595  25.227  1.00  0.00     0.124 S 
ATOM     93  O   UNL A   1      53.651  25.722  23.774  1.00  0.00    -0.237 OA
ATOM     94  O   UNL A   1      54.515  26.588  25.922  1.00  0.00    -0.237 OA
ATOM     95  O   UNL A   1      53.816  24.232  25.735  1.00  0.00    -0.744 OA
ENDBRANCH  91  92
ENDBRANCH  59  84
ENDBRANCH  33  34
ENDBRANCH  26  28
ENDBRANCH  25  26
ENDBRANCH   1  25
TORSDOF 15
ENDMDL
