MODEL 1
REMARK VINA RESULT:     -12.0      0.000      0.000
REMARK SMILES Cc1c(Br)c(C)c2c(c1Br)O[C@H](C(F)(F)F)C(C(=O)OCCOC(=O)c1ccc(-c3c4nc(c(-c5c(F)cc(S(=O)(=O)[O-])cc5F)c5ccc([nH]5)c(-c5c(F)cc(S(=O)(=O)[O-])cc5F)c5nc(c(-c6c(F)cc(S(=O)(=O)[O-])cc6F)c6ccc3[nH]6)C=C5)C=C4)cc1)=C2
REMARK SMILES IDX 22 1 21 2 20 3 18 4 19 5 17 6 1 7 2 8 3 9 9 10 4 11 5 12
REMARK SMILES IDX 8 13 10 14 6 15 7 16 11 17 92 18 12 19 13 20 14 21 15 22
REMARK SMILES IDX 16 23 23 24 24 25 25 26 26 27 27 28 91 29 28 30 90 31 29 32
REMARK SMILES IDX 30 33 31 34 84 35 32 36 89 37 83 38 85 39 33 40 88 41 82 42
REMARK SMILES IDX 81 43 34 45 68 46 47 47 67 48 48 49 51 50 66 51 86 52 49 53
REMARK SMILES IDX 50 54 65 56 87 57 52 58 35 59 36 60 45 61 37 62 38 63 44 64
REMARK SMILES IDX 46 65 39 66 40 67 41 68 42 69 43 70 69 71 70 72 79 73 71 74
REMARK SMILES IDX 72 75 78 76 80 77 73 78 74 79 75 80 76 81 77 82 53 83 54 84
REMARK SMILES IDX 63 85 55 86 56 87 62 88 64 89 57 90 58 91 59 92 60 93 61 94
REMARK H PARENT 85 44 51 55
REMARK Flexibility Score: inf
ROOT
ATOM      1  C   UNL A   1      39.266  22.118  26.081  1.00  0.00     0.275 C 
ENDROOT
BRANCH   1   2
ATOM      2  C   UNL A   1      37.817  22.053  25.599  1.00  0.00     0.275 C 
BRANCH   2   3
ATOM      3  O   UNL A   1      37.171  23.342  25.691  1.00  0.00    -0.459 OA
BRANCH   3   4
ATOM      4  C   UNL A   1      35.857  23.314  26.009  1.00  0.00     0.338 C 
ATOM      5  O   UNL A   1      35.338  22.655  26.897  1.00  0.00    -0.246 OA
BRANCH   4   6
ATOM      6  C   UNL A   1      35.086  24.209  25.124  1.00  0.00     0.087 C 
ATOM      7  C   UNL A   1      30.951  28.470  22.377  1.00  0.00     0.047 C 
ATOM      8  C   UNL A   1      31.921  27.698  23.242  1.00  0.00    -0.019 A 
ATOM      9  C   UNL A   1      32.270  28.136  24.541  1.00  0.00     0.025 A 
ATOM     10  C   UNL A   1      32.549  26.537  22.738  1.00  0.00     0.064 A 
ATOM     11  Br  UNL A   1      31.557  29.798  25.189  1.00  0.00    -0.050 Br
ATOM     12  C   UNL A   1      33.152  27.386  25.356  1.00  0.00    -0.026 A 
ATOM     13  C   UNL A   1      33.439  25.787  23.527  1.00  0.00     0.142 A 
ATOM     14  Br  UNL A   1      32.216  25.944  20.944  1.00  0.00    -0.046 Br
ATOM     15  C   UNL A   1      33.518  27.832  26.759  1.00  0.00     0.046 C 
ATOM     16  C   UNL A   1      33.726  26.196  24.835  1.00  0.00     0.022 A 
ATOM     17  O   UNL A   1      34.015  24.684  22.947  1.00  0.00    -0.474 OA
ATOM     18  C   UNL A   1      34.618  25.355  25.630  1.00  0.00     0.027 C 
ATOM     19  C   UNL A   1      34.745  23.729  23.752  1.00  0.00     0.316 C 
BRANCH  19  20
ATOM     20  C   UNL A   1      33.967  22.403  23.798  1.00  0.00     0.430 C 
ATOM     21  F   UNL A   1      33.048  22.404  24.794  1.00  0.00    -0.167 F 
ATOM     22  F   UNL A   1      33.282  22.190  22.647  1.00  0.00    -0.167 F 
ATOM     23  F   UNL A   1      34.776  21.339  23.990  1.00  0.00    -0.167 F 
ENDBRANCH  19  20
ENDBRANCH   4   6
ENDBRANCH   3   4
ENDBRANCH   2   3
ENDBRANCH   1   2
BRANCH   1  24
ATOM     24  O   UNL A   1      39.402  23.091  27.133  1.00  0.00    -0.458 OA
BRANCH  24  25
ATOM     25  C   UNL A   1      40.435  23.952  26.987  1.00  0.00     0.338 C 
ATOM     26  O   UNL A   1      41.423  23.809  26.288  1.00  0.00    -0.246 OA
BRANCH  25  27
ATOM     27  C   UNL A   1      40.172  25.188  27.739  1.00  0.00     0.060 A 
ATOM     28  C   UNL A   1      41.068  26.239  27.608  1.00  0.00     0.016 A 
ATOM     29  C   UNL A   1      39.179  25.237  28.714  1.00  0.00     0.016 A 
ATOM     30  C   UNL A   1      41.085  27.257  28.555  1.00  0.00     0.010 A 
ATOM     31  C   UNL A   1      39.108  26.345  29.571  1.00  0.00     0.010 A 
ATOM     32  C   UNL A   1      40.098  27.343  29.547  1.00  0.00    -0.014 A 
BRANCH  32  33
ATOM     33  C   UNL A   1      40.140  28.443  30.562  1.00  0.00     0.031 A 
ATOM     34  C   UNL A   1      41.192  28.445  31.650  1.00  0.00     0.074 A 
ATOM     35  C   UNL A   1      39.269  29.475  30.497  1.00  0.00     0.049 A 
ATOM     36  N   UNL A   1      41.268  29.188  32.725  1.00  0.00    -0.248 NA
ATOM     37  C   UNL A   1      42.294  27.478  31.520  1.00  0.00     0.031 C 
ATOM     38  C   UNL A   1      38.238  29.656  29.470  1.00  0.00     0.029 A 
ATOM     39  N   UNL A   1      39.122  30.586  31.295  1.00  0.00    -0.354 N 
ATOM     40  C   UNL A   1      42.381  28.736  33.428  1.00  0.00     0.074 A 
ATOM     41  C   UNL A   1      42.948  27.649  32.661  1.00  0.00     0.031 C 
ATOM     42  C   UNL A   1      37.629  30.834  29.650  1.00  0.00     0.029 A 
ATOM     43  C   UNL A   1      38.117  31.432  30.886  1.00  0.00     0.049 A 
ATOM     44  H   UNL A   1      39.685  30.759  32.085  1.00  0.00     0.167 HD
ATOM     45  C   UNL A   1      42.884  29.188  34.604  1.00  0.00     0.037 A 
ATOM     46  C   UNL A   1      37.591  32.531  31.461  1.00  0.00     0.037 A 
ATOM     47  C   UNL A   1      42.351  30.316  35.328  1.00  0.00     0.049 A 
ATOM     48  C   UNL A   1      38.118  32.975  32.794  1.00  0.00     0.074 A 
ATOM     49  C   UNL A   1      42.782  30.849  36.531  1.00  0.00     0.029 A 
ATOM     50  N   UNL A   1      41.286  31.100  34.906  1.00  0.00    -0.354 N 
ATOM     51  N   UNL A   1      39.104  32.471  33.496  1.00  0.00    -0.248 NA
ATOM     52  C   UNL A   1      37.442  34.113  33.430  1.00  0.00     0.031 C 
ATOM     53  C   UNL A   1      41.953  31.926  36.857  1.00  0.00     0.029 A 
ATOM     54  C   UNL A   1      41.038  32.101  35.832  1.00  0.00     0.049 A 
ATOM     55  H   UNL A   1      40.781  30.964  34.071  1.00  0.00     0.167 HD
ATOM     56  C   UNL A   1      39.175  33.238  34.653  1.00  0.00     0.074 A 
ATOM     57  C   UNL A   1      38.144  34.251  34.546  1.00  0.00     0.031 C 
ATOM     58  C   UNL A   1      40.013  33.107  35.710  1.00  0.00     0.037 A 
BRANCH  45  59
ATOM     59  C   UNL A   1      44.053  28.454  35.211  1.00  0.00     0.058 A 
ATOM     60  C   UNL A   1      45.382  28.808  34.938  1.00  0.00     0.135 A 
ATOM     61  C   UNL A   1      43.832  27.416  36.133  1.00  0.00     0.135 A 
ATOM     62  F   UNL A   1      45.656  29.780  34.054  1.00  0.00    -0.206 F 
ATOM     63  C   UNL A   1      46.451  28.151  35.544  1.00  0.00     0.059 A 
ATOM     64  C   UNL A   1      44.883  26.764  36.773  1.00  0.00     0.059 A 
ATOM     65  F   UNL A   1      42.580  27.034  36.433  1.00  0.00    -0.206 F 
ATOM     66  C   UNL A   1      46.191  27.132  36.463  1.00  0.00     0.060 A 
BRANCH  66  67
ATOM     67  S   UNL A   1      47.588  26.302  37.250  1.00  0.00     0.124 S 
ATOM     68  O   UNL A   1      46.928  25.589  38.340  1.00  0.00    -0.237 OA
ATOM     69  O   UNL A   1      48.104  25.469  36.168  1.00  0.00    -0.237 OA
ATOM     70  O   UNL A   1      48.455  27.403  37.659  1.00  0.00    -0.744 OA
ENDBRANCH  66  67
ENDBRANCH  45  59
BRANCH  46  71
ATOM     71  C   UNL A   1      36.467  33.249  30.797  1.00  0.00     0.058 A 
ATOM     72  C   UNL A   1      35.156  33.147  31.284  1.00  0.00     0.135 A 
ATOM     73  C   UNL A   1      36.686  34.085  29.689  1.00  0.00     0.135 A 
ATOM     74  F   UNL A   1      34.890  32.349  32.329  1.00  0.00    -0.206 F 
ATOM     75  C   UNL A   1      34.106  33.852  30.704  1.00  0.00     0.059 A 
ATOM     76  C   UNL A   1      35.660  34.827  29.114  1.00  0.00     0.059 A 
ATOM     77  F   UNL A   1      37.923  34.225  29.186  1.00  0.00    -0.206 F 
ATOM     78  C   UNL A   1      34.371  34.699  29.626  1.00  0.00     0.060 A 
BRANCH  78  79
ATOM     79  S   UNL A   1      33.013  35.665  28.929  1.00  0.00     0.124 S 
ATOM     80  O   UNL A   1      33.732  36.748  28.268  1.00  0.00    -0.237 OA
ATOM     81  O   UNL A   1      32.368  34.695  28.051  1.00  0.00    -0.237 OA
ATOM     82  O   UNL A   1      32.237  36.049  30.105  1.00  0.00    -0.744 OA
ENDBRANCH  78  79
ENDBRANCH  46  71
BRANCH  58  83
ATOM     83  C   UNL A   1      39.876  34.103  36.828  1.00  0.00     0.058 A 
ATOM     84  C   UNL A   1      40.459  35.377  36.754  1.00  0.00     0.135 A 
ATOM     85  C   UNL A   1      39.103  33.798  37.960  1.00  0.00     0.135 A 
ATOM     86  F   UNL A   1      41.215  35.714  35.697  1.00  0.00    -0.206 F 
ATOM     87  C   UNL A   1      40.293  36.309  37.771  1.00  0.00     0.059 A 
ATOM     88  C   UNL A   1      38.901  34.725  38.977  1.00  0.00     0.059 A 
ATOM     89  F   UNL A   1      38.518  32.595  38.076  1.00  0.00    -0.206 F 
ATOM     90  C   UNL A   1      39.508  35.976  38.878  1.00  0.00     0.060 A 
BRANCH  90  91
ATOM     91  S   UNL A   1      39.272  37.212  40.170  1.00  0.00     0.124 S 
ATOM     92  O   UNL A   1      38.523  36.455  41.169  1.00  0.00    -0.237 OA
ATOM     93  O   UNL A   1      40.646  37.550  40.531  1.00  0.00    -0.237 OA
ATOM     94  O   UNL A   1      38.527  38.273  39.498  1.00  0.00    -0.744 OA
ENDBRANCH  90  91
ENDBRANCH  58  83
ENDBRANCH  32  33
ENDBRANCH  25  27
ENDBRANCH  24  25
ENDBRANCH   1  24
TORSDOF 15
ENDMDL
MODEL 2
REMARK VINA RESULT:     -11.7      6.521     11.788
REMARK SMILES Cc1c(Br)c(C)c2c(c1Br)O[C@H](C(F)(F)F)C(C(=O)OCCOC(=O)c1ccc(-c3c4nc(c(-c5c(F)cc(S(=O)(=O)[O-])cc5F)c5ccc([nH]5)c(-c5c(F)cc(S(=O)(=O)[O-])cc5F)c5nc(c(-c6c(F)cc(S(=O)(=O)[O-])cc6F)c6ccc3[nH]6)C=C5)C=C4)cc1)=C2
REMARK SMILES IDX 22 1 21 2 20 3 18 4 19 5 17 6 1 7 2 8 3 9 9 10 4 11 5 12
REMARK SMILES IDX 8 13 10 14 6 15 7 16 11 17 92 18 12 19 13 20 14 21 15 22
REMARK SMILES IDX 16 23 23 24 24 25 25 26 26 27 27 28 91 29 28 30 90 31 29 32
REMARK SMILES IDX 30 33 31 34 84 35 32 36 89 37 83 38 85 39 33 40 88 41 82 42
REMARK SMILES IDX 81 43 34 45 68 46 47 47 67 48 48 49 51 50 66 51 86 52 49 53
REMARK SMILES IDX 50 54 65 56 87 57 52 58 35 59 36 60 45 61 37 62 38 63 44 64
REMARK SMILES IDX 46 65 39 66 40 67 41 68 42 69 43 70 69 71 70 72 79 73 71 74
REMARK SMILES IDX 72 75 78 76 80 77 73 78 74 79 75 80 76 81 77 82 53 83 54 84
REMARK SMILES IDX 63 85 55 86 56 87 62 88 64 89 57 90 58 91 59 92 60 93 61 94
REMARK H PARENT 85 44 51 55
REMARK Flexibility Score: inf
ROOT
ATOM      1  C   UNL A   1      33.919  31.244  27.780  1.00  0.00     0.275 C 
ENDROOT
BRANCH   1   2
ATOM      2  C   UNL A   1      33.160  30.091  27.123  1.00  0.00     0.275 C 
BRANCH   2   3
ATOM      3  O   UNL A   1      34.022  28.956  26.890  1.00  0.00    -0.459 OA
BRANCH   3   4
ATOM      4  C   UNL A   1      33.871  28.346  25.691  1.00  0.00     0.338 C 
ATOM      5  O   UNL A   1      34.030  28.854  24.592  1.00  0.00    -0.246 OA
BRANCH   4   6
ATOM      6  C   UNL A   1      33.477  26.935  25.870  1.00  0.00     0.087 C 
ATOM      7  C   UNL A   1      32.610  20.457  25.578  1.00  0.00     0.047 C 
ATOM      8  C   UNL A   1      33.113  21.882  25.608  1.00  0.00    -0.019 A 
ATOM      9  C   UNL A   1      34.467  22.198  25.341  1.00  0.00     0.025 A 
ATOM     10  C   UNL A   1      32.240  22.934  25.963  1.00  0.00     0.064 A 
ATOM     11  Br  UNL A   1      35.712  20.773  25.016  1.00  0.00    -0.050 Br
ATOM     12  C   UNL A   1      34.920  23.540  25.337  1.00  0.00    -0.026 A 
ATOM     13  C   UNL A   1      32.675  24.271  25.979  1.00  0.00     0.142 A 
ATOM     14  Br  UNL A   1      30.420  22.573  26.452  1.00  0.00    -0.046 Br
ATOM     15  C   UNL A   1      36.361  23.896  25.030  1.00  0.00     0.046 C 
ATOM     16  C   UNL A   1      34.000  24.577  25.649  1.00  0.00     0.022 A 
ATOM     17  O   UNL A   1      31.760  25.224  26.355  1.00  0.00    -0.474 OA
ATOM     18  C   UNL A   1      34.389  25.986  25.631  1.00  0.00     0.027 C 
ATOM     19  C   UNL A   1      32.047  26.630  26.166  1.00  0.00     0.316 C 
BRANCH  19  20
ATOM     20  C   UNL A   1      31.114  27.198  25.084  1.00  0.00     0.430 C 
ATOM     21  F   UNL A   1      30.933  28.531  25.238  1.00  0.00    -0.167 F 
ATOM     22  F   UNL A   1      31.630  27.024  23.843  1.00  0.00    -0.167 F 
ATOM     23  F   UNL A   1      29.895  26.616  25.100  1.00  0.00    -0.167 F 
ENDBRANCH  19  20
ENDBRANCH   4   6
ENDBRANCH   3   4
ENDBRANCH   2   3
ENDBRANCH   1   2
BRANCH   1  24
ATOM     24  O   UNL A   1      35.339  31.040  27.663  1.00  0.00    -0.458 OA
BRANCH  24  25
ATOM     25  C   UNL A   1      36.010  30.990  28.837  1.00  0.00     0.338 C 
ATOM     26  O   UNL A   1      35.656  31.449  29.909  1.00  0.00    -0.246 OA
BRANCH  25  27
ATOM     27  C   UNL A   1      37.236  30.195  28.684  1.00  0.00     0.060 A 
ATOM     28  C   UNL A   1      38.008  29.955  29.812  1.00  0.00     0.016 A 
ATOM     29  C   UNL A   1      37.727  29.869  27.422  1.00  0.00     0.016 A 
ATOM     30  C   UNL A   1      39.332  29.553  29.673  1.00  0.00     0.010 A 
ATOM     31  C   UNL A   1      39.012  29.318  27.303  1.00  0.00     0.010 A 
ATOM     32  C   UNL A   1      39.860  29.210  28.420  1.00  0.00    -0.014 A 
BRANCH  32  33
ATOM     33  C   UNL A   1      41.291  28.787  28.292  1.00  0.00     0.031 A 
ATOM     34  C   UNL A   1      42.409  29.777  28.537  1.00  0.00     0.074 A 
ATOM     35  C   UNL A   1      41.607  27.506  28.001  1.00  0.00     0.049 A 
ATOM     36  N   UNL A   1      43.688  29.659  28.282  1.00  0.00    -0.248 NA
ATOM     37  C   UNL A   1      42.041  31.071  29.133  1.00  0.00     0.031 C 
ATOM     38  C   UNL A   1      40.648  26.415  27.802  1.00  0.00     0.029 A 
ATOM     39  N   UNL A   1      42.827  26.889  27.844  1.00  0.00    -0.354 N 
ATOM     40  C   UNL A   1      44.263  30.880  28.622  1.00  0.00     0.074 A 
ATOM     41  C   UNL A   1      43.193  31.729  29.098  1.00  0.00     0.031 C 
ATOM     42  C   UNL A   1      41.308  25.263  27.635  1.00  0.00     0.029 A 
ATOM     43  C   UNL A   1      42.736  25.545  27.566  1.00  0.00     0.049 A 
ATOM     44  H   UNL A   1      43.685  27.366  27.923  1.00  0.00     0.167 HD
ATOM     45  C   UNL A   1      45.563  31.256  28.547  1.00  0.00     0.037 A 
ATOM     46  C   UNL A   1      43.676  24.640  27.228  1.00  0.00     0.037 A 
ATOM     47  C   UNL A   1      46.633  30.381  28.135  1.00  0.00     0.049 A 
ATOM     48  C   UNL A   1      45.100  25.093  27.086  1.00  0.00     0.074 A 
ATOM     49  C   UNL A   1      47.983  30.666  28.017  1.00  0.00     0.029 A 
ATOM     50  N   UNL A   1      46.479  29.043  27.796  1.00  0.00    -0.354 N 
ATOM     51  N   UNL A   1      45.610  26.280  27.310  1.00  0.00    -0.248 NA
ATOM     52  C   UNL A   1      46.069  24.098  26.612  1.00  0.00     0.031 C 
ATOM     53  C   UNL A   1      48.638  29.517  27.567  1.00  0.00     0.029 A 
ATOM     54  C   UNL A   1      47.707  28.496  27.456  1.00  0.00     0.049 A 
ATOM     55  H   UNL A   1      45.624  28.555  27.798  1.00  0.00     0.167 HD
ATOM     56  C   UNL A   1      46.964  26.171  27.016  1.00  0.00     0.074 A 
ATOM     57  C   UNL A   1      47.195  24.798  26.617  1.00  0.00     0.031 C 
ATOM     58  C   UNL A   1      47.924  27.126  27.065  1.00  0.00     0.037 A 
BRANCH  45  59
ATOM     59  C   UNL A   1      45.916  32.683  28.886  1.00  0.00     0.058 A 
ATOM     60  C   UNL A   1      45.866  33.713  27.936  1.00  0.00     0.135 A 
ATOM     61  C   UNL A   1      46.249  33.031  30.207  1.00  0.00     0.135 A 
ATOM     62  F   UNL A   1      45.571  33.439  26.656  1.00  0.00    -0.206 F 
ATOM     63  C   UNL A   1      46.148  35.034  28.277  1.00  0.00     0.059 A 
ATOM     64  C   UNL A   1      46.506  34.348  30.578  1.00  0.00     0.059 A 
ATOM     65  F   UNL A   1      46.312  32.086  31.160  1.00  0.00    -0.206 F 
ATOM     66  C   UNL A   1      46.464  35.342  29.602  1.00  0.00     0.060 A 
BRANCH  66  67
ATOM     67  S   UNL A   1      46.812  37.062  30.029  1.00  0.00     0.124 S 
ATOM     68  O   UNL A   1      48.198  37.197  29.589  1.00  0.00    -0.237 OA
ATOM     69  O   UNL A   1      45.823  37.785  29.237  1.00  0.00    -0.237 OA
ATOM     70  O   UNL A   1      46.609  37.104  31.474  1.00  0.00    -0.744 OA
ENDBRANCH  66  67
ENDBRANCH  45  59
BRANCH  46  71
ATOM     71  C   UNL A   1      43.283  23.231  26.949  1.00  0.00     0.058 A 
ATOM     72  C   UNL A   1      43.259  22.733  25.638  1.00  0.00     0.135 A 
ATOM     73  C   UNL A   1      42.964  22.341  27.989  1.00  0.00     0.135 A 
ATOM     74  F   UNL A   1      43.538  23.546  24.608  1.00  0.00    -0.206 F 
ATOM     75  C   UNL A   1      42.941  21.406  25.368  1.00  0.00     0.059 A 
ATOM     76  C   UNL A   1      42.679  21.001  27.748  1.00  0.00     0.059 A 
ATOM     77  F   UNL A   1      42.978  22.763  29.263  1.00  0.00    -0.206 F 
ATOM     78  C   UNL A   1      42.665  20.544  26.432  1.00  0.00     0.060 A 
BRANCH  78  79
ATOM     79  S   UNL A   1      42.328  18.806  26.074  1.00  0.00     0.124 S 
ATOM     80  O   UNL A   1      43.274  18.539  24.998  1.00  0.00    -0.237 OA
ATOM     81  O   UNL A   1      42.618  18.169  27.355  1.00  0.00    -0.237 OA
ATOM     82  O   UNL A   1      40.920  18.810  25.689  1.00  0.00    -0.744 OA
ENDBRANCH  78  79
ENDBRANCH  46  71
BRANCH  58  83
ATOM     83  C   UNL A   1      49.326  26.716  26.709  1.00  0.00     0.058 A 
ATOM     84  C   UNL A   1      49.820  26.846  25.402  1.00  0.00     0.135 A 
ATOM     85  C   UNL A   1      50.202  26.244  27.699  1.00  0.00     0.135 A 
ATOM     86  F   UNL A   1      49.021  27.284  24.416  1.00  0.00    -0.206 F 
ATOM     87  C   UNL A   1      51.131  26.506  25.087  1.00  0.00     0.059 A 
ATOM     88  C   UNL A   1      51.524  25.924  27.412  1.00  0.00     0.059 A 
ATOM     89  F   UNL A   1      49.779  26.108  28.967  1.00  0.00    -0.206 F 
ATOM     90  C   UNL A   1      51.978  26.050  26.100  1.00  0.00     0.060 A 
BRANCH  90  91
ATOM     91  S   UNL A   1      53.686  25.651  25.681  1.00  0.00     0.124 S 
ATOM     92  O   UNL A   1      54.176  25.093  26.938  1.00  0.00    -0.237 OA
ATOM     93  O   UNL A   1      53.522  24.699  24.586  1.00  0.00    -0.237 OA
ATOM     94  O   UNL A   1      54.256  26.940  25.302  1.00  0.00    -0.744 OA
ENDBRANCH  90  91
ENDBRANCH  58  83
ENDBRANCH  32  33
ENDBRANCH  25  27
ENDBRANCH  24  25
ENDBRANCH   1  24
TORSDOF 15
ENDMDL
MODEL 3
REMARK VINA RESULT:     -11.6      2.295      3.223
REMARK SMILES Cc1c(Br)c(C)c2c(c1Br)O[C@H](C(F)(F)F)C(C(=O)OCCOC(=O)c1ccc(-c3c4nc(c(-c5c(F)cc(S(=O)(=O)[O-])cc5F)c5ccc([nH]5)c(-c5c(F)cc(S(=O)(=O)[O-])cc5F)c5nc(c(-c6c(F)cc(S(=O)(=O)[O-])cc6F)c6ccc3[nH]6)C=C5)C=C4)cc1)=C2
REMARK SMILES IDX 22 1 21 2 20 3 18 4 19 5 17 6 1 7 2 8 3 9 9 10 4 11 5 12
REMARK SMILES IDX 8 13 10 14 6 15 7 16 11 17 92 18 12 19 13 20 14 21 15 22
REMARK SMILES IDX 16 23 23 24 24 25 25 26 26 27 27 28 91 29 28 30 90 31 29 32
REMARK SMILES IDX 30 33 31 34 84 35 32 36 89 37 83 38 85 39 33 40 88 41 82 42
REMARK SMILES IDX 81 43 34 45 68 46 47 47 67 48 48 49 51 50 66 51 86 52 49 53
REMARK SMILES IDX 50 54 65 56 87 57 52 58 35 59 36 60 45 61 37 62 38 63 44 64
REMARK SMILES IDX 46 65 39 66 40 67 41 68 42 69 43 70 69 71 70 72 79 73 71 74
REMARK SMILES IDX 72 75 78 76 80 77 73 78 74 79 75 80 76 81 77 82 53 83 54 84
REMARK SMILES IDX 63 85 55 86 56 87 62 88 64 89 57 90 58 91 59 92 60 93 61 94
REMARK H PARENT 85 44 51 55
REMARK Flexibility Score: inf
ROOT
ATOM      1  C   UNL A   1      36.615  23.377  24.347  1.00  0.00     0.275 C 
ENDROOT
BRANCH   1   2
ATOM      2  C   UNL A   1      35.240  22.867  24.777  1.00  0.00     0.275 C 
BRANCH   2   3
ATOM      3  O   UNL A   1      34.282  23.944  24.868  1.00  0.00    -0.459 OA
BRANCH   3   4
ATOM      4  C   UNL A   1      33.871  24.461  23.687  1.00  0.00     0.338 C 
ATOM      5  O   UNL A   1      33.950  23.926  22.593  1.00  0.00    -0.246 OA
BRANCH   4   6
ATOM      6  C   UNL A   1      33.293  25.806  23.879  1.00  0.00     0.087 C 
ATOM      7  C   UNL A   1      31.127  31.576  26.073  1.00  0.00     0.047 C 
ATOM      8  C   UNL A   1      31.879  30.307  25.742  1.00  0.00    -0.019 A 
ATOM      9  C   UNL A   1      33.094  29.974  26.386  1.00  0.00     0.025 A 
ATOM     10  C   UNL A   1      31.403  29.447  24.728  1.00  0.00     0.064 A 
ATOM     11  Br  UNL A   1      33.849  31.205  27.652  1.00  0.00    -0.050 Br
ATOM     12  C   UNL A   1      33.772  28.766  26.093  1.00  0.00    -0.026 A 
ATOM     13  C   UNL A   1      32.071  28.250  24.412  1.00  0.00     0.142 A 
ATOM     14  Br  UNL A   1      29.826  29.889  23.729  1.00  0.00    -0.046 Br
ATOM     15  C   UNL A   1      35.063  28.384  26.792  1.00  0.00     0.046 C 
ATOM     16  C   UNL A   1      33.237  27.899  25.103  1.00  0.00     0.022 A 
ATOM     17  O   UNL A   1      31.544  27.486  23.400  1.00  0.00    -0.474 OA
ATOM     18  C   UNL A   1      33.865  26.621  24.773  1.00  0.00     0.027 C 
ATOM     19  C   UNL A   1      32.020  26.138  23.176  1.00  0.00     0.316 C 
BRANCH  19  20
ATOM     20  C   UNL A   1      30.904  25.141  23.532  1.00  0.00     0.430 C 
ATOM     21  F   UNL A   1      31.055  24.660  24.789  1.00  0.00    -0.167 F 
ATOM     22  F   UNL A   1      29.683  25.727  23.491  1.00  0.00    -0.167 F 
ATOM     23  F   UNL A   1      30.873  24.083  22.692  1.00  0.00    -0.167 F 
ENDBRANCH  19  20
ENDBRANCH   4   6
ENDBRANCH   3   4
ENDBRANCH   2   3
ENDBRANCH   1   2
BRANCH   1  24
ATOM     24  O   UNL A   1      37.266  24.047  25.442  1.00  0.00    -0.458 OA
BRANCH  24  25
ATOM     25  C   UNL A   1      38.413  23.467  25.867  1.00  0.00     0.338 C 
ATOM     26  O   UNL A   1      38.852  22.377  25.547  1.00  0.00    -0.246 OA
BRANCH  25  27
ATOM     27  C   UNL A   1      39.154  24.393  26.736  1.00  0.00     0.060 A 
ATOM     28  C   UNL A   1      38.893  24.367  28.098  1.00  0.00     0.016 A 
ATOM     29  C   UNL A   1      39.937  25.411  26.197  1.00  0.00     0.016 A 
ATOM     30  C   UNL A   1      39.265  25.443  28.896  1.00  0.00     0.010 A 
ATOM     31  C   UNL A   1      40.439  26.415  27.038  1.00  0.00     0.010 A 
ATOM     32  C   UNL A   1      40.058  26.482  28.391  1.00  0.00    -0.014 A 
BRANCH  32  33
ATOM     33  C   UNL A   1      40.441  27.637  29.265  1.00  0.00     0.031 A 
ATOM     34  C   UNL A   1      41.780  27.657  29.969  1.00  0.00     0.074 A 
ATOM     35  C   UNL A   1      39.617  28.699  29.403  1.00  0.00     0.049 A 
ATOM     36  N   UNL A   1      42.206  28.457  30.913  1.00  0.00    -0.248 NA
ATOM     37  C   UNL A   1      42.764  26.638  29.568  1.00  0.00     0.031 C 
ATOM     38  C   UNL A   1      38.320  28.864  28.739  1.00  0.00     0.029 A 
ATOM     39  N   UNL A   1      39.752  29.859  30.130  1.00  0.00    -0.354 N 
ATOM     40  C   UNL A   1      43.473  27.999  31.265  1.00  0.00     0.074 A 
ATOM     41  C   UNL A   1      43.747  26.847  30.435  1.00  0.00     0.031 C 
ATOM     42  C   UNL A   1      37.824  30.075  29.019  1.00  0.00     0.029 A 
ATOM     43  C   UNL A   1      38.688  30.722  29.998  1.00  0.00     0.049 A 
ATOM     44  H   UNL A   1      40.537  30.054  30.692  1.00  0.00     0.167 HD
ATOM     45  C   UNL A   1      44.328  28.496  32.192  1.00  0.00     0.037 A 
ATOM     46  C   UNL A   1      38.393  31.874  30.631  1.00  0.00     0.037 A 
ATOM     47  C   UNL A   1      44.074  29.686  32.967  1.00  0.00     0.049 A 
ATOM     48  C   UNL A   1      39.321  32.372  31.701  1.00  0.00     0.074 A 
ATOM     49  C   UNL A   1      44.872  30.269  33.937  1.00  0.00     0.029 A 
ATOM     50  N   UNL A   1      42.948  30.488  32.845  1.00  0.00    -0.354 N 
ATOM     51  N   UNL A   1      40.466  31.867  32.094  1.00  0.00    -0.248 NA
ATOM     52  C   UNL A   1      38.904  33.572  32.436  1.00  0.00     0.031 C 
ATOM     53  C   UNL A   1      44.211  31.397  34.431  1.00  0.00     0.029 A 
ATOM     54  C   UNL A   1      43.025  31.551  33.731  1.00  0.00     0.049 A 
ATOM     55  H   UNL A   1      42.204  30.327  32.219  1.00  0.00     0.167 HD
ATOM     56  C   UNL A   1      40.913  32.696  33.116  1.00  0.00     0.074 A 
ATOM     57  C   UNL A   1      39.923  33.745  33.267  1.00  0.00     0.031 C 
ATOM     58  C   UNL A   1      42.036  32.591  33.867  1.00  0.00     0.037 A 
BRANCH  45  59
ATOM     59  C   UNL A   1      45.612  27.750  32.453  1.00  0.00     0.058 A 
ATOM     60  C   UNL A   1      45.677  26.654  33.326  1.00  0.00     0.135 A 
ATOM     61  C   UNL A   1      46.786  28.103  31.764  1.00  0.00     0.135 A 
ATOM     62  F   UNL A   1      44.594  26.280  34.024  1.00  0.00    -0.206 F 
ATOM     63  C   UNL A   1      46.861  25.946  33.520  1.00  0.00     0.059 A 
ATOM     64  C   UNL A   1      47.973  27.393  31.919  1.00  0.00     0.059 A 
ATOM     65  F   UNL A   1      46.783  29.144  30.915  1.00  0.00    -0.206 F 
ATOM     66  C   UNL A   1      48.003  26.320  32.809  1.00  0.00     0.060 A 
BRANCH  66  67
ATOM     67  S   UNL A   1      49.524  25.381  33.061  1.00  0.00     0.124 S 
ATOM     68  O   UNL A   1      49.101  24.400  34.057  1.00  0.00    -0.237 OA
ATOM     69  O   UNL A   1      49.789  24.854  31.726  1.00  0.00    -0.237 OA
ATOM     70  O   UNL A   1      50.472  26.385  33.537  1.00  0.00    -0.744 OA
ENDBRANCH  66  67
ENDBRANCH  45  59
BRANCH  46  71
ATOM     71  C   UNL A   1      37.134  32.599  30.303  1.00  0.00     0.058 A 
ATOM     72  C   UNL A   1      35.971  32.410  31.063  1.00  0.00     0.135 A 
ATOM     73  C   UNL A   1      37.079  33.529  29.250  1.00  0.00     0.135 A 
ATOM     74  F   UNL A   1      35.966  31.522  32.069  1.00  0.00    -0.206 F 
ATOM     75  C   UNL A   1      34.803  33.118  30.798  1.00  0.00     0.059 A 
ATOM     76  C   UNL A   1      35.935  34.275  28.988  1.00  0.00     0.059 A 
ATOM     77  F   UNL A   1      38.166  33.754  28.494  1.00  0.00    -0.206 F 
ATOM     78  C   UNL A   1      34.800  34.058  29.765  1.00  0.00     0.060 A 
BRANCH  78  79
ATOM     79  S   UNL A   1      33.301  35.025  29.479  1.00  0.00     0.124 S 
ATOM     80  O   UNL A   1      32.683  35.007  30.799  1.00  0.00    -0.237 OA
ATOM     81  O   UNL A   1      33.844  36.307  29.043  1.00  0.00    -0.237 OA
ATOM     82  O   UNL A   1      32.603  34.264  28.446  1.00  0.00    -0.744 OA
ENDBRANCH  78  79
ENDBRANCH  46  71
BRANCH  58  83
ATOM     83  C   UNL A   1      42.279  33.655  34.901  1.00  0.00     0.058 A 
ATOM     84  C   UNL A   1      42.888  34.875  34.572  1.00  0.00     0.135 A 
ATOM     85  C   UNL A   1      41.842  33.473  36.223  1.00  0.00     0.135 A 
ATOM     86  F   UNL A   1      43.332  35.095  33.324  1.00  0.00    -0.206 F 
ATOM     87  C   UNL A   1      43.071  35.872  35.524  1.00  0.00     0.059 A 
ATOM     88  C   UNL A   1      41.990  34.467  37.184  1.00  0.00     0.059 A 
ATOM     89  F   UNL A   1      41.246  32.325  36.586  1.00  0.00    -0.206 F 
ATOM     90  C   UNL A   1      42.614  35.661  36.827  1.00  0.00     0.060 A 
BRANCH  90  91
ATOM     91  S   UNL A   1      42.824  36.981  38.038  1.00  0.00     0.124 S 
ATOM     92  O   UNL A   1      43.518  37.996  37.251  1.00  0.00    -0.237 OA
ATOM     93  O   UNL A   1      41.444  37.293  38.399  1.00  0.00    -0.237 OA
ATOM     94  O   UNL A   1      43.616  36.355  39.093  1.00  0.00    -0.744 OA
ENDBRANCH  90  91
ENDBRANCH  58  83
ENDBRANCH  32  33
ENDBRANCH  25  27
ENDBRANCH  24  25
ENDBRANCH   1  24
TORSDOF 15
ENDMDL
