MODEL 1
REMARK VINA RESULT:     -12.0      0.000      0.000
REMARK SMILES O=C(Cn1c2ccccc2c(=O)c2ccccc21)N[C@@H](Cc1ccccc1)C(=O)OCCOC(=O)c1ccc(-c2c3nc(c(-c4c(F)cc(S(=O)(=O)[O-])cc4F)c4ccc([nH]4)c(-c4c(F)cc(S(=O)(=O)[O-])cc4F)c4nc(c(-c5c(F)cc(S(=O)(=O)[O-])cc5F)c5ccc2[nH]5)C=C4)C=C3)cc1
REMARK SMILES IDX 31 1 30 2 28 3 29 4 20 5 19 6 1 7 2 8 3 10 4 11 5 12 18 13
REMARK SMILES IDX 6 14 10 15 13 16 17 17 7 18 9 19 11 20 14 21 16 22 8 23
REMARK SMILES IDX 12 24 15 25 21 26 22 27 23 28 27 29 24 30 26 31 25 32 32 33
REMARK SMILES IDX 33 34 34 35 35 36 36 37 37 38 101 39 38 40 100 41 39 42
REMARK SMILES IDX 40 43 41 44 94 45 42 46 99 47 93 48 95 49 43 50 98 51 92 52
REMARK SMILES IDX 91 53 44 55 78 56 57 57 77 58 58 59 61 60 76 61 96 62 59 63
REMARK SMILES IDX 60 64 75 66 97 67 62 68 45 69 46 70 55 71 47 72 48 73 54 74
REMARK SMILES IDX 56 75 49 76 50 77 51 78 52 79 53 80 79 81 80 82 89 83 81 84
REMARK SMILES IDX 82 85 88 86 90 87 83 88 84 89 85 90 86 91 87 92 63 93 64 94
REMARK SMILES IDX 73 95 65 96 66 97 72 98 74 99 67 100 68 101 69 102 70 103
REMARK SMILES IDX 71 104
REMARK H PARENT 19 9 95 54 61 65
REMARK Flexibility Score: inf
ROOT
ATOM      1  C   UNL A   1      32.825  28.981  25.436  1.00  0.00     0.274 C 
ENDROOT
BRANCH   1   2
ATOM      2  O   UNL A   1      33.834  28.183  24.788  1.00  0.00    -0.461 OA
BRANCH   2   3
ATOM      3  C   UNL A   1      33.734  28.028  23.442  1.00  0.00     0.329 C 
ATOM      4  O   UNL A   1      33.786  28.946  22.631  1.00  0.00    -0.250 OA
BRANCH   3   5
ATOM      5  C   UNL A   1      33.469  26.566  23.041  1.00  0.00     0.196 C 
BRANCH   5   6
ATOM      6  N   UNL A   1      33.453  25.546  24.106  1.00  0.00    -0.341 N 
ATOM      7  O   UNL A   1      34.681  24.051  22.900  1.00  0.00    -0.273 OA
ATOM      8  C   UNL A   1      34.069  24.324  23.935  1.00  0.00     0.240 C 
ATOM      9  H   UNL A   1      32.995  25.741  24.956  1.00  0.00     0.164 HD
BRANCH   8  10
ATOM     10  C   UNL A   1      33.867  23.251  25.015  1.00  0.00     0.222 C 
BRANCH  10  11
ATOM     11  N   UNL A   1      34.888  22.180  25.027  1.00  0.00    -0.331 N 
ATOM     12  C   UNL A   1      36.223  22.481  25.390  1.00  0.00     0.053 A 
ATOM     13  C   UNL A   1      34.448  20.853  24.764  1.00  0.00     0.053 A 
ATOM     14  C   UNL A   1      36.681  23.766  25.730  1.00  0.00     0.027 A 
ATOM     15  C   UNL A   1      37.180  21.450  25.444  1.00  0.00     0.046 A 
ATOM     16  C   UNL A   1      35.377  19.795  24.760  1.00  0.00     0.046 A 
ATOM     17  C   UNL A   1      33.110  20.506  24.485  1.00  0.00     0.027 A 
ATOM     18  C   UNL A   1      38.002  24.000  26.145  1.00  0.00     0.002 A 
ATOM     19  C   UNL A   1      38.506  21.679  25.849  1.00  0.00     0.014 A 
ATOM     20  C   UNL A   1      36.792  20.073  25.074  1.00  0.00     0.197 A 
ATOM     21  C   UNL A   1      35.005  18.472  24.468  1.00  0.00     0.014 A 
ATOM     22  C   UNL A   1      32.731  19.186  24.200  1.00  0.00     0.002 A 
ATOM     23  C   UNL A   1      38.914  22.956  26.210  1.00  0.00     0.001 A 
ATOM     24  O   UNL A   1      37.634  19.180  25.041  1.00  0.00    -0.288 OA
ATOM     25  C   UNL A   1      33.678  18.169  24.185  1.00  0.00     0.001 A 
ENDBRANCH  10  11
ENDBRANCH   8  10
ENDBRANCH   5   6
BRANCH   5  26
ATOM     26  C   UNL A   1      32.214  26.487  22.149  1.00  0.00     0.072 C 
BRANCH  26  27
ATOM     27  C   UNL A   1      30.888  27.039  22.645  1.00  0.00    -0.045 A 
ATOM     28  C   UNL A   1      30.092  26.197  23.441  1.00  0.00     0.004 A 
ATOM     29  C   UNL A   1      30.399  28.317  22.352  1.00  0.00     0.004 A 
ATOM     30  C   UNL A   1      28.832  26.604  23.885  1.00  0.00     0.000 A 
ATOM     31  C   UNL A   1      29.128  28.715  22.773  1.00  0.00     0.000 A 
ATOM     32  C   UNL A   1      28.343  27.857  23.537  1.00  0.00     0.000 A 
ENDBRANCH  26  27
ENDBRANCH   5  26
ENDBRANCH   3   5
ENDBRANCH   2   3
ENDBRANCH   1   2
BRANCH   1  33
ATOM     33  C   UNL A   1      33.499  30.016  26.344  1.00  0.00     0.275 C 
BRANCH  33  34
ATOM     34  O   UNL A   1      34.620  29.429  27.030  1.00  0.00    -0.458 OA
BRANCH  34  35
ATOM     35  C   UNL A   1      35.078  30.155  28.078  1.00  0.00     0.338 C 
ATOM     36  O   UNL A   1      34.413  30.862  28.813  1.00  0.00    -0.246 OA
BRANCH  35  37
ATOM     37  C   UNL A   1      36.478  29.792  28.345  1.00  0.00     0.060 A 
ATOM     38  C   UNL A   1      36.876  29.348  29.605  1.00  0.00     0.016 A 
ATOM     39  C   UNL A   1      37.405  29.917  27.304  1.00  0.00     0.016 A 
ATOM     40  C   UNL A   1      38.222  29.059  29.828  1.00  0.00     0.010 A 
ATOM     41  C   UNL A   1      38.748  29.630  27.529  1.00  0.00     0.010 A 
ATOM     42  C   UNL A   1      39.165  29.209  28.796  1.00  0.00    -0.014 A 
BRANCH  42  43
ATOM     43  C   UNL A   1      40.581  28.860  29.041  1.00  0.00     0.031 A 
ATOM     44  C   UNL A   1      41.107  27.500  28.696  1.00  0.00     0.074 A 
ATOM     45  C   UNL A   1      41.386  29.799  29.568  1.00  0.00     0.049 A 
ATOM     46  N   UNL A   1      42.343  27.071  28.716  1.00  0.00    -0.248 NA
ATOM     47  C   UNL A   1      40.124  26.488  28.280  1.00  0.00     0.031 C 
ATOM     48  C   UNL A   1      40.953  31.135  29.986  1.00  0.00     0.029 A 
ATOM     49  N   UNL A   1      42.731  29.786  29.825  1.00  0.00    -0.354 N 
ATOM     50  C   UNL A   1      42.293  25.750  28.290  1.00  0.00     0.074 A 
ATOM     51  C   UNL A   1      40.897  25.430  28.073  1.00  0.00     0.031 C 
ATOM     52  C   UNL A   1      42.021  31.827  30.412  1.00  0.00     0.029 A 
ATOM     53  C   UNL A   1      43.206  30.981  30.309  1.00  0.00     0.049 A 
ATOM     54  H   UNL A   1      43.301  28.998  29.679  1.00  0.00     0.167 HD
ATOM     55  C   UNL A   1      43.322  24.896  28.079  1.00  0.00     0.037 A 
ATOM     56  C   UNL A   1      44.463  31.357  30.614  1.00  0.00     0.037 A 
ATOM     57  C   UNL A   1      44.704  25.231  28.318  1.00  0.00     0.049 A 
ATOM     58  C   UNL A   1      45.586  30.387  30.388  1.00  0.00     0.074 A 
ATOM     59  C   UNL A   1      45.829  24.454  28.102  1.00  0.00     0.029 A 
ATOM     60  N   UNL A   1      45.148  26.439  28.839  1.00  0.00    -0.354 N 
ATOM     61  N   UNL A   1      45.535  29.167  29.906  1.00  0.00    -0.248 NA
ATOM     62  C   UNL A   1      46.937  30.841  30.737  1.00  0.00     0.031 C 
ATOM     63  C   UNL A   1      46.948  25.176  28.532  1.00  0.00     0.029 A 
ATOM     64  C   UNL A   1      46.526  26.421  28.974  1.00  0.00     0.049 A 
ATOM     65  H   UNL A   1      44.567  27.198  29.076  1.00  0.00     0.167 HD
ATOM     66  C   UNL A   1      46.848  28.712  29.881  1.00  0.00     0.074 A 
ATOM     67  C   UNL A   1      47.672  29.795  30.380  1.00  0.00     0.031 C 
ATOM     68  C   UNL A   1      47.327  27.508  29.483  1.00  0.00     0.037 A 
BRANCH  55  69
ATOM     69  C   UNL A   1      43.002  23.525  27.549  1.00  0.00     0.058 A 
ATOM     70  C   UNL A   1      43.232  23.192  26.205  1.00  0.00     0.135 A 
ATOM     71  C   UNL A   1      42.518  22.517  28.398  1.00  0.00     0.135 A 
ATOM     72  F   UNL A   1      43.684  24.119  25.345  1.00  0.00    -0.206 F 
ATOM     73  C   UNL A   1      42.980  21.913  25.717  1.00  0.00     0.059 A 
ATOM     74  C   UNL A   1      42.280  21.224  27.937  1.00  0.00     0.059 A 
ATOM     75  F   UNL A   1      42.280  22.780  29.692  1.00  0.00    -0.206 F 
ATOM     76  C   UNL A   1      42.505  20.935  26.591  1.00  0.00     0.060 A 
BRANCH  76  77
ATOM     77  S   UNL A   1      42.201  19.278  25.943  1.00  0.00     0.124 S 
ATOM     78  O   UNL A   1      40.748  19.279  25.805  1.00  0.00    -0.237 OA
ATOM     79  O   UNL A   1      42.955  19.289  24.693  1.00  0.00    -0.237 OA
ATOM     80  O   UNL A   1      42.731  18.401  26.983  1.00  0.00    -0.744 OA
ENDBRANCH  76  77
ENDBRANCH  55  69
BRANCH  56  81
ATOM     81  C   UNL A   1      44.713  32.735  31.108  1.00  0.00     0.058 A 
ATOM     82  C   UNL A   1      44.948  33.789  30.213  1.00  0.00     0.135 A 
ATOM     83  C   UNL A   1      44.666  33.036  32.478  1.00  0.00     0.135 A 
ATOM     84  F   UNL A   1      45.003  33.549  28.894  1.00  0.00    -0.206 F 
ATOM     85  C   UNL A   1      45.130  35.093  30.658  1.00  0.00     0.059 A 
ATOM     86  C   UNL A   1      44.823  34.337  32.946  1.00  0.00     0.059 A 
ATOM     87  F   UNL A   1      44.423  32.064  33.372  1.00  0.00    -0.206 F 
ATOM     88  C   UNL A   1      45.058  35.358  32.027  1.00  0.00     0.060 A 
BRANCH  88  89
ATOM     89  S   UNL A   1      45.225  37.068  32.584  1.00  0.00     0.124 S 
ATOM     90  O   UNL A   1      45.226  36.905  34.034  1.00  0.00    -0.237 OA
ATOM     91  O   UNL A   1      46.495  37.462  31.985  1.00  0.00    -0.237 OA
ATOM     92  O   UNL A   1      44.046  37.721  32.023  1.00  0.00    -0.744 OA
ENDBRANCH  88  89
ENDBRANCH  56  81
BRANCH  68  93
ATOM     93  C   UNL A   1      48.811  27.294  29.573  1.00  0.00     0.058 A 
ATOM     94  C   UNL A   1      49.676  27.726  28.555  1.00  0.00     0.135 A 
ATOM     95  C   UNL A   1      49.381  26.710  30.716  1.00  0.00     0.135 A 
ATOM     96  F   UNL A   1      49.180  28.281  27.439  1.00  0.00    -0.206 F 
ATOM     97  C   UNL A   1      51.053  27.574  28.662  1.00  0.00     0.059 A 
ATOM     98  C   UNL A   1      50.759  26.572  30.854  1.00  0.00     0.059 A 
ATOM     99  F   UNL A   1      48.599  26.287  31.721  1.00  0.00    -0.206 F 
ATOM    100  C   UNL A   1      51.587  27.001  29.818  1.00  0.00     0.060 A 
BRANCH 100 101
ATOM    101  S   UNL A   1      53.380  26.854  29.959  1.00  0.00     0.124 S 
ATOM    102  O   UNL A   1      53.725  26.220  28.690  1.00  0.00    -0.237 OA
ATOM    103  O   UNL A   1      53.796  28.246  30.105  1.00  0.00    -0.237 OA
ATOM    104  O   UNL A   1      53.562  26.023  31.145  1.00  0.00    -0.744 OA
ENDBRANCH 100 101
ENDBRANCH  68  93
ENDBRANCH  42  43
ENDBRANCH  35  37
ENDBRANCH  34  35
ENDBRANCH  33  34
ENDBRANCH   1  33
TORSDOF 19
ENDMDL
MODEL 2
REMARK VINA RESULT:     -11.9      2.171      2.636
REMARK SMILES O=C(Cn1c2ccccc2c(=O)c2ccccc21)N[C@@H](Cc1ccccc1)C(=O)OCCOC(=O)c1ccc(-c2c3nc(c(-c4c(F)cc(S(=O)(=O)[O-])cc4F)c4ccc([nH]4)c(-c4c(F)cc(S(=O)(=O)[O-])cc4F)c4nc(c(-c5c(F)cc(S(=O)(=O)[O-])cc5F)c5ccc2[nH]5)C=C4)C=C3)cc1
REMARK SMILES IDX 31 1 30 2 28 3 29 4 20 5 19 6 1 7 2 8 3 10 4 11 5 12 18 13
REMARK SMILES IDX 6 14 10 15 13 16 17 17 7 18 9 19 11 20 14 21 16 22 8 23
REMARK SMILES IDX 12 24 15 25 21 26 22 27 23 28 27 29 24 30 26 31 25 32 32 33
REMARK SMILES IDX 33 34 34 35 35 36 36 37 37 38 101 39 38 40 100 41 39 42
REMARK SMILES IDX 40 43 41 44 94 45 42 46 99 47 93 48 95 49 43 50 98 51 92 52
REMARK SMILES IDX 91 53 44 55 78 56 57 57 77 58 58 59 61 60 76 61 96 62 59 63
REMARK SMILES IDX 60 64 75 66 97 67 62 68 45 69 46 70 55 71 47 72 48 73 54 74
REMARK SMILES IDX 56 75 49 76 50 77 51 78 52 79 53 80 79 81 80 82 89 83 81 84
REMARK SMILES IDX 82 85 88 86 90 87 83 88 84 89 85 90 86 91 87 92 63 93 64 94
REMARK SMILES IDX 73 95 65 96 66 97 72 98 74 99 67 100 68 101 69 102 70 103
REMARK SMILES IDX 71 104
REMARK H PARENT 19 9 95 54 61 65
REMARK Flexibility Score: inf
ROOT
ATOM      1  C   UNL A   1      33.518  29.982  26.984  1.00  0.00     0.274 C 
ENDROOT
BRANCH   1   2
ATOM      2  O   UNL A   1      34.033  28.893  26.194  1.00  0.00    -0.461 OA
BRANCH   2   3
ATOM      3  C   UNL A   1      33.563  28.769  24.924  1.00  0.00     0.329 C 
ATOM      4  O   UNL A   1      32.961  29.648  24.317  1.00  0.00    -0.250 OA
BRANCH   3   5
ATOM      5  C   UNL A   1      33.802  27.362  24.349  1.00  0.00     0.196 C 
BRANCH   5   6
ATOM      6  N   UNL A   1      33.843  26.225  25.288  1.00  0.00    -0.341 N 
ATOM      7  O   UNL A   1      34.718  24.790  23.747  1.00  0.00    -0.273 OA
ATOM      8  C   UNL A   1      34.299  24.986  24.890  1.00  0.00     0.240 C 
ATOM      9  H   UNL A   1      33.540  26.353  26.216  1.00  0.00     0.164 HD
BRANCH   8  10
ATOM     10  C   UNL A   1      34.153  23.811  25.867  1.00  0.00     0.222 C 
BRANCH  10  11
ATOM     11  N   UNL A   1      35.044  22.661  25.596  1.00  0.00    -0.331 N 
ATOM     12  C   UNL A   1      36.438  22.781  25.811  1.00  0.00     0.053 A 
ATOM     13  C   UNL A   1      34.433  21.433  25.218  1.00  0.00     0.053 A 
ATOM     14  C   UNL A   1      37.073  23.955  26.256  1.00  0.00     0.027 A 
ATOM     15  C   UNL A   1      37.276  21.671  25.595  1.00  0.00     0.046 A 
ATOM     16  C   UNL A   1      35.232  20.307  24.945  1.00  0.00     0.046 A 
ATOM     17  C   UNL A   1      33.041  21.256  25.079  1.00  0.00     0.027 A 
ATOM     18  C   UNL A   1      38.452  24.003  26.515  1.00  0.00     0.002 A 
ATOM     19  C   UNL A   1      38.659  21.715  25.842  1.00  0.00     0.014 A 
ATOM     20  C   UNL A   1      36.697  20.406  25.098  1.00  0.00     0.197 A 
ATOM     21  C   UNL A   1      34.685  19.082  24.530  1.00  0.00     0.014 A 
ATOM     22  C   UNL A   1      32.488  20.032  24.673  1.00  0.00     0.002 A 
ATOM     23  C   UNL A   1      39.245  22.882  26.314  1.00  0.00     0.001 A 
ATOM     24  O   UNL A   1      37.425  19.454  24.830  1.00  0.00    -0.288 OA
ATOM     25  C   UNL A   1      33.309  18.947  24.391  1.00  0.00     0.001 A 
ENDBRANCH  10  11
ENDBRANCH   8  10
ENDBRANCH   5   6
BRANCH   5  26
ATOM     26  C   UNL A   1      32.836  27.106  23.175  1.00  0.00     0.072 C 
BRANCH  26  27
ATOM     27  C   UNL A   1      31.344  26.972  23.429  1.00  0.00    -0.045 A 
ATOM     28  C   UNL A   1      30.496  27.913  22.821  1.00  0.00     0.004 A 
ATOM     29  C   UNL A   1      30.760  25.989  24.236  1.00  0.00     0.004 A 
ATOM     30  C   UNL A   1      29.118  27.900  23.054  1.00  0.00     0.000 A 
ATOM     31  C   UNL A   1      29.386  25.990  24.490  1.00  0.00     0.000 A 
ATOM     32  C   UNL A   1      28.566  26.947  23.902  1.00  0.00     0.000 A 
ENDBRANCH  26  27
ENDBRANCH   5  26
ENDBRANCH   3   5
ENDBRANCH   2   3
ENDBRANCH   1   2
BRANCH   1  33
ATOM     33  C   UNL A   1      34.681  30.717  27.658  1.00  0.00     0.275 C 
BRANCH  33  34
ATOM     34  O   UNL A   1      35.584  29.777  28.269  1.00  0.00    -0.458 OA
BRANCH  34  35
ATOM     35  C   UNL A   1      36.360  30.301  29.249  1.00  0.00     0.338 C 
ATOM     36  O   UNL A   1      35.970  30.865  30.255  1.00  0.00    -0.246 OA
BRANCH  35  37
ATOM     37  C   UNL A   1      37.755  29.894  29.032  1.00  0.00     0.060 A 
ATOM     38  C   UNL A   1      38.632  29.737  30.106  1.00  0.00     0.016 A 
ATOM     39  C   UNL A   1      38.188  29.680  27.718  1.00  0.00     0.016 A 
ATOM     40  C   UNL A   1      39.960  29.395  29.852  1.00  0.00     0.010 A 
ATOM     41  C   UNL A   1      39.514  29.341  27.467  1.00  0.00     0.010 A 
ATOM     42  C   UNL A   1      40.409  29.207  28.533  1.00  0.00    -0.014 A 
BRANCH  42  43
ATOM     43  C   UNL A   1      41.811  28.806  28.288  1.00  0.00     0.031 A 
ATOM     44  C   UNL A   1      42.159  27.382  27.973  1.00  0.00     0.074 A 
ATOM     45  C   UNL A   1      42.763  29.755  28.339  1.00  0.00     0.049 A 
ATOM     46  N   UNL A   1      43.309  26.884  27.599  1.00  0.00    -0.248 NA
ATOM     47  C   UNL A   1      41.084  26.387  28.100  1.00  0.00     0.031 C 
ATOM     48  C   UNL A   1      42.528  31.158  28.688  1.00  0.00     0.029 A 
ATOM     49  N   UNL A   1      44.106  29.693  28.082  1.00  0.00    -0.354 N 
ATOM     50  C   UNL A   1      43.093  25.525  27.418  1.00  0.00     0.074 A 
ATOM     51  C   UNL A   1      41.715  25.266  27.779  1.00  0.00     0.031 C 
ATOM     52  C   UNL A   1      43.684  31.833  28.586  1.00  0.00     0.029 A 
ATOM     53  C   UNL A   1      44.738  30.909  28.178  1.00  0.00     0.049 A 
ATOM     54  H   UNL A   1      44.574  28.858  27.851  1.00  0.00     0.167 HD
ATOM     55  C   UNL A   1      43.962  24.588  26.968  1.00  0.00     0.037 A 
ATOM     56  C   UNL A   1      46.020  31.243  27.941  1.00  0.00     0.037 A 
ATOM     57  C   UNL A   1      45.336  24.866  26.630  1.00  0.00     0.049 A 
ATOM     58  C   UNL A   1      46.970  30.184  27.460  1.00  0.00     0.074 A 
ATOM     59  C   UNL A   1      46.293  23.999  26.130  1.00  0.00     0.029 A 
ATOM     60  N   UNL A   1      45.952  26.102  26.770  1.00  0.00    -0.354 N 
ATOM     61  N   UNL A   1      46.732  28.917  27.213  1.00  0.00    -0.248 NA
ATOM     62  C   UNL A   1      48.358  30.596  27.218  1.00  0.00     0.031 C 
ATOM     63  C   UNL A   1      47.497  24.701  26.008  1.00  0.00     0.029 A 
ATOM     64  C   UNL A   1      47.281  26.017  26.389  1.00  0.00     0.049 A 
ATOM     65  H   UNL A   1      45.509  26.920  27.092  1.00  0.00     0.167 HD
ATOM     66  C   UNL A   1      47.937  28.383  26.773  1.00  0.00     0.074 A 
ATOM     67  C   UNL A   1      48.898  29.469  26.770  1.00  0.00     0.031 C 
ATOM     68  C   UNL A   1      48.223  27.109  26.405  1.00  0.00     0.037 A 
BRANCH  55  69
ATOM     69  C   UNL A   1      43.455  23.183  26.798  1.00  0.00     0.058 A 
ATOM     70  C   UNL A   1      43.236  22.637  25.523  1.00  0.00     0.135 A 
ATOM     71  C   UNL A   1      43.243  22.351  27.909  1.00  0.00     0.135 A 
ATOM     72  F   UNL A   1      43.412  23.389  24.425  1.00  0.00    -0.206 F 
ATOM     73  C   UNL A   1      42.810  21.323  25.356  1.00  0.00     0.059 A 
ATOM     74  C   UNL A   1      42.839  21.026  27.765  1.00  0.00     0.059 A 
ATOM     75  F   UNL A   1      43.438  22.821  29.151  1.00  0.00    -0.206 F 
ATOM     76  C   UNL A   1      42.615  20.523  26.483  1.00  0.00     0.060 A 
BRANCH  76  77
ATOM     77  S   UNL A   1      42.079  18.816  26.244  1.00  0.00     0.124 S 
ATOM     78  O   UNL A   1      40.714  19.003  25.762  1.00  0.00    -0.237 OA
ATOM     79  O   UNL A   1      43.036  18.324  25.258  1.00  0.00    -0.237 OA
ATOM     80  O   UNL A   1      42.198  18.230  27.576  1.00  0.00    -0.744 OA
ENDBRANCH  76  77
ENDBRANCH  55  69
BRANCH  56  81
ATOM     81  C   UNL A   1      46.449  32.656  28.103  1.00  0.00     0.058 A 
ATOM     82  C   UNL A   1      46.266  33.586  27.070  1.00  0.00     0.135 A 
ATOM     83  C   UNL A   1      46.995  33.116  29.311  1.00  0.00     0.135 A 
ATOM     84  F   UNL A   1      45.748  33.192  25.896  1.00  0.00    -0.206 F 
ATOM     85  C   UNL A   1      46.612  34.924  27.226  1.00  0.00     0.059 A 
ATOM     86  C   UNL A   1      47.328  34.453  29.499  1.00  0.00     0.059 A 
ATOM     87  F   UNL A   1      47.170  32.267  30.336  1.00  0.00    -0.206 F 
ATOM     88  C   UNL A   1      47.136  35.349  28.448  1.00  0.00     0.060 A 
BRANCH  88  89
ATOM     89  S   UNL A   1      47.514  37.102  28.662  1.00  0.00     0.124 S 
ATOM     90  O   UNL A   1      46.857  37.392  29.932  1.00  0.00    -0.237 OA
ATOM     91  O   UNL A   1      48.973  37.100  28.683  1.00  0.00    -0.237 OA
ATOM     92  O   UNL A   1      46.913  37.721  27.484  1.00  0.00    -0.744 OA
ENDBRANCH  88  89
ENDBRANCH  56  81
BRANCH  68  93
ATOM     93  C   UNL A   1      49.632  26.817  25.972  1.00  0.00     0.058 A 
ATOM     94  C   UNL A   1      50.058  27.059  24.657  1.00  0.00     0.135 A 
ATOM     95  C   UNL A   1      50.582  26.353  26.896  1.00  0.00     0.135 A 
ATOM     96  F   UNL A   1      49.186  27.495  23.734  1.00  0.00    -0.206 F 
ATOM     97  C   UNL A   1      51.375  26.839  24.270  1.00  0.00     0.059 A 
ATOM     98  C   UNL A   1      51.911  26.150  26.536  1.00  0.00     0.059 A 
ATOM     99  F   UNL A   1      50.227  26.113  28.168  1.00  0.00    -0.206 F 
ATOM    100  C   UNL A   1      52.296  26.389  25.217  1.00  0.00     0.060 A 
BRANCH 100 101
ATOM    101  S   UNL A   1      54.010  26.151  24.708  1.00  0.00     0.124 S 
ATOM    102  O   UNL A   1      54.253  24.772  25.122  1.00  0.00    -0.237 OA
ATOM    103  O   UNL A   1      53.942  26.377  23.267  1.00  0.00    -0.237 OA
ATOM    104  O   UNL A   1      54.735  27.169  25.463  1.00  0.00    -0.744 OA
ENDBRANCH 100 101
ENDBRANCH  68  93
ENDBRANCH  42  43
ENDBRANCH  35  37
ENDBRANCH  34  35
ENDBRANCH  33  34
ENDBRANCH   1  33
TORSDOF 19
ENDMDL
MODEL 3
REMARK VINA RESULT:     -11.7      1.172      2.585
REMARK SMILES O=C(Cn1c2ccccc2c(=O)c2ccccc21)N[C@@H](Cc1ccccc1)C(=O)OCCOC(=O)c1ccc(-c2c3nc(c(-c4c(F)cc(S(=O)(=O)[O-])cc4F)c4ccc([nH]4)c(-c4c(F)cc(S(=O)(=O)[O-])cc4F)c4nc(c(-c5c(F)cc(S(=O)(=O)[O-])cc5F)c5ccc2[nH]5)C=C4)C=C3)cc1
REMARK SMILES IDX 31 1 30 2 28 3 29 4 20 5 19 6 1 7 2 8 3 10 4 11 5 12 18 13
REMARK SMILES IDX 6 14 10 15 13 16 17 17 7 18 9 19 11 20 14 21 16 22 8 23
REMARK SMILES IDX 12 24 15 25 21 26 22 27 23 28 27 29 24 30 26 31 25 32 32 33
REMARK SMILES IDX 33 34 34 35 35 36 36 37 37 38 101 39 38 40 100 41 39 42
REMARK SMILES IDX 40 43 41 44 94 45 42 46 99 47 93 48 95 49 43 50 98 51 92 52
REMARK SMILES IDX 91 53 44 55 78 56 57 57 77 58 58 59 61 60 76 61 96 62 59 63
REMARK SMILES IDX 60 64 75 66 97 67 62 68 45 69 46 70 55 71 47 72 48 73 54 74
REMARK SMILES IDX 56 75 49 76 50 77 51 78 52 79 53 80 79 81 80 82 89 83 81 84
REMARK SMILES IDX 82 85 88 86 90 87 83 88 84 89 85 90 86 91 87 92 63 93 64 94
REMARK SMILES IDX 73 95 65 96 66 97 72 98 74 99 67 100 68 101 69 102 70 103
REMARK SMILES IDX 71 104
REMARK H PARENT 19 9 95 54 61 65
REMARK Flexibility Score: inf
ROOT
ATOM      1  C   UNL A   1      31.754  28.306  26.456  1.00  0.00     0.274 C 
ENDROOT
BRANCH   1   2
ATOM      2  O   UNL A   1      31.092  27.169  27.042  1.00  0.00    -0.461 OA
BRANCH   2   3
ATOM      3  C   UNL A   1      30.871  26.095  26.238  1.00  0.00     0.329 C 
ATOM      4  O   UNL A   1      30.545  24.983  26.638  1.00  0.00    -0.250 OA
BRANCH   3   5
ATOM      5  C   UNL A   1      31.148  26.409  24.757  1.00  0.00     0.196 C 
BRANCH   5   6
ATOM      6  N   UNL A   1      32.120  25.564  24.039  1.00  0.00    -0.341 N 
ATOM      7  O   UNL A   1      33.764  25.879  25.587  1.00  0.00    -0.273 OA
ATOM      8  C   UNL A   1      33.398  25.374  24.523  1.00  0.00     0.240 C 
ATOM      9  H   UNL A   1      31.853  25.126  23.199  1.00  0.00     0.164 HD
BRANCH   8  10
ATOM     10  C   UNL A   1      34.406  24.625  23.640  1.00  0.00     0.222 C 
BRANCH  10  11
ATOM     11  N   UNL A   1      34.693  23.236  24.062  1.00  0.00    -0.331 N 
ATOM     12  C   UNL A   1      33.797  22.195  23.722  1.00  0.00     0.053 A 
ATOM     13  C   UNL A   1      35.931  22.995  24.720  1.00  0.00     0.053 A 
ATOM     14  C   UNL A   1      32.600  22.381  23.007  1.00  0.00     0.027 A 
ATOM     15  C   UNL A   1      34.098  20.869  24.087  1.00  0.00     0.046 A 
ATOM     16  C   UNL A   1      36.256  21.693  25.147  1.00  0.00     0.046 A 
ATOM     17  C   UNL A   1      36.885  23.996  24.997  1.00  0.00     0.027 A 
ATOM     18  C   UNL A   1      31.778  21.304  22.639  1.00  0.00     0.002 A 
ATOM     19  C   UNL A   1      33.274  19.787  23.730  1.00  0.00     0.014 A 
ATOM     20  C   UNL A   1      35.321  20.586  24.865  1.00  0.00     0.197 A 
ATOM     21  C   UNL A   1      37.446  21.405  25.835  1.00  0.00     0.014 A 
ATOM     22  C   UNL A   1      38.079  23.712  25.678  1.00  0.00     0.002 A 
ATOM     23  C   UNL A   1      32.117  20.007  22.995  1.00  0.00     0.001 A 
ATOM     24  O   UNL A   1      35.556  19.446  25.258  1.00  0.00    -0.288 OA
ATOM     25  C   UNL A   1      38.357  22.419  26.103  1.00  0.00     0.001 A 
ENDBRANCH  10  11
ENDBRANCH   8  10
ENDBRANCH   5   6
BRANCH   5  26
ATOM     26  C   UNL A   1      29.816  26.534  23.991  1.00  0.00     0.072 C 
BRANCH  26  27
ATOM     27  C   UNL A   1      29.466  27.826  23.273  1.00  0.00    -0.045 A 
ATOM     28  C   UNL A   1      28.116  28.218  23.264  1.00  0.00     0.004 A 
ATOM     29  C   UNL A   1      30.389  28.642  22.607  1.00  0.00     0.004 A 
ATOM     30  C   UNL A   1      27.701  29.359  22.573  1.00  0.00     0.000 A 
ATOM     31  C   UNL A   1      29.971  29.768  21.895  1.00  0.00     0.000 A 
ATOM     32  C   UNL A   1      28.627  30.125  21.874  1.00  0.00     0.000 A 
ENDBRANCH  26  27
ENDBRANCH   5  26
ENDBRANCH   3   5
ENDBRANCH   2   3
ENDBRANCH   1   2
BRANCH   1  33
ATOM     33  C   UNL A   1      32.400  29.146  27.563  1.00  0.00     0.275 C 
BRANCH  33  34
ATOM     34  O   UNL A   1      33.834  29.034  27.508  1.00  0.00    -0.458 OA
BRANCH  34  35
ATOM     35  C   UNL A   1      34.497  30.168  27.839  1.00  0.00     0.338 C 
ATOM     36  O   UNL A   1      34.003  31.265  28.031  1.00  0.00    -0.246 OA
BRANCH  35  37
ATOM     37  C   UNL A   1      35.895  29.838  28.155  1.00  0.00     0.060 A 
ATOM     38  C   UNL A   1      36.259  29.404  29.429  1.00  0.00     0.016 A 
ATOM     39  C   UNL A   1      36.855  29.982  27.146  1.00  0.00     0.016 A 
ATOM     40  C   UNL A   1      37.603  29.146  29.699  1.00  0.00     0.010 A 
ATOM     41  C   UNL A   1      38.195  29.726  27.418  1.00  0.00     0.010 A 
ATOM     42  C   UNL A   1      38.577  29.317  28.700  1.00  0.00    -0.014 A 
BRANCH  42  43
ATOM     43  C   UNL A   1      39.991  29.000  28.995  1.00  0.00     0.031 A 
ATOM     44  C   UNL A   1      40.555  27.645  28.690  1.00  0.00     0.074 A 
ATOM     45  C   UNL A   1      40.761  29.965  29.529  1.00  0.00     0.049 A 
ATOM     46  N   UNL A   1      41.797  27.241  28.756  1.00  0.00    -0.248 NA
ATOM     47  C   UNL A   1      39.605  26.606  28.263  1.00  0.00     0.031 C 
ATOM     48  C   UNL A   1      40.290  31.299  29.908  1.00  0.00     0.029 A 
ATOM     49  N   UNL A   1      42.098  29.983  29.826  1.00  0.00    -0.354 N 
ATOM     50  C   UNL A   1      41.786  25.912  28.354  1.00  0.00     0.074 A 
ATOM     51  C   UNL A   1      40.404  25.560  28.100  1.00  0.00     0.031 C 
ATOM     52  C   UNL A   1      41.331  32.019  30.353  1.00  0.00     0.029 A 
ATOM     53  C   UNL A   1      42.535  31.195  30.302  1.00  0.00     0.049 A 
ATOM     54  H   UNL A   1      42.688  29.203  29.712  1.00  0.00     0.167 HD
ATOM     55  C   UNL A   1      42.837  25.075  28.189  1.00  0.00     0.037 A 
ATOM     56  C   UNL A   1      43.774  31.601  30.638  1.00  0.00     0.037 A 
ATOM     57  C   UNL A   1      44.205  25.442  28.464  1.00  0.00     0.049 A 
ATOM     58  C   UNL A   1      44.923  30.650  30.465  1.00  0.00     0.074 A 
ATOM     59  C   UNL A   1      45.351  24.684  28.297  1.00  0.00     0.029 A 
ATOM     60  N   UNL A   1      44.609  26.667  28.976  1.00  0.00    -0.354 N 
ATOM     61  N   UNL A   1      44.909  29.420  30.004  1.00  0.00    -0.248 NA
ATOM     62  C   UNL A   1      46.253  31.137  30.847  1.00  0.00     0.031 C 
ATOM     63  C   UNL A   1      46.441  25.435  28.747  1.00  0.00     0.029 A 
ATOM     64  C   UNL A   1      45.982  26.679  29.154  1.00  0.00     0.049 A 
ATOM     65  H   UNL A   1      44.006  27.419  29.182  1.00  0.00     0.167 HD
ATOM     66  C   UNL A   1      46.231  28.992  30.028  1.00  0.00     0.074 A 
ATOM     67  C   UNL A   1      47.019  30.100  30.531  1.00  0.00     0.031 C 
ATOM     68  C   UNL A   1      46.746  27.790  29.667  1.00  0.00     0.037 A 
BRANCH  55  69
ATOM     69  C   UNL A   1      42.560  23.689  27.676  1.00  0.00     0.058 A 
ATOM     70  C   UNL A   1      42.446  23.432  26.299  1.00  0.00     0.135 A 
ATOM     71  C   UNL A   1      42.466  22.597  28.553  1.00  0.00     0.135 A 
ATOM     72  F   UNL A   1      42.516  24.439  25.414  1.00  0.00    -0.206 F 
ATOM     73  C   UNL A   1      42.233  22.145  25.814  1.00  0.00     0.059 A 
ATOM     74  C   UNL A   1      42.276  21.298  28.089  1.00  0.00     0.059 A 
ATOM     75  F   UNL A   1      42.568  22.786  29.878  1.00  0.00    -0.206 F 
ATOM     76  C   UNL A   1      42.151  21.084  26.716  1.00  0.00     0.060 A 
BRANCH  76  77
ATOM     77  S   UNL A   1      41.893  19.420  26.064  1.00  0.00     0.124 S 
ATOM     78  O   UNL A   1      42.291  18.595  27.200  1.00  0.00    -0.237 OA
ATOM     79  O   UNL A   1      40.467  19.425  25.753  1.00  0.00    -0.237 OA
ATOM     80  O   UNL A   1      42.783  19.364  24.908  1.00  0.00    -0.744 OA
ENDBRANCH  76  77
ENDBRANCH  55  69
BRANCH  56  81
ATOM     81  C   UNL A   1      43.982  32.992  31.115  1.00  0.00     0.058 A 
ATOM     82  C   UNL A   1      44.201  34.039  30.207  1.00  0.00     0.135 A 
ATOM     83  C   UNL A   1      43.910  33.313  32.479  1.00  0.00     0.135 A 
ATOM     84  F   UNL A   1      44.278  33.781  28.892  1.00  0.00    -0.206 F 
ATOM     85  C   UNL A   1      44.343  35.354  30.634  1.00  0.00     0.059 A 
ATOM     86  C   UNL A   1      44.027  34.624  32.929  1.00  0.00     0.059 A 
ATOM     87  F   UNL A   1      43.682  32.348  33.385  1.00  0.00    -0.206 F 
ATOM     88  C   UNL A   1      44.248  35.638  31.998  1.00  0.00     0.060 A 
BRANCH  88  89
ATOM     89  S   UNL A   1      44.363  37.359  32.531  1.00  0.00     0.124 S 
ATOM     90  O   UNL A   1      43.659  38.048  31.455  1.00  0.00    -0.237 OA
ATOM     91  O   UNL A   1      43.681  37.325  33.821  1.00  0.00    -0.237 OA
ATOM     92  O   UNL A   1      45.802  37.595  32.598  1.00  0.00    -0.744 OA
ENDBRANCH  88  89
ENDBRANCH  56  81
BRANCH  68  93
ATOM     93  C   UNL A   1      48.230  27.607  29.806  1.00  0.00     0.058 A 
ATOM     94  C   UNL A   1      48.796  27.096  30.984  1.00  0.00     0.135 A 
ATOM     95  C   UNL A   1      49.089  27.884  28.731  1.00  0.00     0.135 A 
ATOM     96  F   UNL A   1      48.019  26.824  32.044  1.00  0.00    -0.206 F 
ATOM     97  C   UNL A   1      50.164  26.877  31.095  1.00  0.00     0.059 A 
ATOM     98  C   UNL A   1      50.458  27.649  28.812  1.00  0.00     0.059 A 
ATOM     99  F   UNL A   1      48.597  28.368  27.579  1.00  0.00    -0.206 F 
ATOM    100  C   UNL A   1      50.988  27.152  30.002  1.00  0.00     0.060 A 
BRANCH 100 101
ATOM    101  S   UNL A   1      52.755  26.819  30.148  1.00  0.00     0.124 S 
ATOM    102  O   UNL A   1      53.267  28.121  30.566  1.00  0.00    -0.237 OA
ATOM    103  O   UNL A   1      52.792  25.769  31.162  1.00  0.00    -0.237 OA
ATOM    104  O   UNL A   1      53.136  26.399  28.803  1.00  0.00    -0.744 OA
ENDBRANCH 100 101
ENDBRANCH  68  93
ENDBRANCH  42  43
ENDBRANCH  35  37
ENDBRANCH  34  35
ENDBRANCH  33  34
ENDBRANCH   1  33
TORSDOF 19
ENDMDL
