MODEL 1
REMARK VINA RESULT:     -11.2      0.000      0.000
REMARK SMILES O=C(OCCOC(=O)c1ccc(C[NH2+]Cc2cc(F)ccc2F)nc1)c1ccc(-c2c3nc(c(-c4c(F)cc(S(=O)(=O)[O-])cc4F)c4ccc([nH]4)c(-c4c(F)cc(S(=O)(=O)[O-])cc4F)c4nc(c(-c5c(F)cc(S(=O)(=O)[O-])cc5F)c5ccc2[nH]5)C=C4)C=C3)cc1
REMARK SMILES IDX 5 1 4 2 3 3 2 4 1 5 26 6 27 7 91 8 28 9 90 10 29 11 30 12
REMARK SMILES IDX 31 13 84 14 32 15 89 16 83 17 85 18 33 19 88 20 82 21 81 22
REMARK SMILES IDX 34 24 68 25 47 26 67 27 48 28 51 29 66 30 86 31 49 32 50 33
REMARK SMILES IDX 65 35 87 36 52 37 35 38 36 39 45 40 37 41 38 42 44 43 46 44
REMARK SMILES IDX 39 45 40 46 41 47 42 48 43 49 69 50 70 51 79 52 71 53 72 54
REMARK SMILES IDX 78 55 80 56 73 57 74 58 75 59 76 60 77 61 53 62 54 63 63 64
REMARK SMILES IDX 55 65 56 66 62 67 64 68 57 69 58 70 59 71 60 72 61 73 6 74
REMARK SMILES IDX 7 75 8 76 9 77 10 78 25 79 11 80 24 81 12 82 13 83 14 84
REMARK SMILES IDX 15 87 16 88 17 89 22 90 18 91 21 92 23 93 19 94 20 95
REMARK H PARENT 85 23 51 34 14 85 14 86
REMARK Flexibility Score: inf
ROOT
ATOM      1  C   UNL A   1      41.442  22.986  27.187  1.00  0.00     0.275 C 
ENDROOT
BRANCH   1   2
ATOM      2  C   UNL A   1      42.512  23.904  26.586  1.00  0.00     0.275 C 
BRANCH   2   3
ATOM      3  O   UNL A   1      41.998  24.895  25.684  1.00  0.00    -0.458 OA
BRANCH   3   4
ATOM      4  C   UNL A   1      41.796  26.219  25.890  1.00  0.00     0.338 C 
ATOM      5  O   UNL A   1      42.017  26.998  24.965  1.00  0.00    -0.246 OA
BRANCH   4   6
ATOM      6  C   UNL A   1      41.478  26.801  27.232  1.00  0.00     0.060 A 
ATOM      7  C   UNL A   1      40.413  26.439  28.063  1.00  0.00     0.016 A 
ATOM      8  C   UNL A   1      42.328  27.832  27.668  1.00  0.00     0.016 A 
ATOM      9  C   UNL A   1      40.236  27.035  29.319  1.00  0.00     0.010 A 
ATOM     10  C   UNL A   1      42.157  28.429  28.919  1.00  0.00     0.010 A 
ATOM     11  C   UNL A   1      41.105  28.034  29.752  1.00  0.00    -0.014 A 
BRANCH  11  12
ATOM     12  C   UNL A   1      40.818  28.809  30.979  1.00  0.00     0.031 A 
ATOM     13  C   UNL A   1      39.803  29.907  30.889  1.00  0.00     0.074 A 
ATOM     14  C   UNL A   1      41.445  28.550  32.140  1.00  0.00     0.049 A 
ATOM     15  N   UNL A   1      39.458  30.789  31.785  1.00  0.00    -0.248 NA
ATOM     16  C   UNL A   1      39.063  30.005  29.619  1.00  0.00     0.031 C 
ATOM     17  C   UNL A   1      42.351  27.430  32.376  1.00  0.00     0.029 A 
ATOM     18  N   UNL A   1      41.451  29.235  33.329  1.00  0.00    -0.354 N 
ATOM     19  C   UNL A   1      38.437  31.525  31.201  1.00  0.00     0.074 A 
ATOM     20  C   UNL A   1      38.273  31.040  29.850  1.00  0.00     0.031 C 
ATOM     21  C   UNL A   1      42.907  27.561  33.591  1.00  0.00     0.029 A 
ATOM     22  C   UNL A   1      42.400  28.780  34.215  1.00  0.00     0.049 A 
ATOM     23  H   UNL A   1      40.836  29.977  33.529  1.00  0.00     0.167 HD
ATOM     24  C   UNL A   1      37.675  32.493  31.761  1.00  0.00     0.037 A 
ATOM     25  C   UNL A   1      42.841  29.315  35.372  1.00  0.00     0.037 A 
ATOM     26  C   UNL A   1      37.878  32.982  33.094  1.00  0.00     0.049 A 
ATOM     27  C   UNL A   1      42.139  30.542  35.899  1.00  0.00     0.074 A 
ATOM     28  C   UNL A   1      37.172  33.953  33.778  1.00  0.00     0.029 A 
ATOM     29  N   UNL A   1      38.890  32.545  33.940  1.00  0.00    -0.354 N 
ATOM     30  N   UNL A   1      41.136  31.200  35.364  1.00  0.00    -0.248 NA
ATOM     31  C   UNL A   1      42.591  31.086  37.186  1.00  0.00     0.031 C 
ATOM     32  C   UNL A   1      37.787  34.134  35.023  1.00  0.00     0.029 A 
ATOM     33  C   UNL A   1      38.846  33.244  35.131  1.00  0.00     0.049 A 
ATOM     34  H   UNL A   1      39.543  31.841  33.723  1.00  0.00     0.167 HD
ATOM     35  C   UNL A   1      40.781  32.177  36.287  1.00  0.00     0.074 A 
ATOM     36  C   UNL A   1      41.709  32.057  37.394  1.00  0.00     0.031 C 
ATOM     37  C   UNL A   1      39.757  33.065  36.238  1.00  0.00     0.037 A 
BRANCH  24  38
ATOM     38  C   UNL A   1      36.588  33.068  30.901  1.00  0.00     0.058 A 
ATOM     39  C   UNL A   1      36.878  33.981  29.873  1.00  0.00     0.135 A 
ATOM     40  C   UNL A   1      35.241  32.778  31.162  1.00  0.00     0.135 A 
ATOM     41  F   UNL A   1      38.151  34.310  29.598  1.00  0.00    -0.206 F 
ATOM     42  C   UNL A   1      35.869  34.637  29.177  1.00  0.00     0.059 A 
ATOM     43  C   UNL A   1      34.214  33.404  30.460  1.00  0.00     0.059 A 
ATOM     44  F   UNL A   1      34.910  31.915  32.134  1.00  0.00    -0.206 F 
ATOM     45  C   UNL A   1      34.539  34.355  29.493  1.00  0.00     0.060 A 
BRANCH  45  46
ATOM     46  S   UNL A   1      33.237  35.275  28.644  1.00  0.00     0.124 S 
ATOM     47  O   UNL A   1      34.021  36.179  27.808  1.00  0.00    -0.237 OA
ATOM     48  O   UNL A   1      32.519  34.220  27.934  1.00  0.00    -0.237 OA
ATOM     49  O   UNL A   1      32.502  35.905  29.735  1.00  0.00    -0.744 OA
ENDBRANCH  45  46
ENDBRANCH  24  38
BRANCH  25  50
ATOM     50  C   UNL A   1      44.009  28.708  36.072  1.00  0.00     0.058 A 
ATOM     51  C   UNL A   1      45.315  29.185  35.902  1.00  0.00     0.135 A 
ATOM     52  C   UNL A   1      43.826  27.635  36.964  1.00  0.00     0.135 A 
ATOM     53  F   UNL A   1      45.552  30.212  35.074  1.00  0.00    -0.206 F 
ATOM     54  C   UNL A   1      46.397  28.612  36.570  1.00  0.00     0.059 A 
ATOM     55  C   UNL A   1      44.886  27.056  37.656  1.00  0.00     0.059 A 
ATOM     56  F   UNL A   1      42.589  27.169  37.201  1.00  0.00    -0.206 F 
ATOM     57  C   UNL A   1      46.170  27.551  37.450  1.00  0.00     0.060 A 
BRANCH  57  58
ATOM     58  S   UNL A   1      47.580  26.844  38.333  1.00  0.00     0.124 S 
ATOM     59  O   UNL A   1      48.390  28.028  38.598  1.00  0.00    -0.237 OA
ATOM     60  O   UNL A   1      46.928  26.242  39.492  1.00  0.00    -0.237 OA
ATOM     61  O   UNL A   1      48.142  25.900  37.374  1.00  0.00    -0.744 OA
ENDBRANCH  57  58
ENDBRANCH  25  50
BRANCH  37  62
ATOM     62  C   UNL A   1      39.501  33.909  37.454  1.00  0.00     0.058 A 
ATOM     63  C   UNL A   1      38.750  33.440  38.539  1.00  0.00     0.135 A 
ATOM     64  C   UNL A   1      40.144  35.152  37.579  1.00  0.00     0.135 A 
ATOM     65  F   UNL A   1      38.106  32.265  38.459  1.00  0.00    -0.206 F 
ATOM     66  C   UNL A   1      38.657  34.171  39.720  1.00  0.00     0.059 A 
ATOM     67  C   UNL A   1      40.084  35.887  38.756  1.00  0.00     0.059 A 
ATOM     68  F   UNL A   1      40.881  35.637  36.566  1.00  0.00    -0.206 F 
ATOM     69  C   UNL A   1      39.341  35.384  39.824  1.00  0.00     0.060 A 
BRANCH  69  70
ATOM     70  S   UNL A   1      39.305  36.270  41.397  1.00  0.00     0.124 S 
ATOM     71  O   UNL A   1      38.100  35.726  42.013  1.00  0.00    -0.237 OA
ATOM     72  O   UNL A   1      40.568  35.869  42.009  1.00  0.00    -0.237 OA
ATOM     73  O   UNL A   1      39.229  37.671  40.995  1.00  0.00    -0.744 OA
ENDBRANCH  69  70
ENDBRANCH  37  62
ENDBRANCH  11  12
ENDBRANCH   4   6
ENDBRANCH   3   4
ENDBRANCH   2   3
ENDBRANCH   1   2
BRANCH   1  74
ATOM     74  O   UNL A   1      40.139  23.182  26.623  1.00  0.00    -0.458 OA
BRANCH  74  75
ATOM     75  C   UNL A   1      39.531  22.050  26.159  1.00  0.00     0.339 C 
ATOM     76  O   UNL A   1      39.998  20.933  26.133  1.00  0.00    -0.246 OA
BRANCH  75  77
ATOM     77  C   UNL A   1      38.134  22.363  25.815  1.00  0.00     0.078 A 
ATOM     78  C   UNL A   1      37.562  23.610  26.027  1.00  0.00     0.019 A 
ATOM     79  C   UNL A   1      37.340  21.351  25.305  1.00  0.00     0.127 A 
ATOM     80  C   UNL A   1      36.197  23.777  25.780  1.00  0.00     0.031 A 
ATOM     81  N   UNL A   1      36.002  21.474  25.104  1.00  0.00    -0.254 NA
ATOM     82  C   UNL A   1      35.435  22.679  25.379  1.00  0.00     0.094 A 
BRANCH  82  83
ATOM     83  C   UNL A   1      33.914  22.785  25.360  1.00  0.00     0.318 C 
BRANCH  83  84
ATOM     84  N   UNL A   1      33.305  22.061  24.241  1.00  0.00    -0.337 N 
ATOM     85  H   UNL A   1      34.036  21.550  23.744  1.00  0.00     0.346 HD
ATOM     86  H   UNL A   1      32.853  22.746  23.634  1.00  0.00     0.346 HD
BRANCH  84  87
ATOM     87  C   UNL A   1      32.283  21.111  24.686  1.00  0.00     0.300 C 
BRANCH  87  88
ATOM     88  C   UNL A   1      32.582  19.657  24.410  1.00  0.00     0.045 A 
ATOM     89  C   UNL A   1      32.923  18.755  25.428  1.00  0.00     0.051 A 
ATOM     90  C   UNL A   1      32.440  19.153  23.109  1.00  0.00     0.132 A 
ATOM     91  C   UNL A   1      33.146  17.413  25.131  1.00  0.00     0.123 A 
ATOM     92  C   UNL A   1      32.670  17.808  22.813  1.00  0.00     0.043 A 
ATOM     93  F   UNL A   1      32.057  19.968  22.117  1.00  0.00    -0.206 F 
ATOM     94  F   UNL A   1      33.481  16.575  26.119  1.00  0.00    -0.207 F 
ATOM     95  C   UNL A   1      33.029  16.930  23.832  1.00  0.00     0.042 A 
ENDBRANCH  87  88
ENDBRANCH  84  87
ENDBRANCH  83  84
ENDBRANCH  82  83
ENDBRANCH  75  77
ENDBRANCH  74  75
ENDBRANCH   1  74
TORSDOF 18
ENDMDL
MODEL 2
REMARK VINA RESULT:     -11.1      1.183      8.506
REMARK SMILES O=C(OCCOC(=O)c1ccc(C[NH2+]Cc2cc(F)ccc2F)nc1)c1ccc(-c2c3nc(c(-c4c(F)cc(S(=O)(=O)[O-])cc4F)c4ccc([nH]4)c(-c4c(F)cc(S(=O)(=O)[O-])cc4F)c4nc(c(-c5c(F)cc(S(=O)(=O)[O-])cc5F)c5ccc2[nH]5)C=C4)C=C3)cc1
REMARK SMILES IDX 5 1 4 2 3 3 2 4 1 5 26 6 27 7 91 8 28 9 90 10 29 11 30 12
REMARK SMILES IDX 31 13 84 14 32 15 89 16 83 17 85 18 33 19 88 20 82 21 81 22
REMARK SMILES IDX 34 24 68 25 47 26 67 27 48 28 51 29 66 30 86 31 49 32 50 33
REMARK SMILES IDX 65 35 87 36 52 37 35 38 36 39 45 40 37 41 38 42 44 43 46 44
REMARK SMILES IDX 39 45 40 46 41 47 42 48 43 49 69 50 70 51 79 52 71 53 72 54
REMARK SMILES IDX 78 55 80 56 73 57 74 58 75 59 76 60 77 61 53 62 54 63 63 64
REMARK SMILES IDX 55 65 56 66 62 67 64 68 57 69 58 70 59 71 60 72 61 73 6 74
REMARK SMILES IDX 7 75 8 76 9 77 10 78 25 79 11 80 24 81 12 82 13 83 14 84
REMARK SMILES IDX 15 87 16 88 17 89 22 90 18 91 21 92 23 93 19 94 20 95
REMARK H PARENT 85 23 51 34 14 85 14 86
REMARK Flexibility Score: inf
ROOT
ATOM      1  C   UNL A   1      39.767  21.561  26.485  1.00  0.00     0.275 C 
ENDROOT
BRANCH   1   2
ATOM      2  C   UNL A   1      40.951  22.511  26.694  1.00  0.00     0.275 C 
BRANCH   2   3
ATOM      3  O   UNL A   1      40.777  23.808  26.103  1.00  0.00    -0.458 OA
BRANCH   3   4
ATOM      4  C   UNL A   1      41.488  24.944  26.303  1.00  0.00     0.338 C 
ATOM      5  O   UNL A   1      42.421  25.193  25.542  1.00  0.00    -0.246 OA
BRANCH   4   6
ATOM      6  C   UNL A   1      41.306  25.825  27.498  1.00  0.00     0.060 A 
ATOM      7  C   UNL A   1      40.212  25.829  28.369  1.00  0.00     0.016 A 
ATOM      8  C   UNL A   1      42.334  26.755  27.734  1.00  0.00     0.016 A 
ATOM      9  C   UNL A   1      40.170  26.682  29.480  1.00  0.00     0.010 A 
ATOM     10  C   UNL A   1      42.297  27.607  28.840  1.00  0.00     0.010 A 
ATOM     11  C   UNL A   1      41.210  27.577  29.719  1.00  0.00    -0.014 A 
BRANCH  11  12
ATOM     12  C   UNL A   1      41.090  28.617  30.765  1.00  0.00     0.031 A 
ATOM     13  C   UNL A   1      41.904  28.450  32.011  1.00  0.00     0.074 A 
ATOM     14  C   UNL A   1      40.275  29.677  30.616  1.00  0.00     0.049 A 
ATOM     15  N   UNL A   1      41.895  29.158  33.105  1.00  0.00    -0.248 NA
ATOM     16  C   UNL A   1      42.877  27.344  32.007  1.00  0.00     0.031 C 
ATOM     17  C   UNL A   1      39.537  30.008  29.401  1.00  0.00     0.029 A 
ATOM     18  N   UNL A   1      39.897  30.649  31.508  1.00  0.00    -0.354 N 
ATOM     19  C   UNL A   1      42.884  28.606  33.908  1.00  0.00     0.074 A 
ATOM     20  C   UNL A   1      43.416  27.459  33.209  1.00  0.00     0.031 C 
ATOM     21  C   UNL A   1      38.715  31.039  29.653  1.00  0.00     0.029 A 
ATOM     22  C   UNL A   1      38.865  31.435  31.049  1.00  0.00     0.049 A 
ATOM     23  H   UNL A   1      40.323  30.773  32.387  1.00  0.00     0.167 HD
ATOM     24  C   UNL A   1      43.335  29.046  35.105  1.00  0.00     0.037 A 
ATOM     25  C   UNL A   1      38.100  32.337  31.700  1.00  0.00     0.037 A 
ATOM     26  C   UNL A   1      42.767  30.168  35.796  1.00  0.00     0.049 A 
ATOM     27  C   UNL A   1      38.458  32.673  33.126  1.00  0.00     0.074 A 
ATOM     28  C   UNL A   1      43.138  30.716  37.009  1.00  0.00     0.029 A 
ATOM     29  N   UNL A   1      41.682  30.901  35.334  1.00  0.00    -0.354 N 
ATOM     30  N   UNL A   1      39.431  32.183  33.860  1.00  0.00    -0.248 NA
ATOM     31  C   UNL A   1      37.653  33.694  33.809  1.00  0.00     0.031 C 
ATOM     32  C   UNL A   1      42.244  31.753  37.301  1.00  0.00     0.029 A 
ATOM     33  C   UNL A   1      41.348  31.881  36.249  1.00  0.00     0.049 A 
ATOM     34  H   UNL A   1      41.217  30.744  34.480  1.00  0.00     0.167 HD
ATOM     35  C   UNL A   1      39.410  32.896  35.053  1.00  0.00     0.074 A 
ATOM     36  C   UNL A   1      38.295  33.818  34.964  1.00  0.00     0.031 C 
ATOM     37  C   UNL A   1      40.259  32.820  36.108  1.00  0.00     0.037 A 
BRANCH  24  38
ATOM     38  C   UNL A   1      44.474  28.280  35.712  1.00  0.00     0.058 A 
ATOM     39  C   UNL A   1      44.248  27.123  36.477  1.00  0.00     0.135 A 
ATOM     40  C   UNL A   1      45.790  28.753  35.607  1.00  0.00     0.135 A 
ATOM     41  F   UNL A   1      43.004  26.642  36.627  1.00  0.00    -0.206 F 
ATOM     42  C   UNL A   1      45.279  26.499  37.172  1.00  0.00     0.059 A 
ATOM     43  C   UNL A   1      46.841  28.128  36.273  1.00  0.00     0.059 A 
ATOM     44  F   UNL A   1      46.059  29.854  34.890  1.00  0.00    -0.206 F 
ATOM     45  C   UNL A   1      46.569  27.022  37.078  1.00  0.00     0.060 A 
BRANCH  45  46
ATOM     46  S   UNL A   1      47.883  26.257  38.052  1.00  0.00     0.124 S 
ATOM     47  O   UNL A   1      48.970  26.205  37.079  1.00  0.00    -0.237 OA
ATOM     48  O   UNL A   1      48.058  27.208  39.145  1.00  0.00    -0.237 OA
ATOM     49  O   UNL A   1      47.317  24.967  38.431  1.00  0.00    -0.744 OA
ENDBRANCH  45  46
ENDBRANCH  24  38
BRANCH  25  50
ATOM     50  C   UNL A   1      36.923  32.943  31.014  1.00  0.00     0.058 A 
ATOM     51  C   UNL A   1      35.607  32.559  31.303  1.00  0.00     0.135 A 
ATOM     52  C   UNL A   1      37.102  33.959  30.057  1.00  0.00     0.135 A 
ATOM     53  F   UNL A   1      35.372  31.603  32.213  1.00  0.00    -0.206 F 
ATOM     54  C   UNL A   1      34.516  33.141  30.659  1.00  0.00     0.059 A 
ATOM     55  C   UNL A   1      36.030  34.568  29.411  1.00  0.00     0.059 A 
ATOM     56  F   UNL A   1      38.340  34.399  29.776  1.00  0.00    -0.206 F 
ATOM     57  C   UNL A   1      34.739  34.150  29.718  1.00  0.00     0.060 A 
BRANCH  57  58
ATOM     58  S   UNL A   1      33.311  34.916  28.919  1.00  0.00     0.124 S 
ATOM     59  O   UNL A   1      32.435  35.174  30.056  1.00  0.00    -0.237 OA
ATOM     60  O   UNL A   1      33.916  36.091  28.299  1.00  0.00    -0.237 OA
ATOM     61  O   UNL A   1      32.850  33.890  27.990  1.00  0.00    -0.744 OA
ENDBRANCH  57  58
ENDBRANCH  25  50
BRANCH  37  62
ATOM     62  C   UNL A   1      40.102  33.827  37.210  1.00  0.00     0.058 A 
ATOM     63  C   UNL A   1      40.730  35.077  37.171  1.00  0.00     0.135 A 
ATOM     64  C   UNL A   1      39.188  33.575  38.249  1.00  0.00     0.135 A 
ATOM     65  F   UNL A   1      41.620  35.358  36.206  1.00  0.00    -0.206 F 
ATOM     66  C   UNL A   1      40.446  36.056  38.118  1.00  0.00     0.059 A 
ATOM     67  C   UNL A   1      38.873  34.545  39.192  1.00  0.00     0.059 A 
ATOM     68  F   UNL A   1      38.557  32.391  38.322  1.00  0.00    -0.206 F 
ATOM     69  C   UNL A   1      39.504  35.786  39.115  1.00  0.00     0.060 A 
BRANCH  69  70
ATOM     70  S   UNL A   1      39.062  37.099  40.271  1.00  0.00     0.124 S 
ATOM     71  O   UNL A   1      38.131  36.410  41.158  1.00  0.00    -0.237 OA
ATOM     72  O   UNL A   1      40.353  37.450  40.854  1.00  0.00    -0.237 OA
ATOM     73  O   UNL A   1      38.472  38.122  39.413  1.00  0.00    -0.744 OA
ENDBRANCH  69  70
ENDBRANCH  37  62
ENDBRANCH  11  12
ENDBRANCH   4   6
ENDBRANCH   3   4
ENDBRANCH   2   3
ENDBRANCH   1   2
BRANCH   1  74
ATOM     74  O   UNL A   1      38.542  22.234  26.168  1.00  0.00    -0.458 OA
BRANCH  74  75
ATOM     75  C   UNL A   1      37.767  21.617  25.228  1.00  0.00     0.339 C 
ATOM     76  O   UNL A   1      37.777  20.442  24.935  1.00  0.00    -0.246 OA
BRANCH  75  77
ATOM     77  C   UNL A   1      36.788  22.585  24.704  1.00  0.00     0.078 A 
ATOM     78  C   UNL A   1      36.033  23.416  25.520  1.00  0.00     0.019 A 
ATOM     79  C   UNL A   1      36.574  22.627  23.338  1.00  0.00     0.127 A 
ATOM     80  C   UNL A   1      35.045  24.215  24.938  1.00  0.00     0.031 A 
ATOM     81  N   UNL A   1      35.588  23.358  22.755  1.00  0.00    -0.254 NA
ATOM     82  C   UNL A   1      34.806  24.119  23.567  1.00  0.00     0.094 A 
BRANCH  82  83
ATOM     83  C   UNL A   1      33.570  24.782  22.969  1.00  0.00     0.318 C 
BRANCH  83  84
ATOM     84  N   UNL A   1      32.690  23.833  22.281  1.00  0.00    -0.337 N 
ATOM     85  H   UNL A   1      33.264  23.116  21.836  1.00  0.00     0.346 HD
ATOM     86  H   UNL A   1      32.147  24.354  21.592  1.00  0.00     0.346 HD
BRANCH  84  87
ATOM     87  C   UNL A   1      31.750  23.184  23.198  1.00  0.00     0.300 C 
BRANCH  87  88
ATOM     88  C   UNL A   1      32.049  21.740  23.522  1.00  0.00     0.045 A 
ATOM     89  C   UNL A   1      32.019  20.731  22.550  1.00  0.00     0.051 A 
ATOM     90  C   UNL A   1      32.453  21.389  24.819  1.00  0.00     0.132 A 
ATOM     91  C   UNL A   1      32.346  19.420  22.888  1.00  0.00     0.123 A 
ATOM     92  C   UNL A   1      32.775  20.073  25.157  1.00  0.00     0.043 A 
ATOM     93  F   UNL A   1      32.554  22.333  25.764  1.00  0.00    -0.206 F 
ATOM     94  F   UNL A   1      32.299  18.473  21.944  1.00  0.00    -0.207 F 
ATOM     95  C   UNL A   1      32.718  19.079  24.184  1.00  0.00     0.042 A 
ENDBRANCH  87  88
ENDBRANCH  84  87
ENDBRANCH  83  84
ENDBRANCH  82  83
ENDBRANCH  75  77
ENDBRANCH  74  75
ENDBRANCH   1  74
TORSDOF 18
ENDMDL
MODEL 3
REMARK VINA RESULT:     -11.0      6.309      8.860
REMARK SMILES O=C(OCCOC(=O)c1ccc(C[NH2+]Cc2cc(F)ccc2F)nc1)c1ccc(-c2c3nc(c(-c4c(F)cc(S(=O)(=O)[O-])cc4F)c4ccc([nH]4)c(-c4c(F)cc(S(=O)(=O)[O-])cc4F)c4nc(c(-c5c(F)cc(S(=O)(=O)[O-])cc5F)c5ccc2[nH]5)C=C4)C=C3)cc1
REMARK SMILES IDX 5 1 4 2 3 3 2 4 1 5 26 6 27 7 91 8 28 9 90 10 29 11 30 12
REMARK SMILES IDX 31 13 84 14 32 15 89 16 83 17 85 18 33 19 88 20 82 21 81 22
REMARK SMILES IDX 34 24 68 25 47 26 67 27 48 28 51 29 66 30 86 31 49 32 50 33
REMARK SMILES IDX 65 35 87 36 52 37 35 38 36 39 45 40 37 41 38 42 44 43 46 44
REMARK SMILES IDX 39 45 40 46 41 47 42 48 43 49 69 50 70 51 79 52 71 53 72 54
REMARK SMILES IDX 78 55 80 56 73 57 74 58 75 59 76 60 77 61 53 62 54 63 63 64
REMARK SMILES IDX 55 65 56 66 62 67 64 68 57 69 58 70 59 71 60 72 61 73 6 74
REMARK SMILES IDX 7 75 8 76 9 77 10 78 25 79 11 80 24 81 12 82 13 83 14 84
REMARK SMILES IDX 15 87 16 88 17 89 22 90 18 91 21 92 23 93 19 94 20 95
REMARK H PARENT 85 23 51 34 14 85 14 86
REMARK Flexibility Score: inf
ROOT
ATOM      1  C   UNL A   1      39.186  21.028  26.038  1.00  0.00     0.275 C 
ENDROOT
BRANCH   1   2
ATOM      2  C   UNL A   1      39.533  19.633  25.510  1.00  0.00     0.275 C 
BRANCH   2   3
ATOM      3  O   UNL A   1      40.674  19.032  26.141  1.00  0.00    -0.458 OA
BRANCH   3   4
ATOM      4  C   UNL A   1      41.980  19.387  26.069  1.00  0.00     0.338 C 
ATOM      5  O   UNL A   1      42.826  18.500  25.984  1.00  0.00    -0.246 OA
BRANCH   4   6
ATOM      6  C   UNL A   1      42.458  20.793  26.256  1.00  0.00     0.060 A 
ATOM      7  C   UNL A   1      42.914  21.656  25.254  1.00  0.00     0.016 A 
ATOM      8  C   UNL A   1      42.471  21.263  27.581  1.00  0.00     0.016 A 
ATOM      9  C   UNL A   1      43.307  22.968  25.548  1.00  0.00     0.010 A 
ATOM     10  C   UNL A   1      42.861  22.571  27.880  1.00  0.00     0.010 A 
ATOM     11  C   UNL A   1      43.285  23.431  26.862  1.00  0.00    -0.014 A 
BRANCH  11  12
ATOM     12  C   UNL A   1      43.882  24.739  27.215  1.00  0.00     0.031 A 
ATOM     13  C   UNL A   1      42.949  25.870  27.520  1.00  0.00     0.074 A 
ATOM     14  C   UNL A   1      45.214  24.918  27.256  1.00  0.00     0.049 A 
ATOM     15  N   UNL A   1      43.220  27.125  27.749  1.00  0.00    -0.248 NA
ATOM     16  C   UNL A   1      41.519  25.529  27.602  1.00  0.00     0.031 C 
ATOM     17  C   UNL A   1      46.211  23.863  27.102  1.00  0.00     0.029 A 
ATOM     18  N   UNL A   1      45.961  26.061  27.396  1.00  0.00    -0.354 N 
ATOM     19  C   UNL A   1      41.998  27.717  28.035  1.00  0.00     0.074 A 
ATOM     20  C   UNL A   1      40.979  26.705  27.874  1.00  0.00     0.031 C 
ATOM     21  C   UNL A   1      47.433  24.417  27.049  1.00  0.00     0.029 A 
ATOM     22  C   UNL A   1      47.302  25.867  27.157  1.00  0.00     0.049 A 
ATOM     23  H   UNL A   1      45.575  26.932  27.643  1.00  0.00     0.167 HD
ATOM     24  C   UNL A   1      41.755  28.986  28.438  1.00  0.00     0.037 A 
ATOM     25  C   UNL A   1      48.298  26.763  26.998  1.00  0.00     0.037 A 
ATOM     26  C   UNL A   1      42.779  29.983  28.558  1.00  0.00     0.049 A 
ATOM     27  C   UNL A   1      47.984  28.221  27.225  1.00  0.00     0.074 A 
ATOM     28  C   UNL A   1      42.663  31.300  28.961  1.00  0.00     0.029 A 
ATOM     29  N   UNL A   1      44.116  29.771  28.247  1.00  0.00    -0.354 N 
ATOM     30  N   UNL A   1      46.834  28.766  27.549  1.00  0.00    -0.248 NA
ATOM     31  C   UNL A   1      49.086  29.183  27.101  1.00  0.00     0.031 C 
ATOM     32  C   UNL A   1      43.925  31.895  28.849  1.00  0.00     0.029 A 
ATOM     33  C   UNL A   1      44.834  30.938  28.422  1.00  0.00     0.049 A 
ATOM     34  H   UNL A   1      44.496  28.914  27.944  1.00  0.00     0.167 HD
ATOM     35  C   UNL A   1      47.092  30.117  27.753  1.00  0.00     0.074 A 
ATOM     36  C   UNL A   1      48.499  30.316  27.468  1.00  0.00     0.031 C 
ATOM     37  C   UNL A   1      46.250  31.092  28.175  1.00  0.00     0.037 A 
BRANCH  24  38
ATOM     38  C   UNL A   1      40.326  29.327  28.745  1.00  0.00     0.058 A 
ATOM     39  C   UNL A   1      39.394  29.553  27.717  1.00  0.00     0.135 A 
ATOM     40  C   UNL A   1      39.904  29.519  30.069  1.00  0.00     0.135 A 
ATOM     41  F   UNL A   1      39.753  29.405  26.432  1.00  0.00    -0.206 F 
ATOM     42  C   UNL A   1      38.113  30.022  27.989  1.00  0.00     0.059 A 
ATOM     43  C   UNL A   1      38.618  29.963  30.364  1.00  0.00     0.059 A 
ATOM     44  F   UNL A   1      40.756  29.317  31.086  1.00  0.00    -0.206 F 
ATOM     45  C   UNL A   1      37.742  30.242  29.316  1.00  0.00     0.060 A 
BRANCH  45  46
ATOM     46  S   UNL A   1      36.108  30.933  29.652  1.00  0.00     0.124 S 
ATOM     47  O   UNL A   1      35.260  30.083  28.821  1.00  0.00    -0.237 OA
ATOM     48  O   UNL A   1      35.977  30.740  31.093  1.00  0.00    -0.237 OA
ATOM     49  O   UNL A   1      36.229  32.319  29.216  1.00  0.00    -0.744 OA
ENDBRANCH  45  46
ENDBRANCH  24  38
BRANCH  25  50
ATOM     50  C   UNL A   1      49.652  26.300  26.579  1.00  0.00     0.058 A 
ATOM     51  C   UNL A   1      50.052  26.270  25.237  1.00  0.00     0.135 A 
ATOM     52  C   UNL A   1      50.596  25.898  27.541  1.00  0.00     0.135 A 
ATOM     53  F   UNL A   1      49.200  26.651  24.275  1.00  0.00    -0.206 F 
ATOM     54  C   UNL A   1      51.325  25.842  24.860  1.00  0.00     0.059 A 
ATOM     55  C   UNL A   1      51.879  25.481  27.194  1.00  0.00     0.059 A 
ATOM     56  F   UNL A   1      50.283  25.951  28.846  1.00  0.00    -0.206 F 
ATOM     57  C   UNL A   1      52.233  25.455  25.849  1.00  0.00     0.060 A 
BRANCH  57  58
ATOM     58  S   UNL A   1      53.889  24.936  25.345  1.00  0.00     0.124 S 
ATOM     59  O   UNL A   1      54.693  25.346  26.491  1.00  0.00    -0.237 OA
ATOM     60  O   UNL A   1      53.707  23.498  25.173  1.00  0.00    -0.237 OA
ATOM     61  O   UNL A   1      54.120  25.686  24.115  1.00  0.00    -0.744 OA
ENDBRANCH  57  58
ENDBRANCH  25  50
BRANCH  37  62
ATOM     62  C   UNL A   1      46.832  32.444  28.469  1.00  0.00     0.058 A 
ATOM     63  C   UNL A   1      47.427  32.746  29.700  1.00  0.00     0.135 A 
ATOM     64  C   UNL A   1      46.916  33.398  27.440  1.00  0.00     0.135 A 
ATOM     65  F   UNL A   1      47.361  31.872  30.716  1.00  0.00    -0.206 F 
ATOM     66  C   UNL A   1      48.103  33.947  29.898  1.00  0.00     0.059 A 
ATOM     67  C   UNL A   1      47.605  34.592  27.608  1.00  0.00     0.059 A 
ATOM     68  F   UNL A   1      46.365  33.148  26.240  1.00  0.00    -0.206 F 
ATOM     69  C   UNL A   1      48.200  34.856  28.841  1.00  0.00     0.060 A 
BRANCH  69  70
ATOM     70  S   UNL A   1      49.172  36.359  29.074  1.00  0.00     0.124 S 
ATOM     71  O   UNL A   1      49.605  36.643  27.711  1.00  0.00    -0.237 OA
ATOM     72  O   UNL A   1      48.189  37.282  29.634  1.00  0.00    -0.237 OA
ATOM     73  O   UNL A   1      50.225  35.942  29.995  1.00  0.00    -0.744 OA
ENDBRANCH  69  70
ENDBRANCH  37  62
ENDBRANCH  11  12
ENDBRANCH   4   6
ENDBRANCH   3   4
ENDBRANCH   2   3
ENDBRANCH   1   2
BRANCH   1  74
ATOM     74  O   UNL A   1      38.095  21.647  25.344  1.00  0.00    -0.458 OA
BRANCH  74  75
ATOM     75  C   UNL A   1      37.790  22.914  25.754  1.00  0.00     0.339 C 
ATOM     76  O   UNL A   1      38.393  23.580  26.565  1.00  0.00    -0.246 OA
BRANCH  75  77
ATOM     77  C   UNL A   1      36.671  23.423  24.943  1.00  0.00     0.078 A 
ATOM     78  C   UNL A   1      35.660  24.220  25.461  1.00  0.00     0.019 A 
ATOM     79  C   UNL A   1      36.598  23.043  23.615  1.00  0.00     0.127 A 
ATOM     80  C   UNL A   1      34.578  24.554  24.643  1.00  0.00     0.031 A 
ATOM     81  N   UNL A   1      35.534  23.314  22.814  1.00  0.00    -0.254 NA
ATOM     82  C   UNL A   1      34.514  24.038  23.349  1.00  0.00     0.094 A 
BRANCH  82  83
ATOM     83  C   UNL A   1      33.226  24.178  22.544  1.00  0.00     0.318 C 
BRANCH  83  84
ATOM     84  N   UNL A   1      32.510  22.909  22.387  1.00  0.00    -0.337 N 
ATOM     85  H   UNL A   1      33.057  22.296  21.782  1.00  0.00     0.346 HD
ATOM     86  H   UNL A   1      31.597  23.113  21.980  1.00  0.00     0.346 HD
BRANCH  84  87
ATOM     87  C   UNL A   1      32.291  22.235  23.668  1.00  0.00     0.300 C 
BRANCH  87  88
ATOM     88  C   UNL A   1      32.664  20.772  23.707  1.00  0.00     0.045 A 
ATOM     89  C   UNL A   1      32.132  19.838  22.806  1.00  0.00     0.051 A 
ATOM     90  C   UNL A   1      33.636  20.326  24.614  1.00  0.00     0.132 A 
ATOM     91  C   UNL A   1      32.541  18.508  22.852  1.00  0.00     0.123 A 
ATOM     92  C   UNL A   1      34.040  18.991  24.661  1.00  0.00     0.043 A 
ATOM     93  F   UNL A   1      34.214  21.198  25.452  1.00  0.00    -0.206 F 
ATOM     94  F   UNL A   1      32.009  17.634  21.988  1.00  0.00    -0.207 F 
ATOM     95  C   UNL A   1      33.485  18.072  23.774  1.00  0.00     0.042 A 
ENDBRANCH  87  88
ENDBRANCH  84  87
ENDBRANCH  83  84
ENDBRANCH  82  83
ENDBRANCH  75  77
ENDBRANCH  74  75
ENDBRANCH   1  74
TORSDOF 18
ENDMDL
