MODEL 1
REMARK VINA RESULT:     -13.8      0.000      0.000
REMARK SMILES COc1ccc(-c2cc(Cl)cc3c2O[C@H](C(F)(F)F)C(C(=O)OCCOC(=O)c2ccc(-c4c5nc(c(-c6c(F)cc(S(=O)(=O)[O-])cc6F)c6ccc([nH]6)c(-c6c(F)cc(S(=O)(=O)[O-])cc6F)c6nc(c(-c7c(F)cc(S(=O)(=O)[O-])cc7F)c7ccc4[nH]7)C=C6)C=C5)cc2)=C3)cc1C
REMARK SMILES IDX 25 1 24 2 23 3 21 4 22 5 20 6 7 7 8 8 13 9 9 10 12 11 14 12
REMARK SMILES IDX 10 13 11 14 95 15 15 16 6 17 3 18 4 19 97 20 5 21 96 22
REMARK SMILES IDX 98 23 2 24 1 25 16 26 17 27 18 28 19 29 26 30 27 31 28 32
REMARK SMILES IDX 29 33 30 34 94 35 31 36 93 37 32 38 33 39 34 40 87 41 35 42
REMARK SMILES IDX 92 43 86 44 88 45 36 46 91 47 85 48 84 49 37 51 71 52 50 53
REMARK SMILES IDX 70 54 51 55 54 56 69 57 89 58 52 59 53 60 68 62 90 63 55 64
REMARK SMILES IDX 38 65 39 66 48 67 40 68 41 69 47 70 49 71 42 72 43 73 44 74
REMARK SMILES IDX 45 75 46 76 72 77 73 78 82 79 74 80 75 81 81 82 83 83 76 84
REMARK SMILES IDX 77 85 78 86 79 87 80 88 56 89 57 90 66 91 58 92 59 93 65 94
REMARK SMILES IDX 67 95 60 96 61 97 62 98 63 99 64 100
REMARK H PARENT 88 50 54 61
REMARK Flexibility Score: inf
ROOT
ATOM      1  C   UNL A   1      46.368  22.673  34.665  1.00  0.00     0.275 C 
ENDROOT
BRANCH   1   2
ATOM      2  C   UNL A   1      46.032  21.106  34.605  1.00  0.00     0.275 C 
BRANCH   2   3
ATOM      3  O   UNL A   1      47.219  20.357  34.856  1.00  0.00    -0.459 OA
BRANCH   3   4
ATOM      4  C   UNL A   1      48.385  20.164  34.248  1.00  0.00     0.338 C 
ATOM      5  O   UNL A   1      48.458  19.568  33.198  1.00  0.00    -0.246 OA
BRANCH   4   6
ATOM      6  C   UNL A   1      49.521  20.639  35.289  1.00  0.00     0.087 C 
ATOM      7  C   UNL A   1      49.182  19.004  39.031  1.00  0.00     0.026 A 
ATOM      8  C   UNL A   1      49.839  19.523  40.155  1.00  0.00     0.033 A 
ATOM      9  C   UNL A   1      49.734  19.568  37.684  1.00  0.00     0.135 A 
ATOM     10  C   UNL A   1      50.630  20.678  40.025  1.00  0.00     0.042 A 
ATOM     11  C   UNL A   1      50.156  20.880  37.649  1.00  0.00     0.019 A 
ATOM     12  O   UNL A   1      50.806  19.048  36.630  1.00  0.00    -0.475 OA
ATOM     13  Cl  UNL A   1      51.311  21.348  41.468  1.00  0.00    -0.084 Cl
ATOM     14  C   UNL A   1      50.716  21.406  38.812  1.00  0.00     0.032 A 
ATOM     15  C   UNL A   1      49.681  21.475  36.383  1.00  0.00     0.027 C 
ATOM     16  C   UNL A   1      50.797  19.832  34.959  1.00  0.00     0.316 C 
BRANCH   7  17
ATOM     17  C   UNL A   1      47.476  18.940  39.511  1.00  0.00    -0.014 A 
ATOM     18  C   UNL A   1      45.146  17.917  41.057  1.00  0.00     0.121 A 
ATOM     19  C   UNL A   1      45.868  19.039  41.433  1.00  0.00     0.047 A 
ATOM     20  C   UNL A   1      45.316  17.547  39.727  1.00  0.00    -0.008 A 
ATOM     21  C   UNL A   1      46.913  19.622  40.601  1.00  0.00     0.013 A 
ATOM     22  C   UNL A   1      46.447  18.100  38.949  1.00  0.00     0.016 A 
ATOM     23  C   UNL A   1      44.396  16.494  39.162  1.00  0.00     0.048 C 
BRANCH  18  24
ATOM     24  O   UNL A   1      44.185  17.421  41.909  1.00  0.00    -0.496 OA
ATOM     25  C   UNL A   1      44.544  16.315  42.758  1.00  0.00     0.278 C 
ENDBRANCH  18  24
ENDBRANCH   7  17
BRANCH  16  26
ATOM     26  C   UNL A   1      52.525  20.221  33.587  1.00  0.00     0.430 C 
ATOM     27  F   UNL A   1      53.247  19.153  32.960  1.00  0.00    -0.167 F 
ATOM     28  F   UNL A   1      52.334  20.981  32.385  1.00  0.00    -0.167 F 
ATOM     29  F   UNL A   1      53.710  20.925  33.969  1.00  0.00    -0.167 F 
ENDBRANCH  16  26
ENDBRANCH   4   6
ENDBRANCH   3   4
ENDBRANCH   2   3
ENDBRANCH   1   2
BRANCH   1  30
ATOM     30  O   UNL A   1      45.988  23.777  33.659  1.00  0.00    -0.458 OA
BRANCH  30  31
ATOM     31  C   UNL A   1      44.859  24.138  32.934  1.00  0.00     0.338 C 
ATOM     32  O   UNL A   1      44.258  23.404  32.162  1.00  0.00    -0.246 OA
BRANCH  31  33
ATOM     33  C   UNL A   1      44.148  25.307  33.521  1.00  0.00     0.060 A 
ATOM     34  C   UNL A   1      42.817  25.398  34.803  1.00  0.00     0.016 A 
ATOM     35  C   UNL A   1      44.260  26.617  32.328  1.00  0.00     0.016 A 
ATOM     36  C   UNL A   1      41.591  26.781  34.696  1.00  0.00     0.010 A 
ATOM     37  C   UNL A   1      43.076  27.894  32.237  1.00  0.00     0.010 A 
ATOM     38  C   UNL A   1      41.757  28.046  33.378  1.00  0.00    -0.014 A 
BRANCH  38  39
ATOM     39  C   UNL A   1      40.974  29.276  32.904  1.00  0.00     0.031 A 
ATOM     40  C   UNL A   1      41.089  30.559  33.643  1.00  0.00     0.074 A 
ATOM     41  C   UNL A   1      40.723  29.534  31.571  1.00  0.00     0.049 A 
ATOM     42  N   UNL A   1      40.249  31.537  33.481  1.00  0.00    -0.248 NA
ATOM     43  C   UNL A   1      42.127  30.854  34.629  1.00  0.00     0.031 C 
ATOM     44  C   UNL A   1      41.037  30.762  30.797  1.00  0.00     0.029 A 
ATOM     45  N   UNL A   1      40.272  28.732  30.557  1.00  0.00    -0.354 N 
ATOM     46  C   UNL A   1      40.913  32.644  33.957  1.00  0.00     0.074 A 
ATOM     47  C   UNL A   1      41.789  32.105  34.962  1.00  0.00     0.031 C 
ATOM     48  C   UNL A   1      40.713  30.623  29.494  1.00  0.00     0.029 A 
ATOM     49  C   UNL A   1      40.195  29.298  29.294  1.00  0.00     0.049 A 
ATOM     50  H   UNL A   1      40.015  27.796  30.718  1.00  0.00     0.167 HD
ATOM     51  C   UNL A   1      40.957  33.811  33.236  1.00  0.00     0.037 A 
ATOM     52  C   UNL A   1      39.301  28.848  28.377  1.00  0.00     0.037 A 
ATOM     53  C   UNL A   1      40.144  33.754  31.998  1.00  0.00     0.049 A 
ATOM     54  C   UNL A   1      38.021  29.583  28.774  1.00  0.00     0.074 A 
ATOM     55  C   UNL A   1      40.403  34.055  30.668  1.00  0.00     0.029 A 
ATOM     56  N   UNL A   1      38.891  33.129  31.995  1.00  0.00    -0.354 N 
ATOM     57  N   UNL A   1      38.121  30.557  29.640  1.00  0.00    -0.248 NA
ATOM     58  C   UNL A   1      36.649  29.523  28.263  1.00  0.00     0.031 C 
ATOM     59  C   UNL A   1      39.324  33.568  29.874  1.00  0.00     0.029 A 
ATOM     60  C   UNL A   1      38.386  32.992  30.716  1.00  0.00     0.049 A 
ATOM     61  H   UNL A   1      38.426  32.824  32.807  1.00  0.00     0.167 HD
ATOM     62  C   UNL A   1      37.001  31.295  29.738  1.00  0.00     0.074 A 
ATOM     63  C   UNL A   1      36.064  30.575  28.895  1.00  0.00     0.031 C 
ATOM     64  C   UNL A   1      37.042  32.443  30.478  1.00  0.00     0.037 A 
BRANCH  51  65
ATOM     65  C   UNL A   1      41.910  34.979  33.542  1.00  0.00     0.058 A 
ATOM     66  C   UNL A   1      43.135  35.105  32.846  1.00  0.00     0.135 A 
ATOM     67  C   UNL A   1      41.701  36.000  34.500  1.00  0.00     0.135 A 
ATOM     68  F   UNL A   1      43.523  34.184  31.952  1.00  0.00    -0.206 F 
ATOM     69  C   UNL A   1      44.022  36.177  33.033  1.00  0.00     0.059 A 
ATOM     70  C   UNL A   1      42.523  37.121  34.642  1.00  0.00     0.059 A 
ATOM     71  F   UNL A   1      40.734  35.942  35.421  1.00  0.00    -0.206 F 
ATOM     72  C   UNL A   1      43.687  37.203  33.905  1.00  0.00     0.060 A 
BRANCH  72  73
ATOM     73  S   UNL A   1      44.769  38.635  34.073  1.00  0.00     0.124 S 
ATOM     74  O   UNL A   1      44.847  39.117  32.698  1.00  0.00    -0.237 OA
ATOM     75  O   UNL A   1      44.027  39.477  35.004  1.00  0.00    -0.237 OA
ATOM     76  O   UNL A   1      46.005  38.066  34.605  1.00  0.00    -0.744 OA
ENDBRANCH  72  73
ENDBRANCH  51  65
BRANCH  52  77
ATOM     77  C   UNL A   1      39.733  27.441  28.024  1.00  0.00     0.058 A 
ATOM     78  C   UNL A   1      40.800  27.303  27.083  1.00  0.00     0.135 A 
ATOM     79  C   UNL A   1      39.691  26.398  28.906  1.00  0.00     0.135 A 
ATOM     80  F   UNL A   1      40.855  28.177  26.068  1.00  0.00    -0.206 F 
ATOM     81  C   UNL A   1      41.887  26.360  27.165  1.00  0.00     0.059 A 
ATOM     82  C   UNL A   1      40.788  25.473  28.972  1.00  0.00     0.059 A 
ATOM     83  F   UNL A   1      38.745  26.335  29.863  1.00  0.00    -0.206 F 
ATOM     84  C   UNL A   1      41.940  25.410  28.159  1.00  0.00     0.060 A 
BRANCH  84  85
ATOM     85  S   UNL A   1      43.711  24.390  28.347  1.00  0.00     0.124 S 
ATOM     86  O   UNL A   1      43.605  23.123  29.022  1.00  0.00    -0.237 OA
ATOM     87  O   UNL A   1      44.049  24.222  26.936  1.00  0.00    -0.237 OA
ATOM     88  O   UNL A   1      44.612  25.221  29.116  1.00  0.00    -0.744 OA
ENDBRANCH  84  85
ENDBRANCH  52  77
BRANCH  64  89
ATOM     89  C   UNL A   1      35.867  33.258  30.930  1.00  0.00     0.058 A 
ATOM     90  C   UNL A   1      35.430  33.325  32.260  1.00  0.00     0.135 A 
ATOM     91  C   UNL A   1      35.223  34.139  30.023  1.00  0.00     0.135 A 
ATOM     92  F   UNL A   1      36.035  32.629  33.232  1.00  0.00    -0.206 F 
ATOM     93  C   UNL A   1      34.374  34.146  32.645  1.00  0.00     0.059 A 
ATOM     94  C   UNL A   1      34.218  35.013  30.400  1.00  0.00     0.059 A 
ATOM     95  F   UNL A   1      35.553  34.196  28.724  1.00  0.00    -0.206 F 
ATOM     96  C   UNL A   1      33.770  34.980  31.707  1.00  0.00     0.060 A 
BRANCH  96  97
ATOM     97  S   UNL A   1      32.399  36.025  32.205  1.00  0.00     0.124 S 
ATOM     98  O   UNL A   1      33.013  36.805  33.274  1.00  0.00    -0.237 OA
ATOM     99  O   UNL A   1      32.101  36.757  30.978  1.00  0.00    -0.237 OA
ATOM    100  O   UNL A   1      31.378  35.072  32.624  1.00  0.00    -0.744 OA
ENDBRANCH  96  97
ENDBRANCH  64  89
ENDBRANCH  38  39
ENDBRANCH  31  33
ENDBRANCH  30  31
ENDBRANCH   1  30
TORSDOF 17
ENDMDL
MODEL 2
REMARK VINA RESULT:     -13.4      7.335     17.670
REMARK SMILES COc1ccc(-c2cc(Cl)cc3c2O[C@H](C(F)(F)F)C(C(=O)OCCOC(=O)c2ccc(-c4c5nc(c(-c6c(F)cc(S(=O)(=O)[O-])cc6F)c6ccc([nH]6)c(-c6c(F)cc(S(=O)(=O)[O-])cc6F)c6nc(c(-c7c(F)cc(S(=O)(=O)[O-])cc7F)c7ccc4[nH]7)C=C6)C=C5)cc2)=C3)cc1C
REMARK SMILES IDX 25 1 24 2 23 3 21 4 22 5 20 6 7 7 8 8 13 9 9 10 12 11 14 12
REMARK SMILES IDX 10 13 11 14 95 15 15 16 6 17 3 18 4 19 97 20 5 21 96 22
REMARK SMILES IDX 98 23 2 24 1 25 16 26 17 27 18 28 19 29 26 30 27 31 28 32
REMARK SMILES IDX 29 33 30 34 94 35 31 36 93 37 32 38 33 39 34 40 87 41 35 42
REMARK SMILES IDX 92 43 86 44 88 45 36 46 91 47 85 48 84 49 37 51 71 52 50 53
REMARK SMILES IDX 70 54 51 55 54 56 69 57 89 58 52 59 53 60 68 62 90 63 55 64
REMARK SMILES IDX 38 65 39 66 48 67 40 68 41 69 47 70 49 71 42 72 43 73 44 74
REMARK SMILES IDX 45 75 46 76 72 77 73 78 82 79 74 80 75 81 81 82 83 83 76 84
REMARK SMILES IDX 77 85 78 86 79 87 80 88 56 89 57 90 66 91 58 92 59 93 65 94
REMARK SMILES IDX 67 95 60 96 61 97 62 98 63 99 64 100
REMARK H PARENT 88 50 54 61
REMARK Flexibility Score: inf
ROOT
ATOM      1  C   UNL A   1      43.403  38.032  27.138  1.00  0.00     0.275 C 
ENDROOT
BRANCH   1   2
ATOM      2  C   UNL A   1      44.221  39.384  26.865  1.00  0.00     0.275 C 
BRANCH   2   3
ATOM      3  O   UNL A   1      43.732  40.414  27.721  1.00  0.00    -0.459 OA
BRANCH   3   4
ATOM      4  C   UNL A   1      43.935  40.804  28.975  1.00  0.00     0.338 C 
ATOM      5  O   UNL A   1      43.177  40.494  29.864  1.00  0.00    -0.246 OA
BRANCH   4   6
ATOM      6  C   UNL A   1      45.144  41.870  28.926  1.00  0.00     0.087 C 
ATOM      7  C   UNL A   1      45.080  44.355  25.667  1.00  0.00     0.026 A 
ATOM      8  C   UNL A   1      46.190  45.106  25.257  1.00  0.00     0.033 A 
ATOM      9  C   UNL A   1      45.234  43.772  27.107  1.00  0.00     0.135 A 
ATOM     10  C   UNL A   1      47.402  44.995  25.959  1.00  0.00     0.042 A 
ATOM     11  C   UNL A   1      46.487  43.370  27.519  1.00  0.00     0.019 A 
ATOM     12  O   UNL A   1      44.762  44.256  28.547  1.00  0.00    -0.475 OA
ATOM     13  Cl  UNL A   1      48.772  45.846  25.330  1.00  0.00    -0.084 Cl
ATOM     14  C   UNL A   1      47.583  44.071  27.018  1.00  0.00     0.032 A 
ATOM     15  C   UNL A   1      46.336  42.099  28.256  1.00  0.00     0.027 C 
ATOM     16  C   UNL A   1      44.780  43.008  29.907  1.00  0.00     0.316 C 
BRANCH   7  17
ATOM     17  C   UNL A   1      44.609  43.442  24.220  1.00  0.00    -0.014 A 
ATOM     18  C   UNL A   1      43.717  43.139  21.396  1.00  0.00     0.121 A 
ATOM     19  C   UNL A   1      45.047  43.076  21.778  1.00  0.00     0.047 A 
ATOM     20  C   UNL A   1      42.813  42.948  22.436  1.00  0.00    -0.008 A 
ATOM     21  C   UNL A   1      45.470  43.079  23.174  1.00  0.00     0.013 A 
ATOM     22  C   UNL A   1      43.275  43.049  23.838  1.00  0.00     0.016 A 
ATOM     23  C   UNL A   1      41.359  42.759  22.084  1.00  0.00     0.048 C 
BRANCH  18  24
ATOM     24  O   UNL A   1      43.404  43.146  20.056  1.00  0.00    -0.496 OA
ATOM     25  C   UNL A   1      44.268  43.876  19.165  1.00  0.00     0.278 C 
ENDBRANCH  18  24
ENDBRANCH   7  17
BRANCH  16  26
ATOM     26  C   UNL A   1      45.190  43.320  32.086  1.00  0.00     0.430 C 
ATOM     27  F   UNL A   1      46.496  43.661  32.568  1.00  0.00    -0.167 F 
ATOM     28  F   UNL A   1      44.504  44.354  32.807  1.00  0.00    -0.167 F 
ATOM     29  F   UNL A   1      44.973  42.329  33.094  1.00  0.00    -0.167 F 
ENDBRANCH  16  26
ENDBRANCH   4   6
ENDBRANCH   3   4
ENDBRANCH   2   3
ENDBRANCH   1   2
BRANCH   1  30
ATOM     30  O   UNL A   1      43.574  36.653  26.470  1.00  0.00    -0.458 OA
BRANCH  30  31
ATOM     31  C   UNL A   1      44.432  35.568  26.599  1.00  0.00     0.338 C 
ATOM     32  O   UNL A   1      45.653  35.637  26.602  1.00  0.00    -0.246 OA
BRANCH  31  33
ATOM     33  C   UNL A   1      43.773  34.384  27.217  1.00  0.00     0.060 A 
ATOM     34  C   UNL A   1      43.374  34.003  28.983  1.00  0.00     0.016 A 
ATOM     35  C   UNL A   1      44.016  33.029  26.097  1.00  0.00     0.016 A 
ATOM     36  C   UNL A   1      43.379  32.231  29.519  1.00  0.00     0.010 A 
ATOM     37  C   UNL A   1      44.038  31.371  26.636  1.00  0.00     0.010 A 
ATOM     38  C   UNL A   1      43.712  30.909  28.293  1.00  0.00    -0.014 A 
BRANCH  38  39
ATOM     39  C   UNL A   1      43.861  29.383  28.307  1.00  0.00     0.031 A 
ATOM     40  C   UNL A   1      45.208  28.770  28.434  1.00  0.00     0.074 A 
ATOM     41  C   UNL A   1      42.920  28.545  28.872  1.00  0.00     0.049 A 
ATOM     42  N   UNL A   1      45.436  27.520  28.162  1.00  0.00    -0.248 NA
ATOM     43  C   UNL A   1      46.409  29.493  28.851  1.00  0.00     0.031 C 
ATOM     44  C   UNL A   1      43.121  27.506  29.913  1.00  0.00     0.029 A 
ATOM     45  N   UNL A   1      41.555  28.511  28.774  1.00  0.00    -0.354 N 
ATOM     46  C   UNL A   1      46.620  27.238  28.804  1.00  0.00     0.074 A 
ATOM     47  C   UNL A   1      47.306  28.501  28.814  1.00  0.00     0.031 C 
ATOM     48  C   UNL A   1      41.953  26.936  30.277  1.00  0.00     0.029 A 
ATOM     49  C   UNL A   1      40.892  27.566  29.540  1.00  0.00     0.049 A 
ATOM     50  H   UNL A   1      41.067  29.130  28.185  1.00  0.00     0.167 HD
ATOM     51  C   UNL A   1      46.755  26.117  29.583  1.00  0.00     0.037 A 
ATOM     52  C   UNL A   1      39.691  27.064  29.152  1.00  0.00     0.037 A 
ATOM     53  C   UNL A   1      45.558  25.244  29.550  1.00  0.00     0.049 A 
ATOM     54  C   UNL A   1      40.094  25.968  28.166  1.00  0.00     0.074 A 
ATOM     55  C   UNL A   1      44.777  24.654  30.534  1.00  0.00     0.029 A 
ATOM     56  N   UNL A   1      44.867  25.024  28.353  1.00  0.00    -0.354 N 
ATOM     57  N   UNL A   1      41.355  25.626  28.116  1.00  0.00    -0.248 NA
ATOM     58  C   UNL A   1      39.310  25.069  27.315  1.00  0.00     0.031 C 
ATOM     59  C   UNL A   1      43.602  24.126  29.924  1.00  0.00     0.029 A 
ATOM     60  C   UNL A   1      43.672  24.364  28.560  1.00  0.00     0.049 A 
ATOM     61  H   UNL A   1      45.194  25.307  27.468  1.00  0.00     0.167 HD
ATOM     62  C   UNL A   1      41.571  24.501  27.411  1.00  0.00     0.074 A 
ATOM     63  C   UNL A   1      40.259  24.206  26.864  1.00  0.00     0.031 C 
ATOM     64  C   UNL A   1      42.821  23.949  27.434  1.00  0.00     0.037 A 
BRANCH  51  65
ATOM     65  C   UNL A   1      47.919  25.882  30.562  1.00  0.00     0.058 A 
ATOM     66  C   UNL A   1      49.187  25.477  30.084  1.00  0.00     0.135 A 
ATOM     67  C   UNL A   1      47.869  26.025  31.970  1.00  0.00     0.135 A 
ATOM     68  F   UNL A   1      49.390  25.229  28.782  1.00  0.00    -0.206 F 
ATOM     69  C   UNL A   1      50.305  25.304  30.914  1.00  0.00     0.059 A 
ATOM     70  C   UNL A   1      48.986  25.944  32.805  1.00  0.00     0.059 A 
ATOM     71  F   UNL A   1      46.723  26.168  32.644  1.00  0.00    -0.206 F 
ATOM     72  C   UNL A   1      50.206  25.580  32.270  1.00  0.00     0.060 A 
BRANCH  72  73
ATOM     73  S   UNL A   1      51.661  25.462  33.326  1.00  0.00     0.124 S 
ATOM     74  O   UNL A   1      51.424  24.206  34.028  1.00  0.00    -0.237 OA
ATOM     75  O   UNL A   1      52.749  25.457  32.355  1.00  0.00    -0.237 OA
ATOM     76  O   UNL A   1      51.578  26.664  34.154  1.00  0.00    -0.744 OA
ENDBRANCH  72  73
ENDBRANCH  51  65
BRANCH  52  77
ATOM     77  C   UNL A   1      38.712  28.215  29.224  1.00  0.00     0.058 A 
ATOM     78  C   UNL A   1      38.320  28.658  30.525  1.00  0.00     0.135 A 
ATOM     79  C   UNL A   1      38.672  29.227  28.306  1.00  0.00     0.135 A 
ATOM     80  F   UNL A   1      38.166  27.731  31.481  1.00  0.00    -0.206 F 
ATOM     81  C   UNL A   1      38.157  30.028  30.942  1.00  0.00     0.059 A 
ATOM     82  C   UNL A   1      38.511  30.585  28.746  1.00  0.00     0.059 A 
ATOM     83  F   UNL A   1      38.990  29.008  27.016  1.00  0.00    -0.206 F 
ATOM     84  C   UNL A   1      38.285  31.070  30.052  1.00  0.00     0.060 A 
BRANCH  84  85
ATOM     85  S   UNL A   1      38.379  32.952  30.864  1.00  0.00     0.124 S 
ATOM     86  O   UNL A   1      38.097  33.011  32.275  1.00  0.00    -0.237 OA
ATOM     87  O   UNL A   1      39.774  33.274  30.580  1.00  0.00    -0.237 OA
ATOM     88  O   UNL A   1      37.393  33.767  30.187  1.00  0.00    -0.744 OA
ENDBRANCH  84  85
ENDBRANCH  52  77
BRANCH  64  89
ATOM     89  C   UNL A   1      43.339  22.871  26.529  1.00  0.00     0.058 A 
ATOM     90  C   UNL A   1      44.372  23.063  25.603  1.00  0.00     0.135 A 
ATOM     91  C   UNL A   1      42.890  21.534  26.688  1.00  0.00     0.135 A 
ATOM     92  F   UNL A   1      44.961  24.256  25.445  1.00  0.00    -0.206 F 
ATOM     93  C   UNL A   1      44.867  22.017  24.828  1.00  0.00     0.059 A 
ATOM     94  C   UNL A   1      43.417  20.469  25.977  1.00  0.00     0.059 A 
ATOM     95  F   UNL A   1      41.922  21.202  27.554  1.00  0.00    -0.206 F 
ATOM     96  C   UNL A   1      44.377  20.727  25.017  1.00  0.00     0.060 A 
BRANCH  96  97
ATOM     97  S   UNL A   1      45.006  19.384  24.006  1.00  0.00     0.124 S 
ATOM     98  O   UNL A   1      44.445  18.226  24.694  1.00  0.00    -0.237 OA
ATOM     99  O   UNL A   1      44.434  19.682  22.697  1.00  0.00    -0.237 OA
ATOM    100  O   UNL A   1      46.454  19.536  24.100  1.00  0.00    -0.744 OA
ENDBRANCH  96  97
ENDBRANCH  64  89
ENDBRANCH  38  39
ENDBRANCH  31  33
ENDBRANCH  30  31
ENDBRANCH   1  30
TORSDOF 17
ENDMDL
MODEL 3
REMARK VINA RESULT:     -13.3      6.134     16.045
REMARK SMILES COc1ccc(-c2cc(Cl)cc3c2O[C@H](C(F)(F)F)C(C(=O)OCCOC(=O)c2ccc(-c4c5nc(c(-c6c(F)cc(S(=O)(=O)[O-])cc6F)c6ccc([nH]6)c(-c6c(F)cc(S(=O)(=O)[O-])cc6F)c6nc(c(-c7c(F)cc(S(=O)(=O)[O-])cc7F)c7ccc4[nH]7)C=C6)C=C5)cc2)=C3)cc1C
REMARK SMILES IDX 25 1 24 2 23 3 21 4 22 5 20 6 7 7 8 8 13 9 9 10 12 11 14 12
REMARK SMILES IDX 10 13 11 14 95 15 15 16 6 17 3 18 4 19 97 20 5 21 96 22
REMARK SMILES IDX 98 23 2 24 1 25 16 26 17 27 18 28 19 29 26 30 27 31 28 32
REMARK SMILES IDX 29 33 30 34 94 35 31 36 93 37 32 38 33 39 34 40 87 41 35 42
REMARK SMILES IDX 92 43 86 44 88 45 36 46 91 47 85 48 84 49 37 51 71 52 50 53
REMARK SMILES IDX 70 54 51 55 54 56 69 57 89 58 52 59 53 60 68 62 90 63 55 64
REMARK SMILES IDX 38 65 39 66 48 67 40 68 41 69 47 70 49 71 42 72 43 73 44 74
REMARK SMILES IDX 45 75 46 76 72 77 73 78 82 79 74 80 75 81 81 82 83 83 76 84
REMARK SMILES IDX 77 85 78 86 79 87 80 88 56 89 57 90 66 91 58 92 59 93 65 94
REMARK SMILES IDX 67 95 60 96 61 97 62 98 63 99 64 100
REMARK H PARENT 88 50 54 61
REMARK Flexibility Score: inf
ROOT
ATOM      1  C   UNL A   1      34.125  32.030  27.737  1.00  0.00     0.275 C 
ENDROOT
BRANCH   1   2
ATOM      2  C   UNL A   1      32.627  31.727  27.250  1.00  0.00     0.275 C 
BRANCH   2   3
ATOM      3  O   UNL A   1      32.614  30.526  26.480  1.00  0.00    -0.459 OA
BRANCH   3   4
ATOM      4  C   UNL A   1      31.811  29.476  26.344  1.00  0.00     0.338 C 
ATOM      5  O   UNL A   1      31.416  28.855  27.303  1.00  0.00    -0.246 OA
BRANCH   4   6
ATOM      6  C   UNL A   1      31.750  29.156  24.764  1.00  0.00     0.087 C 
ATOM      7  C   UNL A   1      31.803  25.163  23.842  1.00  0.00     0.026 A 
ATOM      8  C   UNL A   1      32.093  24.678  22.560  1.00  0.00     0.033 A 
ATOM      9  C   UNL A   1      31.499  26.694  23.865  1.00  0.00     0.135 A 
ATOM     10  C   UNL A   1      32.417  25.581  21.532  1.00  0.00     0.042 A 
ATOM     11  C   UNL A   1      32.195  27.510  22.996  1.00  0.00     0.019 A 
ATOM     12  O   UNL A   1      30.161  27.552  23.822  1.00  0.00    -0.475 OA
ATOM     13  Cl  UNL A   1      32.892  24.920  20.006  1.00  0.00    -0.084 Cl
ATOM     14  C   UNL A   1      32.560  26.973  21.764  1.00  0.00     0.032 A 
ATOM     15  C   UNL A   1      32.571  28.736  23.730  1.00  0.00     0.027 C 
ATOM     16  C   UNL A   1      30.276  29.323  24.330  1.00  0.00     0.316 C 
BRANCH   7  17
ATOM     17  C   UNL A   1      32.944  24.312  24.901  1.00  0.00    -0.014 A 
ATOM     18  C   UNL A   1      35.211  22.478  25.501  1.00  0.00     0.121 A 
ATOM     19  C   UNL A   1      35.362  23.850  25.380  1.00  0.00     0.047 A 
ATOM     20  C   UNL A   1      33.902  22.063  25.725  1.00  0.00    -0.008 A 
ATOM     21  C   UNL A   1      34.232  24.759  25.232  1.00  0.00     0.013 A 
ATOM     22  C   UNL A   1      32.783  22.998  25.474  1.00  0.00     0.016 A 
ATOM     23  C   UNL A   1      33.671  20.623  26.107  1.00  0.00     0.048 C 
BRANCH  18  24
ATOM     24  O   UNL A   1      36.331  21.688  25.623  1.00  0.00    -0.496 OA
ATOM     25  C   UNL A   1      37.349  21.800  24.611  1.00  0.00     0.278 C 
ENDBRANCH  18  24
ENDBRANCH   7  17
BRANCH  16  26
ATOM     26  C   UNL A   1      29.111  31.076  23.563  1.00  0.00     0.430 C 
ATOM     27  F   UNL A   1      29.341  32.406  24.046  1.00  0.00    -0.167 F 
ATOM     28  F   UNL A   1      29.164  31.424  22.172  1.00  0.00    -0.167 F 
ATOM     29  F   UNL A   1      27.688  31.191  23.644  1.00  0.00    -0.167 F 
ENDBRANCH  16  26
ENDBRANCH   4   6
ENDBRANCH   3   4
ENDBRANCH   2   3
ENDBRANCH   1   2
BRANCH   1  30
ATOM     30  O   UNL A   1      35.019  31.195  28.673  1.00  0.00    -0.458 OA
BRANCH  30  31
ATOM     31  C   UNL A   1      35.912  30.138  28.540  1.00  0.00     0.338 C 
ATOM     32  O   UNL A   1      35.940  29.361  27.596  1.00  0.00    -0.246 OA
BRANCH  31  33
ATOM     33  C   UNL A   1      37.133  30.308  29.374  1.00  0.00     0.060 A 
ATOM     34  C   UNL A   1      38.498  31.553  29.285  1.00  0.00     0.016 A 
ATOM     35  C   UNL A   1      37.486  28.719  30.081  1.00  0.00     0.016 A 
ATOM     36  C   UNL A   1      40.194  31.032  29.816  1.00  0.00     0.010 A 
ATOM     37  C   UNL A   1      39.098  28.248  30.550  1.00  0.00     0.010 A 
ATOM     38  C   UNL A   1      40.465  29.339  30.468  1.00  0.00    -0.014 A 
BRANCH  38  39
ATOM     39  C   UNL A   1      41.658  28.505  30.949  1.00  0.00     0.031 A 
ATOM     40  C   UNL A   1      42.445  27.705  29.975  1.00  0.00     0.074 A 
ATOM     41  C   UNL A   1      42.478  28.901  31.986  1.00  0.00     0.049 A 
ATOM     42  N   UNL A   1      43.264  26.765  30.342  1.00  0.00    -0.248 NA
ATOM     43  C   UNL A   1      42.375  27.868  28.524  1.00  0.00     0.031 C 
ATOM     44  C   UNL A   1      43.954  29.056  31.985  1.00  0.00     0.029 A 
ATOM     45  N   UNL A   1      42.195  29.398  33.231  1.00  0.00    -0.354 N 
ATOM     46  C   UNL A   1      44.094  26.588  29.259  1.00  0.00     0.074 A 
ATOM     47  C   UNL A   1      43.266  26.947  28.139  1.00  0.00     0.031 C 
ATOM     48  C   UNL A   1      44.404  29.538  33.164  1.00  0.00     0.029 A 
ATOM     49  C   UNL A   1      43.273  29.769  34.019  1.00  0.00     0.049 A 
ATOM     50  H   UNL A   1      41.269  29.488  33.550  1.00  0.00     0.167 HD
ATOM     51  C   UNL A   1      45.456  26.535  29.409  1.00  0.00     0.037 A 
ATOM     52  C   UNL A   1      43.194  29.741  35.375  1.00  0.00     0.037 A 
ATOM     53  C   UNL A   1      45.882  26.579  30.828  1.00  0.00     0.049 A 
ATOM     54  C   UNL A   1      43.479  28.273  35.692  1.00  0.00     0.074 A 
ATOM     55  C   UNL A   1      46.805  27.345  31.527  1.00  0.00     0.029 A 
ATOM     56  N   UNL A   1      45.173  25.874  31.808  1.00  0.00    -0.354 N 
ATOM     57  N   UNL A   1      43.935  27.518  34.727  1.00  0.00    -0.248 NA
ATOM     58  C   UNL A   1      43.486  27.518  36.947  1.00  0.00     0.031 C 
ATOM     59  C   UNL A   1      46.611  27.126  32.922  1.00  0.00     0.029 A 
ATOM     60  C   UNL A   1      45.588  26.205  33.083  1.00  0.00     0.049 A 
ATOM     61  H   UNL A   1      44.463  25.221  31.612  1.00  0.00     0.167 HD
ATOM     62  C   UNL A   1      44.385  26.325  35.156  1.00  0.00     0.074 A 
ATOM     63  C   UNL A   1      44.030  26.333  36.563  1.00  0.00     0.031 C 
ATOM     64  C   UNL A   1      45.044  25.522  34.268  1.00  0.00     0.037 A 
BRANCH  51  65
ATOM     65  C   UNL A   1      46.457  26.642  28.246  1.00  0.00     0.058 A 
ATOM     66  C   UNL A   1      46.726  27.893  27.645  1.00  0.00     0.135 A 
ATOM     67  C   UNL A   1      47.180  25.572  27.663  1.00  0.00     0.135 A 
ATOM     68  F   UNL A   1      46.076  29.001  28.029  1.00  0.00    -0.206 F 
ATOM     69  C   UNL A   1      47.670  28.071  26.621  1.00  0.00     0.059 A 
ATOM     70  C   UNL A   1      48.186  25.736  26.707  1.00  0.00     0.059 A 
ATOM     71  F   UNL A   1      46.904  24.289  27.917  1.00  0.00    -0.206 F 
ATOM     72  C   UNL A   1      48.426  26.992  26.186  1.00  0.00     0.060 A 
BRANCH  72  73
ATOM     73  S   UNL A   1      49.713  27.230  24.948  1.00  0.00     0.124 S 
ATOM     74  O   UNL A   1      50.774  27.853  25.732  1.00  0.00    -0.237 OA
ATOM     75  O   UNL A   1      49.967  25.866  24.498  1.00  0.00    -0.237 OA
ATOM     76  O   UNL A   1      49.077  28.098  23.959  1.00  0.00    -0.744 OA
ENDBRANCH  72  73
ENDBRANCH  51  65
BRANCH  52  77
ATOM     77  C   UNL A   1      42.189  30.805  35.760  1.00  0.00     0.058 A 
ATOM     78  C   UNL A   1      42.491  32.152  35.388  1.00  0.00     0.135 A 
ATOM     79  C   UNL A   1      40.842  30.582  35.819  1.00  0.00     0.135 A 
ATOM     80  F   UNL A   1      43.772  32.543  35.445  1.00  0.00    -0.206 F 
ATOM     81  C   UNL A   1      41.558  33.118  34.868  1.00  0.00     0.059 A 
ATOM     82  C   UNL A   1      39.931  31.559  35.292  1.00  0.00     0.059 A 
ATOM     83  F   UNL A   1      40.353  29.376  36.168  1.00  0.00    -0.206 F 
ATOM     84  C   UNL A   1      40.215  32.837  34.765  1.00  0.00     0.060 A 
BRANCH  84  85
ATOM     85  S   UNL A   1      39.088  34.169  33.684  1.00  0.00     0.124 S 
ATOM     86  O   UNL A   1      39.702  34.621  32.463  1.00  0.00    -0.237 OA
ATOM     87  O   UNL A   1      37.914  33.342  33.422  1.00  0.00    -0.237 OA
ATOM     88  O   UNL A   1      38.869  35.331  34.519  1.00  0.00    -0.744 OA
ENDBRANCH  84  85
ENDBRANCH  52  77
BRANCH  64  89
ATOM     89  C   UNL A   1      45.387  24.074  34.456  1.00  0.00     0.058 A 
ATOM     90  C   UNL A   1      46.670  23.615  34.781  1.00  0.00     0.135 A 
ATOM     91  C   UNL A   1      44.360  23.095  34.460  1.00  0.00     0.135 A 
ATOM     92  F   UNL A   1      47.702  24.457  34.925  1.00  0.00    -0.206 F 
ATOM     93  C   UNL A   1      46.930  22.265  35.011  1.00  0.00     0.059 A 
ATOM     94  C   UNL A   1      44.586  21.762  34.753  1.00  0.00     0.059 A 
ATOM     95  F   UNL A   1      43.082  23.398  34.186  1.00  0.00    -0.206 F 
ATOM     96  C   UNL A   1      45.883  21.348  34.987  1.00  0.00     0.060 A 
BRANCH  96  97
ATOM     97  S   UNL A   1      46.225  19.608  35.269  1.00  0.00     0.124 S 
ATOM     98  O   UNL A   1      46.768  19.643  36.623  1.00  0.00    -0.237 OA
ATOM     99  O   UNL A   1      44.904  19.003  35.131  1.00  0.00    -0.237 OA
ATOM    100  O   UNL A   1      47.176  19.273  34.214  1.00  0.00    -0.744 OA
ENDBRANCH  96  97
ENDBRANCH  64  89
ENDBRANCH  38  39
ENDBRANCH  31  33
ENDBRANCH  30  31
ENDBRANCH   1  30
TORSDOF 17
ENDMDL
