MODEL 1
REMARK VINA RESULT:     -12.4      0.000      0.000
REMARK SMILES CC(=O)Oc1ccc([C@H]2Nc3c(C(=O)OCCOC(=O)c4ccc(-c5c6nc(c(-c7c(F)cc(S(=O)(=O)[O-])cc7F)c7ccc([nH]7)c(-c7c(F)cc(S(=O)(=O)[O-])cc7F)c7nc(c(-c8c(F)cc(S(=O)(=O)[O-])cc8F)c8ccc5[nH]8)C=C7)C=C6)cc4)ccc([N+](=O)[O-])c3[C@H]3C=CC[C@@H]32)cc1
REMARK SMILES IDX 16 1 15 2 13 3 14 4 12 5 9 6 10 7 98 8 11 9 94 11 97 12
REMARK SMILES IDX 93 13 95 14 96 15 87 16 89 17 88 18 8 19 5 20 6 21 100 22
REMARK SMILES IDX 7 23 99 24 4 25 2 26 1 27 3 28 90 29 91 30 92 31 17 32 18 33
REMARK SMILES IDX 19 34 20 35 21 36 22 37 86 38 23 39 85 40 24 41 25 42 26 43
REMARK SMILES IDX 79 44 27 45 84 46 78 47 80 48 28 49 83 50 77 51 76 52 29 54
REMARK SMILES IDX 63 55 42 56 62 57 43 58 46 59 61 60 81 61 44 62 45 63 60 65
REMARK SMILES IDX 82 66 47 67 30 68 31 69 40 70 32 71 33 72 39 73 41 74 34 75
REMARK SMILES IDX 35 76 36 77 37 78 38 79 64 80 65 81 74 82 66 83 67 84 73 85
REMARK SMILES IDX 75 86 68 87 69 88 70 89 71 90 72 91 48 92 49 93 58 94 50 95
REMARK SMILES IDX 51 96 57 97 59 98 52 99 53 100 54 101 55 102 56 103
REMARK H PARENT 10 10 80 53 46 64
REMARK Flexibility Score: inf
ROOT
ATOM      1  C   UNL A   1      39.648  21.551  26.295  1.00  0.00     0.275 C 
ENDROOT
BRANCH   1   2
ATOM      2  O   UNL A   1      38.342  21.545  25.666  1.00  0.00    -0.458 OA
BRANCH   2   3
ATOM      3  C   UNL A   1      37.633  22.712  25.709  1.00  0.00     0.340 C 
ATOM      4  O   UNL A   1      37.936  23.706  26.355  1.00  0.00    -0.246 OA
BRANCH   3   5
ATOM      5  C   UNL A   1      36.255  22.455  25.233  1.00  0.00     0.084 A 
ATOM      6  C   UNL A   1      33.907  25.598  24.719  1.00  0.00     0.114 C 
ATOM      7  N   UNL A   1      35.160  24.772  25.018  1.00  0.00    -0.377 N 
ATOM      8  C   UNL A   1      32.729  24.654  24.918  1.00  0.00     0.031 C 
ATOM      9  C   UNL A   1      35.193  23.341  24.840  1.00  0.00     0.060 A 
ATOM     10  H   UNL A   1      35.968  25.232  25.343  1.00  0.00     0.161 HD
ATOM     11  C   UNL A   1      32.928  23.609  23.821  1.00  0.00     0.056 C 
ATOM     12  C   UNL A   1      31.291  25.141  24.822  1.00  0.00     0.034 C 
ATOM     13  C   UNL A   1      33.984  22.692  24.384  1.00  0.00     0.061 A 
ATOM     14  C   UNL A   1      31.534  23.211  23.497  1.00  0.00    -0.022 C 
ATOM     15  C   UNL A   1      30.642  24.052  24.033  1.00  0.00    -0.030 C 
ATOM     16  C   UNL A   1      36.060  21.051  25.302  1.00  0.00     0.025 A 
ATOM     17  C   UNL A   1      33.851  21.291  24.480  1.00  0.00     0.275 A 
ATOM     18  C   UNL A   1      34.862  20.469  24.957  1.00  0.00     0.087 A 
BRANCH   6  19
ATOM     19  C   UNL A   1      33.638  26.960  25.412  1.00  0.00    -0.025 A 
ATOM     20  C   UNL A   1      32.949  29.545  26.509  1.00  0.00     0.130 A 
ATOM     21  C   UNL A   1      33.282  29.418  25.165  1.00  0.00     0.047 A 
ATOM     22  C   UNL A   1      32.738  28.372  27.248  1.00  0.00     0.047 A 
ATOM     23  C   UNL A   1      33.642  28.148  24.637  1.00  0.00     0.010 A 
ATOM     24  C   UNL A   1      33.104  27.102  26.708  1.00  0.00     0.010 A 
BRANCH  20  25
ATOM     25  O   UNL A   1      33.578  30.909  27.356  1.00  0.00    -0.427 OA
BRANCH  25  26
ATOM     26  C   UNL A   1      34.640  32.007  28.029  1.00  0.00     0.308 C 
ATOM     27  C   UNL A   1      34.784  32.030  29.516  1.00  0.00     0.139 C 
ATOM     28  O   UNL A   1      35.383  32.740  27.367  1.00  0.00    -0.252 OA
ENDBRANCH  25  26
ENDBRANCH  20  25
ENDBRANCH   6  19
BRANCH  17  29
ATOM     29  N   UNL A   1      32.622  20.605  24.158  1.00  0.00     0.063 N 
ATOM     30  O   UNL A   1      31.809  20.447  25.077  1.00  0.00    -0.258 OA
ATOM     31  O   UNL A   1      32.521  20.155  23.007  1.00  0.00    -0.258 OA
ENDBRANCH  17  29
ENDBRANCH   3   5
ENDBRANCH   2   3
ENDBRANCH   1   2
BRANCH   1  32
ATOM     32  C   UNL A   1      40.279  20.159  26.295  1.00  0.00     0.275 C 
BRANCH  32  33
ATOM     33  O   UNL A   1      41.629  20.235  26.776  1.00  0.00    -0.458 OA
BRANCH  33  34
ATOM     34  C   UNL A   1      42.560  20.107  25.802  1.00  0.00     0.338 C 
ATOM     35  O   UNL A   1      42.679  19.200  25.001  1.00  0.00    -0.246 OA
BRANCH  34  36
ATOM     36  C   UNL A   1      43.360  21.331  25.712  1.00  0.00     0.060 A 
ATOM     37  C   UNL A   1      44.126  21.667  26.812  1.00  0.00     0.016 A 
ATOM     38  C   UNL A   1      43.151  22.261  24.702  1.00  0.00     0.016 A 
ATOM     39  C   UNL A   1      44.530  22.969  27.005  1.00  0.00     0.010 A 
ATOM     40  C   UNL A   1      43.710  23.542  24.823  1.00  0.00     0.010 A 
ATOM     41  C   UNL A   1      44.353  23.930  26.008  1.00  0.00    -0.014 A 
BRANCH  41  42
ATOM     42  C   UNL A   1      44.771  25.331  26.315  1.00  0.00     0.031 A 
ATOM     43  C   UNL A   1      43.658  26.217  27.145  1.00  0.00     0.074 A 
ATOM     44  C   UNL A   1      46.091  25.613  25.974  1.00  0.00     0.049 A 
ATOM     45  N   UNL A   1      43.647  27.487  27.488  1.00  0.00    -0.248 NA
ATOM     46  C   UNL A   1      42.414  25.600  27.674  1.00  0.00     0.031 C 
ATOM     47  C   UNL A   1      47.079  24.840  25.173  1.00  0.00     0.029 A 
ATOM     48  N   UNL A   1      46.916  26.650  26.321  1.00  0.00    -0.354 N 
ATOM     49  C   UNL A   1      42.609  27.810  28.327  1.00  0.00     0.074 A 
ATOM     50  C   UNL A   1      41.781  26.616  28.285  1.00  0.00     0.031 C 
ATOM     51  C   UNL A   1      48.286  25.466  25.161  1.00  0.00     0.029 A 
ATOM     52  C   UNL A   1      48.196  26.726  25.888  1.00  0.00     0.049 A 
ATOM     53  H   UNL A   1      46.567  27.362  26.906  1.00  0.00     0.167 HD
ATOM     54  C   UNL A   1      42.499  28.890  29.178  1.00  0.00     0.037 A 
ATOM     55  C   UNL A   1      49.082  27.742  26.100  1.00  0.00     0.037 A 
ATOM     56  C   UNL A   1      43.521  29.927  29.508  1.00  0.00     0.049 A 
ATOM     57  C   UNL A   1      48.776  29.021  26.971  1.00  0.00     0.074 A 
ATOM     58  C   UNL A   1      43.464  31.041  30.340  1.00  0.00     0.029 A 
ATOM     59  N   UNL A   1      44.867  29.887  29.175  1.00  0.00    -0.354 N 
ATOM     60  N   UNL A   1      47.831  29.251  27.864  1.00  0.00    -0.248 NA
ATOM     61  C   UNL A   1      49.646  30.196  26.816  1.00  0.00     0.031 C 
ATOM     62  C   UNL A   1      44.734  31.701  30.338  1.00  0.00     0.029 A 
ATOM     63  C   UNL A   1      45.613  31.009  29.510  1.00  0.00     0.049 A 
ATOM     64  H   UNL A   1      45.269  29.109  28.727  1.00  0.00     0.167 HD
ATOM     65  C   UNL A   1      47.878  30.587  28.282  1.00  0.00     0.074 A 
ATOM     66  C   UNL A   1      49.108  31.079  27.661  1.00  0.00     0.031 C 
ATOM     67  C   UNL A   1      46.965  31.367  28.979  1.00  0.00     0.037 A 
BRANCH  54  68
ATOM     68  C   UNL A   1      41.208  28.980  29.939  1.00  0.00     0.058 A 
ATOM     69  C   UNL A   1      41.104  28.512  31.256  1.00  0.00     0.135 A 
ATOM     70  C   UNL A   1      40.086  29.599  29.367  1.00  0.00     0.135 A 
ATOM     71  F   UNL A   1      42.148  27.904  31.840  1.00  0.00    -0.206 F 
ATOM     72  C   UNL A   1      39.923  28.641  31.979  1.00  0.00     0.059 A 
ATOM     73  C   UNL A   1      38.897  29.752  30.076  1.00  0.00     0.059 A 
ATOM     74  F   UNL A   1      40.142  30.071  28.111  1.00  0.00    -0.206 F 
ATOM     75  C   UNL A   1      38.824  29.265  31.380  1.00  0.00     0.060 A 
BRANCH  75  76
ATOM     76  S   UNL A   1      37.305  29.431  32.343  1.00  0.00     0.124 S 
ATOM     77  O   UNL A   1      37.403  28.285  33.242  1.00  0.00    -0.237 OA
ATOM     78  O   UNL A   1      37.479  30.740  32.964  1.00  0.00    -0.237 OA
ATOM     79  O   UNL A   1      36.253  29.350  31.336  1.00  0.00    -0.744 OA
ENDBRANCH  75  76
ENDBRANCH  54  68
BRANCH  55  80
ATOM     80  C   UNL A   1      50.358  27.665  25.335  1.00  0.00     0.058 A 
ATOM     81  C   UNL A   1      51.593  27.425  25.949  1.00  0.00     0.135 A 
ATOM     82  C   UNL A   1      50.346  27.807  23.934  1.00  0.00     0.135 A 
ATOM     83  F   UNL A   1      51.672  27.326  27.284  1.00  0.00    -0.206 F 
ATOM     84  C   UNL A   1      52.760  27.285  25.200  1.00  0.00     0.059 A 
ATOM     85  C   UNL A   1      51.485  27.625  23.165  1.00  0.00     0.059 A 
ATOM     86  F   UNL A   1      49.201  28.087  23.291  1.00  0.00    -0.206 F 
ATOM     87  C   UNL A   1      52.690  27.363  23.807  1.00  0.00     0.060 A 
BRANCH  87  88
ATOM     88  S   UNL A   1      54.176  27.058  22.831  1.00  0.00     0.124 S 
ATOM     89  O   UNL A   1      54.984  26.280  23.762  1.00  0.00    -0.237 OA
ATOM     90  O   UNL A   1      53.644  26.331  21.683  1.00  0.00    -0.237 OA
ATOM     91  O   UNL A   1      54.667  28.401  22.537  1.00  0.00    -0.744 OA
ENDBRANCH  87  88
ENDBRANCH  55  80
BRANCH  67  92
ATOM     92  C   UNL A   1      47.365  32.832  29.117  1.00  0.00     0.058 A 
ATOM     93  C   UNL A   1      46.979  33.807  28.175  1.00  0.00     0.135 A 
ATOM     94  C   UNL A   1      48.172  33.258  30.182  1.00  0.00     0.135 A 
ATOM     95  F   UNL A   1      46.192  33.470  27.140  1.00  0.00    -0.206 F 
ATOM     96  C   UNL A   1      47.455  35.118  28.233  1.00  0.00     0.059 A 
ATOM     97  C   UNL A   1      48.629  34.572  30.282  1.00  0.00     0.059 A 
ATOM     98  F   UNL A   1      48.541  32.390  31.137  1.00  0.00    -0.206 F 
ATOM     99  C   UNL A   1      48.298  35.487  29.282  1.00  0.00     0.060 A 
BRANCH  99 100
ATOM    100  S   UNL A   1      48.980  37.161  29.312  1.00  0.00     0.124 S 
ATOM    101  O   UNL A   1      49.670  37.173  30.598  1.00  0.00    -0.237 OA
ATOM    102  O   UNL A   1      49.839  37.174  28.132  1.00  0.00    -0.237 OA
ATOM    103  O   UNL A   1      47.796  38.011  29.229  1.00  0.00    -0.744 OA
ENDBRANCH  99 100
ENDBRANCH  67  92
ENDBRANCH  41  42
ENDBRANCH  34  36
ENDBRANCH  33  34
ENDBRANCH  32  33
ENDBRANCH   1  32
TORSDOF 18
ENDMDL
MODEL 2
REMARK VINA RESULT:     -12.4      4.450     11.057
REMARK SMILES CC(=O)Oc1ccc([C@H]2Nc3c(C(=O)OCCOC(=O)c4ccc(-c5c6nc(c(-c7c(F)cc(S(=O)(=O)[O-])cc7F)c7ccc([nH]7)c(-c7c(F)cc(S(=O)(=O)[O-])cc7F)c7nc(c(-c8c(F)cc(S(=O)(=O)[O-])cc8F)c8ccc5[nH]8)C=C7)C=C6)cc4)ccc([N+](=O)[O-])c3[C@H]3C=CC[C@@H]32)cc1
REMARK SMILES IDX 16 1 15 2 13 3 14 4 12 5 9 6 10 7 98 8 11 9 94 11 97 12
REMARK SMILES IDX 93 13 95 14 96 15 87 16 89 17 88 18 8 19 5 20 6 21 100 22
REMARK SMILES IDX 7 23 99 24 4 25 2 26 1 27 3 28 90 29 91 30 92 31 17 32 18 33
REMARK SMILES IDX 19 34 20 35 21 36 22 37 86 38 23 39 85 40 24 41 25 42 26 43
REMARK SMILES IDX 79 44 27 45 84 46 78 47 80 48 28 49 83 50 77 51 76 52 29 54
REMARK SMILES IDX 63 55 42 56 62 57 43 58 46 59 61 60 81 61 44 62 45 63 60 65
REMARK SMILES IDX 82 66 47 67 30 68 31 69 40 70 32 71 33 72 39 73 41 74 34 75
REMARK SMILES IDX 35 76 36 77 37 78 38 79 64 80 65 81 74 82 66 83 67 84 73 85
REMARK SMILES IDX 75 86 68 87 69 88 70 89 71 90 72 91 48 92 49 93 58 94 50 95
REMARK SMILES IDX 51 96 57 97 59 98 52 99 53 100 54 101 55 102 56 103
REMARK H PARENT 10 10 80 53 46 64
REMARK Flexibility Score: inf
ROOT
ATOM      1  C   UNL A   1      36.382  33.162  29.439  1.00  0.00     0.275 C 
ENDROOT
BRANCH   1   2
ATOM      2  O   UNL A   1      36.677  33.962  30.612  1.00  0.00    -0.458 OA
BRANCH   2   3
ATOM      3  C   UNL A   1      36.173  33.518  31.802  1.00  0.00     0.340 C 
ATOM      4  O   UNL A   1      35.126  33.890  32.314  1.00  0.00    -0.246 OA
BRANCH   3   5
ATOM      5  C   UNL A   1      37.261  32.877  32.575  1.00  0.00     0.084 A 
ATOM      6  C   UNL A   1      40.940  34.193  31.952  1.00  0.00     0.114 C 
ATOM      7  N   UNL A   1      39.416  34.086  31.863  1.00  0.00    -0.377 N 
ATOM      8  C   UNL A   1      41.425  32.830  32.430  1.00  0.00     0.031 C 
ATOM      9  C   UNL A   1      38.664  33.168  32.684  1.00  0.00     0.060 A 
ATOM     10  H   UNL A   1      38.934  34.661  31.225  1.00  0.00     0.161 HD
ATOM     11  C   UNL A   1      40.836  32.721  33.834  1.00  0.00     0.056 C 
ATOM     12  C   UNL A   1      42.907  32.503  32.534  1.00  0.00     0.034 C 
ATOM     13  C   UNL A   1      39.402  32.321  33.594  1.00  0.00     0.061 A 
ATOM     14  C   UNL A   1      41.846  31.895  34.545  1.00  0.00    -0.022 C 
ATOM     15  C   UNL A   1      42.979  31.786  33.842  1.00  0.00    -0.030 C 
ATOM     16  C   UNL A   1      36.689  31.743  33.208  1.00  0.00     0.025 A 
ATOM     17  C   UNL A   1      38.776  31.207  34.192  1.00  0.00     0.275 A 
ATOM     18  C   UNL A   1      37.440  30.895  33.989  1.00  0.00     0.087 A 
BRANCH   6  19
ATOM     19  C   UNL A   1      41.799  34.691  30.759  1.00  0.00    -0.025 A 
ATOM     20  C   UNL A   1      43.208  35.811  28.497  1.00  0.00     0.130 A 
ATOM     21  C   UNL A   1      41.866  35.465  28.387  1.00  0.00     0.047 A 
ATOM     22  C   UNL A   1      43.783  35.816  29.776  1.00  0.00     0.047 A 
ATOM     23  C   UNL A   1      41.185  34.893  29.497  1.00  0.00     0.010 A 
ATOM     24  C   UNL A   1      43.090  35.238  30.883  1.00  0.00     0.010 A 
BRANCH  20  25
ATOM     25  O   UNL A   1      44.238  35.425  27.169  1.00  0.00    -0.427 OA
BRANCH  25  26
ATOM     26  C   UNL A   1      44.794  34.816  25.718  1.00  0.00     0.308 C 
ATOM     27  C   UNL A   1      43.945  33.819  24.999  1.00  0.00     0.139 C 
ATOM     28  O   UNL A   1      45.823  35.208  25.157  1.00  0.00    -0.252 OA
ENDBRANCH  25  26
ENDBRANCH  20  25
ENDBRANCH   6  19
BRANCH  17  29
ATOM     29  N   UNL A   1      39.497  30.259  35.008  1.00  0.00     0.063 N 
ATOM     30  O   UNL A   1      40.085  29.343  34.419  1.00  0.00    -0.258 OA
ATOM     31  O   UNL A   1      39.396  30.391  36.237  1.00  0.00    -0.258 OA
ENDBRANCH  17  29
ENDBRANCH   3   5
ENDBRANCH   2   3
ENDBRANCH   1   2
BRANCH   1  32
ATOM     32  C   UNL A   1      35.343  32.082  29.740  1.00  0.00     0.275 C 
BRANCH  32  33
ATOM     33  O   UNL A   1      35.786  30.820  29.220  1.00  0.00    -0.458 OA
BRANCH  33  34
ATOM     34  C   UNL A   1      36.521  30.100  30.097  1.00  0.00     0.338 C 
ATOM     35  O   UNL A   1      36.119  29.364  30.978  1.00  0.00    -0.246 OA
BRANCH  34  36
ATOM     36  C   UNL A   1      37.942  30.186  29.748  1.00  0.00     0.060 A 
ATOM     37  C   UNL A   1      38.267  30.115  28.408  1.00  0.00     0.016 A 
ATOM     38  C   UNL A   1      38.934  30.055  30.711  1.00  0.00     0.016 A 
ATOM     39  C   UNL A   1      39.533  29.735  28.019  1.00  0.00     0.010 A 
ATOM     40  C   UNL A   1      40.259  29.836  30.305  1.00  0.00     0.010 A 
ATOM     41  C   UNL A   1      40.562  29.608  28.954  1.00  0.00    -0.014 A 
BRANCH  41  42
ATOM     42  C   UNL A   1      41.892  29.141  28.461  1.00  0.00     0.031 A 
ATOM     43  C   UNL A   1      43.075  30.286  28.477  1.00  0.00     0.074 A 
ATOM     44  C   UNL A   1      41.948  27.774  28.201  1.00  0.00     0.049 A 
ATOM     45  N   UNL A   1      44.312  30.255  28.030  1.00  0.00    -0.248 NA
ATOM     46  C   UNL A   1      42.854  31.620  29.090  1.00  0.00     0.031 C 
ATOM     47  C   UNL A   1      40.872  26.749  28.127  1.00  0.00     0.029 A 
ATOM     48  N   UNL A   1      43.010  26.931  28.003  1.00  0.00    -0.354 N 
ATOM     49  C   UNL A   1      45.042  31.363  28.385  1.00  0.00     0.074 A 
ATOM     50  C   UNL A   1      44.026  32.256  28.920  1.00  0.00     0.031 C 
ATOM     51  C   UNL A   1      41.396  25.511  27.923  1.00  0.00     0.029 A 
ATOM     52  C   UNL A   1      42.844  25.606  27.782  1.00  0.00     0.049 A 
ATOM     53  H   UNL A   1      43.923  27.301  28.024  1.00  0.00     0.167 HD
ATOM     54  C   UNL A   1      46.413  31.505  28.444  1.00  0.00     0.037 A 
ATOM     55  C   UNL A   1      43.813  24.688  27.494  1.00  0.00     0.037 A 
ATOM     56  C   UNL A   1      47.467  30.465  28.258  1.00  0.00     0.049 A 
ATOM     57  C   UNL A   1      45.354  25.013  27.429  1.00  0.00     0.074 A 
ATOM     58  C   UNL A   1      48.856  30.550  28.288  1.00  0.00     0.029 A 
ATOM     59  N   UNL A   1      47.266  29.095  28.192  1.00  0.00    -0.354 N 
ATOM     60  N   UNL A   1      46.039  26.042  27.893  1.00  0.00    -0.248 NA
ATOM     61  C   UNL A   1      46.241  24.058  26.751  1.00  0.00     0.031 C 
ATOM     62  C   UNL A   1      49.416  29.249  28.082  1.00  0.00     0.029 A 
ATOM     63  C   UNL A   1      48.388  28.323  27.925  1.00  0.00     0.049 A 
ATOM     64  H   UNL A   1      46.378  28.692  28.327  1.00  0.00     0.167 HD
ATOM     65  C   UNL A   1      47.374  25.959  27.476  1.00  0.00     0.074 A 
ATOM     66  C   UNL A   1      47.441  24.635  26.859  1.00  0.00     0.031 C 
ATOM     67  C   UNL A   1      48.399  26.897  27.473  1.00  0.00     0.037 A 
BRANCH  54  68
ATOM     68  C   UNL A   1      46.902  32.869  28.834  1.00  0.00     0.058 A 
ATOM     69  C   UNL A   1      46.885  33.295  30.169  1.00  0.00     0.135 A 
ATOM     70  C   UNL A   1      47.452  33.731  27.873  1.00  0.00     0.135 A 
ATOM     71  F   UNL A   1      46.359  32.509  31.122  1.00  0.00    -0.206 F 
ATOM     72  C   UNL A   1      47.385  34.539  30.539  1.00  0.00     0.059 A 
ATOM     73  C   UNL A   1      47.971  34.975  28.221  1.00  0.00     0.059 A 
ATOM     74  F   UNL A   1      47.498  33.362  26.583  1.00  0.00    -0.206 F 
ATOM     75  C   UNL A   1      47.928  35.372  29.557  1.00  0.00     0.060 A 
BRANCH  75  76
ATOM     76  S   UNL A   1      48.582  36.978  30.064  1.00  0.00     0.124 S 
ATOM     77  O   UNL A   1      47.505  37.873  29.656  1.00  0.00    -0.237 OA
ATOM     78  O   UNL A   1      48.749  36.800  31.503  1.00  0.00    -0.237 OA
ATOM     79  O   UNL A   1      49.820  37.098  29.301  1.00  0.00    -0.744 OA
ENDBRANCH  75  76
ENDBRANCH  54  68
BRANCH  55  80
ATOM     80  C   UNL A   1      43.331  23.338  27.090  1.00  0.00     0.058 A 
ATOM     81  C   UNL A   1      43.255  22.934  25.751  1.00  0.00     0.135 A 
ATOM     82  C   UNL A   1      42.958  22.401  28.073  1.00  0.00     0.135 A 
ATOM     83  F   UNL A   1      43.553  23.797  24.770  1.00  0.00    -0.206 F 
ATOM     84  C   UNL A   1      42.869  21.640  25.405  1.00  0.00     0.059 A 
ATOM     85  C   UNL A   1      42.617  21.095  27.756  1.00  0.00     0.059 A 
ATOM     86  F   UNL A   1      42.963  22.744  29.371  1.00  0.00    -0.206 F 
ATOM     87  C   UNL A   1      42.577  20.722  26.417  1.00  0.00     0.060 A 
BRANCH  87  88
ATOM     88  S   UNL A   1      42.200  19.014  25.976  1.00  0.00     0.124 S 
ATOM     89  O   UNL A   1      43.012  18.834  24.779  1.00  0.00    -0.237 OA
ATOM     90  O   UNL A   1      42.640  18.287  27.163  1.00  0.00    -0.237 OA
ATOM     91  O   UNL A   1      40.756  19.032  25.764  1.00  0.00    -0.744 OA
ENDBRANCH  87  88
ENDBRANCH  55  80
BRANCH  67  92
ATOM     92  C   UNL A   1      49.684  26.423  26.804  1.00  0.00     0.058 A 
ATOM     93  C   UNL A   1      50.670  25.696  27.502  1.00  0.00     0.135 A 
ATOM     94  C   UNL A   1      49.949  26.731  25.462  1.00  0.00     0.135 A 
ATOM     95  F   UNL A   1      50.472  25.353  28.785  1.00  0.00    -0.206 F 
ATOM     96  C   UNL A   1      51.900  25.378  26.924  1.00  0.00     0.059 A 
ATOM     97  C   UNL A   1      51.157  26.391  24.851  1.00  0.00     0.059 A 
ATOM     98  F   UNL A   1      49.036  27.385  24.728  1.00  0.00    -0.206 F 
ATOM     99  C   UNL A   1      52.142  25.749  25.601  1.00  0.00     0.060 A 
BRANCH  99 100
ATOM    100  S   UNL A   1      53.766  25.412  24.878  1.00  0.00     0.124 S 
ATOM    101  O   UNL A   1      53.470  25.478  23.450  1.00  0.00    -0.237 OA
ATOM    102  O   UNL A   1      54.580  26.501  25.408  1.00  0.00    -0.237 OA
ATOM    103  O   UNL A   1      54.094  24.085  25.389  1.00  0.00    -0.744 OA
ENDBRANCH  99 100
ENDBRANCH  67  92
ENDBRANCH  41  42
ENDBRANCH  34  36
ENDBRANCH  33  34
ENDBRANCH  32  33
ENDBRANCH   1  32
TORSDOF 18
ENDMDL
MODEL 3
REMARK VINA RESULT:     -12.3      1.237      8.071
REMARK SMILES CC(=O)Oc1ccc([C@H]2Nc3c(C(=O)OCCOC(=O)c4ccc(-c5c6nc(c(-c7c(F)cc(S(=O)(=O)[O-])cc7F)c7ccc([nH]7)c(-c7c(F)cc(S(=O)(=O)[O-])cc7F)c7nc(c(-c8c(F)cc(S(=O)(=O)[O-])cc8F)c8ccc5[nH]8)C=C7)C=C6)cc4)ccc([N+](=O)[O-])c3[C@H]3C=CC[C@@H]32)cc1
REMARK SMILES IDX 16 1 15 2 13 3 14 4 12 5 9 6 10 7 98 8 11 9 94 11 97 12
REMARK SMILES IDX 93 13 95 14 96 15 87 16 89 17 88 18 8 19 5 20 6 21 100 22
REMARK SMILES IDX 7 23 99 24 4 25 2 26 1 27 3 28 90 29 91 30 92 31 17 32 18 33
REMARK SMILES IDX 19 34 20 35 21 36 22 37 86 38 23 39 85 40 24 41 25 42 26 43
REMARK SMILES IDX 79 44 27 45 84 46 78 47 80 48 28 49 83 50 77 51 76 52 29 54
REMARK SMILES IDX 63 55 42 56 62 57 43 58 46 59 61 60 81 61 44 62 45 63 60 65
REMARK SMILES IDX 82 66 47 67 30 68 31 69 40 70 32 71 33 72 39 73 41 74 34 75
REMARK SMILES IDX 35 76 36 77 37 78 38 79 64 80 65 81 74 82 66 83 67 84 73 85
REMARK SMILES IDX 75 86 68 87 69 88 70 89 71 90 72 91 48 92 49 93 58 94 50 95
REMARK SMILES IDX 51 96 57 97 59 98 52 99 53 100 54 101 55 102 56 103
REMARK H PARENT 10 10 80 53 46 64
REMARK Flexibility Score: inf
ROOT
ATOM      1  C   UNL A   1      39.219  22.020  26.431  1.00  0.00     0.275 C 
ENDROOT
BRANCH   1   2
ATOM      2  O   UNL A   1      37.779  22.116  26.287  1.00  0.00    -0.458 OA
BRANCH   2   3
ATOM      3  C   UNL A   1      37.292  23.261  25.725  1.00  0.00     0.340 C 
ATOM      4  O   UNL A   1      37.725  24.389  25.917  1.00  0.00    -0.246 OA
BRANCH   3   5
ATOM      5  C   UNL A   1      35.927  23.003  25.214  1.00  0.00     0.084 A 
ATOM      6  C   UNL A   1      33.552  26.133  24.743  1.00  0.00     0.114 C 
ATOM      7  N   UNL A   1      34.809  25.313  25.043  1.00  0.00    -0.377 N 
ATOM      8  C   UNL A   1      32.382  25.169  24.891  1.00  0.00     0.031 C 
ATOM      9  C   UNL A   1      34.862  23.887  24.825  1.00  0.00     0.060 A 
ATOM     10  H   UNL A   1      35.605  25.772  25.396  1.00  0.00     0.161 HD
ATOM     11  C   UNL A   1      32.615  24.159  23.770  1.00  0.00     0.056 C 
ATOM     12  C   UNL A   1      30.940  25.643  24.781  1.00  0.00     0.034 C 
ATOM     13  C   UNL A   1      33.670  23.238  24.328  1.00  0.00     0.061 A 
ATOM     14  C   UNL A   1      31.232  23.754  23.407  1.00  0.00    -0.022 C 
ATOM     15  C   UNL A   1      30.319  24.569  23.949  1.00  0.00    -0.030 C 
ATOM     16  C   UNL A   1      35.747  21.595  25.240  1.00  0.00     0.025 A 
ATOM     17  C   UNL A   1      33.552  21.833  24.382  1.00  0.00     0.275 A 
ATOM     18  C   UNL A   1      34.563  21.010  24.855  1.00  0.00     0.087 A 
BRANCH   6  19
ATOM     19  C   UNL A   1      33.253  27.471  25.468  1.00  0.00    -0.025 A 
ATOM     20  C   UNL A   1      32.489  30.000  26.644  1.00  0.00     0.130 A 
ATOM     21  C   UNL A   1      32.705  29.899  25.275  1.00  0.00     0.047 A 
ATOM     22  C   UNL A   1      32.430  28.813  27.390  1.00  0.00     0.047 A 
ATOM     23  C   UNL A   1      33.103  28.657  24.705  1.00  0.00     0.010 A 
ATOM     24  C   UNL A   1      32.832  27.573  26.808  1.00  0.00     0.010 A 
BRANCH  20  25
ATOM     25  O   UNL A   1      33.097  31.403  27.441  1.00  0.00    -0.427 OA
BRANCH  25  26
ATOM     26  C   UNL A   1      33.414  32.996  27.825  1.00  0.00     0.308 C 
ATOM     27  C   UNL A   1      34.840  33.413  27.987  1.00  0.00     0.139 C 
ATOM     28  O   UNL A   1      32.546  33.873  27.895  1.00  0.00    -0.252 OA
ENDBRANCH  25  26
ENDBRANCH  20  25
ENDBRANCH   6  19
BRANCH  17  29
ATOM     29  N   UNL A   1      32.338  21.143  24.016  1.00  0.00     0.063 N 
ATOM     30  O   UNL A   1      31.567  20.836  24.934  1.00  0.00    -0.258 OA
ATOM     31  O   UNL A   1      32.209  20.839  22.821  1.00  0.00    -0.258 OA
ENDBRANCH  17  29
ENDBRANCH   3   5
ENDBRANCH   2   3
ENDBRANCH   1   2
BRANCH   1  32
ATOM     32  C   UNL A   1      39.765  20.745  25.792  1.00  0.00     0.275 C 
BRANCH  32  33
ATOM     33  O   UNL A   1      40.613  20.056  26.722  1.00  0.00    -0.458 OA
BRANCH  33  34
ATOM     34  C   UNL A   1      41.845  19.783  26.234  1.00  0.00     0.338 C 
ATOM     35  O   UNL A   1      42.178  18.848  25.531  1.00  0.00    -0.246 OA
BRANCH  34  36
ATOM     36  C   UNL A   1      42.757  20.890  26.533  1.00  0.00     0.060 A 
ATOM     37  C   UNL A   1      42.839  21.302  27.849  1.00  0.00     0.016 A 
ATOM     38  C   UNL A   1      43.297  21.678  25.525  1.00  0.00     0.016 A 
ATOM     39  C   UNL A   1      43.285  22.569  28.154  1.00  0.00     0.010 A 
ATOM     40  C   UNL A   1      43.905  22.897  25.859  1.00  0.00     0.010 A 
ATOM     41  C   UNL A   1      43.848  23.386  27.172  1.00  0.00    -0.014 A 
BRANCH  41  42
ATOM     42  C   UNL A   1      44.259  24.766  27.572  1.00  0.00     0.031 A 
ATOM     43  C   UNL A   1      45.860  25.095  27.366  1.00  0.00     0.074 A 
ATOM     44  C   UNL A   1      43.194  25.593  27.919  1.00  0.00     0.049 A 
ATOM     45  N   UNL A   1      46.573  26.150  27.698  1.00  0.00    -0.248 NA
ATOM     46  C   UNL A   1      46.767  24.137  26.686  1.00  0.00     0.031 C 
ATOM     47  C   UNL A   1      41.759  25.286  28.163  1.00  0.00     0.029 A 
ATOM     48  N   UNL A   1      43.114  26.952  28.076  1.00  0.00    -0.354 N 
ATOM     49  C   UNL A   1      47.853  26.113  27.201  1.00  0.00     0.074 A 
ATOM     50  C   UNL A   1      47.962  24.751  26.702  1.00  0.00     0.031 C 
ATOM     51  C   UNL A   1      41.056  26.425  28.403  1.00  0.00     0.029 A 
ATOM     52  C   UNL A   1      41.957  27.570  28.403  1.00  0.00     0.049 A 
ATOM     53  H   UNL A   1      43.926  27.495  27.945  1.00  0.00     0.167 HD
ATOM     54  C   UNL A   1      48.728  27.162  27.006  1.00  0.00     0.037 A 
ATOM     55  C   UNL A   1      41.773  28.898  28.663  1.00  0.00     0.037 A 
ATOM     56  C   UNL A   1      48.480  28.625  27.165  1.00  0.00     0.049 A 
ATOM     57  C   UNL A   1      42.907  29.989  28.562  1.00  0.00     0.074 A 
ATOM     58  C   UNL A   1      49.321  29.722  27.000  1.00  0.00     0.029 A 
ATOM     59  N   UNL A   1      47.248  29.234  27.344  1.00  0.00    -0.354 N 
ATOM     60  N   UNL A   1      44.085  29.956  27.966  1.00  0.00    -0.248 NA
ATOM     61  C   UNL A   1      42.690  31.285  29.220  1.00  0.00     0.031 C 
ATOM     62  C   UNL A   1      48.586  30.925  27.243  1.00  0.00     0.029 A 
ATOM     63  C   UNL A   1      47.268  30.606  27.559  1.00  0.00     0.049 A 
ATOM     64  H   UNL A   1      46.406  28.724  27.320  1.00  0.00     0.167 HD
ATOM     65  C   UNL A   1      44.807  31.120  28.262  1.00  0.00     0.074 A 
ATOM     66  C   UNL A   1      43.822  31.945  28.961  1.00  0.00     0.031 C 
ATOM     67  C   UNL A   1      46.150  31.436  28.105  1.00  0.00     0.037 A 
BRANCH  54  68
ATOM     68  C   UNL A   1      50.080  26.781  26.478  1.00  0.00     0.058 A 
ATOM     69  C   UNL A   1      50.371  26.838  25.108  1.00  0.00     0.135 A 
ATOM     70  C   UNL A   1      51.112  26.420  27.358  1.00  0.00     0.135 A 
ATOM     71  F   UNL A   1      49.412  27.169  24.228  1.00  0.00    -0.206 F 
ATOM     72  C   UNL A   1      51.638  26.535  24.623  1.00  0.00     0.059 A 
ATOM     73  C   UNL A   1      52.392  26.124  26.896  1.00  0.00     0.059 A 
ATOM     74  F   UNL A   1      50.883  26.360  28.679  1.00  0.00    -0.206 F 
ATOM     75  C   UNL A   1      52.644  26.180  25.526  1.00  0.00     0.060 A 
BRANCH  75  76
ATOM     76  S   UNL A   1      54.285  25.802  24.874  1.00  0.00     0.124 S 
ATOM     77  O   UNL A   1      55.135  26.632  25.722  1.00  0.00    -0.237 OA
ATOM     78  O   UNL A   1      54.378  24.363  25.096  1.00  0.00    -0.237 OA
ATOM     79  O   UNL A   1      54.200  26.215  23.477  1.00  0.00    -0.744 OA
ENDBRANCH  75  76
ENDBRANCH  54  68
BRANCH  55  80
ATOM     80  C   UNL A   1      40.437  29.277  29.203  1.00  0.00     0.058 A 
ATOM     81  C   UNL A   1      40.178  29.373  30.575  1.00  0.00     0.135 A 
ATOM     82  C   UNL A   1      39.384  29.585  28.320  1.00  0.00     0.135 A 
ATOM     83  F   UNL A   1      41.129  29.048  31.464  1.00  0.00    -0.206 F 
ATOM     84  C   UNL A   1      38.940  29.801  31.052  1.00  0.00     0.059 A 
ATOM     85  C   UNL A   1      38.160  30.058  28.769  1.00  0.00     0.059 A 
ATOM     86  F   UNL A   1      39.555  29.466  26.994  1.00  0.00    -0.206 F 
ATOM     87  C   UNL A   1      37.947  30.164  30.139  1.00  0.00     0.060 A 
BRANCH  87  88
ATOM     88  S   UNL A   1      36.389  30.836  30.751  1.00  0.00     0.124 S 
ATOM     89  O   UNL A   1      36.173  30.033  31.948  1.00  0.00    -0.237 OA
ATOM     90  O   UNL A   1      36.727  32.238  30.974  1.00  0.00    -0.237 OA
ATOM     91  O   UNL A   1      35.462  30.592  29.650  1.00  0.00    -0.744 OA
ENDBRANCH  87  88
ENDBRANCH  55  80
BRANCH  67  92
ATOM     92  C   UNL A   1      46.550  32.788  28.684  1.00  0.00     0.058 A 
ATOM     93  C   UNL A   1      46.503  33.974  27.923  1.00  0.00     0.135 A 
ATOM     94  C   UNL A   1      47.021  32.894  30.001  1.00  0.00     0.135 A 
ATOM     95  F   UNL A   1      46.046  33.947  26.660  1.00  0.00    -0.206 F 
ATOM     96  C   UNL A   1      46.993  35.186  28.413  1.00  0.00     0.059 A 
ATOM     97  C   UNL A   1      47.482  34.102  30.526  1.00  0.00     0.059 A 
ATOM     98  F   UNL A   1      47.053  31.812  30.793  1.00  0.00    -0.206 F 
ATOM     99  C   UNL A   1      47.500  35.235  29.712  1.00  0.00     0.060 A 
BRANCH  99 100
ATOM    100  S   UNL A   1      48.211  36.783  30.318  1.00  0.00     0.124 S 
ATOM    101  O   UNL A   1      47.128  37.297  31.150  1.00  0.00    -0.237 OA
ATOM    102  O   UNL A   1      49.399  36.328  31.034  1.00  0.00    -0.237 OA
ATOM    103  O   UNL A   1      48.473  37.537  29.095  1.00  0.00    -0.744 OA
ENDBRANCH  99 100
ENDBRANCH  67  92
ENDBRANCH  41  42
ENDBRANCH  34  36
ENDBRANCH  33  34
ENDBRANCH  32  33
ENDBRANCH   1  32
TORSDOF 18
ENDMDL
