MODEL 1
REMARK VINA RESULT:      -9.8      0.000      0.000
REMARK SMILES O=C(OCCOC(=O)C1([NH+]2CCOCC2)CCC1)c1ccc(-c2c3nc(c(-c4c(F)cc(S(=O)(=O)[O-])cc4F)c4ccc([nH]4)c(-c4c(F)cc(S(=O)(=O)[O-])cc4F)c4nc(c(-c5c(F)cc(S(=O)(=O)[O-])cc5F)c5ccc2[nH]5)C=C4)C=C3)cc1
REMARK SMILES IDX 4 1 3 2 2 3 1 4 19 5 20 6 84 7 21 8 83 9 22 10 23 11 24 12
REMARK SMILES IDX 77 13 25 14 82 15 76 16 78 17 26 18 81 19 75 20 74 21 27 23
REMARK SMILES IDX 61 24 40 25 60 26 41 27 44 28 59 29 79 30 42 31 43 32 58 34
REMARK SMILES IDX 80 35 45 36 28 37 29 38 38 39 30 40 31 41 37 42 39 43 32 44
REMARK SMILES IDX 33 45 34 46 35 47 36 48 62 49 63 50 72 51 64 52 65 53 71 54
REMARK SMILES IDX 73 55 66 56 67 57 68 58 69 59 70 60 46 61 47 62 56 63 48 64
REMARK SMILES IDX 49 65 55 66 57 67 50 68 51 69 52 70 53 71 54 72 5 73 6 74
REMARK SMILES IDX 7 75 8 76 9 77 16 78 18 79 17 80 10 81 11 82 15 83 12 85
REMARK SMILES IDX 14 86 13 87
REMARK H PARENT 78 22 44 33 10 84
REMARK Flexibility Score: inf
ROOT
ATOM      1  C   UNL A   1      33.611  32.517  28.291  1.00  0.00     0.275 C 
ENDROOT
BRANCH   1   2
ATOM      2  O   UNL A   1      33.973  31.616  27.234  1.00  0.00    -0.458 OA
BRANCH   2   3
ATOM      3  C   UNL A   1      34.489  30.368  27.302  1.00  0.00     0.338 C 
ATOM      4  O   UNL A   1      33.831  29.438  26.836  1.00  0.00    -0.246 OA
BRANCH   3   5
ATOM      5  C   UNL A   1      35.751  30.028  28.036  1.00  0.00     0.060 A 
ATOM      6  C   UNL A   1      35.853  29.517  29.336  1.00  0.00     0.016 A 
ATOM      7  C   UNL A   1      36.942  30.232  27.320  1.00  0.00     0.016 A 
ATOM      8  C   UNL A   1      37.086  29.109  29.864  1.00  0.00     0.010 A 
ATOM      9  C   UNL A   1      38.174  29.827  27.842  1.00  0.00     0.010 A 
ATOM     10  C   UNL A   1      38.252  29.234  29.111  1.00  0.00    -0.014 A 
BRANCH  10  11
ATOM     11  C   UNL A   1      39.573  28.875  29.676  1.00  0.00     0.031 A 
ATOM     12  C   UNL A   1      40.113  29.758  30.760  1.00  0.00     0.074 A 
ATOM     13  C   UNL A   1      40.287  27.822  29.223  1.00  0.00     0.049 A 
ATOM     14  N   UNL A   1      41.241  29.674  31.409  1.00  0.00    -0.248 NA
ATOM     15  C   UNL A   1      39.263  30.893  31.166  1.00  0.00     0.031 C 
ATOM     16  C   UNL A   1      39.851  26.873  28.198  1.00  0.00     0.029 A 
ATOM     17  N   UNL A   1      41.547  27.385  29.547  1.00  0.00    -0.354 N 
ATOM     18  C   UNL A   1      41.210  30.713  32.328  1.00  0.00     0.074 A 
ATOM     19  C   UNL A   1      40.024  31.493  32.064  1.00  0.00     0.031 C 
ATOM     20  C   UNL A   1      40.854  26.020  27.919  1.00  0.00     0.029 A 
ATOM     21  C   UNL A   1      41.989  26.330  28.778  1.00  0.00     0.049 A 
ATOM     22  H   UNL A   1      42.087  27.789  30.264  1.00  0.00     0.167 HD
ATOM     23  C   UNL A   1      42.052  30.948  33.356  1.00  0.00     0.037 A 
ATOM     24  C   UNL A   1      43.171  25.678  28.784  1.00  0.00     0.037 A 
ATOM     25  C   UNL A   1      43.228  30.170  33.603  1.00  0.00     0.049 A 
ATOM     26  C   UNL A   1      44.168  26.039  29.857  1.00  0.00     0.074 A 
ATOM     27  C   UNL A   1      44.154  30.299  34.619  1.00  0.00     0.029 A 
ATOM     28  N   UNL A   1      43.647  29.114  32.802  1.00  0.00    -0.354 N 
ATOM     29  N   UNL A   1      44.072  26.958  30.791  1.00  0.00    -0.248 NA
ATOM     30  C   UNL A   1      45.403  25.247  29.918  1.00  0.00     0.031 C 
ATOM     31  C   UNL A   1      45.158  29.348  34.407  1.00  0.00     0.029 A 
ATOM     32  C   UNL A   1      44.832  28.596  33.286  1.00  0.00     0.049 A 
ATOM     33  H   UNL A   1      43.169  28.784  32.008  1.00  0.00     0.167 HD
ATOM     34  C   UNL A   1      45.200  26.810  31.589  1.00  0.00     0.074 A 
ATOM     35  C   UNL A   1      45.970  25.722  31.018  1.00  0.00     0.031 C 
ATOM     36  C   UNL A   1      45.558  27.494  32.705  1.00  0.00     0.037 A 
BRANCH  23  37
ATOM     37  C   UNL A   1      41.680  32.075  34.274  1.00  0.00     0.058 A 
ATOM     38  C   UNL A   1      40.857  31.853  35.393  1.00  0.00     0.135 A 
ATOM     39  C   UNL A   1      42.066  33.391  33.992  1.00  0.00     0.135 A 
ATOM     40  F   UNL A   1      40.430  30.614  35.684  1.00  0.00    -0.206 F 
ATOM     41  C   UNL A   1      40.387  32.905  36.169  1.00  0.00     0.059 A 
ATOM     42  C   UNL A   1      41.631  34.458  34.774  1.00  0.00     0.059 A 
ATOM     43  F   UNL A   1      42.839  33.657  32.927  1.00  0.00    -0.206 F 
ATOM     44  C   UNL A   1      40.773  34.205  35.844  1.00  0.00     0.060 A 
BRANCH  44  45
ATOM     45  S   UNL A   1      40.119  35.565  36.834  1.00  0.00     0.124 S 
ATOM     46  O   UNL A   1      41.283  35.929  37.635  1.00  0.00    -0.237 OA
ATOM     47  O   UNL A   1      39.727  36.532  35.811  1.00  0.00    -0.237 OA
ATOM     48  O   UNL A   1      39.017  34.952  37.567  1.00  0.00    -0.744 OA
ENDBRANCH  44  45
ENDBRANCH  23  37
BRANCH  24  49
ATOM     49  C   UNL A   1      43.456  24.584  27.811  1.00  0.00     0.058 A 
ATOM     50  C   UNL A   1      43.073  23.259  28.074  1.00  0.00     0.135 A 
ATOM     51  C   UNL A   1      44.152  24.830  26.616  1.00  0.00     0.135 A 
ATOM     52  F   UNL A   1      42.407  22.967  29.201  1.00  0.00    -0.206 F 
ATOM     53  C   UNL A   1      43.398  22.215  27.211  1.00  0.00     0.059 A 
ATOM     54  C   UNL A   1      44.472  23.804  25.725  1.00  0.00     0.059 A 
ATOM     55  F   UNL A   1      44.533  26.079  26.306  1.00  0.00    -0.206 F 
ATOM     56  C   UNL A   1      44.104  22.497  26.040  1.00  0.00     0.060 A 
BRANCH  56  57
ATOM     57  S   UNL A   1      44.521  21.126  24.938  1.00  0.00     0.124 S 
ATOM     58  O   UNL A   1      44.504  21.778  23.634  1.00  0.00    -0.237 OA
ATOM     59  O   UNL A   1      45.836  20.728  25.433  1.00  0.00    -0.237 OA
ATOM     60  O   UNL A   1      43.450  20.162  25.172  1.00  0.00    -0.744 OA
ENDBRANCH  56  57
ENDBRANCH  24  49
BRANCH  36  61
ATOM     61  C   UNL A   1      46.804  27.054  33.417  1.00  0.00     0.058 A 
ATOM     62  C   UNL A   1      48.049  27.640  33.151  1.00  0.00     0.135 A 
ATOM     63  C   UNL A   1      46.725  26.101  34.446  1.00  0.00     0.135 A 
ATOM     64  F   UNL A   1      48.174  28.550  32.172  1.00  0.00    -0.206 F 
ATOM     65  C   UNL A   1      49.180  27.290  33.879  1.00  0.00     0.059 A 
ATOM     66  C   UNL A   1      47.837  25.760  35.205  1.00  0.00     0.059 A 
ATOM     67  F   UNL A   1      45.551  25.521  34.743  1.00  0.00    -0.206 F 
ATOM     68  C   UNL A   1      49.061  26.356  34.910  1.00  0.00     0.060 A 
BRANCH  68  69
ATOM     69  S   UNL A   1      50.521  25.968  35.896  1.00  0.00     0.124 S 
ATOM     70  O   UNL A   1      50.056  26.278  37.243  1.00  0.00    -0.237 OA
ATOM     71  O   UNL A   1      50.726  24.552  35.605  1.00  0.00    -0.237 OA
ATOM     72  O   UNL A   1      51.542  26.865  35.359  1.00  0.00    -0.744 OA
ENDBRANCH  68  69
ENDBRANCH  36  61
ENDBRANCH  10  11
ENDBRANCH   3   5
ENDBRANCH   2   3
ENDBRANCH   1   2
BRANCH   1  73
ATOM     73  C   UNL A   1      33.881  33.997  28.006  1.00  0.00     0.274 C 
BRANCH  73  74
ATOM     74  O   UNL A   1      34.641  34.682  29.018  1.00  0.00    -0.457 OA
BRANCH  74  75
ATOM     75  C   UNL A   1      34.134  34.593  30.298  1.00  0.00     0.368 C 
ATOM     76  O   UNL A   1      33.012  35.017  30.578  1.00  0.00    -0.245 OA
BRANCH  75  77
ATOM     77  C   UNL A   1      35.165  33.917  31.343  1.00  0.00     0.196 C 
ATOM     78  C   UNL A   1      34.494  32.716  32.090  1.00  0.00     0.081 C 
ATOM     79  C   UNL A   1      36.231  32.925  30.851  1.00  0.00     0.081 C 
ATOM     80  C   UNL A   1      35.755  31.875  31.866  1.00  0.00     0.014 C 
BRANCH  77  81
ATOM     81  N   UNL A   1      35.758  34.923  32.273  1.00  0.00    -0.317 N 
ATOM     82  C   UNL A   1      37.238  34.880  32.306  1.00  0.00     0.292 C 
ATOM     83  C   UNL A   1      35.222  35.084  33.635  1.00  0.00     0.292 C 
ATOM     84  H   UNL A   1      35.419  35.767  31.812  1.00  0.00     0.349 HD
ATOM     85  C   UNL A   1      37.867  34.072  33.455  1.00  0.00     0.221 C 
ATOM     86  C   UNL A   1      35.902  34.251  34.737  1.00  0.00     0.221 C 
ATOM     87  O   UNL A   1      37.318  34.442  34.720  1.00  0.00    -0.370 OA
ENDBRANCH  77  81
ENDBRANCH  75  77
ENDBRANCH  74  75
ENDBRANCH  73  74
ENDBRANCH   1  73
TORSDOF 15
ENDMDL
MODEL 2
REMARK VINA RESULT:      -9.7      4.125     11.877
REMARK SMILES O=C(OCCOC(=O)C1([NH+]2CCOCC2)CCC1)c1ccc(-c2c3nc(c(-c4c(F)cc(S(=O)(=O)[O-])cc4F)c4ccc([nH]4)c(-c4c(F)cc(S(=O)(=O)[O-])cc4F)c4nc(c(-c5c(F)cc(S(=O)(=O)[O-])cc5F)c5ccc2[nH]5)C=C4)C=C3)cc1
REMARK SMILES IDX 4 1 3 2 2 3 1 4 19 5 20 6 84 7 21 8 83 9 22 10 23 11 24 12
REMARK SMILES IDX 77 13 25 14 82 15 76 16 78 17 26 18 81 19 75 20 74 21 27 23
REMARK SMILES IDX 61 24 40 25 60 26 41 27 44 28 59 29 79 30 42 31 43 32 58 34
REMARK SMILES IDX 80 35 45 36 28 37 29 38 38 39 30 40 31 41 37 42 39 43 32 44
REMARK SMILES IDX 33 45 34 46 35 47 36 48 62 49 63 50 72 51 64 52 65 53 71 54
REMARK SMILES IDX 73 55 66 56 67 57 68 58 69 59 70 60 46 61 47 62 56 63 48 64
REMARK SMILES IDX 49 65 55 66 57 67 50 68 51 69 52 70 53 71 54 72 5 73 6 74
REMARK SMILES IDX 7 75 8 76 9 77 16 78 18 79 17 80 10 81 11 82 15 83 12 85
REMARK SMILES IDX 14 86 13 87
REMARK H PARENT 78 22 44 33 10 84
REMARK Flexibility Score: inf
ROOT
ATOM      1  C   UNL A   1      40.307  21.067  26.932  1.00  0.00     0.275 C 
ENDROOT
BRANCH   1   2
ATOM      2  O   UNL A   1      39.389  21.667  26.008  1.00  0.00    -0.458 OA
BRANCH   2   3
ATOM      3  C   UNL A   1      38.603  22.757  26.155  1.00  0.00     0.338 C 
ATOM      4  O   UNL A   1      37.487  22.747  25.638  1.00  0.00    -0.246 OA
BRANCH   3   5
ATOM      5  C   UNL A   1      39.063  24.035  26.790  1.00  0.00     0.060 A 
ATOM      6  C   UNL A   1      38.919  24.403  28.134  1.00  0.00     0.016 A 
ATOM      7  C   UNL A   1      39.721  24.935  25.934  1.00  0.00     0.016 A 
ATOM      8  C   UNL A   1      39.513  25.569  28.639  1.00  0.00     0.010 A 
ATOM      9  C   UNL A   1      40.315  26.098  26.433  1.00  0.00     0.010 A 
ATOM     10  C   UNL A   1      40.240  26.411  27.798  1.00  0.00    -0.014 A 
BRANCH  10  11
ATOM     11  C   UNL A   1      40.815  27.682  28.295  1.00  0.00     0.031 A 
ATOM     12  C   UNL A   1      42.309  27.768  28.375  1.00  0.00     0.074 A 
ATOM     13  C   UNL A   1      40.041  28.712  28.695  1.00  0.00     0.049 A 
ATOM     14  N   UNL A   1      43.059  28.754  28.784  1.00  0.00    -0.248 NA
ATOM     15  C   UNL A   1      43.061  26.578  27.934  1.00  0.00     0.031 C 
ATOM     16  C   UNL A   1      38.580  28.757  28.634  1.00  0.00     0.029 A 
ATOM     17  N   UNL A   1      40.372  29.918  29.262  1.00  0.00    -0.354 N 
ATOM     18  C   UNL A   1      44.363  28.318  28.601  1.00  0.00     0.074 A 
ATOM     19  C   UNL A   1      44.307  26.939  28.179  1.00  0.00     0.031 C 
ATOM     20  C   UNL A   1      38.139  29.888  29.214  1.00  0.00     0.029 A 
ATOM     21  C   UNL A   1      39.286  30.673  29.648  1.00  0.00     0.049 A 
ATOM     22  H   UNL A   1      41.303  30.217  29.381  1.00  0.00     0.167 HD
ATOM     23  C   UNL A   1      45.507  29.030  28.697  1.00  0.00     0.037 A 
ATOM     24  C   UNL A   1      39.231  31.872  30.266  1.00  0.00     0.037 A 
ATOM     25  C   UNL A   1      45.548  30.397  29.124  1.00  0.00     0.049 A 
ATOM     26  C   UNL A   1      40.527  32.608  30.493  1.00  0.00     0.074 A 
ATOM     27  C   UNL A   1      46.641  31.231  29.249  1.00  0.00     0.029 A 
ATOM     28  N   UNL A   1      44.431  31.127  29.512  1.00  0.00    -0.354 N 
ATOM     29  N   UNL A   1      41.750  32.221  30.212  1.00  0.00    -0.248 NA
ATOM     30  C   UNL A   1      40.440  33.957  31.066  1.00  0.00     0.031 C 
ATOM     31  C   UNL A   1      46.190  32.454  29.756  1.00  0.00     0.029 A 
ATOM     32  C   UNL A   1      44.810  32.396  29.901  1.00  0.00     0.049 A 
ATOM     33  H   UNL A   1      43.507  30.788  29.509  1.00  0.00     0.167 HD
ATOM     34  C   UNL A   1      42.571  33.303  30.510  1.00  0.00     0.074 A 
ATOM     35  C   UNL A   1      41.705  34.354  31.007  1.00  0.00     0.031 C 
ATOM     36  C   UNL A   1      43.915  33.427  30.366  1.00  0.00     0.037 A 
BRANCH  23  37
ATOM     37  C   UNL A   1      46.766  28.319  28.300  1.00  0.00     0.058 A 
ATOM     38  C   UNL A   1      47.233  28.363  26.974  1.00  0.00     0.135 A 
ATOM     39  C   UNL A   1      47.461  27.519  29.216  1.00  0.00     0.135 A 
ATOM     40  F   UNL A   1      46.581  29.086  26.050  1.00  0.00    -0.206 F 
ATOM     41  C   UNL A   1      48.315  27.596  26.559  1.00  0.00     0.059 A 
ATOM     42  C   UNL A   1      48.566  26.765  28.829  1.00  0.00     0.059 A 
ATOM     43  F   UNL A   1      47.047  27.432  30.490  1.00  0.00    -0.206 F 
ATOM     44  C   UNL A   1      48.968  26.793  27.494  1.00  0.00     0.060 A 
BRANCH  44  45
ATOM     45  S   UNL A   1      50.342  25.768  26.930  1.00  0.00     0.124 S 
ATOM     46  O   UNL A   1      49.957  24.457  27.444  1.00  0.00    -0.237 OA
ATOM     47  O   UNL A   1      50.271  25.925  25.479  1.00  0.00    -0.237 OA
ATOM     48  O   UNL A   1      51.504  26.378  27.567  1.00  0.00    -0.744 OA
ENDBRANCH  44  45
ENDBRANCH  23  37
BRANCH  24  49
ATOM     49  C   UNL A   1      37.925  32.487  30.644  1.00  0.00     0.058 A 
ATOM     50  C   UNL A   1      37.243  33.344  29.764  1.00  0.00     0.135 A 
ATOM     51  C   UNL A   1      37.349  32.265  31.905  1.00  0.00     0.135 A 
ATOM     52  F   UNL A   1      37.749  33.592  28.547  1.00  0.00    -0.206 F 
ATOM     53  C   UNL A   1      36.062  33.984  30.131  1.00  0.00     0.059 A 
ATOM     54  C   UNL A   1      36.156  32.880  32.289  1.00  0.00     0.059 A 
ATOM     55  F   UNL A   1      37.950  31.447  32.783  1.00  0.00    -0.206 F 
ATOM     56  C   UNL A   1      35.528  33.751  31.399  1.00  0.00     0.060 A 
BRANCH  56  57
ATOM     57  S   UNL A   1      33.997  34.598  31.857  1.00  0.00     0.124 S 
ATOM     58  O   UNL A   1      33.293  34.647  30.581  1.00  0.00    -0.237 OA
ATOM     59  O   UNL A   1      33.439  33.694  32.858  1.00  0.00    -0.237 OA
ATOM     60  O   UNL A   1      34.461  35.884  32.369  1.00  0.00    -0.744 OA
ENDBRANCH  56  57
ENDBRANCH  24  49
BRANCH  36  61
ATOM     61  C   UNL A   1      44.526  34.757  30.695  1.00  0.00     0.058 A 
ATOM     62  C   UNL A   1      45.059  35.029  31.962  1.00  0.00     0.135 A 
ATOM     63  C   UNL A   1      44.664  35.732  29.693  1.00  0.00     0.135 A 
ATOM     64  F   UNL A   1      44.944  34.130  32.953  1.00  0.00    -0.206 F 
ATOM     65  C   UNL A   1      45.705  36.231  32.229  1.00  0.00     0.059 A 
ATOM     66  C   UNL A   1      45.332  36.926  29.931  1.00  0.00     0.059 A 
ATOM     67  F   UNL A   1      44.179  35.511  28.461  1.00  0.00    -0.206 F 
ATOM     68  C   UNL A   1      45.844  37.168  31.204  1.00  0.00     0.060 A 
BRANCH  68  69
ATOM     69  S   UNL A   1      46.750  38.691  31.544  1.00  0.00     0.124 S 
ATOM     70  O   UNL A   1      47.752  38.679  30.484  1.00  0.00    -0.237 OA
ATOM     71  O   UNL A   1      45.709  39.707  31.423  1.00  0.00    -0.237 OA
ATOM     72  O   UNL A   1      47.262  38.487  32.897  1.00  0.00    -0.744 OA
ENDBRANCH  68  69
ENDBRANCH  36  61
ENDBRANCH  10  11
ENDBRANCH   3   5
ENDBRANCH   2   3
ENDBRANCH   1   2
BRANCH   1  73
ATOM     73  C   UNL A   1      41.191  19.961  26.349  1.00  0.00     0.274 C 
BRANCH  73  74
ATOM     74  O   UNL A   1      42.593  20.083  26.646  1.00  0.00    -0.457 OA
BRANCH  74  75
ATOM     75  C   UNL A   1      43.392  20.441  25.581  1.00  0.00     0.368 C 
ATOM     76  O   UNL A   1      43.671  19.641  24.686  1.00  0.00    -0.245 OA
BRANCH  75  77
ATOM     77  C   UNL A   1      43.918  21.966  25.667  1.00  0.00     0.196 C 
ATOM     78  C   UNL A   1      43.413  22.800  24.442  1.00  0.00     0.081 C 
ATOM     79  C   UNL A   1      43.202  22.986  26.568  1.00  0.00     0.081 C 
ATOM     80  C   UNL A   1      43.034  23.950  25.383  1.00  0.00     0.014 C 
BRANCH  77  81
ATOM     81  N   UNL A   1      45.399  22.038  25.848  1.00  0.00    -0.317 N 
ATOM     82  C   UNL A   1      45.804  22.953  26.940  1.00  0.00     0.292 C 
ATOM     83  C   UNL A   1      46.284  22.210  24.684  1.00  0.00     0.292 C 
ATOM     84  H   UNL A   1      45.564  21.063  26.097  1.00  0.00     0.349 HD
ATOM     85  C   UNL A   1      46.212  24.376  26.516  1.00  0.00     0.221 C 
ATOM     86  C   UNL A   1      46.657  23.658  24.320  1.00  0.00     0.221 C 
ATOM     87  O   UNL A   1      47.169  24.354  25.458  1.00  0.00    -0.370 OA
ENDBRANCH  77  81
ENDBRANCH  75  77
ENDBRANCH  74  75
ENDBRANCH  73  74
ENDBRANCH   1  73
TORSDOF 15
ENDMDL
MODEL 3
REMARK VINA RESULT:      -9.6      3.549     11.282
REMARK SMILES O=C(OCCOC(=O)C1([NH+]2CCOCC2)CCC1)c1ccc(-c2c3nc(c(-c4c(F)cc(S(=O)(=O)[O-])cc4F)c4ccc([nH]4)c(-c4c(F)cc(S(=O)(=O)[O-])cc4F)c4nc(c(-c5c(F)cc(S(=O)(=O)[O-])cc5F)c5ccc2[nH]5)C=C4)C=C3)cc1
REMARK SMILES IDX 4 1 3 2 2 3 1 4 19 5 20 6 84 7 21 8 83 9 22 10 23 11 24 12
REMARK SMILES IDX 77 13 25 14 82 15 76 16 78 17 26 18 81 19 75 20 74 21 27 23
REMARK SMILES IDX 61 24 40 25 60 26 41 27 44 28 59 29 79 30 42 31 43 32 58 34
REMARK SMILES IDX 80 35 45 36 28 37 29 38 38 39 30 40 31 41 37 42 39 43 32 44
REMARK SMILES IDX 33 45 34 46 35 47 36 48 62 49 63 50 72 51 64 52 65 53 71 54
REMARK SMILES IDX 73 55 66 56 67 57 68 58 69 59 70 60 46 61 47 62 56 63 48 64
REMARK SMILES IDX 49 65 55 66 57 67 50 68 51 69 52 70 53 71 54 72 5 73 6 74
REMARK SMILES IDX 7 75 8 76 9 77 16 78 18 79 17 80 10 81 11 82 15 83 12 85
REMARK SMILES IDX 14 86 13 87
REMARK H PARENT 78 22 44 33 10 84
REMARK Flexibility Score: inf
ROOT
ATOM      1  C   UNL A   1      39.791  23.071  26.646  1.00  0.00     0.275 C 
ENDROOT
BRANCH   1   2
ATOM      2  O   UNL A   1      40.859  23.977  26.335  1.00  0.00    -0.458 OA
BRANCH   2   3
ATOM      3  C   UNL A   1      40.855  25.328  26.277  1.00  0.00     0.338 C 
ATOM      4  O   UNL A   1      41.149  25.868  25.211  1.00  0.00    -0.246 OA
BRANCH   3   5
ATOM      5  C   UNL A   1      40.653  26.212  27.471  1.00  0.00     0.060 A 
ATOM      6  C   UNL A   1      39.636  26.109  28.429  1.00  0.00     0.016 A 
ATOM      7  C   UNL A   1      41.604  27.233  27.637  1.00  0.00     0.016 A 
ATOM      8  C   UNL A   1      39.632  26.913  29.578  1.00  0.00     0.010 A 
ATOM      9  C   UNL A   1      41.605  28.036  28.781  1.00  0.00     0.010 A 
ATOM     10  C   UNL A   1      40.633  27.863  29.777  1.00  0.00    -0.014 A 
BRANCH  10  11
ATOM     11  C   UNL A   1      40.607  28.769  30.948  1.00  0.00     0.031 A 
ATOM     12  C   UNL A   1      39.665  29.933  30.888  1.00  0.00     0.074 A 
ATOM     13  C   UNL A   1      41.416  28.589  32.014  1.00  0.00     0.049 A 
ATOM     14  N   UNL A   1      39.458  30.875  31.766  1.00  0.00    -0.248 NA
ATOM     15  C   UNL A   1      38.842  30.050  29.669  1.00  0.00     0.031 C 
ATOM     16  C   UNL A   1      42.349  27.477  32.200  1.00  0.00     0.029 A 
ATOM     17  N   UNL A   1      41.605  29.355  33.138  1.00  0.00    -0.354 N 
ATOM     18  C   UNL A   1      38.452  31.662  31.225  1.00  0.00     0.074 A 
ATOM     19  C   UNL A   1      38.186  31.174  29.892  1.00  0.00     0.031 C 
ATOM     20  C   UNL A   1      43.066  27.674  33.320  1.00  0.00     0.029 A 
ATOM     21  C   UNL A   1      42.614  28.902  33.960  1.00  0.00     0.049 A 
ATOM     22  H   UNL A   1      41.068  30.155  33.338  1.00  0.00     0.167 HD
ATOM     23  C   UNL A   1      37.752  32.652  31.817  1.00  0.00     0.037 A 
ATOM     24  C   UNL A   1      43.101  29.415  35.109  1.00  0.00     0.037 A 
ATOM     25  C   UNL A   1      38.030  33.131  33.138  1.00  0.00     0.049 A 
ATOM     26  C   UNL A   1      42.395  30.610  35.701  1.00  0.00     0.074 A 
ATOM     27  C   UNL A   1      37.384  34.118  33.855  1.00  0.00     0.029 A 
ATOM     28  N   UNL A   1      39.061  32.654  33.939  1.00  0.00    -0.354 N 
ATOM     29  N   UNL A   1      41.370  31.277  35.224  1.00  0.00    -0.248 NA
ATOM     30  C   UNL A   1      42.869  31.089  37.007  1.00  0.00     0.031 C 
ATOM     31  C   UNL A   1      38.054  34.270  35.073  1.00  0.00     0.029 A 
ATOM     32  C   UNL A   1      39.087  33.344  35.134  1.00  0.00     0.049 A 
ATOM     33  H   UNL A   1      39.682  31.931  33.690  1.00  0.00     0.167 HD
ATOM     34  C   UNL A   1      41.033  32.209  36.199  1.00  0.00     0.074 A 
ATOM     35  C   UNL A   1      41.975  32.028  37.286  1.00  0.00     0.031 C 
ATOM     36  C   UNL A   1      40.025  33.117  36.207  1.00  0.00     0.037 A 
BRANCH  23  37
ATOM     37  C   UNL A   1      36.619  33.230  31.023  1.00  0.00     0.058 A 
ATOM     38  C   UNL A   1      36.863  34.100  29.944  1.00  0.00     0.135 A 
ATOM     39  C   UNL A   1      35.288  32.992  31.387  1.00  0.00     0.135 A 
ATOM     40  F   UNL A   1      38.122  34.389  29.579  1.00  0.00    -0.206 F 
ATOM     41  C   UNL A   1      35.827  34.755  29.290  1.00  0.00     0.059 A 
ATOM     42  C   UNL A   1      34.232  33.614  30.726  1.00  0.00     0.059 A 
ATOM     43  F   UNL A   1      35.003  32.181  32.418  1.00  0.00    -0.206 F 
ATOM     44  C   UNL A   1      34.515  34.511  29.696  1.00  0.00     0.060 A 
BRANCH  44  45
ATOM     45  S   UNL A   1      33.183  35.403  28.867  1.00  0.00     0.124 S 
ATOM     46  O   UNL A   1      32.433  35.928  30.005  1.00  0.00    -0.237 OA
ATOM     47  O   UNL A   1      33.915  36.393  28.081  1.00  0.00    -0.237 OA
ATOM     48  O   UNL A   1      32.510  34.366  28.094  1.00  0.00    -0.744 OA
ENDBRANCH  44  45
ENDBRANCH  23  37
BRANCH  24  49
ATOM     49  C   UNL A   1      44.251  28.780  35.814  1.00  0.00     0.058 A 
ATOM     50  C   UNL A   1      44.051  27.769  36.769  1.00  0.00     0.135 A 
ATOM     51  C   UNL A   1      45.573  29.193  35.579  1.00  0.00     0.135 A 
ATOM     52  F   UNL A   1      42.809  27.337  37.034  1.00  0.00    -0.206 F 
ATOM     53  C   UNL A   1      45.109  27.219  37.489  1.00  0.00     0.059 A 
ATOM     54  C   UNL A   1      46.652  28.643  36.274  1.00  0.00     0.059 A 
ATOM     55  F   UNL A   1      45.826  30.147  34.670  1.00  0.00    -0.206 F 
ATOM     56  C   UNL A   1      46.407  27.666  37.238  1.00  0.00     0.060 A 
BRANCH  56  57
ATOM     57  S   UNL A   1      47.764  26.943  38.190  1.00  0.00     0.124 S 
ATOM     58  O   UNL A   1      47.401  27.312  39.553  1.00  0.00    -0.237 OA
ATOM     59  O   UNL A   1      47.643  25.525  37.860  1.00  0.00    -0.237 OA
ATOM     60  O   UNL A   1      48.948  27.607  37.653  1.00  0.00    -0.744 OA
ENDBRANCH  56  57
ENDBRANCH  24  49
BRANCH  36  61
ATOM     61  C   UNL A   1      39.849  33.946  37.446  1.00  0.00     0.058 A 
ATOM     62  C   UNL A   1      40.437  35.211  37.575  1.00  0.00     0.135 A 
ATOM     63  C   UNL A   1      39.000  33.501  38.472  1.00  0.00     0.135 A 
ATOM     64  F   UNL A   1      41.263  35.675  36.623  1.00  0.00    -0.206 F 
ATOM     65  C   UNL A   1      40.194  36.008  38.687  1.00  0.00     0.059 A 
ATOM     66  C   UNL A   1      38.720  34.294  39.577  1.00  0.00     0.059 A 
ATOM     67  F   UNL A   1      38.406  32.300  38.387  1.00  0.00    -0.206 F 
ATOM     68  C   UNL A   1      39.327  35.544  39.677  1.00  0.00     0.060 A 
BRANCH  68  69
ATOM     69  S   UNL A   1      38.962  36.621  41.078  1.00  0.00     0.124 S 
ATOM     70  O   UNL A   1      37.997  35.818  41.822  1.00  0.00    -0.237 OA
ATOM     71  O   UNL A   1      40.272  36.778  41.701  1.00  0.00    -0.237 OA
ATOM     72  O   UNL A   1      38.426  37.826  40.450  1.00  0.00    -0.744 OA
ENDBRANCH  68  69
ENDBRANCH  36  61
ENDBRANCH  10  11
ENDBRANCH   3   5
ENDBRANCH   2   3
ENDBRANCH   1   2
BRANCH   1  73
ATOM     73  C   UNL A   1      40.080  21.596  26.347  1.00  0.00     0.274 C 
BRANCH  73  74
ATOM     74  O   UNL A   1      41.280  21.353  25.593  1.00  0.00    -0.457 OA
BRANCH  74  75
ATOM     75  C   UNL A   1      42.437  21.260  26.338  1.00  0.00     0.368 C 
ATOM     76  O   UNL A   1      42.411  20.968  27.534  1.00  0.00    -0.245 OA
BRANCH  75  77
ATOM     77  C   UNL A   1      43.769  21.596  25.487  1.00  0.00     0.196 C 
ATOM     78  C   UNL A   1      43.590  22.920  24.671  1.00  0.00     0.081 C 
ATOM     79  C   UNL A   1      44.977  22.260  26.167  1.00  0.00     0.081 C 
ATOM     80  C   UNL A   1      44.984  23.379  25.114  1.00  0.00     0.014 C 
BRANCH  77  81
ATOM     81  N   UNL A   1      44.198  20.443  24.640  1.00  0.00    -0.317 N 
ATOM     82  C   UNL A   1      43.530  19.174  25.009  1.00  0.00     0.292 C 
ATOM     83  C   UNL A   1      45.626  20.209  24.371  1.00  0.00     0.292 C 
ATOM     84  H   UNL A   1      43.868  20.792  23.740  1.00  0.00     0.349 HD
ATOM     85  C   UNL A   1      44.321  18.238  25.940  1.00  0.00     0.221 C 
ATOM     86  C   UNL A   1      46.354  19.257  25.337  1.00  0.00     0.221 C 
ATOM     87  O   UNL A   1      45.649  18.021  25.463  1.00  0.00    -0.370 OA
ENDBRANCH  77  81
ENDBRANCH  75  77
ENDBRANCH  74  75
ENDBRANCH  73  74
ENDBRANCH   1  73
TORSDOF 15
ENDMDL
