MODEL 1
REMARK VINA RESULT:     -10.2      0.000      0.000
REMARK SMILES CCC[C@H](CCCc1c(O)nc(N)[nH]c1=O)C(=O)OCCOC(=O)c1ccc(-c2c3nc(c(-c4c(F)cc(S(=O)(=O)[O-])cc4F)c4ccc([nH]4)c(-c4c(F)cc(S(=O)(=O)[O-])cc4F)c4nc(c(-c5c(F)cc(S(=O)(=O)[O-])cc5F)c5ccc2[nH]5)C=C4)C=C3)cc1
REMARK SMILES IDX 20 1 19 2 17 3 18 4 4 5 3 6 2 7 1 8 5 9 6 10 7 11 8 12 9 13
REMARK SMILES IDX 15 14 11 15 14 16 16 17 12 18 10 20 13 22 21 25 22 26 23 27
REMARK SMILES IDX 24 28 25 29 26 30 90 31 27 32 89 33 28 34 29 35 30 36 83 37
REMARK SMILES IDX 31 38 88 39 82 40 84 41 32 42 87 43 81 44 80 45 33 47 67 48
REMARK SMILES IDX 46 49 66 50 47 51 50 52 65 53 85 54 48 55 49 56 64 58 86 59
REMARK SMILES IDX 51 60 34 61 35 62 44 63 36 64 37 65 43 66 45 67 38 68 39 69
REMARK SMILES IDX 40 70 41 71 42 72 68 73 69 74 78 75 70 76 71 77 77 78 79 79
REMARK SMILES IDX 72 80 73 81 74 82 75 83 76 84 52 85 53 86 62 87 54 88 55 89
REMARK SMILES IDX 61 90 63 91 56 92 57 93 58 94 59 95 60 96
REMARK H PARENT 14 19 10 21 13 23 13 24 84 46 50 57
REMARK Flexibility Score: inf
ROOT
ATOM      1  C   UNL A   1      31.837  28.033  26.430  1.00  0.00     0.274 C 
ENDROOT
BRANCH   1   2
ATOM      2  O   UNL A   1      31.393  26.743  26.892  1.00  0.00    -0.462 OA
BRANCH   2   3
ATOM      3  C   UNL A   1      31.842  25.663  26.199  1.00  0.00     0.309 C 
ATOM      4  O   UNL A   1      33.023  25.415  25.985  1.00  0.00    -0.252 OA
BRANCH   3   5
ATOM      5  C   UNL A   1      30.712  24.804  25.648  1.00  0.00     0.099 C 
BRANCH   5   6
ATOM      6  C   UNL A   1      30.588  23.464  26.399  1.00  0.00     0.015 C 
BRANCH   6   7
ATOM      7  C   UNL A   1      31.187  22.220  25.733  1.00  0.00    -0.003 C 
ATOM      8  C   UNL A   1      32.621  21.921  26.165  1.00  0.00     0.004 C 
ENDBRANCH   6   7
ENDBRANCH   5   6
BRANCH   5   9
ATOM      9  C   UNL A   1      30.755  24.689  24.111  1.00  0.00     0.015 C 
BRANCH   9  10
ATOM     10  C   UNL A   1      29.789  25.587  23.318  1.00  0.00     0.006 C 
BRANCH  10  11
ATOM     11  C   UNL A   1      29.418  26.962  23.904  1.00  0.00     0.047 C 
BRANCH  11  12
ATOM     12  C   UNL A   1      29.320  28.220  23.070  1.00  0.00     0.079 A 
ATOM     13  C   UNL A   1      28.139  28.761  22.694  1.00  0.00     0.222 A 
ATOM     14  C   UNL A   1      30.517  28.930  22.556  1.00  0.00     0.259 A 
ATOM     15  N   UNL A   1      28.001  29.912  21.975  1.00  0.00    -0.179 NA
ATOM     16  N   UNL A   1      30.299  30.154  21.996  1.00  0.00    -0.292 N 
ATOM     17  O   UNL A   1      31.640  28.436  22.565  1.00  0.00    -0.269 OA
ATOM     18  C   UNL A   1      29.057  30.585  21.668  1.00  0.00     0.203 A 
ATOM     19  H   UNL A   1      31.068  30.743  21.825  1.00  0.00     0.173 HD
BRANCH  13  20
ATOM     20  O   UNL A   1      26.930  28.181  23.018  1.00  0.00    -0.493 OA
ATOM     21  H   UNL A   1      26.131  28.647  22.864  1.00  0.00     0.295 HD
ENDBRANCH  13  20
BRANCH  18  22
ATOM     22  N   UNL A   1      28.955  31.743  20.984  1.00  0.00    -0.369 N 
ATOM     23  H   UNL A   1      29.083  32.602  21.448  1.00  0.00     0.159 HD
ATOM     24  H   UNL A   1      28.752  31.730  20.021  1.00  0.00     0.159 HD
ENDBRANCH  18  22
ENDBRANCH  11  12
ENDBRANCH  10  11
ENDBRANCH   9  10
ENDBRANCH   5   9
ENDBRANCH   3   5
ENDBRANCH   2   3
ENDBRANCH   1   2
BRANCH   1  25
ATOM     25  C   UNL A   1      32.398  28.891  27.569  1.00  0.00     0.275 C 
BRANCH  25  26
ATOM     26  O   UNL A   1      33.835  28.895  27.559  1.00  0.00    -0.458 OA
BRANCH  26  27
ATOM     27  C   UNL A   1      34.414  30.079  27.862  1.00  0.00     0.338 C 
ATOM     28  O   UNL A   1      33.865  31.165  27.981  1.00  0.00    -0.246 OA
BRANCH  27  29
ATOM     29  C   UNL A   1      35.826  29.860  28.194  1.00  0.00     0.060 A 
ATOM     30  C   UNL A   1      36.766  30.044  27.176  1.00  0.00     0.016 A 
ATOM     31  C   UNL A   1      36.223  29.433  29.462  1.00  0.00     0.016 A 
ATOM     32  C   UNL A   1      38.114  29.827  27.423  1.00  0.00     0.010 A 
ATOM     33  C   UNL A   1      37.578  29.191  29.705  1.00  0.00     0.010 A 
ATOM     34  C   UNL A   1      38.526  29.385  28.685  1.00  0.00    -0.014 A 
BRANCH  34  35
ATOM     35  C   UNL A   1      39.947  29.026  28.875  1.00  0.00     0.031 A 
ATOM     36  C   UNL A   1      40.862  30.013  29.535  1.00  0.00     0.074 A 
ATOM     37  C   UNL A   1      40.380  27.797  28.543  1.00  0.00     0.049 A 
ATOM     38  N   UNL A   1      42.132  29.900  29.820  1.00  0.00    -0.248 NA
ATOM     39  C   UNL A   1      40.266  31.301  29.927  1.00  0.00     0.031 C 
ATOM     40  C   UNL A   1      39.550  26.741  27.963  1.00  0.00     0.029 A 
ATOM     41  N   UNL A   1      41.618  27.221  28.669  1.00  0.00    -0.354 N 
ATOM     42  C   UNL A   1      42.487  31.093  30.436  1.00  0.00     0.074 A 
ATOM     43  C   UNL A   1      41.311  31.935  30.440  1.00  0.00     0.031 C 
ATOM     44  C   UNL A   1      40.298  25.637  27.802  1.00  0.00     0.029 A 
ATOM     45  C   UNL A   1      41.665  25.917  28.238  1.00  0.00     0.049 A 
ATOM     46  H   UNL A   1      42.399  27.697  29.033  1.00  0.00     0.167 HD
ATOM     47  C   UNL A   1      43.681  31.442  30.966  1.00  0.00     0.037 A 
ATOM     48  C   UNL A   1      42.698  25.053  28.198  1.00  0.00     0.037 A 
ATOM     49  C   UNL A   1      44.841  30.592  30.960  1.00  0.00     0.049 A 
ATOM     50  C   UNL A   1      44.044  25.503  28.698  1.00  0.00     0.074 A 
ATOM     51  C   UNL A   1      46.105  30.856  31.455  1.00  0.00     0.029 A 
ATOM     52  N   UNL A   1      44.876  29.308  30.432  1.00  0.00    -0.354 N 
ATOM     53  N   UNL A   1      44.375  26.641  29.261  1.00  0.00    -0.248 NA
ATOM     54  C   UNL A   1      45.162  24.560  28.547  1.00  0.00     0.031 C 
ATOM     55  C   UNL A   1      46.915  29.747  31.189  1.00  0.00     0.029 A 
ATOM     56  C   UNL A   1      46.147  28.777  30.564  1.00  0.00     0.049 A 
ATOM     57  H   UNL A   1      44.108  28.845  30.024  1.00  0.00     0.167 HD
ATOM     58  C   UNL A   1      45.733  26.550  29.541  1.00  0.00     0.074 A 
ATOM     59  C   UNL A   1      46.163  25.239  29.096  1.00  0.00     0.031 C 
ATOM     60  C   UNL A   1      46.552  27.469  30.110  1.00  0.00     0.037 A 
BRANCH  47  61
ATOM     61  C   UNL A   1      43.789  32.810  31.577  1.00  0.00     0.058 A 
ATOM     62  C   UNL A   1      44.175  33.926  30.817  1.00  0.00     0.135 A 
ATOM     63  C   UNL A   1      43.504  33.009  32.937  1.00  0.00     0.135 A 
ATOM     64  F   UNL A   1      44.480  33.786  29.517  1.00  0.00    -0.206 F 
ATOM     65  C   UNL A   1      44.308  35.184  31.390  1.00  0.00     0.059 A 
ATOM     66  C   UNL A   1      43.609  34.266  33.528  1.00  0.00     0.059 A 
ATOM     67  F   UNL A   1      43.135  31.976  33.709  1.00  0.00    -0.206 F 
ATOM     68  C   UNL A   1      44.029  35.343  32.749  1.00  0.00     0.060 A 
BRANCH  68  69
ATOM     69  S   UNL A   1      44.251  36.975  33.487  1.00  0.00     0.124 S 
ATOM     70  O   UNL A   1      43.965  37.847  32.351  1.00  0.00    -0.237 OA
ATOM     71  O   UNL A   1      43.253  36.975  34.552  1.00  0.00    -0.237 OA
ATOM     72  O   UNL A   1      45.641  36.962  33.932  1.00  0.00    -0.744 OA
ENDBRANCH  68  69
ENDBRANCH  47  61
BRANCH  48  73
ATOM     73  C   UNL A   1      42.493  23.679  27.668  1.00  0.00     0.058 A 
ATOM     74  C   UNL A   1      42.441  23.438  26.288  1.00  0.00     0.135 A 
ATOM     75  C   UNL A   1      42.379  22.576  28.529  1.00  0.00     0.135 A 
ATOM     76  F   UNL A   1      42.532  24.462  25.424  1.00  0.00    -0.206 F 
ATOM     77  C   UNL A   1      42.289  22.152  25.778  1.00  0.00     0.059 A 
ATOM     78  C   UNL A   1      42.248  21.278  28.042  1.00  0.00     0.059 A 
ATOM     79  F   UNL A   1      42.428  22.752  29.858  1.00  0.00    -0.206 F 
ATOM     80  C   UNL A   1      42.201  21.077  26.664  1.00  0.00     0.060 A 
BRANCH  80  81
ATOM     81  S   UNL A   1      42.071  19.406  25.988  1.00  0.00     0.124 S 
ATOM     82  O   UNL A   1      42.502  18.596  27.122  1.00  0.00    -0.237 OA
ATOM     83  O   UNL A   1      40.655  19.325  25.647  1.00  0.00    -0.237 OA
ATOM     84  O   UNL A   1      42.983  19.432  24.848  1.00  0.00    -0.744 OA
ENDBRANCH  80  81
ENDBRANCH  48  73
BRANCH  60  85
ATOM     85  C   UNL A   1      47.999  27.106  30.284  1.00  0.00     0.058 A 
ATOM     86  C   UNL A   1      48.965  27.520  29.356  1.00  0.00     0.135 A 
ATOM     87  C   UNL A   1      48.436  26.444  31.443  1.00  0.00     0.135 A 
ATOM     88  F   UNL A   1      48.595  28.148  28.229  1.00  0.00    -0.206 F 
ATOM     89  C   UNL A   1      50.320  27.300  29.576  1.00  0.00     0.059 A 
ATOM     90  C   UNL A   1      49.787  26.231  31.693  1.00  0.00     0.059 A 
ATOM     91  F   UNL A   1      47.548  26.035  32.363  1.00  0.00    -0.206 F 
ATOM     92  C   UNL A   1      50.723  26.666  30.754  1.00  0.00     0.060 A 
BRANCH  92  93
ATOM     93  S   UNL A   1      52.491  26.470  31.065  1.00  0.00     0.124 S 
ATOM     94  O   UNL A   1      53.001  26.213  29.722  1.00  0.00    -0.237 OA
ATOM     95  O   UNL A   1      52.851  27.762  31.642  1.00  0.00    -0.237 OA
ATOM     96  O   UNL A   1      52.551  25.340  31.987  1.00  0.00    -0.744 OA
ENDBRANCH  92  93
ENDBRANCH  60  85
ENDBRANCH  34  35
ENDBRANCH  27  29
ENDBRANCH  26  27
ENDBRANCH  25  26
ENDBRANCH   1  25
TORSDOF 22
ENDMDL
MODEL 2
REMARK VINA RESULT:     -10.1      3.222      4.463
REMARK SMILES CCC[C@H](CCCc1c(O)nc(N)[nH]c1=O)C(=O)OCCOC(=O)c1ccc(-c2c3nc(c(-c4c(F)cc(S(=O)(=O)[O-])cc4F)c4ccc([nH]4)c(-c4c(F)cc(S(=O)(=O)[O-])cc4F)c4nc(c(-c5c(F)cc(S(=O)(=O)[O-])cc5F)c5ccc2[nH]5)C=C4)C=C3)cc1
REMARK SMILES IDX 20 1 19 2 17 3 18 4 4 5 3 6 2 7 1 8 5 9 6 10 7 11 8 12 9 13
REMARK SMILES IDX 15 14 11 15 14 16 16 17 12 18 10 20 13 22 21 25 22 26 23 27
REMARK SMILES IDX 24 28 25 29 26 30 90 31 27 32 89 33 28 34 29 35 30 36 83 37
REMARK SMILES IDX 31 38 88 39 82 40 84 41 32 42 87 43 81 44 80 45 33 47 67 48
REMARK SMILES IDX 46 49 66 50 47 51 50 52 65 53 85 54 48 55 49 56 64 58 86 59
REMARK SMILES IDX 51 60 34 61 35 62 44 63 36 64 37 65 43 66 45 67 38 68 39 69
REMARK SMILES IDX 40 70 41 71 42 72 68 73 69 74 78 75 70 76 71 77 77 78 79 79
REMARK SMILES IDX 72 80 73 81 74 82 75 83 76 84 52 85 53 86 62 87 54 88 55 89
REMARK SMILES IDX 61 90 63 91 56 92 57 93 58 94 59 95 60 96
REMARK H PARENT 14 19 10 21 13 23 13 24 84 46 50 57
REMARK Flexibility Score: inf
ROOT
ATOM      1  C   UNL A   1      33.650  30.075  26.846  1.00  0.00     0.274 C 
ENDROOT
BRANCH   1   2
ATOM      2  O   UNL A   1      32.279  29.794  27.185  1.00  0.00    -0.462 OA
BRANCH   2   3
ATOM      3  C   UNL A   1      31.882  28.498  27.085  1.00  0.00     0.309 C 
ATOM      4  O   UNL A   1      31.423  27.838  28.010  1.00  0.00    -0.252 OA
BRANCH   3   5
ATOM      5  C   UNL A   1      32.125  27.911  25.701  1.00  0.00     0.099 C 
BRANCH   5   6
ATOM      6  C   UNL A   1      31.118  28.444  24.664  1.00  0.00     0.015 C 
BRANCH   6   7
ATOM      7  C   UNL A   1      30.363  27.414  23.815  1.00  0.00    -0.003 C 
ATOM      8  C   UNL A   1      30.857  27.324  22.373  1.00  0.00     0.004 C 
ENDBRANCH   6   7
ENDBRANCH   5   6
BRANCH   5   9
ATOM      9  C   UNL A   1      32.282  26.378  25.731  1.00  0.00     0.015 C 
BRANCH   9  10
ATOM     10  C   UNL A   1      33.707  25.826  25.918  1.00  0.00     0.006 C 
BRANCH  10  11
ATOM     11  C   UNL A   1      34.388  25.138  24.720  1.00  0.00     0.047 C 
BRANCH  11  12
ATOM     12  C   UNL A   1      33.722  24.059  23.896  1.00  0.00     0.079 A 
ATOM     13  C   UNL A   1      33.508  22.807  24.360  1.00  0.00     0.222 A 
ATOM     14  C   UNL A   1      33.296  24.279  22.492  1.00  0.00     0.259 A 
ATOM     15  N   UNL A   1      32.879  21.814  23.668  1.00  0.00    -0.179 NA
ATOM     16  N   UNL A   1      32.529  23.300  21.934  1.00  0.00    -0.292 N 
ATOM     17  O   UNL A   1      33.654  25.248  21.831  1.00  0.00    -0.269 OA
ATOM     18  C   UNL A   1      32.390  22.080  22.505  1.00  0.00     0.203 A 
ATOM     19  H   UNL A   1      32.061  23.486  21.088  1.00  0.00     0.173 HD
BRANCH  13  20
ATOM     20  O   UNL A   1      33.917  22.411  25.617  1.00  0.00    -0.493 OA
ATOM     21  H   UNL A   1      33.312  21.990  26.195  1.00  0.00     0.295 HD
ENDBRANCH  13  20
BRANCH  18  22
ATOM     22  N   UNL A   1      31.735  21.130  21.806  1.00  0.00    -0.369 N 
ATOM     23  H   UNL A   1      30.818  20.876  22.059  1.00  0.00     0.159 HD
ATOM     24  H   UNL A   1      32.175  20.690  21.042  1.00  0.00     0.159 HD
ENDBRANCH  18  22
ENDBRANCH  11  12
ENDBRANCH  10  11
ENDBRANCH   9  10
ENDBRANCH   5   9
ENDBRANCH   3   5
ENDBRANCH   2   3
ENDBRANCH   1   2
BRANCH   1  25
ATOM     25  C   UNL A   1      34.444  30.603  28.045  1.00  0.00     0.275 C 
BRANCH  25  26
ATOM     26  O   UNL A   1      35.603  29.792  28.301  1.00  0.00    -0.458 OA
BRANCH  26  27
ATOM     27  C   UNL A   1      36.343  30.159  29.371  1.00  0.00     0.338 C 
ATOM     28  O   UNL A   1      35.937  30.542  30.459  1.00  0.00    -0.246 OA
BRANCH  27  29
ATOM     29  C   UNL A   1      37.759  29.884  29.101  1.00  0.00     0.060 A 
ATOM     30  C   UNL A   1      38.143  29.721  27.767  1.00  0.00     0.016 A 
ATOM     31  C   UNL A   1      38.686  29.737  30.134  1.00  0.00     0.016 A 
ATOM     32  C   UNL A   1      39.463  29.435  27.451  1.00  0.00     0.010 A 
ATOM     33  C   UNL A   1      40.011  29.425  29.818  1.00  0.00     0.010 A 
ATOM     34  C   UNL A   1      40.402  29.270  28.476  1.00  0.00    -0.014 A 
BRANCH  34  35
ATOM     35  C   UNL A   1      41.764  28.825  28.117  1.00  0.00     0.031 A 
ATOM     36  C   UNL A   1      42.893  29.808  28.197  1.00  0.00     0.074 A 
ATOM     37  C   UNL A   1      41.993  27.535  27.815  1.00  0.00     0.049 A 
ATOM     38  N   UNL A   1      44.164  29.629  27.950  1.00  0.00    -0.248 NA
ATOM     39  C   UNL A   1      42.544  31.177  28.611  1.00  0.00     0.031 C 
ATOM     40  C   UNL A   1      40.972  26.486  27.781  1.00  0.00     0.029 A 
ATOM     41  N   UNL A   1      43.157  26.881  27.503  1.00  0.00    -0.354 N 
ATOM     42  C   UNL A   1      44.769  30.856  28.191  1.00  0.00     0.074 A 
ATOM     43  C   UNL A   1      43.721  31.783  28.556  1.00  0.00     0.031 C 
ATOM     44  C   UNL A   1      41.561  25.315  27.487  1.00  0.00     0.029 A 
ATOM     45  C   UNL A   1      42.991  25.536  27.280  1.00  0.00     0.049 A 
ATOM     46  H   UNL A   1      44.029  27.334  27.444  1.00  0.00     0.167 HD
ATOM     47  C   UNL A   1      46.084  31.171  28.130  1.00  0.00     0.037 A 
ATOM     48  C   UNL A   1      43.894  24.593  26.944  1.00  0.00     0.037 A 
ATOM     49  C   UNL A   1      47.116  30.237  27.770  1.00  0.00     0.049 A 
ATOM     50  C   UNL A   1      45.336  24.992  26.780  1.00  0.00     0.074 A 
ATOM     51  C   UNL A   1      48.477  30.456  27.662  1.00  0.00     0.029 A 
ATOM     52  N   UNL A   1      46.899  28.900  27.462  1.00  0.00    -0.354 N 
ATOM     53  N   UNL A   1      45.896  26.160  26.990  1.00  0.00    -0.248 NA
ATOM     54  C   UNL A   1      46.269  23.953  26.320  1.00  0.00     0.031 C 
ATOM     55  C   UNL A   1      49.078  29.263  27.247  1.00  0.00     0.029 A 
ATOM     56  C   UNL A   1      48.097  28.289  27.136  1.00  0.00     0.049 A 
ATOM     57  H   UNL A   1      46.021  28.454  27.475  1.00  0.00     0.167 HD
ATOM     58  C   UNL A   1      47.246  25.995  26.699  1.00  0.00     0.074 A 
ATOM     59  C   UNL A   1      47.422  24.611  26.309  1.00  0.00     0.031 C 
ATOM     60  C   UNL A   1      48.247  26.908  26.747  1.00  0.00     0.037 A 
BRANCH  47  61
ATOM     61  C   UNL A   1      46.466  32.589  28.442  1.00  0.00     0.058 A 
ATOM     62  C   UNL A   1      46.796  32.991  29.746  1.00  0.00     0.135 A 
ATOM     63  C   UNL A   1      46.503  33.558  27.427  1.00  0.00     0.135 A 
ATOM     64  F   UNL A   1      46.755  32.109  30.756  1.00  0.00    -0.206 F 
ATOM     65  C   UNL A   1      47.117  34.311  30.039  1.00  0.00     0.059 A 
ATOM     66  C   UNL A   1      46.843  34.881  27.694  1.00  0.00     0.059 A 
ATOM     67  F   UNL A   1      46.192  33.227  26.164  1.00  0.00    -0.206 F 
ATOM     68  C   UNL A   1      47.131  35.251  29.007  1.00  0.00     0.060 A 
BRANCH  68  69
ATOM     69  S   UNL A   1      47.503  36.969  29.414  1.00  0.00     0.124 S 
ATOM     70  O   UNL A   1      48.423  36.806  30.538  1.00  0.00    -0.237 OA
ATOM     71  O   UNL A   1      48.099  37.461  28.176  1.00  0.00    -0.237 OA
ATOM     72  O   UNL A   1      46.200  37.532  29.748  1.00  0.00    -0.744 OA
ENDBRANCH  68  69
ENDBRANCH  47  61
BRANCH  48  73
ATOM     73  C   UNL A   1      43.456  23.187  26.745  1.00  0.00     0.058 A 
ATOM     74  C   UNL A   1      43.395  22.625  25.462  1.00  0.00     0.135 A 
ATOM     75  C   UNL A   1      43.125  22.366  27.835  1.00  0.00     0.135 A 
ATOM     76  F   UNL A   1      43.689  23.372  24.387  1.00  0.00    -0.206 F 
ATOM     77  C   UNL A   1      43.024  21.298  25.265  1.00  0.00     0.059 A 
ATOM     78  C   UNL A   1      42.772  21.031  27.665  1.00  0.00     0.059 A 
ATOM     79  F   UNL A   1      43.173  22.855  29.084  1.00  0.00    -0.206 F 
ATOM     80  C   UNL A   1      42.722  20.506  26.374  1.00  0.00     0.060 A 
BRANCH  80  81
ATOM     81  S   UNL A   1      42.308  18.767  26.111  1.00  0.00     0.124 S 
ATOM     82  O   UNL A   1      43.262  18.391  25.074  1.00  0.00    -0.237 OA
ATOM     83  O   UNL A   1      42.542  18.195  27.432  1.00  0.00    -0.237 OA
ATOM     84  O   UNL A   1      40.909  18.813  25.694  1.00  0.00    -0.744 OA
ENDBRANCH  80  81
ENDBRANCH  48  73
BRANCH  60  85
ATOM     85  C   UNL A   1      49.627  26.455  26.362  1.00  0.00     0.058 A 
ATOM     86  C   UNL A   1      50.134  26.691  25.076  1.00  0.00     0.135 A 
ATOM     87  C   UNL A   1      50.486  25.890  27.319  1.00  0.00     0.135 A 
ATOM     88  F   UNL A   1      49.348  27.221  24.127  1.00  0.00    -0.206 F 
ATOM     89  C   UNL A   1      51.453  26.391  24.753  1.00  0.00     0.059 A 
ATOM     90  C   UNL A   1      51.814  25.601  27.023  1.00  0.00     0.059 A 
ATOM     91  F   UNL A   1      50.048  25.652  28.565  1.00  0.00    -0.206 F 
ATOM     92  C   UNL A   1      52.289  25.859  25.737  1.00  0.00     0.060 A 
BRANCH  92  93
ATOM     93  S   UNL A   1      54.022  25.562  25.324  1.00  0.00     0.124 S 
ATOM     94  O   UNL A   1      54.278  26.613  24.346  1.00  0.00    -0.237 OA
ATOM     95  O   UNL A   1      54.682  25.724  26.616  1.00  0.00    -0.237 OA
ATOM     96  O   UNL A   1      54.017  24.200  24.797  1.00  0.00    -0.744 OA
ENDBRANCH  92  93
ENDBRANCH  60  85
ENDBRANCH  34  35
ENDBRANCH  27  29
ENDBRANCH  26  27
ENDBRANCH  25  26
ENDBRANCH   1  25
TORSDOF 22
ENDMDL
MODEL 3
REMARK VINA RESULT:     -10.1      3.714      9.574
REMARK SMILES CCC[C@H](CCCc1c(O)nc(N)[nH]c1=O)C(=O)OCCOC(=O)c1ccc(-c2c3nc(c(-c4c(F)cc(S(=O)(=O)[O-])cc4F)c4ccc([nH]4)c(-c4c(F)cc(S(=O)(=O)[O-])cc4F)c4nc(c(-c5c(F)cc(S(=O)(=O)[O-])cc5F)c5ccc2[nH]5)C=C4)C=C3)cc1
REMARK SMILES IDX 20 1 19 2 17 3 18 4 4 5 3 6 2 7 1 8 5 9 6 10 7 11 8 12 9 13
REMARK SMILES IDX 15 14 11 15 14 16 16 17 12 18 10 20 13 22 21 25 22 26 23 27
REMARK SMILES IDX 24 28 25 29 26 30 90 31 27 32 89 33 28 34 29 35 30 36 83 37
REMARK SMILES IDX 31 38 88 39 82 40 84 41 32 42 87 43 81 44 80 45 33 47 67 48
REMARK SMILES IDX 46 49 66 50 47 51 50 52 65 53 85 54 48 55 49 56 64 58 86 59
REMARK SMILES IDX 51 60 34 61 35 62 44 63 36 64 37 65 43 66 45 67 38 68 39 69
REMARK SMILES IDX 40 70 41 71 42 72 68 73 69 74 78 75 70 76 71 77 77 78 79 79
REMARK SMILES IDX 72 80 73 81 74 82 75 83 76 84 52 85 53 86 62 87 54 88 55 89
REMARK SMILES IDX 61 90 63 91 56 92 57 93 58 94 59 95 60 96
REMARK H PARENT 14 19 10 21 13 23 13 24 84 46 50 57
REMARK Flexibility Score: inf
ROOT
ATOM      1  C   UNL A   1      33.930  29.780  26.933  1.00  0.00     0.274 C 
ENDROOT
BRANCH   1   2
ATOM      2  O   UNL A   1      32.536  29.666  27.277  1.00  0.00    -0.462 OA
BRANCH   2   3
ATOM      3  C   UNL A   1      31.988  28.426  27.189  1.00  0.00     0.309 C 
ATOM      4  O   UNL A   1      31.348  27.883  28.082  1.00  0.00    -0.252 OA
BRANCH   3   5
ATOM      5  C   UNL A   1      32.304  27.733  25.869  1.00  0.00     0.099 C 
BRANCH   5   6
ATOM      6  C   UNL A   1      31.069  27.653  24.951  1.00  0.00     0.015 C 
BRANCH   6   7
ATOM      7  C   UNL A   1      30.766  28.866  24.063  1.00  0.00    -0.003 C 
ATOM      8  C   UNL A   1      30.010  28.518  22.783  1.00  0.00     0.004 C 
ENDBRANCH   6   7
ENDBRANCH   5   6
BRANCH   5   9
ATOM      9  C   UNL A   1      33.057  26.404  26.069  1.00  0.00     0.015 C 
BRANCH   9  10
ATOM     10  C   UNL A   1      33.946  25.924  24.906  1.00  0.00     0.006 C 
BRANCH  10  11
ATOM     11  C   UNL A   1      33.995  24.417  24.596  1.00  0.00     0.047 C 
BRANCH  11  12
ATOM     12  C   UNL A   1      35.197  23.548  24.893  1.00  0.00     0.079 A 
ATOM     13  C   UNL A   1      36.019  23.077  23.928  1.00  0.00     0.222 A 
ATOM     14  C   UNL A   1      35.539  23.105  26.267  1.00  0.00     0.259 A 
ATOM     15  N   UNL A   1      37.134  22.323  24.151  1.00  0.00    -0.179 NA
ATOM     16  N   UNL A   1      36.753  22.503  26.423  1.00  0.00    -0.292 N 
ATOM     17  O   UNL A   1      34.764  23.206  27.212  1.00  0.00    -0.269 OA
ATOM     18  C   UNL A   1      37.486  22.078  25.366  1.00  0.00     0.203 A 
ATOM     19  H   UNL A   1      37.107  22.373  27.331  1.00  0.00     0.173 HD
BRANCH  13  20
ATOM     20  O   UNL A   1      35.798  23.327  22.589  1.00  0.00    -0.493 OA
ATOM     21  H   UNL A   1      36.289  23.992  22.150  1.00  0.00     0.295 HD
ENDBRANCH  13  20
BRANCH  18  22
ATOM     22  N   UNL A   1      38.600  21.361  25.624  1.00  0.00    -0.369 N 
ATOM     23  H   UNL A   1      39.343  21.769  26.124  1.00  0.00     0.159 HD
ATOM     24  H   UNL A   1      38.670  20.430  25.311  1.00  0.00     0.159 HD
ENDBRANCH  18  22
ENDBRANCH  11  12
ENDBRANCH  10  11
ENDBRANCH   9  10
ENDBRANCH   5   9
ENDBRANCH   3   5
ENDBRANCH   2   3
ENDBRANCH   1   2
BRANCH   1  25
ATOM     25  C   UNL A   1      34.742  30.466  28.035  1.00  0.00     0.275 C 
BRANCH  25  26
ATOM     26  O   UNL A   1      35.772  29.600  28.542  1.00  0.00    -0.458 OA
BRANCH  26  27
ATOM     27  C   UNL A   1      36.454  30.073  29.608  1.00  0.00     0.338 C 
ATOM     28  O   UNL A   1      35.993  30.482  30.665  1.00  0.00    -0.246 OA
BRANCH  27  29
ATOM     29  C   UNL A   1      37.893  29.885  29.387  1.00  0.00     0.060 A 
ATOM     30  C   UNL A   1      38.330  29.732  28.069  1.00  0.00     0.016 A 
ATOM     31  C   UNL A   1      38.793  29.807  30.451  1.00  0.00     0.016 A 
ATOM     32  C   UNL A   1      39.676  29.525  27.800  1.00  0.00     0.010 A 
ATOM     33  C   UNL A   1      40.145  29.576  30.183  1.00  0.00     0.010 A 
ATOM     34  C   UNL A   1      40.588  29.431  28.856  1.00  0.00    -0.014 A 
BRANCH  34  35
ATOM     35  C   UNL A   1      41.987  29.069  28.547  1.00  0.00     0.031 A 
ATOM     36  C   UNL A   1      42.306  27.652  28.177  1.00  0.00     0.074 A 
ATOM     37  C   UNL A   1      42.935  30.022  28.509  1.00  0.00     0.049 A 
ATOM     38  N   UNL A   1      43.454  27.121  27.848  1.00  0.00    -0.248 NA
ATOM     39  C   UNL A   1      41.179  26.704  28.176  1.00  0.00     0.031 C 
ATOM     40  C   UNL A   1      42.711  31.442  28.782  1.00  0.00     0.029 A 
ATOM     41  N   UNL A   1      44.270  29.945  28.204  1.00  0.00    -0.354 N 
ATOM     42  C   UNL A   1      43.188  25.783  27.588  1.00  0.00     0.074 A 
ATOM     43  C   UNL A   1      41.780  25.571  27.844  1.00  0.00     0.031 C 
ATOM     44  C   UNL A   1      43.867  32.106  28.610  1.00  0.00     0.029 A 
ATOM     45  C   UNL A   1      44.916  31.157  28.247  1.00  0.00     0.049 A 
ATOM     46  H   UNL A   1      44.722  29.100  27.975  1.00  0.00     0.167 HD
ATOM     47  C   UNL A   1      44.041  24.825  27.157  1.00  0.00     0.037 A 
ATOM     48  C   UNL A   1      46.210  31.459  28.022  1.00  0.00     0.037 A 
ATOM     49  C   UNL A   1      45.437  25.051  26.901  1.00  0.00     0.049 A 
ATOM     50  C   UNL A   1      47.161  30.355  27.645  1.00  0.00     0.074 A 
ATOM     51  C   UNL A   1      46.394  24.146  26.478  1.00  0.00     0.029 A 
ATOM     52  N   UNL A   1      46.078  26.275  27.044  1.00  0.00    -0.354 N 
ATOM     53  N   UNL A   1      46.904  29.088  27.421  1.00  0.00    -0.248 NA
ATOM     54  C   UNL A   1      48.580  30.715  27.503  1.00  0.00     0.031 C 
ATOM     55  C   UNL A   1      47.621  24.813  26.405  1.00  0.00     0.029 A 
ATOM     56  C   UNL A   1      47.423  26.143  26.744  1.00  0.00     0.049 A 
ATOM     57  H   UNL A   1      45.639  27.113  27.318  1.00  0.00     0.167 HD
ATOM     58  C   UNL A   1      48.123  28.501  27.102  1.00  0.00     0.074 A 
ATOM     59  C   UNL A   1      49.118  29.554  27.150  1.00  0.00     0.031 C 
ATOM     60  C   UNL A   1      48.396  27.207  26.802  1.00  0.00     0.037 A 
BRANCH  47  61
ATOM     61  C   UNL A   1      43.482  23.446  26.957  1.00  0.00     0.058 A 
ATOM     62  C   UNL A   1      43.314  22.558  28.031  1.00  0.00     0.135 A 
ATOM     63  C   UNL A   1      43.110  23.006  25.677  1.00  0.00     0.135 A 
ATOM     64  F   UNL A   1      43.675  22.921  29.271  1.00  0.00    -0.206 F 
ATOM     65  C   UNL A   1      42.829  21.270  27.839  1.00  0.00     0.059 A 
ATOM     66  C   UNL A   1      42.601  21.727  25.464  1.00  0.00     0.059 A 
ATOM     67  F   UNL A   1      43.254  23.813  24.614  1.00  0.00    -0.206 F 
ATOM     68  C   UNL A   1      42.481  20.861  26.550  1.00  0.00     0.060 A 
BRANCH  68  69
ATOM     69  S   UNL A   1      41.897  19.170  26.313  1.00  0.00     0.124 S 
ATOM     70  O   UNL A   1      42.867  18.663  25.345  1.00  0.00    -0.237 OA
ATOM     71  O   UNL A   1      41.996  18.614  27.658  1.00  0.00    -0.237 OA
ATOM     72  O   UNL A   1      40.540  19.346  25.806  1.00  0.00    -0.744 OA
ENDBRANCH  68  69
ENDBRANCH  47  61
BRANCH  48  73
ATOM     73  C   UNL A   1      46.673  32.866  28.145  1.00  0.00     0.058 A 
ATOM     74  C   UNL A   1      47.252  33.334  29.333  1.00  0.00     0.135 A 
ATOM     75  C   UNL A   1      46.577  33.761  27.068  1.00  0.00     0.135 A 
ATOM     76  F   UNL A   1      47.354  32.520  30.396  1.00  0.00    -0.206 F 
ATOM     77  C   UNL A   1      47.725  34.637  29.449  1.00  0.00     0.059 A 
ATOM     78  C   UNL A   1      47.062  35.063  27.152  1.00  0.00     0.059 A 
ATOM     79  F   UNL A   1      46.036  33.361  25.907  1.00  0.00    -0.206 F 
ATOM     80  C   UNL A   1      47.633  35.493  28.350  1.00  0.00     0.060 A 
BRANCH  80  81
ATOM     81  S   UNL A   1      48.311  37.162  28.491  1.00  0.00     0.124 S 
ATOM     82  O   UNL A   1      48.796  37.167  29.867  1.00  0.00    -0.237 OA
ATOM     83  O   UNL A   1      49.337  37.162  27.453  1.00  0.00    -0.237 OA
ATOM     84  O   UNL A   1      47.159  38.018  28.225  1.00  0.00    -0.744 OA
ENDBRANCH  80  81
ENDBRANCH  48  73
BRANCH  60  85
ATOM     85  C   UNL A   1      49.822  26.842  26.506  1.00  0.00     0.058 A 
ATOM     86  C   UNL A   1      50.670  26.361  27.515  1.00  0.00     0.135 A 
ATOM     87  C   UNL A   1      50.307  26.860  25.188  1.00  0.00     0.135 A 
ATOM     88  F   UNL A   1      50.254  26.332  28.790  1.00  0.00    -0.206 F 
ATOM     89  C   UNL A   1      51.949  25.899  27.225  1.00  0.00     0.059 A 
ATOM     90  C   UNL A   1      51.575  26.385  24.873  1.00  0.00     0.059 A 
ATOM     91  F   UNL A   1      49.529  27.305  24.188  1.00  0.00    -0.206 F 
ATOM     92  C   UNL A   1      52.388  25.903  25.899  1.00  0.00     0.060 A 
BRANCH  92  93
ATOM     93  S   UNL A   1      54.017  25.216  25.530  1.00  0.00     0.124 S 
ATOM     94  O   UNL A   1      54.546  24.973  26.868  1.00  0.00    -0.237 OA
ATOM     95  O   UNL A   1      53.684  24.025  24.755  1.00  0.00    -0.237 OA
ATOM     96  O   UNL A   1      54.674  26.282  24.779  1.00  0.00    -0.744 OA
ENDBRANCH  92  93
ENDBRANCH  60  85
ENDBRANCH  34  35
ENDBRANCH  27  29
ENDBRANCH  26  27
ENDBRANCH  25  26
ENDBRANCH   1  25
TORSDOF 22
ENDMDL
