MODEL 1
REMARK VINA RESULT:      -9.7      0.000      0.000
REMARK SMILES O=C(OCCOC(=O)c1cc(-c2ccc(F)c(C(F)(F)F)c2)cnc1O)c1ccc(-c2c3nc(c(-c4c(F)cc(S(=O)(=O)[O-])cc4F)c4ccc([nH]4)c(-c4c(F)cc(S(=O)(=O)[O-])cc4F)c4nc(c(-c5c(F)cc(S(=O)(=O)[O-])cc5F)c5ccc2[nH]5)C=C4)C=C3)cc1
REMARK SMILES IDX 4 1 3 2 2 3 1 4 27 5 28 6 92 7 29 8 91 9 30 10 31 11 32 12
REMARK SMILES IDX 85 13 33 14 90 15 84 16 86 17 34 18 89 19 83 20 82 21 35 23
REMARK SMILES IDX 69 24 48 25 68 26 49 27 52 28 67 29 87 30 50 31 51 32 66 34
REMARK SMILES IDX 88 35 53 36 36 37 37 38 46 39 38 40 39 41 45 42 47 43 40 44
REMARK SMILES IDX 41 45 42 46 43 47 44 48 70 49 71 50 80 51 72 52 73 53 79 54
REMARK SMILES IDX 81 55 74 56 75 57 76 58 77 59 78 60 54 61 55 62 64 63 56 64
REMARK SMILES IDX 57 65 63 66 65 67 58 68 59 69 60 70 61 71 62 72 5 73 6 74
REMARK SMILES IDX 7 75 8 76 9 77 10 78 25 79 11 80 24 81 23 82 26 83 12 85
REMARK SMILES IDX 13 86 22 87 14 88 17 89 15 90 16 91 18 92 19 93 20 94 21 95
REMARK H PARENT 86 22 52 33 26 84
REMARK Flexibility Score: inf
ROOT
ATOM      1  C   UNL A   1      34.614  32.950  27.984  1.00  0.00     0.275 C 
ENDROOT
BRANCH   1   2
ATOM      2  O   UNL A   1      34.015  31.649  28.090  1.00  0.00    -0.458 OA
BRANCH   2   3
ATOM      3  C   UNL A   1      34.561  30.427  27.889  1.00  0.00     0.338 C 
ATOM      4  O   UNL A   1      33.866  29.539  27.400  1.00  0.00    -0.246 OA
BRANCH   3   5
ATOM      5  C   UNL A   1      35.917  30.050  28.391  1.00  0.00     0.060 A 
ATOM      6  C   UNL A   1      36.943  30.101  27.440  1.00  0.00     0.016 A 
ATOM      7  C   UNL A   1      36.265  29.715  29.702  1.00  0.00     0.016 A 
ATOM      8  C   UNL A   1      38.247  29.716  27.759  1.00  0.00     0.010 A 
ATOM      9  C   UNL A   1      37.585  29.348  30.032  1.00  0.00     0.010 A 
ATOM     10  C   UNL A   1      38.588  29.323  29.058  1.00  0.00    -0.014 A 
BRANCH  10  11
ATOM     11  C   UNL A   1      40.009  29.004  29.365  1.00  0.00     0.031 A 
ATOM     12  C   UNL A   1      40.608  27.659  29.057  1.00  0.00     0.074 A 
ATOM     13  C   UNL A   1      40.796  29.984  29.853  1.00  0.00     0.049 A 
ATOM     14  N   UNL A   1      41.868  27.298  29.067  1.00  0.00    -0.248 NA
ATOM     15  C   UNL A   1      39.685  26.587  28.673  1.00  0.00     0.031 C 
ATOM     16  C   UNL A   1      40.340  31.336  30.187  1.00  0.00     0.029 A 
ATOM     17  N   UNL A   1      42.139  30.010  30.128  1.00  0.00    -0.354 N 
ATOM     18  C   UNL A   1      41.889  25.980  28.620  1.00  0.00     0.074 A 
ATOM     19  C   UNL A   1      40.516  25.590  28.398  1.00  0.00     0.031 C 
ATOM     20  C   UNL A   1      41.389  32.070  30.579  1.00  0.00     0.029 A 
ATOM     21  C   UNL A   1      42.583  31.228  30.582  1.00  0.00     0.049 A 
ATOM     22  H   UNL A   1      42.728  29.230  30.012  1.00  0.00     0.167 HD
ATOM     23  C   UNL A   1      42.957  25.174  28.408  1.00  0.00     0.037 A 
ATOM     24  C   UNL A   1      43.807  31.628  30.978  1.00  0.00     0.037 A 
ATOM     25  C   UNL A   1      44.314  25.532  28.729  1.00  0.00     0.049 A 
ATOM     26  C   UNL A   1      44.945  30.655  30.920  1.00  0.00     0.074 A 
ATOM     27  C   UNL A   1      45.467  24.785  28.565  1.00  0.00     0.029 A 
ATOM     28  N   UNL A   1      44.692  26.723  29.334  1.00  0.00    -0.354 N 
ATOM     29  N   UNL A   1      44.961  29.444  30.417  1.00  0.00    -0.248 NA
ATOM     30  C   UNL A   1      46.222  31.086  31.501  1.00  0.00     0.031 C 
ATOM     31  C   UNL A   1      46.529  25.492  29.145  1.00  0.00     0.029 A 
ATOM     32  C   UNL A   1      46.046  26.700  29.623  1.00  0.00     0.049 A 
ATOM     33  H   UNL A   1      44.085  27.474  29.529  1.00  0.00     0.167 HD
ATOM     34  C   UNL A   1      46.245  28.960  30.632  1.00  0.00     0.074 A 
ATOM     35  C   UNL A   1      46.985  30.020  31.289  1.00  0.00     0.031 C 
ATOM     36  C   UNL A   1      46.758  27.745  30.317  1.00  0.00     0.037 A 
BRANCH  23  37
ATOM     37  C   UNL A   1      42.695  23.807  27.838  1.00  0.00     0.058 A 
ATOM     38  C   UNL A   1      42.533  23.609  26.457  1.00  0.00     0.135 A 
ATOM     39  C   UNL A   1      42.642  22.679  28.671  1.00  0.00     0.135 A 
ATOM     40  F   UNL A   1      42.580  24.651  25.614  1.00  0.00    -0.206 F 
ATOM     41  C   UNL A   1      42.305  22.341  25.926  1.00  0.00     0.059 A 
ATOM     42  C   UNL A   1      42.433  21.400  28.160  1.00  0.00     0.059 A 
ATOM     43  F   UNL A   1      42.792  22.812  29.999  1.00  0.00    -0.206 F 
ATOM     44  C   UNL A   1      42.252  21.242  26.786  1.00  0.00     0.060 A 
BRANCH  44  45
ATOM     45  S   UNL A   1      41.950  19.606  26.082  1.00  0.00     0.124 S 
ATOM     46  O   UNL A   1      42.388  18.733  27.167  1.00  0.00    -0.237 OA
ATOM     47  O   UNL A   1      40.513  19.634  25.832  1.00  0.00    -0.237 OA
ATOM     48  O   UNL A   1      42.789  19.586  24.888  1.00  0.00    -0.744 OA
ENDBRANCH  44  45
ENDBRANCH  23  37
BRANCH  24  49
ATOM     49  C   UNL A   1      43.977  33.012  31.492  1.00  0.00     0.058 A 
ATOM     50  C   UNL A   1      43.995  34.112  30.626  1.00  0.00     0.135 A 
ATOM     51  C   UNL A   1      44.009  33.263  32.875  1.00  0.00     0.135 A 
ATOM     52  F   UNL A   1      43.980  33.921  29.298  1.00  0.00    -0.206 F 
ATOM     53  C   UNL A   1      44.004  35.416  31.112  1.00  0.00     0.059 A 
ATOM     54  C   UNL A   1      43.996  34.557  33.383  1.00  0.00     0.059 A 
ATOM     55  F   UNL A   1      43.987  32.241  33.744  1.00  0.00    -0.206 F 
ATOM     56  C   UNL A   1      43.986  35.628  32.492  1.00  0.00     0.060 A 
BRANCH  56  57
ATOM     57  S   UNL A   1      43.865  37.321  33.112  1.00  0.00     0.124 S 
ATOM     58  O   UNL A   1      43.762  38.081  31.874  1.00  0.00    -0.237 OA
ATOM     59  O   UNL A   1      42.657  37.263  33.929  1.00  0.00    -0.237 OA
ATOM     60  O   UNL A   1      45.108  37.494  33.859  1.00  0.00    -0.744 OA
ENDBRANCH  56  57
ENDBRANCH  24  49
BRANCH  36  61
ATOM     61  C   UNL A   1      48.176  27.466  30.726  1.00  0.00     0.058 A 
ATOM     62  C   UNL A   1      48.469  26.922  31.986  1.00  0.00     0.135 A 
ATOM     63  C   UNL A   1      49.239  27.666  29.831  1.00  0.00     0.135 A 
ATOM     64  F   UNL A   1      47.487  26.724  32.881  1.00  0.00    -0.206 F 
ATOM     65  C   UNL A   1      49.769  26.586  32.346  1.00  0.00     0.059 A 
ATOM     66  C   UNL A   1      50.545  27.315  30.163  1.00  0.00     0.059 A 
ATOM     67  F   UNL A   1      49.009  28.178  28.611  1.00  0.00    -0.206 F 
ATOM     68  C   UNL A   1      50.799  26.779  31.424  1.00  0.00     0.060 A 
BRANCH  68  69
ATOM     69  S   UNL A   1      52.471  26.278  31.885  1.00  0.00     0.124 S 
ATOM     70  O   UNL A   1      52.577  26.813  33.238  1.00  0.00    -0.237 OA
ATOM     71  O   UNL A   1      52.401  24.823  31.781  1.00  0.00    -0.237 OA
ATOM     72  O   UNL A   1      53.310  26.932  30.885  1.00  0.00    -0.744 OA
ENDBRANCH  68  69
ENDBRANCH  36  61
ENDBRANCH  10  11
ENDBRANCH   3   5
ENDBRANCH   2   3
ENDBRANCH   1   2
BRANCH   1  73
ATOM     73  C   UNL A   1      34.682  33.725  29.298  1.00  0.00     0.275 C 
BRANCH  73  74
ATOM     74  O   UNL A   1      35.745  33.293  30.163  1.00  0.00    -0.458 OA
BRANCH  74  75
ATOM     75  C   UNL A   1      35.365  32.894  31.413  1.00  0.00     0.343 C 
ATOM     76  O   UNL A   1      34.357  32.289  31.704  1.00  0.00    -0.246 OA
BRANCH  75  77
ATOM     77  C   UNL A   1      36.425  33.246  32.376  1.00  0.00     0.122 A 
ATOM     78  C   UNL A   1      37.334  32.255  32.789  1.00  0.00     0.031 A 
ATOM     79  C   UNL A   1      36.577  34.531  32.873  1.00  0.00     0.225 A 
ATOM     80  C   UNL A   1      38.403  32.590  33.631  1.00  0.00     0.001 A 
ATOM     81  N   UNL A   1      37.561  34.875  33.719  1.00  0.00    -0.221 NA
ATOM     82  C   UNL A   1      38.456  33.918  34.059  1.00  0.00     0.124 A 
BRANCH  79  83
ATOM     83  O   UNL A   1      35.765  35.576  32.545  1.00  0.00    -0.493 OA
ATOM     84  H   UNL A   1      34.900  35.628  32.901  1.00  0.00     0.295 HD
ENDBRANCH  79  83
BRANCH  80  85
ATOM     85  C   UNL A   1      39.469  31.644  34.005  1.00  0.00    -0.016 A 
ATOM     86  C   UNL A   1      40.565  32.064  34.772  1.00  0.00     0.012 A 
ATOM     87  C   UNL A   1      39.481  30.322  33.520  1.00  0.00     0.025 A 
ATOM     88  C   UNL A   1      41.639  31.204  35.021  1.00  0.00     0.040 A 
ATOM     89  C   UNL A   1      40.577  29.463  33.722  1.00  0.00     0.092 A 
ATOM     90  C   UNL A   1      41.640  29.920  34.487  1.00  0.00     0.135 A 
ATOM     91  F   UNL A   1      42.692  29.123  34.717  1.00  0.00    -0.206 F 
BRANCH  89  92
ATOM     92  C   UNL A   1      40.635  28.094  33.111  1.00  0.00     0.419 C 
ATOM     93  F   UNL A   1      41.662  27.939  32.234  1.00  0.00    -0.166 F 
ATOM     94  F   UNL A   1      40.772  27.109  34.042  1.00  0.00    -0.166 F 
ATOM     95  F   UNL A   1      39.504  27.779  32.413  1.00  0.00    -0.166 F 
ENDBRANCH  89  92
ENDBRANCH  80  85
ENDBRANCH  75  77
ENDBRANCH  74  75
ENDBRANCH  73  74
ENDBRANCH   1  73
TORSDOF 17
ENDMDL
MODEL 2
REMARK VINA RESULT:      -9.7      1.321      2.338
REMARK SMILES O=C(OCCOC(=O)c1cc(-c2ccc(F)c(C(F)(F)F)c2)cnc1O)c1ccc(-c2c3nc(c(-c4c(F)cc(S(=O)(=O)[O-])cc4F)c4ccc([nH]4)c(-c4c(F)cc(S(=O)(=O)[O-])cc4F)c4nc(c(-c5c(F)cc(S(=O)(=O)[O-])cc5F)c5ccc2[nH]5)C=C4)C=C3)cc1
REMARK SMILES IDX 4 1 3 2 2 3 1 4 27 5 28 6 92 7 29 8 91 9 30 10 31 11 32 12
REMARK SMILES IDX 85 13 33 14 90 15 84 16 86 17 34 18 89 19 83 20 82 21 35 23
REMARK SMILES IDX 69 24 48 25 68 26 49 27 52 28 67 29 87 30 50 31 51 32 66 34
REMARK SMILES IDX 88 35 53 36 36 37 37 38 46 39 38 40 39 41 45 42 47 43 40 44
REMARK SMILES IDX 41 45 42 46 43 47 44 48 70 49 71 50 80 51 72 52 73 53 79 54
REMARK SMILES IDX 81 55 74 56 75 57 76 58 77 59 78 60 54 61 55 62 64 63 56 64
REMARK SMILES IDX 57 65 63 66 65 67 58 68 59 69 60 70 61 71 62 72 5 73 6 74
REMARK SMILES IDX 7 75 8 76 9 77 10 78 25 79 11 80 24 81 23 82 26 83 12 85
REMARK SMILES IDX 13 86 22 87 14 88 17 89 15 90 16 91 18 92 19 93 20 94 21 95
REMARK H PARENT 86 22 52 33 26 84
REMARK Flexibility Score: inf
ROOT
ATOM      1  C   UNL A   1      34.499  32.878  28.118  1.00  0.00     0.275 C 
ENDROOT
BRANCH   1   2
ATOM      2  O   UNL A   1      34.007  31.535  28.247  1.00  0.00    -0.458 OA
BRANCH   2   3
ATOM      3  C   UNL A   1      34.601  30.363  27.924  1.00  0.00     0.338 C 
ATOM      4  O   UNL A   1      33.945  29.508  27.332  1.00  0.00    -0.246 OA
BRANCH   3   5
ATOM      5  C   UNL A   1      35.966  29.983  28.400  1.00  0.00     0.060 A 
ATOM      6  C   UNL A   1      36.984  30.091  27.446  1.00  0.00     0.016 A 
ATOM      7  C   UNL A   1      36.327  29.596  29.692  1.00  0.00     0.016 A 
ATOM      8  C   UNL A   1      38.296  29.711  27.740  1.00  0.00     0.010 A 
ATOM      9  C   UNL A   1      37.654  29.235  29.998  1.00  0.00     0.010 A 
ATOM     10  C   UNL A   1      38.651  29.267  29.017  1.00  0.00    -0.014 A 
BRANCH  10  11
ATOM     11  C   UNL A   1      40.079  28.956  29.302  1.00  0.00     0.031 A 
ATOM     12  C   UNL A   1      40.678  27.611  28.991  1.00  0.00     0.074 A 
ATOM     13  C   UNL A   1      40.869  29.942  29.771  1.00  0.00     0.049 A 
ATOM     14  N   UNL A   1      41.939  27.255  28.981  1.00  0.00    -0.248 NA
ATOM     15  C   UNL A   1      39.753  26.533  28.630  1.00  0.00     0.031 C 
ATOM     16  C   UNL A   1      40.414  31.293  30.105  1.00  0.00     0.029 A 
ATOM     17  N   UNL A   1      42.218  29.974  30.022  1.00  0.00    -0.354 N 
ATOM     18  C   UNL A   1      41.958  25.935  28.541  1.00  0.00     0.074 A 
ATOM     19  C   UNL A   1      40.582  25.537  28.346  1.00  0.00     0.031 C 
ATOM     20  C   UNL A   1      41.467  32.033  30.474  1.00  0.00     0.029 A 
ATOM     21  C   UNL A   1      42.664  31.197  30.461  1.00  0.00     0.049 A 
ATOM     22  H   UNL A   1      42.807  29.196  29.900  1.00  0.00     0.167 HD
ATOM     23  C   UNL A   1      43.025  25.131  28.315  1.00  0.00     0.037 A 
ATOM     24  C   UNL A   1      43.894  31.603  30.834  1.00  0.00     0.037 A 
ATOM     25  C   UNL A   1      44.386  25.497  28.610  1.00  0.00     0.049 A 
ATOM     26  C   UNL A   1      45.034  30.635  30.761  1.00  0.00     0.074 A 
ATOM     27  C   UNL A   1      45.539  24.754  28.431  1.00  0.00     0.029 A 
ATOM     28  N   UNL A   1      44.769  26.692  29.202  1.00  0.00    -0.354 N 
ATOM     29  N   UNL A   1      45.046  29.421  30.264  1.00  0.00    -0.248 NA
ATOM     30  C   UNL A   1      46.320  31.074  31.317  1.00  0.00     0.031 C 
ATOM     31  C   UNL A   1      46.608  25.468  28.988  1.00  0.00     0.029 A 
ATOM     32  C   UNL A   1      46.128  26.677  29.467  1.00  0.00     0.049 A 
ATOM     33  H   UNL A   1      44.163  27.442  29.403  1.00  0.00     0.167 HD
ATOM     34  C   UNL A   1      46.336  28.943  30.460  1.00  0.00     0.074 A 
ATOM     35  C   UNL A   1      47.083  30.010  31.098  1.00  0.00     0.031 C 
ATOM     36  C   UNL A   1      46.848  27.728  30.143  1.00  0.00     0.037 A 
BRANCH  23  37
ATOM     37  C   UNL A   1      42.759  23.760  27.758  1.00  0.00     0.058 A 
ATOM     38  C   UNL A   1      42.540  22.658  28.601  1.00  0.00     0.135 A 
ATOM     39  C   UNL A   1      42.683  23.549  26.373  1.00  0.00     0.135 A 
ATOM     40  F   UNL A   1      42.595  22.804  29.933  1.00  0.00    -0.206 F 
ATOM     41  C   UNL A   1      42.278  21.389  28.087  1.00  0.00     0.059 A 
ATOM     42  C   UNL A   1      42.404  22.294  25.837  1.00  0.00     0.059 A 
ATOM     43  F   UNL A   1      42.882  24.569  25.522  1.00  0.00    -0.206 F 
ATOM     44  C   UNL A   1      42.215  21.216  26.703  1.00  0.00     0.060 A 
BRANCH  44  45
ATOM     45  S   UNL A   1      41.880  19.564  26.052  1.00  0.00     0.124 S 
ATOM     46  O   UNL A   1      42.725  19.540  24.860  1.00  0.00    -0.237 OA
ATOM     47  O   UNL A   1      42.307  18.703  27.149  1.00  0.00    -0.237 OA
ATOM     48  O   UNL A   1      40.443  19.582  25.797  1.00  0.00    -0.744 OA
ENDBRANCH  44  45
ENDBRANCH  23  37
BRANCH  24  49
ATOM     49  C   UNL A   1      44.067  32.991  31.336  1.00  0.00     0.058 A 
ATOM     50  C   UNL A   1      44.147  34.078  30.457  1.00  0.00     0.135 A 
ATOM     51  C   UNL A   1      44.039  33.261  32.716  1.00  0.00     0.135 A 
ATOM     52  F   UNL A   1      44.191  33.869  29.133  1.00  0.00    -0.206 F 
ATOM     53  C   UNL A   1      44.159  35.389  30.926  1.00  0.00     0.059 A 
ATOM     54  C   UNL A   1      44.027  34.562  33.206  1.00  0.00     0.059 A 
ATOM     55  F   UNL A   1      43.955  32.252  33.596  1.00  0.00    -0.206 F 
ATOM     56  C   UNL A   1      44.081  35.621  32.301  1.00  0.00     0.060 A 
BRANCH  56  57
ATOM     57  S   UNL A   1      43.964  37.324  32.892  1.00  0.00     0.124 S 
ATOM     58  O   UNL A   1      43.830  38.061  31.642  1.00  0.00    -0.237 OA
ATOM     59  O   UNL A   1      42.775  37.275  33.737  1.00  0.00    -0.237 OA
ATOM     60  O   UNL A   1      45.223  37.517  33.608  1.00  0.00    -0.744 OA
ENDBRANCH  56  57
ENDBRANCH  24  49
BRANCH  36  61
ATOM     61  C   UNL A   1      48.275  27.458  30.529  1.00  0.00     0.058 A 
ATOM     62  C   UNL A   1      48.582  26.772  31.713  1.00  0.00     0.135 A 
ATOM     63  C   UNL A   1      49.333  27.811  29.678  1.00  0.00     0.135 A 
ATOM     64  F   UNL A   1      47.605  26.422  32.565  1.00  0.00    -0.206 F 
ATOM     65  C   UNL A   1      49.893  26.445  32.042  1.00  0.00     0.059 A 
ATOM     66  C   UNL A   1      50.650  27.475  29.976  1.00  0.00     0.059 A 
ATOM     67  F   UNL A   1      49.089  28.465  28.530  1.00  0.00    -0.206 F 
ATOM     68  C   UNL A   1      50.920  26.794  31.163  1.00  0.00     0.060 A 
BRANCH  68  69
ATOM     69  S   UNL A   1      52.608  26.308  31.575  1.00  0.00     0.124 S 
ATOM     70  O   UNL A   1      52.386  25.078  32.326  1.00  0.00    -0.237 OA
ATOM     71  O   UNL A   1      53.216  26.144  30.256  1.00  0.00    -0.237 OA
ATOM     72  O   UNL A   1      53.108  27.437  32.353  1.00  0.00    -0.744 OA
ENDBRANCH  68  69
ENDBRANCH  36  61
ENDBRANCH  10  11
ENDBRANCH   3   5
ENDBRANCH   2   3
ENDBRANCH   1   2
BRANCH   1  73
ATOM     73  C   UNL A   1      33.412  33.951  28.097  1.00  0.00     0.275 C 
BRANCH  73  74
ATOM     74  O   UNL A   1      32.860  34.231  29.394  1.00  0.00    -0.458 OA
BRANCH  74  75
ATOM     75  C   UNL A   1      33.068  35.496  29.864  1.00  0.00     0.343 C 
ATOM     76  O   UNL A   1      32.682  36.528  29.359  1.00  0.00    -0.246 OA
BRANCH  75  77
ATOM     77  C   UNL A   1      33.782  35.422  31.153  1.00  0.00     0.122 A 
ATOM     78  C   UNL A   1      34.664  34.353  31.387  1.00  0.00     0.031 A 
ATOM     79  C   UNL A   1      33.635  36.387  32.137  1.00  0.00     0.225 A 
ATOM     80  C   UNL A   1      35.422  34.312  32.566  1.00  0.00     0.001 A 
ATOM     81  N   UNL A   1      34.308  36.354  33.297  1.00  0.00    -0.221 NA
ATOM     82  C   UNL A   1      35.193  35.345  33.479  1.00  0.00     0.124 A 
BRANCH  79  83
ATOM     83  O   UNL A   1      32.816  37.471  32.025  1.00  0.00    -0.493 OA
ATOM     84  H   UNL A   1      31.994  37.394  31.583  1.00  0.00     0.295 HD
ENDBRANCH  79  83
BRANCH  80  85
ATOM     85  C   UNL A   1      36.459  33.301  32.830  1.00  0.00    -0.016 A 
ATOM     86  C   UNL A   1      36.158  31.932  32.771  1.00  0.00     0.012 A 
ATOM     87  C   UNL A   1      37.751  33.665  33.255  1.00  0.00     0.025 A 
ATOM     88  C   UNL A   1      37.103  30.972  33.144  1.00  0.00     0.040 A 
ATOM     89  C   UNL A   1      38.693  32.712  33.679  1.00  0.00     0.092 A 
ATOM     90  C   UNL A   1      38.354  31.369  33.603  1.00  0.00     0.135 A 
ATOM     91  F   UNL A   1      39.234  30.432  33.980  1.00  0.00    -0.206 F 
BRANCH  89  92
ATOM     92  C   UNL A   1      40.029  33.110  34.235  1.00  0.00     0.419 C 
ATOM     93  F   UNL A   1      40.191  32.772  35.542  1.00  0.00    -0.166 F 
ATOM     94  F   UNL A   1      41.068  32.545  33.560  1.00  0.00    -0.166 F 
ATOM     95  F   UNL A   1      40.246  34.457  34.175  1.00  0.00    -0.166 F 
ENDBRANCH  89  92
ENDBRANCH  80  85
ENDBRANCH  75  77
ENDBRANCH  74  75
ENDBRANCH  73  74
ENDBRANCH   1  73
TORSDOF 17
ENDMDL
MODEL 3
REMARK VINA RESULT:      -9.6      3.672      9.624
REMARK SMILES O=C(OCCOC(=O)c1cc(-c2ccc(F)c(C(F)(F)F)c2)cnc1O)c1ccc(-c2c3nc(c(-c4c(F)cc(S(=O)(=O)[O-])cc4F)c4ccc([nH]4)c(-c4c(F)cc(S(=O)(=O)[O-])cc4F)c4nc(c(-c5c(F)cc(S(=O)(=O)[O-])cc5F)c5ccc2[nH]5)C=C4)C=C3)cc1
REMARK SMILES IDX 4 1 3 2 2 3 1 4 27 5 28 6 92 7 29 8 91 9 30 10 31 11 32 12
REMARK SMILES IDX 85 13 33 14 90 15 84 16 86 17 34 18 89 19 83 20 82 21 35 23
REMARK SMILES IDX 69 24 48 25 68 26 49 27 52 28 67 29 87 30 50 31 51 32 66 34
REMARK SMILES IDX 88 35 53 36 36 37 37 38 46 39 38 40 39 41 45 42 47 43 40 44
REMARK SMILES IDX 41 45 42 46 43 47 44 48 70 49 71 50 80 51 72 52 73 53 79 54
REMARK SMILES IDX 81 55 74 56 75 57 76 58 77 59 78 60 54 61 55 62 64 63 56 64
REMARK SMILES IDX 57 65 63 66 65 67 58 68 59 69 60 70 61 71 62 72 5 73 6 74
REMARK SMILES IDX 7 75 8 76 9 77 10 78 25 79 11 80 24 81 23 82 26 83 12 85
REMARK SMILES IDX 13 86 22 87 14 88 17 89 15 90 16 91 18 92 19 93 20 94 21 95
REMARK H PARENT 86 22 52 33 26 84
REMARK Flexibility Score: inf
ROOT
ATOM      1  C   UNL A   1      36.609  32.422  33.598  1.00  0.00     0.275 C 
ENDROOT
BRANCH   1   2
ATOM      2  O   UNL A   1      36.869  32.110  32.220  1.00  0.00    -0.458 OA
BRANCH   2   3
ATOM      3  C   UNL A   1      37.032  30.907  31.623  1.00  0.00     0.338 C 
ATOM      4  O   UNL A   1      36.194  30.029  31.819  1.00  0.00    -0.246 OA
BRANCH   3   5
ATOM      5  C   UNL A   1      38.269  30.531  30.874  1.00  0.00     0.060 A 
ATOM      6  C   UNL A   1      39.326  30.059  31.662  1.00  0.00     0.016 A 
ATOM      7  C   UNL A   1      38.451  30.547  29.489  1.00  0.00     0.016 A 
ATOM      8  C   UNL A   1      40.560  29.729  31.097  1.00  0.00     0.010 A 
ATOM      9  C   UNL A   1      39.688  30.193  28.915  1.00  0.00     0.010 A 
ATOM     10  C   UNL A   1      40.765  29.800  29.716  1.00  0.00    -0.014 A 
BRANCH  10  11
ATOM     11  C   UNL A   1      42.071  29.356  29.157  1.00  0.00     0.031 A 
ATOM     12  C   UNL A   1      43.275  30.259  29.132  1.00  0.00     0.074 A 
ATOM     13  C   UNL A   1      42.192  28.079  28.743  1.00  0.00     0.049 A 
ATOM     14  N   UNL A   1      44.524  29.956  28.880  1.00  0.00    -0.248 NA
ATOM     15  C   UNL A   1      43.058  31.673  29.448  1.00  0.00     0.031 C 
ATOM     16  C   UNL A   1      41.103  27.099  28.723  1.00  0.00     0.029 A 
ATOM     17  N   UNL A   1      43.279  27.377  28.288  1.00  0.00    -0.354 N 
ATOM     18  C   UNL A   1      45.248  31.128  29.078  1.00  0.00     0.074 A 
ATOM     19  C   UNL A   1      44.293  32.158  29.420  1.00  0.00     0.031 C 
ATOM     20  C   UNL A   1      41.584  25.916  28.322  1.00  0.00     0.029 A 
ATOM     21  C   UNL A   1      43.001  26.063  27.999  1.00  0.00     0.049 A 
ATOM     22  H   UNL A   1      44.171  27.776  28.179  1.00  0.00     0.167 HD
ATOM     23  C   UNL A   1      46.586  31.326  28.988  1.00  0.00     0.037 A 
ATOM     24  C   UNL A   1      43.786  25.084  27.509  1.00  0.00     0.037 A 
ATOM     25  C   UNL A   1      47.520  30.324  28.546  1.00  0.00     0.049 A 
ATOM     26  C   UNL A   1      45.229  25.378  27.231  1.00  0.00     0.074 A 
ATOM     27  C   UNL A   1      48.893  30.423  28.408  1.00  0.00     0.029 A 
ATOM     28  N   UNL A   1      47.166  29.053  28.114  1.00  0.00    -0.354 N 
ATOM     29  N   UNL A   1      45.909  26.465  27.504  1.00  0.00    -0.248 NA
ATOM     30  C   UNL A   1      46.006  24.329  26.560  1.00  0.00     0.031 C 
ATOM     31  C   UNL A   1      49.358  29.241  27.817  1.00  0.00     0.029 A 
ATOM     32  C   UNL A   1      48.281  28.387  27.635  1.00  0.00     0.049 A 
ATOM     33  H   UNL A   1      46.255  28.680  28.144  1.00  0.00     0.167 HD
ATOM     34  C   UNL A   1      47.193  26.239  27.025  1.00  0.00     0.074 A 
ATOM     35  C   UNL A   1      47.201  24.901  26.467  1.00  0.00     0.031 C 
ATOM     36  C   UNL A   1      48.265  27.071  27.043  1.00  0.00     0.037 A 
BRANCH  23  37
ATOM     37  C   UNL A   1      47.113  32.690  29.338  1.00  0.00     0.058 A 
ATOM     38  C   UNL A   1      47.176  33.717  28.382  1.00  0.00     0.135 A 
ATOM     39  C   UNL A   1      47.523  32.989  30.646  1.00  0.00     0.135 A 
ATOM     40  F   UNL A   1      46.791  33.488  27.117  1.00  0.00    -0.206 F 
ATOM     41  C   UNL A   1      47.650  34.986  28.707  1.00  0.00     0.059 A 
ATOM     42  C   UNL A   1      47.983  34.256  30.998  1.00  0.00     0.059 A 
ATOM     43  F   UNL A   1      47.482  32.044  31.599  1.00  0.00    -0.206 F 
ATOM     44  C   UNL A   1      48.055  35.245  30.017  1.00  0.00     0.060 A 
BRANCH  44  45
ATOM     45  S   UNL A   1      48.673  36.894  30.422  1.00  0.00     0.124 S 
ATOM     46  O   UNL A   1      50.057  36.811  29.964  1.00  0.00    -0.237 OA
ATOM     47  O   UNL A   1      47.797  37.758  29.638  1.00  0.00    -0.237 OA
ATOM     48  O   UNL A   1      48.499  36.979  31.869  1.00  0.00    -0.744 OA
ENDBRANCH  44  45
ENDBRANCH  23  37
BRANCH  24  49
ATOM     49  C   UNL A   1      43.183  23.754  27.231  1.00  0.00     0.058 A 
ATOM     50  C   UNL A   1      42.775  23.397  25.940  1.00  0.00     0.135 A 
ATOM     51  C   UNL A   1      43.113  22.776  28.238  1.00  0.00     0.135 A 
ATOM     52  F   UNL A   1      42.811  24.301  24.950  1.00  0.00    -0.206 F 
ATOM     53  C   UNL A   1      42.349  22.104  25.647  1.00  0.00     0.059 A 
ATOM     54  C   UNL A   1      42.712  21.472  27.964  1.00  0.00     0.059 A 
ATOM     55  F   UNL A   1      43.500  23.069  29.488  1.00  0.00    -0.206 F 
ATOM     56  C   UNL A   1      42.339  21.144  26.662  1.00  0.00     0.060 A 
BRANCH  56  57
ATOM     57  S   UNL A   1      41.911  19.440  26.245  1.00  0.00     0.124 S 
ATOM     58  O   UNL A   1      42.391  18.720  27.418  1.00  0.00    -0.237 OA
ATOM     59  O   UNL A   1      40.462  19.516  26.089  1.00  0.00    -0.237 OA
ATOM     60  O   UNL A   1      42.653  19.200  25.010  1.00  0.00    -0.744 OA
ENDBRANCH  56  57
ENDBRANCH  24  49
BRANCH  36  61
ATOM     61  C   UNL A   1      49.528  26.585  26.393  1.00  0.00     0.058 A 
ATOM     62  C   UNL A   1      49.849  26.953  25.078  1.00  0.00     0.135 A 
ATOM     63  C   UNL A   1      50.460  25.818  27.109  1.00  0.00     0.135 A 
ATOM     64  F   UNL A   1      48.984  27.677  24.348  1.00  0.00    -0.206 F 
ATOM     65  C   UNL A   1      51.052  26.575  24.492  1.00  0.00     0.059 A 
ATOM     66  C   UNL A   1      51.680  25.448  26.550  1.00  0.00     0.059 A 
ATOM     67  F   UNL A   1      50.202  25.446  28.373  1.00  0.00    -0.206 F 
ATOM     68  C   UNL A   1      51.965  25.830  25.239  1.00  0.00     0.060 A 
BRANCH  68  69
ATOM     69  S   UNL A   1      53.548  25.402  24.486  1.00  0.00     0.124 S 
ATOM     70  O   UNL A   1      54.471  26.241  25.242  1.00  0.00    -0.237 OA
ATOM     71  O   UNL A   1      53.639  23.967  24.744  1.00  0.00    -0.237 OA
ATOM     72  O   UNL A   1      53.370  25.770  23.085  1.00  0.00    -0.744 OA
ENDBRANCH  68  69
ENDBRANCH  36  61
ENDBRANCH  10  11
ENDBRANCH   3   5
ENDBRANCH   2   3
ENDBRANCH   1   2
BRANCH   1  73
ATOM     73  C   UNL A   1      35.445  33.385  33.820  1.00  0.00     0.275 C 
BRANCH  73  74
ATOM     74  O   UNL A   1      34.561  33.486  32.692  1.00  0.00    -0.458 OA
BRANCH  74  75
ATOM     75  C   UNL A   1      34.579  34.681  32.031  1.00  0.00     0.343 C 
ATOM     76  O   UNL A   1      34.931  35.750  32.480  1.00  0.00    -0.246 OA
BRANCH  75  77
ATOM     77  C   UNL A   1      34.171  34.466  30.630  1.00  0.00     0.122 A 
ATOM     78  C   UNL A   1      34.390  33.211  30.037  1.00  0.00     0.031 A 
ATOM     79  C   UNL A   1      33.551  35.454  29.880  1.00  0.00     0.225 A 
ATOM     80  C   UNL A   1      33.927  32.956  28.738  1.00  0.00     0.001 A 
ATOM     81  N   UNL A   1      33.138  35.260  28.618  1.00  0.00    -0.221 NA
ATOM     82  C   UNL A   1      33.310  34.027  28.086  1.00  0.00     0.124 A 
BRANCH  79  83
ATOM     83  O   UNL A   1      33.280  36.706  30.345  1.00  0.00    -0.493 OA
ATOM     84  H   UNL A   1      33.981  37.288  30.562  1.00  0.00     0.295 HD
ENDBRANCH  79  83
BRANCH  80  85
ATOM     85  C   UNL A   1      34.001  31.634  28.094  1.00  0.00    -0.016 A 
ATOM     86  C   UNL A   1      35.131  30.820  28.255  1.00  0.00     0.012 A 
ATOM     87  C   UNL A   1      32.996  31.188  27.214  1.00  0.00     0.025 A 
ATOM     88  C   UNL A   1      35.261  29.623  27.545  1.00  0.00     0.040 A 
ATOM     89  C   UNL A   1      33.136  30.010  26.458  1.00  0.00     0.092 A 
ATOM     90  C   UNL A   1      34.271  29.235  26.649  1.00  0.00     0.135 A 
ATOM     91  F   UNL A   1      34.429  28.097  25.960  1.00  0.00    -0.206 F 
BRANCH  89  92
ATOM     92  C   UNL A   1      32.115  29.595  25.441  1.00  0.00     0.419 C 
ATOM     93  F   UNL A   1      31.475  28.439  25.760  1.00  0.00    -0.166 F 
ATOM     94  F   UNL A   1      31.144  30.533  25.258  1.00  0.00    -0.166 F 
ATOM     95  F   UNL A   1      32.656  29.386  24.204  1.00  0.00    -0.166 F 
ENDBRANCH  89  92
ENDBRANCH  80  85
ENDBRANCH  75  77
ENDBRANCH  74  75
ENDBRANCH  73  74
ENDBRANCH   1  73
TORSDOF 17
ENDMDL
