MODEL 1
REMARK VINA RESULT:      -9.1      0.000      0.000
REMARK SMILES CC(C)[C@@H](CO)Nc1ccc(C(=O)OCCOC(=O)c2ccc(-c3c4nc(c(-c5c(F)cc(S(=O)(=O)[O-])cc5F)c5ccc([nH]5)c(-c5c(F)cc(S(=O)(=O)[O-])cc5F)c5nc(c(-c6c(F)cc(S(=O)(=O)[O-])cc6F)c6ccc3[nH]6)C=C5)C=C4)cc2)nn1
REMARK SMILES IDX 15 1 14 2 12 3 13 4 11 5 8 6 9 7 87 8 10 9 86 10 7 11 4 13
REMARK SMILES IDX 2 14 1 15 3 16 5 17 6 18 16 20 17 21 18 22 19 23 20 24 21 25
REMARK SMILES IDX 85 26 22 27 84 28 23 29 24 30 25 31 78 32 26 33 83 34 77 35
REMARK SMILES IDX 79 36 27 37 82 38 76 39 75 40 28 42 62 43 41 44 61 45 42 46
REMARK SMILES IDX 45 47 60 48 80 49 43 50 44 51 59 53 81 54 46 55 29 56 30 57
REMARK SMILES IDX 39 58 31 59 32 60 38 61 40 62 33 63 34 64 35 65 36 66 37 67
REMARK SMILES IDX 63 68 64 69 73 70 65 71 66 72 72 73 74 74 67 75 68 76 69 77
REMARK SMILES IDX 70 78 71 79 47 80 48 81 57 82 49 83 50 84 56 85 58 86 51 87
REMARK SMILES IDX 52 88 53 89 54 90 55 91
REMARK H PARENT 7 12 6 19 79 41 45 52
REMARK Flexibility Score: inf
ROOT
ATOM      1  C   UNL A   1      39.388  19.787  25.607  1.00  0.00     0.275 C 
ENDROOT
BRANCH   1   2
ATOM      2  O   UNL A   1      40.434  19.925  26.589  1.00  0.00    -0.457 OA
BRANCH   2   3
ATOM      3  C   UNL A   1      41.700  19.763  26.116  1.00  0.00     0.358 C 
ATOM      4  O   UNL A   1      42.160  18.719  25.677  1.00  0.00    -0.244 OA
BRANCH   3   5
ATOM      5  C   UNL A   1      42.439  21.054  26.113  1.00  0.00     0.171 A 
ATOM      6  C   UNL A   1      43.774  23.421  25.779  1.00  0.00     0.148 A 
ATOM      7  C   UNL A   1      43.067  23.198  26.952  1.00  0.00     0.051 A 
ATOM      8  N   UNL A   1      43.820  22.470  24.829  1.00  0.00    -0.132 NA
ATOM      9  C   UNL A   1      42.358  22.004  27.116  1.00  0.00     0.042 A 
ATOM     10  N   UNL A   1      43.197  21.263  25.017  1.00  0.00    -0.141 NA
BRANCH   6  11
ATOM     11  N   UNL A   1      44.469  24.595  25.537  1.00  0.00    -0.363 N 
ATOM     12  H   UNL A   1      44.938  24.739  24.684  1.00  0.00     0.162 HD
BRANCH  11  13
ATOM     13  C   UNL A   1      44.485  25.616  26.590  1.00  0.00     0.108 C 
BRANCH  13  14
ATOM     14  C   UNL A   1      45.932  25.762  27.156  1.00  0.00     0.007 C 
ATOM     15  C   UNL A   1      46.222  27.198  27.606  1.00  0.00     0.009 C 
ATOM     16  C   UNL A   1      46.190  24.820  28.344  1.00  0.00     0.009 C 
ENDBRANCH  13  14
BRANCH  13  17
ATOM     17  C   UNL A   1      43.904  26.933  26.011  1.00  0.00     0.181 C 
BRANCH  17  18
ATOM     18  O   UNL A   1      44.346  27.248  24.693  1.00  0.00    -0.394 OA
ATOM     19  H   UNL A   1      44.814  26.484  24.318  1.00  0.00     0.210 HD
ENDBRANCH  17  18
ENDBRANCH  13  17
ENDBRANCH  11  13
ENDBRANCH   6  11
ENDBRANCH   3   5
ENDBRANCH   2   3
ENDBRANCH   1   2
BRANCH   1  20
ATOM     20  C   UNL A   1      38.529  21.055  25.506  1.00  0.00     0.275 C 
BRANCH  20  21
ATOM     21  O   UNL A   1      39.120  22.183  26.179  1.00  0.00    -0.458 OA
BRANCH  21  22
ATOM     22  C   UNL A   1      38.551  23.380  25.894  1.00  0.00     0.338 C 
ATOM     23  O   UNL A   1      37.610  23.577  25.143  1.00  0.00    -0.246 OA
BRANCH  22  24
ATOM     24  C   UNL A   1      39.158  24.443  26.717  1.00  0.00     0.060 A 
ATOM     25  C   UNL A   1      38.781  24.519  28.057  1.00  0.00     0.016 A 
ATOM     26  C   UNL A   1      40.004  25.411  26.171  1.00  0.00     0.016 A 
ATOM     27  C   UNL A   1      39.232  25.559  28.863  1.00  0.00     0.010 A 
ATOM     28  C   UNL A   1      40.461  26.460  26.983  1.00  0.00     0.010 A 
ATOM     29  C   UNL A   1      40.066  26.548  28.330  1.00  0.00    -0.014 A 
BRANCH  29  30
ATOM     30  C   UNL A   1      40.457  27.703  29.175  1.00  0.00     0.031 A 
ATOM     31  C   UNL A   1      41.797  27.708  29.857  1.00  0.00     0.074 A 
ATOM     32  C   UNL A   1      39.640  28.768  29.286  1.00  0.00     0.049 A 
ATOM     33  N   UNL A   1      42.296  28.579  30.697  1.00  0.00    -0.248 NA
ATOM     34  C   UNL A   1      42.695  26.585  29.548  1.00  0.00     0.031 C 
ATOM     35  C   UNL A   1      38.349  28.914  28.611  1.00  0.00     0.029 A 
ATOM     36  N   UNL A   1      39.778  29.932  29.999  1.00  0.00    -0.354 N 
ATOM     37  C   UNL A   1      43.555  28.097  31.036  1.00  0.00     0.074 A 
ATOM     38  C   UNL A   1      43.737  26.851  30.322  1.00  0.00     0.031 C 
ATOM     39  C   UNL A   1      37.820  30.107  28.932  1.00  0.00     0.029 A 
ATOM     40  C   UNL A   1      38.706  30.785  29.874  1.00  0.00     0.049 A 
ATOM     41  H   UNL A   1      40.568  30.136  30.549  1.00  0.00     0.167 HD
ATOM     42  C   UNL A   1      44.474  28.647  31.866  1.00  0.00     0.037 A 
ATOM     43  C   UNL A   1      38.458  31.968  30.470  1.00  0.00     0.037 A 
ATOM     44  C   UNL A   1      44.292  29.896  32.559  1.00  0.00     0.049 A 
ATOM     45  C   UNL A   1      39.462  32.525  31.441  1.00  0.00     0.074 A 
ATOM     46  C   UNL A   1      45.153  30.529  33.439  1.00  0.00     0.029 A 
ATOM     47  N   UNL A   1      43.173  30.708  32.443  1.00  0.00    -0.354 N 
ATOM     48  N   UNL A   1      40.627  32.035  31.794  1.00  0.00    -0.248 NA
ATOM     49  C   UNL A   1      39.114  33.788  32.107  1.00  0.00     0.031 C 
ATOM     50  C   UNL A   1      44.541  31.709  33.879  1.00  0.00     0.029 A 
ATOM     51  C   UNL A   1      43.316  31.831  33.242  1.00  0.00     0.049 A 
ATOM     52  H   UNL A   1      42.393  30.515  31.875  1.00  0.00     0.167 HD
ATOM     53  C   UNL A   1      41.162  32.943  32.702  1.00  0.00     0.074 A 
ATOM     54  C   UNL A   1      40.195  34.012  32.843  1.00  0.00     0.031 C 
ATOM     55  C   UNL A   1      42.348  32.894  33.358  1.00  0.00     0.037 A 
BRANCH  42  56
ATOM     56  C   UNL A   1      45.744  27.874  32.096  1.00  0.00     0.058 A 
ATOM     57  C   UNL A   1      46.902  28.109  31.338  1.00  0.00     0.135 A 
ATOM     58  C   UNL A   1      45.799  26.880  33.086  1.00  0.00     0.135 A 
ATOM     59  F   UNL A   1      46.898  29.036  30.368  1.00  0.00    -0.206 F 
ATOM     60  C   UNL A   1      48.059  27.359  31.528  1.00  0.00     0.059 A 
ATOM     61  C   UNL A   1      46.953  26.135  33.311  1.00  0.00     0.059 A 
ATOM     62  F   UNL A   1      44.720  26.617  33.841  1.00  0.00    -0.206 F 
ATOM     63  C   UNL A   1      48.071  26.368  32.512  1.00  0.00     0.060 A 
BRANCH  63  64
ATOM     64  S   UNL A   1      49.566  25.379  32.730  1.00  0.00     0.124 S 
ATOM     65  O   UNL A   1      49.065  24.270  33.536  1.00  0.00    -0.237 OA
ATOM     66  O   UNL A   1      49.932  25.049  31.356  1.00  0.00    -0.237 OA
ATOM     67  O   UNL A   1      50.478  26.290  33.415  1.00  0.00    -0.744 OA
ENDBRANCH  63  64
ENDBRANCH  42  56
BRANCH  43  68
ATOM     68  C   UNL A   1      37.195  32.695  30.173  1.00  0.00     0.058 A 
ATOM     69  C   UNL A   1      36.030  32.447  30.912  1.00  0.00     0.135 A 
ATOM     70  C   UNL A   1      37.134  33.664  29.158  1.00  0.00     0.135 A 
ATOM     71  F   UNL A   1      36.035  31.522  31.883  1.00  0.00    -0.206 F 
ATOM     72  C   UNL A   1      34.845  33.130  30.653  1.00  0.00     0.059 A 
ATOM     73  C   UNL A   1      35.968  34.376  28.897  1.00  0.00     0.059 A 
ATOM     74  F   UNL A   1      38.225  33.942  28.428  1.00  0.00    -0.206 F 
ATOM     75  C   UNL A   1      34.826  34.096  29.644  1.00  0.00     0.060 A 
BRANCH  75  76
ATOM     76  S   UNL A   1      33.299  35.017  29.353  1.00  0.00     0.124 S 
ATOM     77  O   UNL A   1      32.640  34.184  28.353  1.00  0.00    -0.237 OA
ATOM     78  O   UNL A   1      32.687  35.029  30.677  1.00  0.00    -0.237 OA
ATOM     79  O   UNL A   1      33.776  36.313  28.879  1.00  0.00    -0.744 OA
ENDBRANCH  75  76
ENDBRANCH  43  68
BRANCH  55  80
ATOM     80  C   UNL A   1      42.689  34.049  34.256  1.00  0.00     0.058 A 
ATOM     81  C   UNL A   1      42.450  34.004  35.637  1.00  0.00     0.135 A 
ATOM     82  C   UNL A   1      43.320  35.189  33.734  1.00  0.00     0.135 A 
ATOM     83  F   UNL A   1      41.843  32.940  36.184  1.00  0.00    -0.206 F 
ATOM     84  C   UNL A   1      42.815  35.056  36.471  1.00  0.00     0.059 A 
ATOM     85  C   UNL A   1      43.713  36.244  34.551  1.00  0.00     0.059 A 
ATOM     86  F   UNL A   1      43.577  35.277  32.419  1.00  0.00    -0.206 F 
ATOM     87  C   UNL A   1      43.449  36.172  35.919  1.00  0.00     0.060 A 
BRANCH  87  88
ATOM     88  S   UNL A   1      43.964  37.511  37.015  1.00  0.00     0.124 S 
ATOM     89  O   UNL A   1      45.264  37.033  37.474  1.00  0.00    -0.237 OA
ATOM     90  O   UNL A   1      43.993  38.660  36.116  1.00  0.00    -0.237 OA
ATOM     91  O   UNL A   1      42.913  37.543  38.027  1.00  0.00    -0.744 OA
ENDBRANCH  87  88
ENDBRANCH  55  80
ENDBRANCH  29  30
ENDBRANCH  22  24
ENDBRANCH  21  22
ENDBRANCH  20  21
ENDBRANCH   1  20
TORSDOF 19
ENDMDL
MODEL 2
REMARK VINA RESULT:      -9.0      3.135     11.103
REMARK SMILES CC(C)[C@@H](CO)Nc1ccc(C(=O)OCCOC(=O)c2ccc(-c3c4nc(c(-c5c(F)cc(S(=O)(=O)[O-])cc5F)c5ccc([nH]5)c(-c5c(F)cc(S(=O)(=O)[O-])cc5F)c5nc(c(-c6c(F)cc(S(=O)(=O)[O-])cc6F)c6ccc3[nH]6)C=C5)C=C4)cc2)nn1
REMARK SMILES IDX 15 1 14 2 12 3 13 4 11 5 8 6 9 7 87 8 10 9 86 10 7 11 4 13
REMARK SMILES IDX 2 14 1 15 3 16 5 17 6 18 16 20 17 21 18 22 19 23 20 24 21 25
REMARK SMILES IDX 85 26 22 27 84 28 23 29 24 30 25 31 78 32 26 33 83 34 77 35
REMARK SMILES IDX 79 36 27 37 82 38 76 39 75 40 28 42 62 43 41 44 61 45 42 46
REMARK SMILES IDX 45 47 60 48 80 49 43 50 44 51 59 53 81 54 46 55 29 56 30 57
REMARK SMILES IDX 39 58 31 59 32 60 38 61 40 62 33 63 34 64 35 65 36 66 37 67
REMARK SMILES IDX 63 68 64 69 73 70 65 71 66 72 72 73 74 74 67 75 68 76 69 77
REMARK SMILES IDX 70 78 71 79 47 80 48 81 57 82 49 83 50 84 56 85 58 86 51 87
REMARK SMILES IDX 52 88 53 89 54 90 55 91
REMARK H PARENT 7 12 6 19 79 41 45 52
REMARK Flexibility Score: inf
ROOT
ATOM      1  C   UNL A   1      34.335  34.167  29.189  1.00  0.00     0.275 C 
ENDROOT
BRANCH   1   2
ATOM      2  O   UNL A   1      33.930  33.795  30.521  1.00  0.00    -0.457 OA
BRANCH   2   3
ATOM      3  C   UNL A   1      34.604  34.415  31.528  1.00  0.00     0.358 C 
ATOM      4  O   UNL A   1      34.305  35.496  32.014  1.00  0.00    -0.244 OA
BRANCH   3   5
ATOM      5  C   UNL A   1      35.711  33.562  32.035  1.00  0.00     0.171 A 
ATOM      6  C   UNL A   1      37.860  32.259  33.123  1.00  0.00     0.148 A 
ATOM      7  C   UNL A   1      36.710  31.542  32.822  1.00  0.00     0.051 A 
ATOM      8  N   UNL A   1      37.922  33.577  32.858  1.00  0.00    -0.132 NA
ATOM      9  C   UNL A   1      35.599  32.207  32.295  1.00  0.00     0.042 A 
ATOM     10  N   UNL A   1      36.867  34.220  32.263  1.00  0.00    -0.141 NA
BRANCH   6  11
ATOM     11  N   UNL A   1      38.983  31.670  33.680  1.00  0.00    -0.363 N 
ATOM     12  H   UNL A   1      39.888  31.974  33.436  1.00  0.00     0.162 HD
BRANCH  11  13
ATOM     13  C   UNL A   1      38.786  30.583  34.644  1.00  0.00     0.108 C 
BRANCH  13  14
ATOM     14  C   UNL A   1      39.990  29.593  34.572  1.00  0.00     0.007 C 
ATOM     15  C   UNL A   1      40.459  29.374  33.130  1.00  0.00     0.009 C 
ATOM     16  C   UNL A   1      41.190  30.075  35.404  1.00  0.00     0.009 C 
ENDBRANCH  13  14
BRANCH  13  17
ATOM     17  C   UNL A   1      38.568  31.201  36.050  1.00  0.00     0.181 C 
BRANCH  17  18
ATOM     18  O   UNL A   1      37.668  30.476  36.884  1.00  0.00    -0.394 OA
ATOM     19  H   UNL A   1      37.820  30.718  37.811  1.00  0.00     0.210 HD
ENDBRANCH  17  18
ENDBRANCH  13  17
ENDBRANCH  11  13
ENDBRANCH   6  11
ENDBRANCH   3   5
ENDBRANCH   2   3
ENDBRANCH   1   2
BRANCH   1  20
ATOM     20  C   UNL A   1      34.407  32.952  28.254  1.00  0.00     0.275 C 
BRANCH  20  21
ATOM     21  O   UNL A   1      34.308  31.700  28.959  1.00  0.00    -0.458 OA
BRANCH  21  22
ATOM     22  C   UNL A   1      34.454  30.595  28.187  1.00  0.00     0.338 C 
ATOM     23  O   UNL A   1      33.621  30.123  27.430  1.00  0.00    -0.246 OA
BRANCH  22  24
ATOM     24  C   UNL A   1      35.830  30.076  28.290  1.00  0.00     0.060 A 
ATOM     25  C   UNL A   1      36.254  29.611  29.535  1.00  0.00     0.016 A 
ATOM     26  C   UNL A   1      36.726  30.131  27.221  1.00  0.00     0.016 A 
ATOM     27  C   UNL A   1      37.571  29.206  29.729  1.00  0.00     0.010 A 
ATOM     28  C   UNL A   1      38.053  29.722  27.415  1.00  0.00     0.010 A 
ATOM     29  C   UNL A   1      38.487  29.270  28.675  1.00  0.00    -0.014 A 
BRANCH  29  30
ATOM     30  C   UNL A   1      39.910  28.930  28.924  1.00  0.00     0.031 A 
ATOM     31  C   UNL A   1      40.813  29.937  29.578  1.00  0.00     0.074 A 
ATOM     32  C   UNL A   1      40.376  27.704  28.618  1.00  0.00     0.049 A 
ATOM     33  N   UNL A   1      42.099  29.869  29.812  1.00  0.00    -0.248 NA
ATOM     34  C   UNL A   1      40.184  31.187  30.032  1.00  0.00     0.031 C 
ATOM     35  C   UNL A   1      39.578  26.615  28.051  1.00  0.00     0.029 A 
ATOM     36  N   UNL A   1      41.631  27.165  28.749  1.00  0.00    -0.354 N 
ATOM     37  C   UNL A   1      42.438  31.074  30.418  1.00  0.00     0.074 A 
ATOM     38  C   UNL A   1      41.225  31.860  30.502  1.00  0.00     0.031 C 
ATOM     39  C   UNL A   1      40.360  25.534  27.896  1.00  0.00     0.029 A 
ATOM     40  C   UNL A   1      41.723  25.868  28.302  1.00  0.00     0.049 A 
ATOM     41  H   UNL A   1      42.394  27.661  29.126  1.00  0.00     0.167 HD
ATOM     42  C   UNL A   1      43.650  31.483  30.863  1.00  0.00     0.037 A 
ATOM     43  C   UNL A   1      42.791  25.050  28.209  1.00  0.00     0.037 A 
ATOM     44  C   UNL A   1      44.848  30.689  30.792  1.00  0.00     0.049 A 
ATOM     45  C   UNL A   1      44.140  25.552  28.645  1.00  0.00     0.074 A 
ATOM     46  C   UNL A   1      46.130  31.020  31.195  1.00  0.00     0.029 A 
ATOM     47  N   UNL A   1      44.910  29.397  30.289  1.00  0.00    -0.354 N 
ATOM     48  N   UNL A   1      44.457  26.713  29.169  1.00  0.00    -0.248 NA
ATOM     49  C   UNL A   1      45.279  24.641  28.467  1.00  0.00     0.031 C 
ATOM     50  C   UNL A   1      46.973  29.940  30.908  1.00  0.00     0.029 A 
ATOM     51  C   UNL A   1      46.210  28.920  30.362  1.00  0.00     0.049 A 
ATOM     52  H   UNL A   1      44.143  28.893  29.933  1.00  0.00     0.167 HD
ATOM     53  C   UNL A   1      45.827  26.661  29.406  1.00  0.00     0.074 A 
ATOM     54  C   UNL A   1      46.277  25.354  28.972  1.00  0.00     0.031 C 
ATOM     55  C   UNL A   1      46.636  27.610  29.938  1.00  0.00     0.037 A 
BRANCH  42  56
ATOM     56  C   UNL A   1      43.740  32.873  31.433  1.00  0.00     0.058 A 
ATOM     57  C   UNL A   1      43.516  33.131  32.795  1.00  0.00     0.135 A 
ATOM     58  C   UNL A   1      44.049  33.961  30.602  1.00  0.00     0.135 A 
ATOM     59  F   UNL A   1      43.202  32.129  33.630  1.00  0.00    -0.206 F 
ATOM     60  C   UNL A   1      43.559  34.425  33.305  1.00  0.00     0.059 A 
ATOM     61  C   UNL A   1      44.122  35.261  31.095  1.00  0.00     0.059 A 
ATOM     62  F   UNL A   1      44.273  33.769  29.292  1.00  0.00    -0.206 F 
ATOM     63  C   UNL A   1      43.854  35.485  32.445  1.00  0.00     0.060 A 
BRANCH  63  64
ATOM     64  S   UNL A   1      43.876  37.164  33.109  1.00  0.00     0.124 S 
ATOM     65  O   UNL A   1      43.786  37.960  31.889  1.00  0.00    -0.237 OA
ATOM     66  O   UNL A   1      42.694  37.182  33.965  1.00  0.00    -0.237 OA
ATOM     67  O   UNL A   1      45.154  37.233  33.811  1.00  0.00    -0.744 OA
ENDBRANCH  63  64
ENDBRANCH  42  56
BRANCH  43  68
ATOM     68  C   UNL A   1      42.625  23.677  27.664  1.00  0.00     0.058 A 
ATOM     69  C   UNL A   1      42.715  23.431  26.287  1.00  0.00     0.135 A 
ATOM     70  C   UNL A   1      42.391  22.581  28.511  1.00  0.00     0.135 A 
ATOM     71  F   UNL A   1      42.925  24.447  25.436  1.00  0.00    -0.206 F 
ATOM     72  C   UNL A   1      42.575  22.148  25.765  1.00  0.00     0.059 A 
ATOM     73  C   UNL A   1      42.271  21.287  28.015  1.00  0.00     0.059 A 
ATOM     74  F   UNL A   1      42.303  22.763  29.838  1.00  0.00    -0.206 F 
ATOM     75  C   UNL A   1      42.356  21.081  26.640  1.00  0.00     0.060 A 
BRANCH  75  76
ATOM     76  S   UNL A   1      42.231  19.413  25.960  1.00  0.00     0.124 S 
ATOM     77  O   UNL A   1      42.841  18.617  27.018  1.00  0.00    -0.237 OA
ATOM     78  O   UNL A   1      40.790  19.254  25.792  1.00  0.00    -0.237 OA
ATOM     79  O   UNL A   1      42.993  19.500  24.717  1.00  0.00    -0.744 OA
ENDBRANCH  75  76
ENDBRANCH  43  68
BRANCH  55  80
ATOM     80  C   UNL A   1      48.085  27.259  30.120  1.00  0.00     0.058 A 
ATOM     81  C   UNL A   1      49.026  27.455  29.099  1.00  0.00     0.135 A 
ATOM     82  C   UNL A   1      48.547  26.779  31.357  1.00  0.00     0.135 A 
ATOM     83  F   UNL A   1      48.634  27.905  27.897  1.00  0.00    -0.206 F 
ATOM     84  C   UNL A   1      50.375  27.176  29.291  1.00  0.00     0.059 A 
ATOM     85  C   UNL A   1      49.894  26.512  31.578  1.00  0.00     0.059 A 
ATOM     86  F   UNL A   1      47.687  26.581  32.369  1.00  0.00    -0.206 F 
ATOM     87  C   UNL A   1      50.801  26.707  30.537  1.00  0.00     0.060 A 
BRANCH  87  88
ATOM     88  S   UNL A   1      52.560  26.395  30.793  1.00  0.00     0.124 S 
ATOM     89  O   UNL A   1      52.531  25.144  31.544  1.00  0.00    -0.237 OA
ATOM     90  O   UNL A   1      53.065  26.302  29.427  1.00  0.00    -0.237 OA
ATOM     91  O   UNL A   1      53.007  27.566  31.540  1.00  0.00    -0.744 OA
ENDBRANCH  87  88
ENDBRANCH  55  80
ENDBRANCH  29  30
ENDBRANCH  22  24
ENDBRANCH  21  22
ENDBRANCH  20  21
ENDBRANCH   1  20
TORSDOF 19
ENDMDL
MODEL 3
REMARK VINA RESULT:      -8.8      3.668      5.541
REMARK SMILES CC(C)[C@@H](CO)Nc1ccc(C(=O)OCCOC(=O)c2ccc(-c3c4nc(c(-c5c(F)cc(S(=O)(=O)[O-])cc5F)c5ccc([nH]5)c(-c5c(F)cc(S(=O)(=O)[O-])cc5F)c5nc(c(-c6c(F)cc(S(=O)(=O)[O-])cc6F)c6ccc3[nH]6)C=C5)C=C4)cc2)nn1
REMARK SMILES IDX 15 1 14 2 12 3 13 4 11 5 8 6 9 7 87 8 10 9 86 10 7 11 4 13
REMARK SMILES IDX 2 14 1 15 3 16 5 17 6 18 16 20 17 21 18 22 19 23 20 24 21 25
REMARK SMILES IDX 85 26 22 27 84 28 23 29 24 30 25 31 78 32 26 33 83 34 77 35
REMARK SMILES IDX 79 36 27 37 82 38 76 39 75 40 28 42 62 43 41 44 61 45 42 46
REMARK SMILES IDX 45 47 60 48 80 49 43 50 44 51 59 53 81 54 46 55 29 56 30 57
REMARK SMILES IDX 39 58 31 59 32 60 38 61 40 62 33 63 34 64 35 65 36 66 37 67
REMARK SMILES IDX 63 68 64 69 73 70 65 71 66 72 72 73 74 74 67 75 68 76 69 77
REMARK SMILES IDX 70 78 71 79 47 80 48 81 57 82 49 83 50 84 56 85 58 86 51 87
REMARK SMILES IDX 52 88 53 89 54 90 55 91
REMARK H PARENT 7 12 6 19 79 41 45 52
REMARK Flexibility Score: inf
ROOT
ATOM      1  C   UNL A   1      39.645  21.444  26.116  1.00  0.00     0.275 C 
ENDROOT
BRANCH   1   2
ATOM      2  O   UNL A   1      38.414  21.933  25.549  1.00  0.00    -0.457 OA
BRANCH   2   3
ATOM      3  C   UNL A   1      37.637  20.992  24.946  1.00  0.00     0.358 C 
ATOM      4  O   UNL A   1      37.906  19.802  24.867  1.00  0.00    -0.244 OA
BRANCH   3   5
ATOM      5  C   UNL A   1      36.359  21.582  24.467  1.00  0.00     0.171 A 
ATOM      6  C   UNL A   1      34.166  22.744  23.310  1.00  0.00     0.148 A 
ATOM      7  C   UNL A   1      33.987  21.738  24.248  1.00  0.00     0.051 A 
ATOM      8  N   UNL A   1      35.406  23.158  22.994  1.00  0.00    -0.132 NA
ATOM      9  C   UNL A   1      35.103  21.119  24.820  1.00  0.00     0.042 A 
ATOM     10  N   UNL A   1      36.504  22.616  23.612  1.00  0.00    -0.141 NA
BRANCH   6  11
ATOM     11  N   UNL A   1      33.106  23.374  22.679  1.00  0.00    -0.363 N 
ATOM     12  H   UNL A   1      32.656  22.959  21.907  1.00  0.00     0.162 HD
BRANCH  11  13
ATOM     13  C   UNL A   1      32.673  24.677  23.194  1.00  0.00     0.108 C 
BRANCH  13  14
ATOM     14  C   UNL A   1      33.005  25.790  22.151  1.00  0.00     0.007 C 
ATOM     15  C   UNL A   1      31.781  26.159  21.307  1.00  0.00     0.009 C 
ATOM     16  C   UNL A   1      33.539  27.069  22.817  1.00  0.00     0.009 C 
ENDBRANCH  13  14
BRANCH  13  17
ATOM     17  C   UNL A   1      31.166  24.590  23.557  1.00  0.00     0.181 C 
BRANCH  17  18
ATOM     18  O   UNL A   1      30.471  23.505  22.947  1.00  0.00    -0.394 OA
ATOM     19  H   UNL A   1      30.361  22.788  23.592  1.00  0.00     0.210 HD
ENDBRANCH  17  18
ENDBRANCH  13  17
ENDBRANCH  11  13
ENDBRANCH   6  11
ENDBRANCH   3   5
ENDBRANCH   2   3
ENDBRANCH   1   2
BRANCH   1  20
ATOM     20  C   UNL A   1      40.502  22.581  26.689  1.00  0.00     0.275 C 
BRANCH  20  21
ATOM     21  O   UNL A   1      39.763  23.807  26.851  1.00  0.00    -0.458 OA
BRANCH  21  22
ATOM     22  C   UNL A   1      40.425  24.928  26.471  1.00  0.00     0.338 C 
ATOM     23  O   UNL A   1      40.801  25.202  25.343  1.00  0.00    -0.246 OA
BRANCH  22  24
ATOM     24  C   UNL A   1      40.545  25.861  27.606  1.00  0.00     0.060 A 
ATOM     25  C   UNL A   1      39.539  25.837  28.572  1.00  0.00     0.016 A 
ATOM     26  C   UNL A   1      41.565  26.811  27.680  1.00  0.00     0.016 A 
ATOM     27  C   UNL A   1      39.533  26.762  29.611  1.00  0.00     0.010 A 
ATOM     28  C   UNL A   1      41.561  27.743  28.728  1.00  0.00     0.010 A 
ATOM     29  C   UNL A   1      40.537  27.732  29.693  1.00  0.00    -0.014 A 
BRANCH  29  30
ATOM     30  C   UNL A   1      40.461  28.772  30.749  1.00  0.00     0.031 A 
ATOM     31  C   UNL A   1      41.441  28.749  31.889  1.00  0.00     0.074 A 
ATOM     32  C   UNL A   1      39.554  29.763  30.659  1.00  0.00     0.049 A 
ATOM     33  N   UNL A   1      41.496  29.513  32.950  1.00  0.00    -0.248 NA
ATOM     34  C   UNL A   1      42.502  27.732  31.822  1.00  0.00     0.031 C 
ATOM     35  C   UNL A   1      38.600  29.937  29.562  1.00  0.00     0.029 A 
ATOM     36  N   UNL A   1      39.293  30.817  31.499  1.00  0.00    -0.354 N 
ATOM     37  C   UNL A   1      42.581  29.055  33.689  1.00  0.00     0.074 A 
ATOM     38  C   UNL A   1      43.146  27.937  32.962  1.00  0.00     0.031 C 
ATOM     39  C   UNL A   1      37.868  31.040  29.790  1.00  0.00     0.029 A 
ATOM     40  C   UNL A   1      38.262  31.620  31.071  1.00  0.00     0.049 A 
ATOM     41  H   UNL A   1      39.795  30.981  32.330  1.00  0.00     0.167 HD
ATOM     42  C   UNL A   1      43.061  29.526  34.865  1.00  0.00     0.037 A 
ATOM     43  C   UNL A   1      37.687  32.688  31.657  1.00  0.00     0.037 A 
ATOM     44  C   UNL A   1      42.504  30.649  35.573  1.00  0.00     0.049 A 
ATOM     45  C   UNL A   1      38.191  33.151  32.997  1.00  0.00     0.074 A 
ATOM     46  C   UNL A   1      42.902  31.192  36.782  1.00  0.00     0.029 A 
ATOM     47  N   UNL A   1      41.430  31.409  35.130  1.00  0.00    -0.354 N 
ATOM     48  N   UNL A   1      39.186  32.678  33.711  1.00  0.00    -0.248 NA
ATOM     49  C   UNL A   1      37.490  34.283  33.617  1.00  0.00     0.031 C 
ATOM     50  C   UNL A   1      42.050  32.260  37.086  1.00  0.00     0.029 A 
ATOM     51  C   UNL A   1      41.145  32.409  36.046  1.00  0.00     0.049 A 
ATOM     52  H   UNL A   1      40.943  31.259  34.288  1.00  0.00     0.167 HD
ATOM     53  C   UNL A   1      39.245  33.470  34.852  1.00  0.00     0.074 A 
ATOM     54  C   UNL A   1      38.188  34.455  34.732  1.00  0.00     0.031 C 
ATOM     55  C   UNL A   1      40.099  33.390  35.902  1.00  0.00     0.037 A 
BRANCH  42  56
ATOM     56  C   UNL A   1      44.227  28.797  35.474  1.00  0.00     0.058 A 
ATOM     57  C   UNL A   1      45.555  29.146  35.180  1.00  0.00     0.135 A 
ATOM     58  C   UNL A   1      44.011  27.730  36.361  1.00  0.00     0.135 A 
ATOM     59  F   UNL A   1      45.817  30.148  34.326  1.00  0.00    -0.206 F 
ATOM     60  C   UNL A   1      46.627  28.438  35.715  1.00  0.00     0.059 A 
ATOM     61  C   UNL A   1      45.068  27.024  36.927  1.00  0.00     0.059 A 
ATOM     62  F   UNL A   1      42.760  27.357  36.677  1.00  0.00    -0.206 F 
ATOM     63  C   UNL A   1      46.373  27.372  36.581  1.00  0.00     0.060 A 
BRANCH  63  64
ATOM     64  S   UNL A   1      47.769  26.439  37.245  1.00  0.00     0.124 S 
ATOM     65  O   UNL A   1      48.884  27.015  36.498  1.00  0.00    -0.237 OA
ATOM     66  O   UNL A   1      47.723  26.768  38.666  1.00  0.00    -0.237 OA
ATOM     67  O   UNL A   1      47.441  25.056  36.915  1.00  0.00    -0.744 OA
ENDBRANCH  63  64
ENDBRANCH  42  56
BRANCH  43  68
ATOM     68  C   UNL A   1      36.557  33.382  30.984  1.00  0.00     0.058 A 
ATOM     69  C   UNL A   1      35.244  33.250  31.458  1.00  0.00     0.135 A 
ATOM     70  C   UNL A   1      36.770  34.204  29.866  1.00  0.00     0.135 A 
ATOM     71  F   UNL A   1      34.989  32.465  32.516  1.00  0.00    -0.206 F 
ATOM     72  C   UNL A   1      34.179  33.904  30.845  1.00  0.00     0.059 A 
ATOM     73  C   UNL A   1      35.725  34.887  29.251  1.00  0.00     0.059 A 
ATOM     74  F   UNL A   1      38.009  34.370  29.379  1.00  0.00    -0.206 F 
ATOM     75  C   UNL A   1      34.432  34.724  29.743  1.00  0.00     0.060 A 
BRANCH  75  76
ATOM     76  S   UNL A   1      33.053  35.613  28.989  1.00  0.00     0.124 S 
ATOM     77  O   UNL A   1      32.274  35.998  30.160  1.00  0.00    -0.237 OA
ATOM     78  O   UNL A   1      33.730  36.700  28.288  1.00  0.00    -0.237 OA
ATOM     79  O   UNL A   1      32.439  34.609  28.126  1.00  0.00    -0.744 OA
ENDBRANCH  75  76
ENDBRANCH  43  68
BRANCH  55  80
ATOM     80  C   UNL A   1      39.956  34.418  36.989  1.00  0.00     0.058 A 
ATOM     81  C   UNL A   1      40.691  35.612  36.974  1.00  0.00     0.135 A 
ATOM     82  C   UNL A   1      39.026  34.230  38.023  1.00  0.00     0.135 A 
ATOM     83  F   UNL A   1      41.598  35.836  36.011  1.00  0.00    -0.206 F 
ATOM     84  C   UNL A   1      40.517  36.583  37.955  1.00  0.00     0.059 A 
ATOM     85  C   UNL A   1      38.820  35.196  39.003  1.00  0.00     0.059 A 
ATOM     86  F   UNL A   1      38.293  33.106  38.077  1.00  0.00    -0.206 F 
ATOM     87  C   UNL A   1      39.576  36.367  38.965  1.00  0.00     0.060 A 
BRANCH  87  88
ATOM     88  S   UNL A   1      39.322  37.653  40.206  1.00  0.00     0.124 S 
ATOM     89  O   UNL A   1      38.209  38.401  39.631  1.00  0.00    -0.237 OA
ATOM     90  O   UNL A   1      39.013  36.878  41.404  1.00  0.00    -0.237 OA
ATOM     91  O   UNL A   1      40.602  38.354  40.236  1.00  0.00    -0.744 OA
ENDBRANCH  87  88
ENDBRANCH  55  80
ENDBRANCH  29  30
ENDBRANCH  22  24
ENDBRANCH  21  22
ENDBRANCH  20  21
ENDBRANCH   1  20
TORSDOF 19
ENDMDL
