MODEL 1
REMARK VINA RESULT:     -12.1      0.000      0.000
REMARK SMILES NS(=O)(=O)c1ccc(-c2coc(=O)n2-c2ccc(C(=O)OCCOC(=O)c3ccc(-c4c5nc(c(-c6c(F)cc(S(=O)(=O)[O-])cc6F)c6ccc([nH]6)c(-c6c(F)cc(S(=O)(=O)[O-])cc6F)c6nc(c(-c7c(F)cc(S(=O)(=O)[O-])cc7F)c7ccc4[nH]7)C=C6)C=C5)cc3)cc2)cc1
REMARK SMILES IDX 22 1 21 2 19 3 20 4 18 5 15 6 16 7 94 8 17 9 93 10 14 11
REMARK SMILES IDX 9 12 10 13 11 14 12 15 13 16 8 17 5 18 6 19 96 20 7 21 95 22
REMARK SMILES IDX 2 23 3 24 4 25 1 26 23 29 24 30 25 31 26 32 27 33 28 34
REMARK SMILES IDX 92 35 29 36 91 37 30 38 31 39 32 40 85 41 33 42 90 43 84 44
REMARK SMILES IDX 86 45 34 46 89 47 83 48 82 49 35 51 69 52 48 53 68 54 49 55
REMARK SMILES IDX 52 56 67 57 87 58 50 59 51 60 66 62 88 63 53 64 36 65 37 66
REMARK SMILES IDX 46 67 38 68 39 69 45 70 47 71 40 72 41 73 42 74 43 75 44 76
REMARK SMILES IDX 70 77 71 78 80 79 72 80 73 81 79 82 81 83 74 84 75 85 76 86
REMARK SMILES IDX 77 87 78 88 54 89 55 90 64 91 56 92 57 93 63 94 65 95 58 96
REMARK SMILES IDX 59 97 60 98 61 99 62 100
REMARK H PARENT 1 27 1 28 86 50 52 61
REMARK Flexibility Score: inf
ROOT
ATOM      1  C   UNL A   1      31.815  31.617  26.736  1.00  0.00     0.275 C 
ENDROOT
BRANCH   1   2
ATOM      2  O   UNL A   1      33.037  31.014  26.281  1.00  0.00    -0.458 OA
BRANCH   2   3
ATOM      3  C   UNL A   1      33.581  30.093  27.119  1.00  0.00     0.338 C 
ATOM      4  O   UNL A   1      34.218  30.322  28.136  1.00  0.00    -0.246 OA
BRANCH   3   5
ATOM      5  C   UNL A   1      33.234  28.724  26.673  1.00  0.00     0.060 A 
ATOM      6  C   UNL A   1      32.488  26.258  25.602  1.00  0.00     0.053 A 
ATOM      7  C   UNL A   1      33.664  26.869  25.163  1.00  0.00     0.028 A 
ATOM      8  C   UNL A   1      31.754  26.828  26.654  1.00  0.00     0.028 A 
ATOM      9  C   UNL A   1      34.017  28.119  25.677  1.00  0.00     0.018 A 
ATOM     10  C   UNL A   1      32.137  28.047  27.205  1.00  0.00     0.018 A 
BRANCH   6  11
ATOM     11  N   UNL A   1      31.937  25.176  24.887  1.00  0.00    -0.242 N 
ATOM     12  C   UNL A   1      30.860  25.215  24.046  1.00  0.00     0.095 A 
ATOM     13  C   UNL A   1      30.687  23.971  23.616  1.00  0.00     0.228 A 
ATOM     14  O   UNL A   1      31.616  23.059  24.114  1.00  0.00    -0.415 OA
ATOM     15  C   UNL A   1      32.434  23.878  24.896  1.00  0.00     0.424 A 
ATOM     16  O   UNL A   1      33.414  23.449  25.489  1.00  0.00    -0.223 OA
BRANCH  12  17
ATOM     17  C   UNL A   1      30.203  26.430  23.562  1.00  0.00     0.002 A 
ATOM     18  C   UNL A   1      29.013  28.801  22.659  1.00  0.00     0.082 A 
ATOM     19  C   UNL A   1      30.342  28.535  22.333  1.00  0.00     0.022 A 
ATOM     20  C   UNL A   1      28.272  27.895  23.426  1.00  0.00     0.022 A 
ATOM     21  C   UNL A   1      30.928  27.350  22.781  1.00  0.00     0.012 A 
ATOM     22  C   UNL A   1      28.866  26.709  23.871  1.00  0.00     0.012 A 
BRANCH  18  23
ATOM     23  S   UNL A   1      28.261  30.309  22.121  1.00  0.00     0.238 S 
ATOM     24  O   UNL A   1      27.300  30.734  23.108  1.00  0.00    -0.207 OA
ATOM     25  O   UNL A   1      27.933  30.179  20.718  1.00  0.00    -0.207 OA
BRANCH  23  26
ATOM     26  N   UNL A   1      29.511  31.426  22.212  1.00  0.00    -0.225 NA
ATOM     27  H   UNL A   1      29.145  32.361  22.035  1.00  0.00     0.137 HD
ATOM     28  H   UNL A   1      30.220  31.201  21.515  1.00  0.00     0.137 HD
ENDBRANCH  23  26
ENDBRANCH  18  23
ENDBRANCH  12  17
ENDBRANCH   6  11
ENDBRANCH   3   5
ENDBRANCH   2   3
ENDBRANCH   1   2
BRANCH   1  29
ATOM     29  C   UNL A   1      32.038  33.067  27.141  1.00  0.00     0.275 C 
BRANCH  29  30
ATOM     30  O   UNL A   1      32.536  33.167  28.473  1.00  0.00    -0.458 OA
BRANCH  30  31
ATOM     31  C   UNL A   1      33.043  34.379  28.795  1.00  0.00     0.338 C 
ATOM     32  O   UNL A   1      32.522  35.467  28.617  1.00  0.00    -0.246 OA
BRANCH  31  33
ATOM     33  C   UNL A   1      34.454  34.225  29.152  1.00  0.00     0.060 A 
ATOM     34  C   UNL A   1      35.390  34.261  28.114  1.00  0.00     0.016 A 
ATOM     35  C   UNL A   1      34.775  33.739  30.427  1.00  0.00     0.016 A 
ATOM     36  C   UNL A   1      36.611  33.652  28.314  1.00  0.00     0.010 A 
ATOM     37  C   UNL A   1      35.979  33.111  30.614  1.00  0.00     0.010 A 
ATOM     38  C   UNL A   1      36.856  33.015  29.537  1.00  0.00    -0.014 A 
BRANCH  38  39
ATOM     39  C   UNL A   1      38.143  32.386  29.748  1.00  0.00     0.031 A 
ATOM     40  C   UNL A   1      38.140  30.972  29.298  1.00  0.00     0.074 A 
ATOM     41  C   UNL A   1      39.230  33.077  30.142  1.00  0.00     0.049 A 
ATOM     42  N   UNL A   1      38.244  29.914  30.030  1.00  0.00    -0.248 NA
ATOM     43  C   UNL A   1      37.752  30.694  27.901  1.00  0.00     0.031 C 
ATOM     44  C   UNL A   1      39.363  34.524  30.330  1.00  0.00     0.029 A 
ATOM     45  N   UNL A   1      40.498  32.634  30.352  1.00  0.00    -0.354 N 
ATOM     46  C   UNL A   1      38.201  28.847  29.140  1.00  0.00     0.074 A 
ATOM     47  C   UNL A   1      37.664  29.364  27.912  1.00  0.00     0.031 C 
ATOM     48  C   UNL A   1      40.677  34.849  30.381  1.00  0.00     0.029 A 
ATOM     49  C   UNL A   1      41.470  33.632  30.351  1.00  0.00     0.049 A 
ATOM     50  H   UNL A   1      40.712  31.683  30.493  1.00  0.00     0.167 HD
ATOM     51  C   UNL A   1      38.892  27.703  29.396  1.00  0.00     0.037 A 
ATOM     52  C   UNL A   1      42.813  33.439  30.242  1.00  0.00     0.037 A 
ATOM     53  C   UNL A   1      39.235  27.615  30.795  1.00  0.00     0.049 A 
ATOM     54  C   UNL A   1      43.071  32.013  30.594  1.00  0.00     0.074 A 
ATOM     55  C   UNL A   1      38.507  27.625  31.969  1.00  0.00     0.029 A 
ATOM     56  N   UNL A   1      40.529  27.911  31.152  1.00  0.00    -0.354 N 
ATOM     57  N   UNL A   1      42.906  31.523  31.793  1.00  0.00    -0.248 NA
ATOM     58  C   UNL A   1      43.028  31.038  29.512  1.00  0.00     0.031 C 
ATOM     59  C   UNL A   1      39.285  28.398  32.879  1.00  0.00     0.029 A 
ATOM     60  C   UNL A   1      40.477  28.740  32.243  1.00  0.00     0.049 A 
ATOM     61  H   UNL A   1      41.344  27.586  30.705  1.00  0.00     0.167 HD
ATOM     62  C   UNL A   1      42.305  30.288  31.591  1.00  0.00     0.074 A 
ATOM     63  C   UNL A   1      42.463  30.017  30.162  1.00  0.00     0.031 C 
ATOM     64  C   UNL A   1      41.479  29.742  32.530  1.00  0.00     0.037 A 
BRANCH  51  65
ATOM     65  C   UNL A   1      39.607  26.898  28.334  1.00  0.00     0.058 A 
ATOM     66  C   UNL A   1      39.491  25.493  28.357  1.00  0.00     0.135 A 
ATOM     67  C   UNL A   1      40.621  27.407  27.490  1.00  0.00     0.135 A 
ATOM     68  F   UNL A   1      38.564  24.896  29.123  1.00  0.00    -0.206 F 
ATOM     69  C   UNL A   1      40.370  24.659  27.667  1.00  0.00     0.059 A 
ATOM     70  C   UNL A   1      41.472  26.595  26.751  1.00  0.00     0.059 A 
ATOM     71  F   UNL A   1      40.909  28.711  27.404  1.00  0.00    -0.206 F 
ATOM     72  C   UNL A   1      41.367  25.221  26.879  1.00  0.00     0.060 A 
BRANCH  72  73
ATOM     73  S   UNL A   1      42.556  24.151  26.058  1.00  0.00     0.124 S 
ATOM     74  O   UNL A   1      41.763  22.948  25.841  1.00  0.00    -0.237 OA
ATOM     75  O   UNL A   1      42.884  24.928  24.867  1.00  0.00    -0.237 OA
ATOM     76  O   UNL A   1      43.633  24.033  27.037  1.00  0.00    -0.744 OA
ENDBRANCH  72  73
ENDBRANCH  51  65
BRANCH  52  77
ATOM     77  C   UNL A   1      43.816  34.256  29.497  1.00  0.00     0.058 A 
ATOM     78  C   UNL A   1      43.802  34.310  28.089  1.00  0.00     0.135 A 
ATOM     79  C   UNL A   1      44.605  35.231  30.139  1.00  0.00     0.135 A 
ATOM     80  F   UNL A   1      43.077  33.426  27.387  1.00  0.00    -0.206 F 
ATOM     81  C   UNL A   1      44.463  35.314  27.368  1.00  0.00     0.059 A 
ATOM     82  C   UNL A   1      45.281  36.234  29.443  1.00  0.00     0.059 A 
ATOM     83  F   UNL A   1      44.668  35.305  31.476  1.00  0.00    -0.206 F 
ATOM     84  C   UNL A   1      45.178  36.291  28.059  1.00  0.00     0.060 A 
BRANCH  84  85
ATOM     85  S   UNL A   1      45.850  37.713  27.161  1.00  0.00     0.124 S 
ATOM     86  O   UNL A   1      46.587  37.067  26.080  1.00  0.00    -0.237 OA
ATOM     87  O   UNL A   1      44.642  38.432  26.770  1.00  0.00    -0.237 OA
ATOM     88  O   UNL A   1      46.673  38.386  28.162  1.00  0.00    -0.744 OA
ENDBRANCH  84  85
ENDBRANCH  52  77
BRANCH  64  89
ATOM     89  C   UNL A   1      41.464  30.339  33.914  1.00  0.00     0.058 A 
ATOM     90  C   UNL A   1      42.355  30.005  34.950  1.00  0.00     0.135 A 
ATOM     91  C   UNL A   1      40.579  31.401  34.149  1.00  0.00     0.135 A 
ATOM     92  F   UNL A   1      43.309  29.081  34.771  1.00  0.00    -0.206 F 
ATOM     93  C   UNL A   1      42.322  30.661  36.184  1.00  0.00     0.059 A 
ATOM     94  C   UNL A   1      40.554  32.092  35.354  1.00  0.00     0.059 A 
ATOM     95  F   UNL A   1      39.746  31.811  33.177  1.00  0.00    -0.206 F 
ATOM     96  C   UNL A   1      41.413  31.702  36.377  1.00  0.00     0.060 A 
BRANCH  96  97
ATOM     97  S   UNL A   1      41.381  32.569  37.960  1.00  0.00     0.124 S 
ATOM     98  O   UNL A   1      42.199  31.703  38.801  1.00  0.00    -0.237 OA
ATOM     99  O   UNL A   1      41.964  33.864  37.625  1.00  0.00    -0.237 OA
ATOM    100  O   UNL A   1      39.960  32.605  38.301  1.00  0.00    -0.744 OA
ENDBRANCH  96  97
ENDBRANCH  64  89
ENDBRANCH  38  39
ENDBRANCH  31  33
ENDBRANCH  30  31
ENDBRANCH  29  30
ENDBRANCH   1  29
TORSDOF 18
ENDMDL
MODEL 2
REMARK VINA RESULT:     -11.9      3.866      9.271
REMARK SMILES NS(=O)(=O)c1ccc(-c2coc(=O)n2-c2ccc(C(=O)OCCOC(=O)c3ccc(-c4c5nc(c(-c6c(F)cc(S(=O)(=O)[O-])cc6F)c6ccc([nH]6)c(-c6c(F)cc(S(=O)(=O)[O-])cc6F)c6nc(c(-c7c(F)cc(S(=O)(=O)[O-])cc7F)c7ccc4[nH]7)C=C6)C=C5)cc3)cc2)cc1
REMARK SMILES IDX 22 1 21 2 19 3 20 4 18 5 15 6 16 7 94 8 17 9 93 10 14 11
REMARK SMILES IDX 9 12 10 13 11 14 12 15 13 16 8 17 5 18 6 19 96 20 7 21 95 22
REMARK SMILES IDX 2 23 3 24 4 25 1 26 23 29 24 30 25 31 26 32 27 33 28 34
REMARK SMILES IDX 92 35 29 36 91 37 30 38 31 39 32 40 85 41 33 42 90 43 84 44
REMARK SMILES IDX 86 45 34 46 89 47 83 48 82 49 35 51 69 52 48 53 68 54 49 55
REMARK SMILES IDX 52 56 67 57 87 58 50 59 51 60 66 62 88 63 53 64 36 65 37 66
REMARK SMILES IDX 46 67 38 68 39 69 45 70 47 71 40 72 41 73 42 74 43 75 44 76
REMARK SMILES IDX 70 77 71 78 80 79 72 80 73 81 79 82 81 83 74 84 75 85 76 86
REMARK SMILES IDX 77 87 78 88 54 89 55 90 64 91 56 92 57 93 63 94 65 95 58 96
REMARK SMILES IDX 59 97 60 98 61 99 62 100
REMARK H PARENT 1 27 1 28 86 50 52 61
REMARK Flexibility Score: inf
ROOT
ATOM      1  C   UNL A   1      39.604  20.181  26.373  1.00  0.00     0.275 C 
ENDROOT
BRANCH   1   2
ATOM      2  O   UNL A   1      38.820  21.000  25.492  1.00  0.00    -0.458 OA
BRANCH   2   3
ATOM      3  C   UNL A   1      38.595  22.270  25.920  1.00  0.00     0.338 C 
ATOM      4  O   UNL A   1      39.332  22.941  26.626  1.00  0.00    -0.246 OA
BRANCH   3   5
ATOM      5  C   UNL A   1      37.332  22.789  25.346  1.00  0.00     0.060 A 
ATOM      6  C   UNL A   1      34.824  23.565  24.398  1.00  0.00     0.053 A 
ATOM      7  C   UNL A   1      35.196  23.892  25.704  1.00  0.00     0.028 A 
ATOM      8  C   UNL A   1      35.751  22.954  23.540  1.00  0.00     0.028 A 
ATOM      9  C   UNL A   1      36.438  23.473  26.186  1.00  0.00     0.018 A 
ATOM     10  C   UNL A   1      37.010  22.585  24.004  1.00  0.00     0.018 A 
BRANCH   6  11
ATOM     11  N   UNL A   1      33.481  23.680  23.990  1.00  0.00    -0.242 N 
ATOM     12  C   UNL A   1      32.626  22.656  23.690  1.00  0.00     0.095 A 
ATOM     13  C   UNL A   1      31.481  23.227  23.336  1.00  0.00     0.228 A 
ATOM     14  O   UNL A   1      31.496  24.620  23.391  1.00  0.00    -0.415 OA
ATOM     15  C   UNL A   1      32.787  24.877  23.859  1.00  0.00     0.424 A 
ATOM     16  O   UNL A   1      33.189  26.011  24.080  1.00  0.00    -0.223 OA
BRANCH  12  17
ATOM     17  C   UNL A   1      32.879  21.236  23.942  1.00  0.00     0.002 A 
ATOM     18  C   UNL A   1      33.286  18.502  24.404  1.00  0.00     0.082 A 
ATOM     19  C   UNL A   1      32.601  18.909  23.259  1.00  0.00     0.022 A 
ATOM     20  C   UNL A   1      33.771  19.445  25.316  1.00  0.00     0.022 A 
ATOM     21  C   UNL A   1      32.408  20.272  23.031  1.00  0.00     0.012 A 
ATOM     22  C   UNL A   1      33.573  20.811  25.081  1.00  0.00     0.012 A 
BRANCH  18  23
ATOM     23  S   UNL A   1      33.520  16.779  24.721  1.00  0.00     0.238 S 
ATOM     24  O   UNL A   1      33.595  16.074  23.466  1.00  0.00    -0.207 OA
ATOM     25  O   UNL A   1      32.621  16.385  25.785  1.00  0.00    -0.207 OA
BRANCH  23  26
ATOM     26  N   UNL A   1      35.070  16.704  25.363  1.00  0.00    -0.225 NA
ATOM     27  H   UNL A   1      35.269  15.749  25.661  1.00  0.00     0.137 HD
ATOM     28  H   UNL A   1      35.138  17.331  26.163  1.00  0.00     0.137 HD
ENDBRANCH  23  26
ENDBRANCH  18  23
ENDBRANCH  12  17
ENDBRANCH   6  11
ENDBRANCH   3   5
ENDBRANCH   2   3
ENDBRANCH   1   2
BRANCH   1  29
ATOM     29  C   UNL A   1      40.961  19.863  25.764  1.00  0.00     0.275 C 
BRANCH  29  30
ATOM     30  O   UNL A   1      42.022  20.445  26.518  1.00  0.00    -0.458 OA
BRANCH  30  31
ATOM     31  C   UNL A   1      43.062  20.891  25.775  1.00  0.00     0.338 C 
ATOM     32  O   UNL A   1      43.816  20.223  25.087  1.00  0.00    -0.246 OA
BRANCH  31  33
ATOM     33  C   UNL A   1      43.335  22.285  26.126  1.00  0.00     0.060 A 
ATOM     34  C   UNL A   1      44.020  22.527  27.321  1.00  0.00     0.016 A 
ATOM     35  C   UNL A   1      42.642  23.296  25.447  1.00  0.00     0.016 A 
ATOM     36  C   UNL A   1      43.870  23.759  27.922  1.00  0.00     0.010 A 
ATOM     37  C   UNL A   1      42.472  24.511  26.060  1.00  0.00     0.010 A 
ATOM     38  C   UNL A   1      43.031  24.706  27.320  1.00  0.00    -0.014 A 
BRANCH  38  39
ATOM     39  C   UNL A   1      42.883  26.003  27.947  1.00  0.00     0.031 A 
ATOM     40  C   UNL A   1      43.991  26.918  27.577  1.00  0.00     0.074 A 
ATOM     41  C   UNL A   1      41.778  26.353  28.632  1.00  0.00     0.049 A 
ATOM     42  N   UNL A   1      44.914  27.387  28.346  1.00  0.00    -0.248 NA
ATOM     43  C   UNL A   1      44.232  27.162  26.141  1.00  0.00     0.031 C 
ATOM     44  C   UNL A   1      40.535  25.595  28.794  1.00  0.00     0.029 A 
ATOM     45  N   UNL A   1      41.487  27.532  29.244  1.00  0.00    -0.354 N 
ATOM     46  C   UNL A   1      45.694  28.200  27.531  1.00  0.00     0.074 A 
ATOM     47  C   UNL A   1      45.381  27.834  26.177  1.00  0.00     0.031 C 
ATOM     48  C   UNL A   1      39.560  26.424  29.238  1.00  0.00     0.029 A 
ATOM     49  C   UNL A   1      40.132  27.731  29.507  1.00  0.00     0.049 A 
ATOM     50  H   UNL A   1      42.177  28.192  29.483  1.00  0.00     0.167 HD
ATOM     51  C   UNL A   1      46.302  29.307  28.036  1.00  0.00     0.037 A 
ATOM     52  C   UNL A   1      39.548  28.918  29.830  1.00  0.00     0.037 A 
ATOM     53  C   UNL A   1      46.389  29.232  29.474  1.00  0.00     0.049 A 
ATOM     54  C   UNL A   1      40.638  29.819  30.301  1.00  0.00     0.074 A 
ATOM     55  C   UNL A   1      46.944  28.329  30.362  1.00  0.00     0.029 A 
ATOM     56  N   UNL A   1      45.493  29.976  30.204  1.00  0.00    -0.354 N 
ATOM     57  N   UNL A   1      41.305  29.629  31.408  1.00  0.00    -0.248 NA
ATOM     58  C   UNL A   1      41.314  30.633  29.301  1.00  0.00     0.031 C 
ATOM     59  C   UNL A   1      46.011  28.249  31.437  1.00  0.00     0.029 A 
ATOM     60  C   UNL A   1      44.991  29.166  31.191  1.00  0.00     0.049 A 
ATOM     61  H   UNL A   1      45.256  30.919  30.048  1.00  0.00     0.167 HD
ATOM     62  C   UNL A   1      42.624  29.908  31.079  1.00  0.00     0.074 A 
ATOM     63  C   UNL A   1      42.559  30.582  29.783  1.00  0.00     0.031 C 
ATOM     64  C   UNL A   1      43.659  29.306  31.735  1.00  0.00     0.037 A 
BRANCH  51  65
ATOM     65  C   UNL A   1      46.428  30.613  27.283  1.00  0.00     0.058 A 
ATOM     66  C   UNL A   1      47.688  31.243  27.229  1.00  0.00     0.135 A 
ATOM     67  C   UNL A   1      45.335  31.410  26.873  1.00  0.00     0.135 A 
ATOM     68  F   UNL A   1      48.800  30.584  27.595  1.00  0.00    -0.206 F 
ATOM     69  C   UNL A   1      47.839  32.585  26.881  1.00  0.00     0.059 A 
ATOM     70  C   UNL A   1      45.469  32.732  26.470  1.00  0.00     0.059 A 
ATOM     71  F   UNL A   1      44.067  30.988  26.928  1.00  0.00    -0.206 F 
ATOM     72  C   UNL A   1      46.719  33.325  26.519  1.00  0.00     0.060 A 
BRANCH  72  73
ATOM     73  S   UNL A   1      46.895  35.077  26.154  1.00  0.00     0.124 S 
ATOM     74  O   UNL A   1      45.566  35.404  25.653  1.00  0.00    -0.237 OA
ATOM     75  O   UNL A   1      47.240  35.621  27.464  1.00  0.00    -0.237 OA
ATOM     76  O   UNL A   1      47.970  35.108  25.167  1.00  0.00    -0.744 OA
ENDBRANCH  72  73
ENDBRANCH  51  65
BRANCH  52  77
ATOM     77  C   UNL A   1      38.220  29.451  29.402  1.00  0.00     0.058 A 
ATOM     78  C   UNL A   1      37.265  29.861  30.353  1.00  0.00     0.135 A 
ATOM     79  C   UNL A   1      37.975  29.855  28.074  1.00  0.00     0.135 A 
ATOM     80  F   UNL A   1      37.414  29.530  31.645  1.00  0.00    -0.206 F 
ATOM     81  C   UNL A   1      36.180  30.685  30.022  1.00  0.00     0.059 A 
ATOM     82  C   UNL A   1      36.896  30.665  27.719  1.00  0.00     0.059 A 
ATOM     83  F   UNL A   1      38.831  29.557  27.087  1.00  0.00    -0.206 F 
ATOM     84  C   UNL A   1      36.021  31.107  28.704  1.00  0.00     0.060 A 
BRANCH  84  85
ATOM     85  S   UNL A   1      34.760  32.342  28.303  1.00  0.00     0.124 S 
ATOM     86  O   UNL A   1      33.789  31.552  27.554  1.00  0.00    -0.237 OA
ATOM     87  O   UNL A   1      34.334  32.790  29.625  1.00  0.00    -0.237 OA
ATOM     88  O   UNL A   1      35.494  33.333  27.521  1.00  0.00    -0.744 OA
ENDBRANCH  84  85
ENDBRANCH  52  77
BRANCH  64  89
ATOM     89  C   UNL A   1      43.371  28.573  33.020  1.00  0.00     0.058 A 
ATOM     90  C   UNL A   1      43.157  29.181  34.270  1.00  0.00     0.135 A 
ATOM     91  C   UNL A   1      43.171  27.187  32.941  1.00  0.00     0.135 A 
ATOM     92  F   UNL A   1      43.213  30.514  34.409  1.00  0.00    -0.206 F 
ATOM     93  C   UNL A   1      42.820  28.433  35.401  1.00  0.00     0.059 A 
ATOM     94  C   UNL A   1      42.800  26.428  34.044  1.00  0.00     0.059 A 
ATOM     95  F   UNL A   1      43.297  26.554  31.762  1.00  0.00    -0.206 F 
ATOM     96  C   UNL A   1      42.647  27.054  35.278  1.00  0.00     0.060 A 
BRANCH  96  97
ATOM     97  S   UNL A   1      42.189  26.083  36.729  1.00  0.00     0.124 S 
ATOM     98  O   UNL A   1      43.196  26.493  37.702  1.00  0.00    -0.237 OA
ATOM     99  O   UNL A   1      40.827  26.535  36.997  1.00  0.00    -0.237 OA
ATOM    100  O   UNL A   1      42.298  24.702  36.265  1.00  0.00    -0.744 OA
ENDBRANCH  96  97
ENDBRANCH  64  89
ENDBRANCH  38  39
ENDBRANCH  31  33
ENDBRANCH  30  31
ENDBRANCH  29  30
ENDBRANCH   1  29
TORSDOF 18
ENDMDL
MODEL 3
REMARK VINA RESULT:     -11.8      2.707      7.523
REMARK SMILES NS(=O)(=O)c1ccc(-c2coc(=O)n2-c2ccc(C(=O)OCCOC(=O)c3ccc(-c4c5nc(c(-c6c(F)cc(S(=O)(=O)[O-])cc6F)c6ccc([nH]6)c(-c6c(F)cc(S(=O)(=O)[O-])cc6F)c6nc(c(-c7c(F)cc(S(=O)(=O)[O-])cc7F)c7ccc4[nH]7)C=C6)C=C5)cc3)cc2)cc1
REMARK SMILES IDX 22 1 21 2 19 3 20 4 18 5 15 6 16 7 94 8 17 9 93 10 14 11
REMARK SMILES IDX 9 12 10 13 11 14 12 15 13 16 8 17 5 18 6 19 96 20 7 21 95 22
REMARK SMILES IDX 2 23 3 24 4 25 1 26 23 29 24 30 25 31 26 32 27 33 28 34
REMARK SMILES IDX 92 35 29 36 91 37 30 38 31 39 32 40 85 41 33 42 90 43 84 44
REMARK SMILES IDX 86 45 34 46 89 47 83 48 82 49 35 51 69 52 48 53 68 54 49 55
REMARK SMILES IDX 52 56 67 57 87 58 50 59 51 60 66 62 88 63 53 64 36 65 37 66
REMARK SMILES IDX 46 67 38 68 39 69 45 70 47 71 40 72 41 73 42 74 43 75 44 76
REMARK SMILES IDX 70 77 71 78 80 79 72 80 73 81 79 82 81 83 74 84 75 85 76 86
REMARK SMILES IDX 77 87 78 88 54 89 55 90 64 91 56 92 57 93 63 94 65 95 58 96
REMARK SMILES IDX 59 97 60 98 61 99 62 100
REMARK H PARENT 1 27 1 28 86 50 52 61
REMARK Flexibility Score: inf
ROOT
ATOM      1  C   UNL A   1      34.856  32.169  28.042  1.00  0.00     0.275 C 
ENDROOT
BRANCH   1   2
ATOM      2  O   UNL A   1      34.019  31.002  28.063  1.00  0.00    -0.458 OA
BRANCH   2   3
ATOM      3  C   UNL A   1      34.652  29.824  27.817  1.00  0.00     0.338 C 
ATOM      4  O   UNL A   1      35.704  29.447  28.308  1.00  0.00    -0.246 OA
BRANCH   3   5
ATOM      5  C   UNL A   1      33.844  28.990  26.897  1.00  0.00     0.060 A 
ATOM      6  C   UNL A   1      32.366  27.210  25.337  1.00  0.00     0.053 A 
ATOM      7  C   UNL A   1      31.794  27.748  26.491  1.00  0.00     0.028 A 
ATOM      8  C   UNL A   1      33.627  27.653  24.909  1.00  0.00     0.028 A 
ATOM      9  C   UNL A   1      32.549  28.613  27.288  1.00  0.00     0.018 A 
ATOM     10  C   UNL A   1      34.357  28.558  25.674  1.00  0.00     0.018 A 
BRANCH   6  11
ATOM     11  N   UNL A   1      31.771  26.106  24.696  1.00  0.00    -0.242 N 
ATOM     12  C   UNL A   1      30.661  26.122  23.898  1.00  0.00     0.095 A 
ATOM     13  C   UNL A   1      30.454  24.863  23.534  1.00  0.00     0.228 A 
ATOM     14  O   UNL A   1      31.390  23.961  24.035  1.00  0.00    -0.415 OA
ATOM     15  C   UNL A   1      32.251  24.802  24.744  1.00  0.00     0.424 A 
ATOM     16  O   UNL A   1      33.249  24.386  25.316  1.00  0.00    -0.223 OA
BRANCH  12  17
ATOM     17  C   UNL A   1      30.001  27.324  23.386  1.00  0.00     0.002 A 
ATOM     18  C   UNL A   1      28.800  29.671  22.436  1.00  0.00     0.082 A 
ATOM     19  C   UNL A   1      30.167  29.474  22.242  1.00  0.00     0.022 A 
ATOM     20  C   UNL A   1      28.028  28.708  23.095  1.00  0.00     0.022 A 
ATOM     21  C   UNL A   1      30.758  28.301  22.711  1.00  0.00     0.012 A 
ATOM     22  C   UNL A   1      28.628  27.534  23.563  1.00  0.00     0.012 A 
BRANCH  18  23
ATOM     23  S   UNL A   1      28.037  31.163  21.869  1.00  0.00     0.238 S 
ATOM     24  O   UNL A   1      27.145  31.653  22.890  1.00  0.00    -0.207 OA
ATOM     25  O   UNL A   1      27.621  30.969  20.497  1.00  0.00    -0.207 OA
BRANCH  23  26
ATOM     26  N   UNL A   1      29.306  32.262  21.826  1.00  0.00    -0.225 NA
ATOM     27  H   UNL A   1      28.933  33.211  21.819  1.00  0.00     0.137 HD
ATOM     28  H   UNL A   1      29.861  32.108  20.986  1.00  0.00     0.137 HD
ENDBRANCH  23  26
ENDBRANCH  18  23
ENDBRANCH  12  17
ENDBRANCH   6  11
ENDBRANCH   3   5
ENDBRANCH   2   3
ENDBRANCH   1   2
BRANCH   1  29
ATOM     29  C   UNL A   1      34.323  33.242  28.978  1.00  0.00     0.275 C 
BRANCH  29  30
ATOM     30  O   UNL A   1      34.092  32.726  30.287  1.00  0.00    -0.458 OA
BRANCH  30  31
ATOM     31  C   UNL A   1      34.731  33.394  31.276  1.00  0.00     0.338 C 
ATOM     32  O   UNL A   1      34.496  34.523  31.674  1.00  0.00    -0.246 OA
BRANCH  31  33
ATOM     33  C   UNL A   1      35.947  32.664  31.635  1.00  0.00     0.060 A 
ATOM     34  C   UNL A   1      37.145  33.384  31.673  1.00  0.00     0.016 A 
ATOM     35  C   UNL A   1      35.921  31.262  31.607  1.00  0.00     0.016 A 
ATOM     36  C   UNL A   1      38.328  32.693  31.517  1.00  0.00     0.010 A 
ATOM     37  C   UNL A   1      37.097  30.581  31.425  1.00  0.00     0.010 A 
ATOM     38  C   UNL A   1      38.279  31.308  31.314  1.00  0.00    -0.014 A 
BRANCH  38  39
ATOM     39  C   UNL A   1      39.523  30.583  31.161  1.00  0.00     0.031 A 
ATOM     40  C   UNL A   1      40.194  30.367  32.467  1.00  0.00     0.074 A 
ATOM     41  C   UNL A   1      39.903  30.038  29.989  1.00  0.00     0.049 A 
ATOM     42  N   UNL A   1      41.307  30.877  32.872  1.00  0.00    -0.248 NA
ATOM     43  C   UNL A   1      39.429  29.685  33.530  1.00  0.00     0.031 C 
ATOM     44  C   UNL A   1      39.151  29.975  28.734  1.00  0.00     0.029 A 
ATOM     45  N   UNL A   1      41.017  29.312  29.703  1.00  0.00    -0.354 N 
ATOM     46  C   UNL A   1      41.506  30.358  34.147  1.00  0.00     0.074 A 
ATOM     47  C   UNL A   1      40.235  29.847  34.579  1.00  0.00     0.031 C 
ATOM     48  C   UNL A   1      39.717  29.053  27.918  1.00  0.00     0.029 A 
ATOM     49  C   UNL A   1      40.931  28.552  28.538  1.00  0.00     0.049 A 
ATOM     50  H   UNL A   1      41.820  29.323  30.273  1.00  0.00     0.167 HD
ATOM     51  C   UNL A   1      42.763  30.124  34.612  1.00  0.00     0.037 A 
ATOM     52  C   UNL A   1      41.763  27.533  28.186  1.00  0.00     0.037 A 
ATOM     53  C   UNL A   1      43.737  30.864  33.846  1.00  0.00     0.049 A 
ATOM     54  C   UNL A   1      43.004  27.693  28.998  1.00  0.00     0.074 A 
ATOM     55  C   UNL A   1      43.923  32.203  33.558  1.00  0.00     0.029 A 
ATOM     56  N   UNL A   1      44.469  30.173  32.911  1.00  0.00    -0.354 N 
ATOM     57  N   UNL A   1      43.843  28.682  28.849  1.00  0.00    -0.248 NA
ATOM     58  C   UNL A   1      43.044  27.034  30.297  1.00  0.00     0.031 C 
ATOM     59  C   UNL A   1      44.341  32.233  32.196  1.00  0.00     0.029 A 
ATOM     60  C   UNL A   1      44.473  30.916  31.758  1.00  0.00     0.049 A 
ATOM     61  H   UNL A   1      44.910  29.303  33.044  1.00  0.00     0.167 HD
ATOM     62  C   UNL A   1      44.186  29.053  30.141  1.00  0.00     0.074 A 
ATOM     63  C   UNL A   1      43.712  27.961  30.990  1.00  0.00     0.031 C 
ATOM     64  C   UNL A   1      44.550  30.336  30.436  1.00  0.00     0.037 A 
BRANCH  51  65
ATOM     65  C   UNL A   1      43.137  28.928  35.458  1.00  0.00     0.058 A 
ATOM     66  C   UNL A   1      43.916  29.134  36.615  1.00  0.00     0.135 A 
ATOM     67  C   UNL A   1      43.022  27.582  35.039  1.00  0.00     0.135 A 
ATOM     68  F   UNL A   1      44.097  30.371  37.106  1.00  0.00    -0.206 F 
ATOM     69  C   UNL A   1      44.599  28.098  37.250  1.00  0.00     0.059 A 
ATOM     70  C   UNL A   1      43.649  26.528  35.689  1.00  0.00     0.059 A 
ATOM     71  F   UNL A   1      42.375  27.221  33.924  1.00  0.00    -0.206 F 
ATOM     72  C   UNL A   1      44.471  26.800  36.769  1.00  0.00     0.060 A 
BRANCH  72  73
ATOM     73  S   UNL A   1      45.418  25.475  37.531  1.00  0.00     0.124 S 
ATOM     74  O   UNL A   1      46.649  26.168  37.891  1.00  0.00    -0.237 OA
ATOM     75  O   UNL A   1      44.551  25.087  38.639  1.00  0.00    -0.237 OA
ATOM     76  O   UNL A   1      45.535  24.488  36.461  1.00  0.00    -0.744 OA
ENDBRANCH  72  73
ENDBRANCH  51  65
BRANCH  52  77
ATOM     77  C   UNL A   1      41.427  26.242  27.516  1.00  0.00     0.058 A 
ATOM     78  C   UNL A   1      42.278  25.692  26.537  1.00  0.00     0.135 A 
ATOM     79  C   UNL A   1      40.440  25.376  28.025  1.00  0.00     0.135 A 
ATOM     80  F   UNL A   1      43.253  26.438  25.995  1.00  0.00    -0.206 F 
ATOM     81  C   UNL A   1      42.207  24.347  26.148  1.00  0.00     0.059 A 
ATOM     82  C   UNL A   1      40.342  24.037  27.646  1.00  0.00     0.059 A 
ATOM     83  F   UNL A   1      39.594  25.773  28.987  1.00  0.00    -0.206 F 
ATOM     84  C   UNL A   1      41.251  23.518  26.732  1.00  0.00     0.060 A 
BRANCH  84  85
ATOM     85  S   UNL A   1      41.288  21.738  26.406  1.00  0.00     0.124 S 
ATOM     86  O   UNL A   1      42.289  21.645  25.348  1.00  0.00    -0.237 OA
ATOM     87  O   UNL A   1      41.676  21.193  27.702  1.00  0.00    -0.237 OA
ATOM     88  O   UNL A   1      39.918  21.442  25.995  1.00  0.00    -0.744 OA
ENDBRANCH  84  85
ENDBRANCH  52  77
BRANCH  64  89
ATOM     89  C   UNL A   1      44.875  31.273  29.302  1.00  0.00     0.058 A 
ATOM     90  C   UNL A   1      46.124  31.370  28.662  1.00  0.00     0.135 A 
ATOM     91  C   UNL A   1      43.817  32.013  28.754  1.00  0.00     0.135 A 
ATOM     92  F   UNL A   1      47.159  30.610  29.048  1.00  0.00    -0.206 F 
ATOM     93  C   UNL A   1      46.322  32.213  27.565  1.00  0.00     0.059 A 
ATOM     94  C   UNL A   1      43.982  32.830  27.641  1.00  0.00     0.059 A 
ATOM     95  F   UNL A   1      42.584  31.916  29.279  1.00  0.00    -0.206 F 
ATOM     96  C   UNL A   1      45.243  32.943  27.064  1.00  0.00     0.060 A 
BRANCH  96  97
ATOM     97  S   UNL A   1      45.486  34.016  25.633  1.00  0.00     0.124 S 
ATOM     98  O   UNL A   1      46.938  34.026  25.500  1.00  0.00    -0.237 OA
ATOM     99  O   UNL A   1      44.757  33.314  24.582  1.00  0.00    -0.237 OA
ATOM    100  O   UNL A   1      44.891  35.284  26.052  1.00  0.00    -0.744 OA
ENDBRANCH  96  97
ENDBRANCH  64  89
ENDBRANCH  38  39
ENDBRANCH  31  33
ENDBRANCH  30  31
ENDBRANCH  29  30
ENDBRANCH   1  29
TORSDOF 18
ENDMDL
