MODEL 1
REMARK VINA RESULT:     -10.6      0.000      0.000
REMARK SMILES Cc1cnc(NC(=O)NC[C@H]2CC[C@H](C(=O)OCCOC(=O)c3ccc(-c4c5nc(c(-c6c(F)cc(S(=O)(=O)[O-])cc6F)c6ccc([nH]6)c(-c6c(F)cc(S(=O)(=O)[O-])cc6F)c6nc(c(-c7c(F)cc(S(=O)(=O)[O-])cc7F)c7ccc4[nH]7)C=C6)C=C5)cc3)O2)s1
REMARK SMILES IDX 18 1 17 2 15 3 16 4 14 5 11 6 12 7 89 8 13 9 10 10 9 11 6 12
REMARK SMILES IDX 7 13 8 15 5 17 1 18 2 19 3 20 90 21 4 22 19 23 20 24 21 25
REMARK SMILES IDX 22 26 23 27 24 28 88 29 25 30 87 31 26 32 27 33 28 34 81 35
REMARK SMILES IDX 29 36 86 37 80 38 82 39 30 40 85 41 79 42 78 43 31 45 65 46
REMARK SMILES IDX 44 47 64 48 45 49 48 50 63 51 83 52 46 53 47 54 62 56 84 57
REMARK SMILES IDX 49 58 32 59 33 60 42 61 34 62 35 63 41 64 43 65 36 66 37 67
REMARK SMILES IDX 38 68 39 69 40 70 66 71 67 72 76 73 68 74 69 75 75 76 77 77
REMARK SMILES IDX 70 78 71 79 72 80 73 81 74 82 50 83 51 84 60 85 52 86 53 87
REMARK SMILES IDX 59 88 61 89 54 90 55 91 56 92 57 93 58 94
REMARK H PARENT 6 14 9 16 82 44 48 55
REMARK Flexibility Score: inf
ROOT
ATOM      1  C   UNL A   1      33.690  33.729  28.341  1.00  0.00     0.274 C 
ENDROOT
BRANCH   1   2
ATOM      2  O   UNL A   1      32.751  34.324  29.257  1.00  0.00    -0.460 OA
BRANCH   2   3
ATOM      3  C   UNL A   1      32.794  35.682  29.376  1.00  0.00     0.335 C 
ATOM      4  O   UNL A   1      32.185  36.459  28.648  1.00  0.00    -0.249 OA
BRANCH   3   5
ATOM      5  C   UNL A   1      33.711  36.145  30.520  1.00  0.00     0.228 C 
ATOM      6  C   UNL A   1      33.602  35.355  32.712  1.00  0.00     0.138 C 
ATOM      7  C   UNL A   1      32.587  36.476  32.563  1.00  0.00     0.037 C 
ATOM      8  O   UNL A   1      34.064  35.053  31.388  1.00  0.00    -0.361 OA
ATOM      9  C   UNL A   1      33.131  37.250  31.394  1.00  0.00     0.047 C 
BRANCH   6  10
ATOM     10  C   UNL A   1      34.766  35.709  33.659  1.00  0.00     0.149 C 
BRANCH  10  11
ATOM     11  N   UNL A   1      35.120  34.710  34.657  1.00  0.00    -0.335 N 
ATOM     12  N   UNL A   1      37.026  33.371  34.079  1.00  0.00    -0.284 N 
ATOM     13  C   UNL A   1      36.080  33.816  34.912  1.00  0.00     0.321 C 
ATOM     14  H   UNL A   1      37.619  32.692  34.474  1.00  0.00     0.174 HD
ATOM     15  O   UNL A   1      36.016  33.269  36.022  1.00  0.00    -0.248 OA
ATOM     16  H   UNL A   1      34.438  34.685  35.367  1.00  0.00     0.165 HD
BRANCH  12  17
ATOM     17  C   UNL A   1      37.323  33.680  32.794  1.00  0.00     0.190 A 
ATOM     18  C   UNL A   1      37.799  33.100  29.059  1.00  0.00     0.058 C 
ATOM     19  C   UNL A   1      37.635  33.624  30.434  1.00  0.00     0.023 A 
ATOM     20  C   UNL A   1      38.356  34.595  31.101  1.00  0.00     0.128 A 
ATOM     21  S   UNL A   1      36.427  33.025  31.499  1.00  0.00    -0.102 S 
ATOM     22  N   UNL A   1      38.118  34.667  32.458  1.00  0.00    -0.228 NA
ENDBRANCH  12  17
ENDBRANCH  10  11
ENDBRANCH   6  10
ENDBRANCH   3   5
ENDBRANCH   2   3
ENDBRANCH   1   2
BRANCH   1  23
ATOM     23  C   UNL A   1      34.075  32.313  28.778  1.00  0.00     0.275 C 
BRANCH  23  24
ATOM     24  O   UNL A   1      34.578  31.537  27.676  1.00  0.00    -0.458 OA
BRANCH  24  25
ATOM     25  C   UNL A   1      34.699  30.208  27.913  1.00  0.00     0.338 C 
ATOM     26  O   UNL A   1      33.843  29.353  27.774  1.00  0.00    -0.246 OA
BRANCH  25  27
ATOM     27  C   UNL A   1      36.100  29.899  28.237  1.00  0.00     0.060 A 
ATOM     28  C   UNL A   1      37.046  29.993  27.214  1.00  0.00     0.016 A 
ATOM     29  C   UNL A   1      36.469  29.468  29.511  1.00  0.00     0.016 A 
ATOM     30  C   UNL A   1      38.378  29.676  27.462  1.00  0.00     0.010 A 
ATOM     31  C   UNL A   1      37.808  29.149  29.760  1.00  0.00     0.010 A 
ATOM     32  C   UNL A   1      38.770  29.253  28.738  1.00  0.00    -0.014 A 
BRANCH  32  33
ATOM     33  C   UNL A   1      40.188  28.912  29.004  1.00  0.00     0.031 A 
ATOM     34  C   UNL A   1      41.127  29.965  29.514  1.00  0.00     0.074 A 
ATOM     35  C   UNL A   1      40.625  27.660  28.768  1.00  0.00     0.049 A 
ATOM     36  N   UNL A   1      42.424  29.911  29.664  1.00  0.00    -0.248 NA
ATOM     37  C   UNL A   1      40.528  31.254  29.899  1.00  0.00     0.031 C 
ATOM     38  C   UNL A   1      39.790  26.548  28.310  1.00  0.00     0.029 A 
ATOM     39  N   UNL A   1      41.881  27.119  28.860  1.00  0.00    -0.354 N 
ATOM     40  C   UNL A   1      42.804  31.164  30.129  1.00  0.00     0.074 A 
ATOM     41  C   UNL A   1      41.599  31.960  30.237  1.00  0.00     0.031 C 
ATOM     42  C   UNL A   1      40.561  25.462  28.143  1.00  0.00     0.029 A 
ATOM     43  C   UNL A   1      41.948  25.815  28.429  1.00  0.00     0.049 A 
ATOM     44  H   UNL A   1      42.660  27.615  29.201  1.00  0.00     0.167 HD
ATOM     45  C   UNL A   1      44.048  31.605  30.430  1.00  0.00     0.037 A 
ATOM     46  C   UNL A   1      43.013  25.012  28.239  1.00  0.00     0.037 A 
ATOM     47  C   UNL A   1      45.232  30.789  30.349  1.00  0.00     0.049 A 
ATOM     48  C   UNL A   1      44.390  25.542  28.535  1.00  0.00     0.074 A 
ATOM     49  C   UNL A   1      46.532  31.124  30.687  1.00  0.00     0.029 A 
ATOM     50  N   UNL A   1      45.261  29.478  29.895  1.00  0.00    -0.354 N 
ATOM     51  N   UNL A   1      44.736  26.723  28.988  1.00  0.00    -0.248 NA
ATOM     52  C   UNL A   1      45.521  24.640  28.278  1.00  0.00     0.031 C 
ATOM     53  C   UNL A   1      47.354  30.031  30.391  1.00  0.00     0.029 A 
ATOM     54  C   UNL A   1      46.561  29.002  29.910  1.00  0.00     0.049 A 
ATOM     55  H   UNL A   1      44.474  28.963  29.605  1.00  0.00     0.167 HD
ATOM     56  C   UNL A   1      46.122  26.703  29.080  1.00  0.00     0.074 A 
ATOM     57  C   UNL A   1      46.552  25.387  28.652  1.00  0.00     0.031 C 
ATOM     58  C   UNL A   1      46.966  27.687  29.477  1.00  0.00     0.037 A 
BRANCH  45  59
ATOM     59  C   UNL A   1      44.207  33.041  30.842  1.00  0.00     0.058 A 
ATOM     60  C   UNL A   1      44.397  34.067  29.906  1.00  0.00     0.135 A 
ATOM     61  C   UNL A   1      44.108  33.398  32.197  1.00  0.00     0.135 A 
ATOM     62  F   UNL A   1      44.514  33.778  28.599  1.00  0.00    -0.206 F 
ATOM     63  C   UNL A   1      44.494  35.399  30.298  1.00  0.00     0.059 A 
ATOM     64  C   UNL A   1      44.182  34.725  32.611  1.00  0.00     0.059 A 
ATOM     65  F   UNL A   1      43.931  32.453  33.134  1.00  0.00    -0.206 F 
ATOM     66  C   UNL A   1      44.385  35.718  31.654  1.00  0.00     0.060 A 
BRANCH  66  67
ATOM     67  S   UNL A   1      44.493  37.451  32.148  1.00  0.00     0.124 S 
ATOM     68  O   UNL A   1      45.938  37.637  32.246  1.00  0.00    -0.237 OA
ATOM     69  O   UNL A   1      43.841  38.136  31.036  1.00  0.00    -0.237 OA
ATOM     70  O   UNL A   1      43.768  37.490  33.414  1.00  0.00    -0.744 OA
ENDBRANCH  66  67
ENDBRANCH  45  59
BRANCH  46  71
ATOM     71  C   UNL A   1      42.823  23.646  27.681  1.00  0.00     0.058 A 
ATOM     72  C   UNL A   1      42.630  22.537  28.517  1.00  0.00     0.135 A 
ATOM     73  C   UNL A   1      42.831  23.425  26.294  1.00  0.00     0.135 A 
ATOM     74  F   UNL A   1      42.628  22.695  29.850  1.00  0.00    -0.206 F 
ATOM     75  C   UNL A   1      42.467  21.256  28.001  1.00  0.00     0.059 A 
ATOM     76  C   UNL A   1      42.644  22.157  25.753  1.00  0.00     0.059 A 
ATOM     77  F   UNL A   1      43.002  24.454  25.449  1.00  0.00    -0.206 F 
ATOM     78  C   UNL A   1      42.475  21.075  26.616  1.00  0.00     0.060 A 
BRANCH  78  79
ATOM     79  S   UNL A   1      42.228  19.416  25.950  1.00  0.00     0.124 S 
ATOM     80  O   UNL A   1      42.710  18.586  27.047  1.00  0.00    -0.237 OA
ATOM     81  O   UNL A   1      40.788  19.386  25.713  1.00  0.00    -0.237 OA
ATOM     82  O   UNL A   1      43.052  19.412  24.745  1.00  0.00    -0.744 OA
ENDBRANCH  78  79
ENDBRANCH  46  71
BRANCH  58  83
ATOM     83  C   UNL A   1      48.436  27.379  29.478  1.00  0.00     0.058 A 
ATOM     84  C   UNL A   1      49.273  27.816  28.440  1.00  0.00     0.135 A 
ATOM     85  C   UNL A   1      49.023  26.704  30.559  1.00  0.00     0.135 A 
ATOM     86  F   UNL A   1      48.757  28.457  27.380  1.00  0.00    -0.206 F 
ATOM     87  C   UNL A   1      50.644  27.586  28.470  1.00  0.00     0.059 A 
ATOM     88  C   UNL A   1      50.396  26.483  30.620  1.00  0.00     0.059 A 
ATOM     89  F   UNL A   1      48.266  26.272  31.580  1.00  0.00    -0.206 F 
ATOM     90  C   UNL A   1      51.197  26.923  29.567  1.00  0.00     0.060 A 
BRANCH  90  91
ATOM     91  S   UNL A   1      52.985  26.682  29.622  1.00  0.00     0.124 S 
ATOM     92  O   UNL A   1      53.226  25.974  28.368  1.00  0.00    -0.237 OA
ATOM     93  O   UNL A   1      53.485  28.052  29.682  1.00  0.00    -0.237 OA
ATOM     94  O   UNL A   1      53.185  25.895  30.835  1.00  0.00    -0.744 OA
ENDBRANCH  90  91
ENDBRANCH  58  83
ENDBRANCH  32  33
ENDBRANCH  25  27
ENDBRANCH  24  25
ENDBRANCH  23  24
ENDBRANCH   1  23
TORSDOF 17
ENDMDL
MODEL 2
REMARK VINA RESULT:     -10.3      4.199      6.658
REMARK SMILES Cc1cnc(NC(=O)NC[C@H]2CC[C@H](C(=O)OCCOC(=O)c3ccc(-c4c5nc(c(-c6c(F)cc(S(=O)(=O)[O-])cc6F)c6ccc([nH]6)c(-c6c(F)cc(S(=O)(=O)[O-])cc6F)c6nc(c(-c7c(F)cc(S(=O)(=O)[O-])cc7F)c7ccc4[nH]7)C=C6)C=C5)cc3)O2)s1
REMARK SMILES IDX 18 1 17 2 15 3 16 4 14 5 11 6 12 7 89 8 13 9 10 10 9 11 6 12
REMARK SMILES IDX 7 13 8 15 5 17 1 18 2 19 3 20 90 21 4 22 19 23 20 24 21 25
REMARK SMILES IDX 22 26 23 27 24 28 88 29 25 30 87 31 26 32 27 33 28 34 81 35
REMARK SMILES IDX 29 36 86 37 80 38 82 39 30 40 85 41 79 42 78 43 31 45 65 46
REMARK SMILES IDX 44 47 64 48 45 49 48 50 63 51 83 52 46 53 47 54 62 56 84 57
REMARK SMILES IDX 49 58 32 59 33 60 42 61 34 62 35 63 41 64 43 65 36 66 37 67
REMARK SMILES IDX 38 68 39 69 40 70 66 71 67 72 76 73 68 74 69 75 75 76 77 77
REMARK SMILES IDX 70 78 71 79 72 80 73 81 74 82 50 83 51 84 60 85 52 86 53 87
REMARK SMILES IDX 59 88 61 89 54 90 55 91 56 92 57 93 58 94
REMARK H PARENT 6 14 9 16 82 44 48 55
REMARK Flexibility Score: inf
ROOT
ATOM      1  C   UNL A   1      34.121  31.511  27.391  1.00  0.00     0.274 C 
ENDROOT
BRANCH   1   2
ATOM      2  O   UNL A   1      32.975  30.640  27.442  1.00  0.00    -0.460 OA
BRANCH   2   3
ATOM      3  C   UNL A   1      32.544  30.130  26.252  1.00  0.00     0.335 C 
ATOM      4  O   UNL A   1      31.537  30.506  25.664  1.00  0.00    -0.249 OA
BRANCH   3   5
ATOM      5  C   UNL A   1      33.456  29.009  25.727  1.00  0.00     0.228 C 
ATOM      6  C   UNL A   1      32.714  27.131  24.561  1.00  0.00     0.138 C 
ATOM      7  C   UNL A   1      32.580  26.846  26.047  1.00  0.00     0.037 C 
ATOM      8  O   UNL A   1      33.016  28.527  24.444  1.00  0.00    -0.361 OA
ATOM      9  C   UNL A   1      33.574  27.801  26.648  1.00  0.00     0.047 C 
BRANCH   6  10
ATOM     10  C   UNL A   1      33.775  26.254  23.865  1.00  0.00     0.149 C 
BRANCH  10  11
ATOM     11  N   UNL A   1      33.630  26.074  22.428  1.00  0.00    -0.335 N 
ATOM     12  N   UNL A   1      32.309  24.170  21.801  1.00  0.00    -0.284 N 
ATOM     13  C   UNL A   1      32.968  25.308  21.555  1.00  0.00     0.321 C 
ATOM     14  H   UNL A   1      31.912  23.759  21.000  1.00  0.00     0.174 HD
ATOM     15  O   UNL A   1      33.065  25.647  20.368  1.00  0.00    -0.248 OA
ATOM     16  H   UNL A   1      34.198  26.719  21.947  1.00  0.00     0.165 HD
BRANCH  12  17
ATOM     17  C   UNL A   1      32.086  23.478  22.944  1.00  0.00     0.190 A 
ATOM     18  C   UNL A   1      31.123  22.924  26.588  1.00  0.00     0.058 C 
ATOM     19  C   UNL A   1      31.477  22.831  25.153  1.00  0.00     0.023 A 
ATOM     20  C   UNL A   1      32.366  21.988  24.516  1.00  0.00     0.128 A 
ATOM     21  S   UNL A   1      30.786  23.874  23.975  1.00  0.00    -0.102 S 
ATOM     22  N   UNL A   1      32.659  22.330  23.211  1.00  0.00    -0.228 NA
ENDBRANCH  12  17
ENDBRANCH  10  11
ENDBRANCH   6  10
ENDBRANCH   3   5
ENDBRANCH   2   3
ENDBRANCH   1   2
BRANCH   1  23
ATOM     23  C   UNL A   1      34.789  31.636  28.763  1.00  0.00     0.275 C 
BRANCH  23  24
ATOM     24  O   UNL A   1      35.717  30.564  29.001  1.00  0.00    -0.458 OA
BRANCH  24  25
ATOM     25  C   UNL A   1      36.451  30.674  30.134  1.00  0.00     0.338 C 
ATOM     26  O   UNL A   1      36.045  30.927  31.254  1.00  0.00    -0.246 OA
BRANCH  25  27
ATOM     27  C   UNL A   1      37.843  30.293  29.850  1.00  0.00     0.060 A 
ATOM     28  C   UNL A   1      38.215  30.115  28.516  1.00  0.00     0.016 A 
ATOM     29  C   UNL A   1      38.753  30.058  30.880  1.00  0.00     0.016 A 
ATOM     30  C   UNL A   1      39.510  29.720  28.198  1.00  0.00     0.010 A 
ATOM     31  C   UNL A   1      40.055  29.659  30.560  1.00  0.00     0.010 A 
ATOM     32  C   UNL A   1      40.441  29.490  29.218  1.00  0.00    -0.014 A 
BRANCH  32  33
ATOM     33  C   UNL A   1      41.822  29.066  28.882  1.00  0.00     0.031 A 
ATOM     34  C   UNL A   1      42.927  30.081  28.843  1.00  0.00     0.074 A 
ATOM     35  C   UNL A   1      42.068  27.774  28.596  1.00  0.00     0.049 A 
ATOM     36  N   UNL A   1      44.158  29.943  28.429  1.00  0.00    -0.248 NA
ATOM     37  C   UNL A   1      42.601  31.432  29.328  1.00  0.00     0.031 C 
ATOM     38  C   UNL A   1      41.077  26.697  28.642  1.00  0.00     0.029 A 
ATOM     39  N   UNL A   1      43.220  27.150  28.191  1.00  0.00    -0.354 N 
ATOM     40  C   UNL A   1      44.747  31.193  28.570  1.00  0.00     0.074 A 
ATOM     41  C   UNL A   1      43.738  32.079  29.110  1.00  0.00     0.031 C 
ATOM     42  C   UNL A   1      41.660  25.549  28.262  1.00  0.00     0.029 A 
ATOM     43  C   UNL A   1      43.046  25.819  27.894  1.00  0.00     0.049 A 
ATOM     44  H   UNL A   1      44.087  27.610  28.119  1.00  0.00     0.167 HD
ATOM     45  C   UNL A   1      46.015  31.562  28.268  1.00  0.00     0.037 A 
ATOM     46  C   UNL A   1      43.894  24.930  27.340  1.00  0.00     0.037 A 
ATOM     47  C   UNL A   1      47.017  30.659  27.764  1.00  0.00     0.049 A 
ATOM     48  C   UNL A   1      45.282  25.378  26.969  1.00  0.00     0.074 A 
ATOM     49  C   UNL A   1      48.347  30.921  27.481  1.00  0.00     0.029 A 
ATOM     50  N   UNL A   1      46.799  29.322  27.461  1.00  0.00    -0.354 N 
ATOM     51  N   UNL A   1      45.833  26.558  27.121  1.00  0.00    -0.248 NA
ATOM     52  C   UNL A   1      46.158  24.382  26.337  1.00  0.00     0.031 C 
ATOM     53  C   UNL A   1      48.920  29.755  26.963  1.00  0.00     0.029 A 
ATOM     54  C   UNL A   1      47.959  28.756  26.962  1.00  0.00     0.049 A 
ATOM     55  H   UNL A   1      45.945  28.847  27.584  1.00  0.00     0.167 HD
ATOM     56  C   UNL A   1      47.121  26.445  26.613  1.00  0.00     0.074 A 
ATOM     57  C   UNL A   1      47.275  25.076  26.164  1.00  0.00     0.031 C 
ATOM     58  C   UNL A   1      48.089  27.389  26.520  1.00  0.00     0.037 A 
BRANCH  45  59
ATOM     59  C   UNL A   1      46.389  33.007  28.440  1.00  0.00     0.058 A 
ATOM     60  C   UNL A   1      46.948  33.494  29.629  1.00  0.00     0.135 A 
ATOM     61  C   UNL A   1      46.237  33.904  27.370  1.00  0.00     0.135 A 
ATOM     62  F   UNL A   1      47.101  32.683  30.689  1.00  0.00    -0.206 F 
ATOM     63  C   UNL A   1      47.334  34.826  29.758  1.00  0.00     0.059 A 
ATOM     64  C   UNL A   1      46.634  35.234  27.468  1.00  0.00     0.059 A 
ATOM     65  F   UNL A   1      45.702  33.488  26.210  1.00  0.00    -0.206 F 
ATOM     66  C   UNL A   1      47.173  35.688  28.670  1.00  0.00     0.060 A 
BRANCH  66  67
ATOM     67  S   UNL A   1      47.697  37.407  28.842  1.00  0.00     0.124 S 
ATOM     68  O   UNL A   1      47.877  37.798  27.447  1.00  0.00    -0.237 OA
ATOM     69  O   UNL A   1      46.561  38.015  29.528  1.00  0.00    -0.237 OA
ATOM     70  O   UNL A   1      48.922  37.313  29.630  1.00  0.00    -0.744 OA
ENDBRANCH  66  67
ENDBRANCH  45  59
BRANCH  46  71
ATOM     71  C   UNL A   1      43.432  23.548  27.044  1.00  0.00     0.058 A 
ATOM     72  C   UNL A   1      43.125  23.146  25.736  1.00  0.00     0.135 A 
ATOM     73  C   UNL A   1      43.289  22.598  28.069  1.00  0.00     0.135 A 
ATOM     74  F   UNL A   1      43.233  24.020  24.723  1.00  0.00    -0.206 F 
ATOM     75  C   UNL A   1      42.679  21.859  25.455  1.00  0.00     0.059 A 
ATOM     76  C   UNL A   1      42.870  21.298  27.810  1.00  0.00     0.059 A 
ATOM     77  F   UNL A   1      43.579  22.929  29.337  1.00  0.00    -0.206 F 
ATOM     78  C   UNL A   1      42.554  20.941  26.500  1.00  0.00     0.060 A 
BRANCH  78  79
ATOM     79  S   UNL A   1      42.008  19.261  26.126  1.00  0.00     0.124 S 
ATOM     80  O   UNL A   1      40.573  19.452  25.950  1.00  0.00    -0.237 OA
ATOM     81  O   UNL A   1      42.763  18.949  24.918  1.00  0.00    -0.237 OA
ATOM     82  O   UNL A   1      42.404  18.508  27.314  1.00  0.00    -0.744 OA
ENDBRANCH  78  79
ENDBRANCH  46  71
BRANCH  58  83
ATOM     83  C   UNL A   1      49.403  26.977  25.920  1.00  0.00     0.058 A 
ATOM     84  C   UNL A   1      49.674  27.171  24.558  1.00  0.00     0.135 A 
ATOM     85  C   UNL A   1      50.421  26.449  26.727  1.00  0.00     0.135 A 
ATOM     86  F   UNL A   1      48.728  27.663  23.742  1.00  0.00    -0.206 F 
ATOM     87  C   UNL A   1      50.912  26.847  24.013  1.00  0.00     0.059 A 
ATOM     88  C   UNL A   1      51.675  26.139  26.207  1.00  0.00     0.059 A 
ATOM     89  F   UNL A   1      50.212  26.251  28.039  1.00  0.00    -0.206 F 
ATOM     90  C   UNL A   1      51.908  26.336  24.847  1.00  0.00     0.060 A 
BRANCH  90  91
ATOM     91  S   UNL A   1      53.529  25.975  24.140  1.00  0.00     0.124 S 
ATOM     92  O   UNL A   1      54.325  27.091  24.640  1.00  0.00    -0.237 OA
ATOM     93  O   UNL A   1      53.839  24.669  24.716  1.00  0.00    -0.237 OA
ATOM     94  O   UNL A   1      53.280  25.975  22.702  1.00  0.00    -0.744 OA
ENDBRANCH  90  91
ENDBRANCH  58  83
ENDBRANCH  32  33
ENDBRANCH  25  27
ENDBRANCH  24  25
ENDBRANCH  23  24
ENDBRANCH   1  23
TORSDOF 17
ENDMDL
MODEL 3
REMARK VINA RESULT:     -10.3      5.783     12.260
REMARK SMILES Cc1cnc(NC(=O)NC[C@H]2CC[C@H](C(=O)OCCOC(=O)c3ccc(-c4c5nc(c(-c6c(F)cc(S(=O)(=O)[O-])cc6F)c6ccc([nH]6)c(-c6c(F)cc(S(=O)(=O)[O-])cc6F)c6nc(c(-c7c(F)cc(S(=O)(=O)[O-])cc7F)c7ccc4[nH]7)C=C6)C=C5)cc3)O2)s1
REMARK SMILES IDX 18 1 17 2 15 3 16 4 14 5 11 6 12 7 89 8 13 9 10 10 9 11 6 12
REMARK SMILES IDX 7 13 8 15 5 17 1 18 2 19 3 20 90 21 4 22 19 23 20 24 21 25
REMARK SMILES IDX 22 26 23 27 24 28 88 29 25 30 87 31 26 32 27 33 28 34 81 35
REMARK SMILES IDX 29 36 86 37 80 38 82 39 30 40 85 41 79 42 78 43 31 45 65 46
REMARK SMILES IDX 44 47 64 48 45 49 48 50 63 51 83 52 46 53 47 54 62 56 84 57
REMARK SMILES IDX 49 58 32 59 33 60 42 61 34 62 35 63 41 64 43 65 36 66 37 67
REMARK SMILES IDX 38 68 39 69 40 70 66 71 67 72 76 73 68 74 69 75 75 76 77 77
REMARK SMILES IDX 70 78 71 79 72 80 73 81 74 82 50 83 51 84 60 85 52 86 53 87
REMARK SMILES IDX 59 88 61 89 54 90 55 91 56 92 57 93 58 94
REMARK H PARENT 6 14 9 16 82 44 48 55
REMARK Flexibility Score: inf
ROOT
ATOM      1  C   UNL A   1      38.350  22.035  25.443  1.00  0.00     0.274 C 
ENDROOT
BRANCH   1   2
ATOM      2  O   UNL A   1      37.067  22.511  25.891  1.00  0.00    -0.460 OA
BRANCH   2   3
ATOM      3  C   UNL A   1      35.988  21.736  25.581  1.00  0.00     0.335 C 
ATOM      4  O   UNL A   1      36.053  20.548  25.287  1.00  0.00    -0.249 OA
BRANCH   3   5
ATOM      5  C   UNL A   1      34.667  22.522  25.621  1.00  0.00     0.228 C 
ATOM      6  C   UNL A   1      33.099  22.572  23.895  1.00  0.00     0.138 C 
ATOM      7  C   UNL A   1      34.155  23.623  23.602  1.00  0.00     0.037 C 
ATOM      8  O   UNL A   1      33.599  21.792  24.989  1.00  0.00    -0.361 OA
ATOM      9  C   UNL A   1      34.723  23.897  24.968  1.00  0.00     0.047 C 
BRANCH   6  10
ATOM     10  C   UNL A   1      31.712  23.172  24.205  1.00  0.00     0.149 C 
BRANCH  10  11
ATOM     11  N   UNL A   1      31.231  23.028  25.571  1.00  0.00    -0.335 N 
ATOM     12  N   UNL A   1      30.010  24.925  26.390  1.00  0.00    -0.284 N 
ATOM     13  C   UNL A   1      30.458  23.667  26.455  1.00  0.00     0.321 C 
ATOM     14  H   UNL A   1      29.471  25.197  27.168  1.00  0.00     0.174 HD
ATOM     15  O   UNL A   1      30.217  23.045  27.498  1.00  0.00    -0.248 OA
ATOM     16  H   UNL A   1      31.587  22.201  25.970  1.00  0.00     0.165 HD
BRANCH  12  17
ATOM     17  C   UNL A   1      30.157  25.895  25.457  1.00  0.00     0.190 A 
ATOM     18  C   UNL A   1      30.869  29.379  24.089  1.00  0.00     0.058 C 
ATOM     19  C   UNL A   1      30.614  27.940  24.324  1.00  0.00     0.023 A 
ATOM     20  C   UNL A   1      29.772  27.071  23.657  1.00  0.00     0.128 A 
ATOM     21  S   UNL A   1      31.382  27.074  25.595  1.00  0.00    -0.102 S 
ATOM     22  N   UNL A   1      29.567  25.860  24.286  1.00  0.00    -0.228 NA
ENDBRANCH  12  17
ENDBRANCH  10  11
ENDBRANCH   6  10
ENDBRANCH   3   5
ENDBRANCH   2   3
ENDBRANCH   1   2
BRANCH   1  23
ATOM     23  C   UNL A   1      39.416  22.191  26.530  1.00  0.00     0.275 C 
BRANCH  23  24
ATOM     24  O   UNL A   1      39.377  23.500  27.126  1.00  0.00    -0.458 OA
BRANCH  24  25
ATOM     25  C   UNL A   1      40.513  24.228  26.997  1.00  0.00     0.338 C 
ATOM     26  O   UNL A   1      41.388  24.088  26.161  1.00  0.00    -0.246 OA
BRANCH  25  27
ATOM     27  C   UNL A   1      40.484  25.346  27.952  1.00  0.00     0.060 A 
ATOM     28  C   UNL A   1      41.637  26.121  28.091  1.00  0.00     0.016 A 
ATOM     29  C   UNL A   1      39.360  25.596  28.739  1.00  0.00     0.016 A 
ATOM     30  C   UNL A   1      41.671  27.167  29.007  1.00  0.00     0.010 A 
ATOM     31  C   UNL A   1      39.395  26.647  29.661  1.00  0.00     0.010 A 
ATOM     32  C   UNL A   1      40.549  27.440  29.798  1.00  0.00    -0.014 A 
BRANCH  32  33
ATOM     33  C   UNL A   1      40.583  28.553  30.776  1.00  0.00     0.031 A 
ATOM     34  C   UNL A   1      41.534  28.500  31.936  1.00  0.00     0.074 A 
ATOM     35  C   UNL A   1      39.745  29.596  30.625  1.00  0.00     0.049 A 
ATOM     36  N   UNL A   1      41.614  29.290  32.974  1.00  0.00    -0.248 NA
ATOM     37  C   UNL A   1      42.523  27.409  31.930  1.00  0.00     0.031 C 
ATOM     38  C   UNL A   1      38.807  29.770  29.513  1.00  0.00     0.029 A 
ATOM     39  N   UNL A   1      39.531  30.696  31.416  1.00  0.00    -0.354 N 
ATOM     40  C   UNL A   1      42.636  28.776  33.763  1.00  0.00     0.074 A 
ATOM     41  C   UNL A   1      43.149  27.606  33.083  1.00  0.00     0.031 C 
ATOM     42  C   UNL A   1      38.106  30.899  29.705  1.00  0.00     0.029 A 
ATOM     43  C   UNL A   1      38.505  31.497  30.974  1.00  0.00     0.049 A 
ATOM     44  H   UNL A   1      40.060  30.891  32.223  1.00  0.00     0.167 HD
ATOM     45  C   UNL A   1      43.094  29.242  34.949  1.00  0.00     0.037 A 
ATOM     46  C   UNL A   1      37.920  32.563  31.553  1.00  0.00     0.037 A 
ATOM     47  C   UNL A   1      42.595  30.428  35.595  1.00  0.00     0.049 A 
ATOM     48  C   UNL A   1      38.416  33.031  32.894  1.00  0.00     0.074 A 
ATOM     49  C   UNL A   1      43.031  31.016  36.769  1.00  0.00     0.029 A 
ATOM     50  N   UNL A   1      41.545  31.204  35.124  1.00  0.00    -0.354 N 
ATOM     51  N   UNL A   1      39.392  32.547  33.624  1.00  0.00    -0.248 NA
ATOM     52  C   UNL A   1      37.723  34.176  33.500  1.00  0.00     0.031 C 
ATOM     53  C   UNL A   1      42.214  32.120  37.034  1.00  0.00     0.029 A 
ATOM     54  C   UNL A   1      41.297  32.245  36.002  1.00  0.00     0.049 A 
ATOM     55  H   UNL A   1      41.051  31.040  34.289  1.00  0.00     0.167 HD
ATOM     56  C   UNL A   1      39.438  33.334  34.769  1.00  0.00     0.074 A 
ATOM     57  C   UNL A   1      38.401  34.337  34.628  1.00  0.00     0.031 C 
ATOM     58  C   UNL A   1      40.258  33.232  35.843  1.00  0.00     0.037 A 
BRANCH  45  59
ATOM     59  C   UNL A   1      44.166  28.455  35.648  1.00  0.00     0.058 A 
ATOM     60  C   UNL A   1      45.529  28.696  35.429  1.00  0.00     0.135 A 
ATOM     61  C   UNL A   1      43.816  27.483  36.600  1.00  0.00     0.135 A 
ATOM     62  F   UNL A   1      45.919  29.602  34.518  1.00  0.00    -0.206 F 
ATOM     63  C   UNL A   1      46.511  27.991  36.120  1.00  0.00     0.059 A 
ATOM     64  C   UNL A   1      44.779  26.781  37.318  1.00  0.00     0.059 A 
ATOM     65  F   UNL A   1      42.523  27.212  36.845  1.00  0.00    -0.206 F 
ATOM     66  C   UNL A   1      46.126  27.036  37.063  1.00  0.00     0.060 A 
BRANCH  66  67
ATOM     67  S   UNL A   1      47.409  26.144  37.968  1.00  0.00     0.124 S 
ATOM     68  O   UNL A   1      48.432  25.981  36.938  1.00  0.00    -0.237 OA
ATOM     69  O   UNL A   1      47.739  27.074  39.044  1.00  0.00    -0.237 OA
ATOM     70  O   UNL A   1      46.740  24.917  38.388  1.00  0.00    -0.744 OA
ENDBRANCH  66  67
ENDBRANCH  45  59
BRANCH  46  71
ATOM     71  C   UNL A   1      36.757  33.219  30.897  1.00  0.00     0.058 A 
ATOM     72  C   UNL A   1      35.447  32.997  31.343  1.00  0.00     0.135 A 
ATOM     73  C   UNL A   1      36.938  34.086  29.806  1.00  0.00     0.135 A 
ATOM     74  F   UNL A   1      35.221  32.167  32.373  1.00  0.00    -0.206 F 
ATOM     75  C   UNL A   1      34.355  33.597  30.723  1.00  0.00     0.059 A 
ATOM     76  C   UNL A   1      35.865  34.718  29.187  1.00  0.00     0.059 A 
ATOM     77  F   UNL A   1      38.173  34.341  29.346  1.00  0.00    -0.206 F 
ATOM     78  C   UNL A   1      34.574  34.457  29.645  1.00  0.00     0.060 A 
BRANCH  78  79
ATOM     79  S   UNL A   1      33.157  35.260  28.866  1.00  0.00     0.124 S 
ATOM     80  O   UNL A   1      32.635  34.186  28.030  1.00  0.00    -0.237 OA
ATOM     81  O   UNL A   1      32.338  35.630  30.016  1.00  0.00    -0.237 OA
ATOM     82  O   UNL A   1      33.760  36.382  28.151  1.00  0.00    -0.744 OA
ENDBRANCH  78  79
ENDBRANCH  46  71
BRANCH  58  83
ATOM     83  C   UNL A   1      40.078  34.234  36.948  1.00  0.00     0.058 A 
ATOM     84  C   UNL A   1      40.670  35.504  36.883  1.00  0.00     0.135 A 
ATOM     85  C   UNL A   1      39.251  33.947  38.044  1.00  0.00     0.135 A 
ATOM     86  F   UNL A   1      41.477  35.823  35.859  1.00  0.00    -0.206 F 
ATOM     87  C   UNL A   1      40.453  36.455  37.874  1.00  0.00     0.059 A 
ATOM     88  C   UNL A   1      39.003  34.891  39.036  1.00  0.00     0.059 A 
ATOM     89  F   UNL A   1      38.656  32.747  38.148  1.00  0.00    -0.206 F 
ATOM     90  C   UNL A   1      39.614  36.141  38.945  1.00  0.00     0.060 A 
BRANCH  90  91
ATOM     91  S   UNL A   1      39.295  37.403  40.195  1.00  0.00     0.124 S 
ATOM     92  O   UNL A   1      40.644  37.878  40.486  1.00  0.00    -0.237 OA
ATOM     93  O   UNL A   1      38.434  38.342  39.481  1.00  0.00    -0.237 OA
ATOM     94  O   UNL A   1      38.645  36.660  41.270  1.00  0.00    -0.744 OA
ENDBRANCH  90  91
ENDBRANCH  58  83
ENDBRANCH  32  33
ENDBRANCH  25  27
ENDBRANCH  24  25
ENDBRANCH  23  24
ENDBRANCH   1  23
TORSDOF 17
ENDMDL
