MODEL 1
REMARK VINA RESULT:     -11.6      0.000      0.000
REMARK SMILES CCS(=O)(=O)Nc1ccc(N2CC[NH+](C)CC2)cc1C(=O)OCCOC(=O)c1ccc(-c2c3nc(c(-c4c(F)cc(S(=O)(=O)[O-])cc4F)c4ccc([nH]4)c(-c4c(F)cc(S(=O)(=O)[O-])cc4F)c4nc(c(-c5c(F)cc(S(=O)(=O)[O-])cc5F)c5ccc2[nH]5)C=C4)C=C3)cc1
REMARK SMILES IDX 23 1 22 2 20 3 21 4 19 5 7 6 8 7 9 8 18 9 10 10 6 11 3 13
REMARK SMILES IDX 4 14 5 15 2 16 1 17 11 18 12 19 17 20 13 21 16 22 14 23
REMARK SMILES IDX 15 24 24 26 25 27 26 28 27 29 28 30 29 31 93 32 30 33 92 34
REMARK SMILES IDX 31 35 32 36 33 37 86 38 34 39 91 40 85 41 87 42 35 43 90 44
REMARK SMILES IDX 84 45 83 46 36 48 70 49 49 50 69 51 50 52 53 53 68 54 88 55
REMARK SMILES IDX 51 56 52 57 67 59 89 60 54 61 37 62 38 63 47 64 39 65 40 66
REMARK SMILES IDX 46 67 48 68 41 69 42 70 43 71 44 72 45 73 71 74 72 75 81 76
REMARK SMILES IDX 73 77 74 78 80 79 82 80 75 81 76 82 77 83 78 84 79 85 55 86
REMARK SMILES IDX 56 87 65 88 57 89 58 90 64 91 66 92 59 93 60 94 61 95 62 96
REMARK SMILES IDX 63 97
REMARK H PARENT 6 12 14 25 87 47 53 58
REMARK Flexibility Score: inf
ROOT
ATOM      1  C   UNL A   1      38.008  22.083  25.533  1.00  0.00     0.275 C 
ENDROOT
BRANCH   1   2
ATOM      2  O   UNL A   1      36.667  21.779  25.988  1.00  0.00    -0.458 OA
BRANCH   2   3
ATOM      3  C   UNL A   1      36.071  20.831  25.233  1.00  0.00     0.340 C 
ATOM      4  O   UNL A   1      36.583  19.769  24.906  1.00  0.00    -0.246 OA
BRANCH   3   5
ATOM      5  C   UNL A   1      34.754  21.187  24.686  1.00  0.00     0.086 A 
ATOM      6  C   UNL A   1      33.607  20.461  25.013  1.00  0.00     0.063 A 
ATOM      7  C   UNL A   1      32.369  20.980  24.630  1.00  0.00     0.030 A 
ATOM      8  C   UNL A   1      32.264  22.256  24.051  1.00  0.00     0.028 A 
ATOM      9  C   UNL A   1      34.628  22.460  24.076  1.00  0.00     0.043 A 
ATOM     10  C   UNL A   1      33.388  23.051  23.807  1.00  0.00     0.038 A 
BRANCH   6  11
ATOM     11  N   UNL A   1      33.583  19.143  25.564  1.00  0.00    -0.283 N 
ATOM     12  H   UNL A   1      33.800  19.066  26.522  1.00  0.00     0.180 HD
BRANCH  11  13
ATOM     13  S   UNL A   1      33.232  17.722  24.773  1.00  0.00     0.232 S 
ATOM     14  O   UNL A   1      34.028  17.731  23.564  1.00  0.00    -0.207 OA
ATOM     15  O   UNL A   1      31.787  17.728  24.637  1.00  0.00    -0.207 OA
BRANCH  13  16
ATOM     16  C   UNL A   1      33.634  16.241  25.702  1.00  0.00     0.156 C 
ATOM     17  C   UNL A   1      32.837  14.993  25.447  1.00  0.00     0.023 C 
ENDBRANCH  13  16
ENDBRANCH  11  13
ENDBRANCH   6  11
BRANCH  10  18
ATOM     18  N   UNL A   1      33.286  24.381  23.441  1.00  0.00    -0.360 N 
ATOM     19  C   UNL A   1      33.850  25.491  24.238  1.00  0.00     0.178 C 
ATOM     20  C   UNL A   1      32.936  24.754  22.057  1.00  0.00     0.178 C 
ATOM     21  C   UNL A   1      32.991  26.782  24.109  1.00  0.00     0.283 C 
ATOM     22  C   UNL A   1      32.041  26.014  22.037  1.00  0.00     0.283 C 
ATOM     23  N   UNL A   1      32.673  27.163  22.714  1.00  0.00    -0.334 N 
ATOM     24  C   UNL A   1      31.762  28.316  22.705  1.00  0.00     0.332 C 
ATOM     25  H   UNL A   1      33.529  27.421  22.225  1.00  0.00     0.347 HD
ENDBRANCH  10  18
ENDBRANCH   3   5
ENDBRANCH   2   3
ENDBRANCH   1   2
BRANCH   1  26
ATOM     26  C   UNL A   1      38.610  23.372  26.101  1.00  0.00     0.275 C 
BRANCH  26  27
ATOM     27  O   UNL A   1      39.771  23.135  26.919  1.00  0.00    -0.458 OA
BRANCH  27  28
ATOM     28  C   UNL A   1      40.708  24.109  26.845  1.00  0.00     0.338 C 
ATOM     29  O   UNL A   1      41.772  24.055  26.254  1.00  0.00    -0.246 OA
BRANCH  28  30
ATOM     30  C   UNL A   1      40.275  25.340  27.528  1.00  0.00     0.060 A 
ATOM     31  C   UNL A   1      40.970  26.515  27.292  1.00  0.00     0.016 A 
ATOM     32  C   UNL A   1      39.401  25.269  28.609  1.00  0.00     0.016 A 
ATOM     33  C   UNL A   1      40.962  27.536  28.225  1.00  0.00     0.010 A 
ATOM     34  C   UNL A   1      39.272  26.370  29.468  1.00  0.00     0.010 A 
ATOM     35  C   UNL A   1      40.108  27.492  29.328  1.00  0.00    -0.014 A 
BRANCH  35  36
ATOM     36  C   UNL A   1      40.161  28.579  30.347  1.00  0.00     0.031 A 
ATOM     37  C   UNL A   1      41.226  28.555  31.416  1.00  0.00     0.074 A 
ATOM     38  C   UNL A   1      39.306  29.622  30.286  1.00  0.00     0.049 A 
ATOM     39  N   UNL A   1      41.313  29.265  32.510  1.00  0.00    -0.248 NA
ATOM     40  C   UNL A   1      42.329  27.595  31.239  1.00  0.00     0.031 C 
ATOM     41  C   UNL A   1      38.282  29.827  29.256  1.00  0.00     0.029 A 
ATOM     42  N   UNL A   1      39.171  30.723  31.096  1.00  0.00    -0.354 N 
ATOM     43  C   UNL A   1      42.421  28.776  33.196  1.00  0.00     0.074 A 
ATOM     44  C   UNL A   1      42.985  27.719  32.385  1.00  0.00     0.031 C 
ATOM     45  C   UNL A   1      37.675  31.003  29.456  1.00  0.00     0.029 A 
ATOM     46  C   UNL A   1      38.158  31.569  30.707  1.00  0.00     0.049 A 
ATOM     47  H   UNL A   1      39.745  30.891  31.877  1.00  0.00     0.167 HD
ATOM     48  C   UNL A   1      42.907  29.167  34.398  1.00  0.00     0.037 A 
ATOM     49  C   UNL A   1      37.622  32.642  31.317  1.00  0.00     0.037 A 
ATOM     50  C   UNL A   1      42.366  30.267  35.157  1.00  0.00     0.049 A 
ATOM     51  C   UNL A   1      38.151  33.035  32.666  1.00  0.00     0.074 A 
ATOM     52  C   UNL A   1      42.775  30.750  36.387  1.00  0.00     0.029 A 
ATOM     53  N   UNL A   1      41.309  31.068  34.746  1.00  0.00    -0.354 N 
ATOM     54  N   UNL A   1      39.134  32.503  33.352  1.00  0.00    -0.248 NA
ATOM     55  C   UNL A   1      37.479  34.153  33.338  1.00  0.00     0.031 C 
ATOM     56  C   UNL A   1      41.935  31.811  36.742  1.00  0.00     0.029 A 
ATOM     57  C   UNL A   1      41.041  32.030  35.707  1.00  0.00     0.049 A 
ATOM     58  H   UNL A   1      40.821  30.968  33.897  1.00  0.00     0.167 HD
ATOM     59  C   UNL A   1      39.201  33.222  34.538  1.00  0.00     0.074 A 
ATOM     60  C   UNL A   1      38.183  34.252  34.455  1.00  0.00     0.031 C 
ATOM     61  C   UNL A   1      40.018  33.041  35.605  1.00  0.00     0.037 A 
BRANCH  48  62
ATOM     62  C   UNL A   1      44.035  28.368  34.999  1.00  0.00     0.058 A 
ATOM     63  C   UNL A   1      43.821  27.198  35.742  1.00  0.00     0.135 A 
ATOM     64  C   UNL A   1      45.366  28.777  34.797  1.00  0.00     0.135 A 
ATOM     65  F   UNL A   1      42.573  26.769  35.987  1.00  0.00    -0.206 F 
ATOM     66  C   UNL A   1      44.882  26.475  36.284  1.00  0.00     0.059 A 
ATOM     67  C   UNL A   1      46.442  28.055  35.302  1.00  0.00     0.059 A 
ATOM     68  F   UNL A   1      45.630  29.892  34.098  1.00  0.00    -0.206 F 
ATOM     69  C   UNL A   1      46.190  26.911  36.056  1.00  0.00     0.060 A 
BRANCH  69  70
ATOM     70  S   UNL A   1      47.554  25.959  36.758  1.00  0.00     0.124 S 
ATOM     71  O   UNL A   1      48.695  26.819  36.460  1.00  0.00    -0.237 OA
ATOM     72  O   UNL A   1      47.179  25.868  38.165  1.00  0.00    -0.237 OA
ATOM     73  O   UNL A   1      47.509  24.701  36.018  1.00  0.00    -0.744 OA
ENDBRANCH  69  70
ENDBRANCH  48  62
BRANCH  49  74
ATOM     74  C   UNL A   1      36.479  33.365  30.693  1.00  0.00     0.058 A 
ATOM     75  C   UNL A   1      35.174  33.212  31.182  1.00  0.00     0.135 A 
ATOM     76  C   UNL A   1      36.671  34.239  29.609  1.00  0.00     0.135 A 
ATOM     77  F   UNL A   1      34.936  32.384  32.210  1.00  0.00    -0.206 F 
ATOM     78  C   UNL A   1      34.100  33.891  30.615  1.00  0.00     0.059 A 
ATOM     79  C   UNL A   1      35.620  34.957  29.051  1.00  0.00     0.059 A 
ATOM     80  F   UNL A   1      37.901  34.431  29.108  1.00  0.00    -0.206 F 
ATOM     81  C   UNL A   1      34.335  34.768  29.553  1.00  0.00     0.060 A 
BRANCH  81  82
ATOM     82  S   UNL A   1      32.944  35.689  28.864  1.00  0.00     0.124 S 
ATOM     83  O   UNL A   1      33.625  36.792  28.198  1.00  0.00    -0.237 OA
ATOM     84  O   UNL A   1      32.323  34.698  27.991  1.00  0.00    -0.237 OA
ATOM     85  O   UNL A   1      32.164  36.048  30.046  1.00  0.00    -0.744 OA
ENDBRANCH  81  82
ENDBRANCH  49  74
BRANCH  61  86
ATOM     86  C   UNL A   1      39.855  33.999  36.751  1.00  0.00     0.058 A 
ATOM     87  C   UNL A   1      39.026  33.706  37.847  1.00  0.00     0.135 A 
ATOM     88  C   UNL A   1      40.540  35.226  36.756  1.00  0.00     0.135 A 
ATOM     89  F   UNL A   1      38.343  32.552  37.886  1.00  0.00    -0.206 F 
ATOM     90  C   UNL A   1      38.850  34.613  38.885  1.00  0.00     0.059 A 
ATOM     91  C   UNL A   1      40.405  36.132  37.800  1.00  0.00     0.059 A 
ATOM     92  F   UNL A   1      41.354  35.549  35.738  1.00  0.00    -0.206 F 
ATOM     93  C   UNL A   1      39.541  35.825  38.851  1.00  0.00     0.060 A 
BRANCH  93  94
ATOM     94  S   UNL A   1      39.299  36.995  40.203  1.00  0.00     0.124 S 
ATOM     95  O   UNL A   1      40.675  37.274  40.599  1.00  0.00    -0.237 OA
ATOM     96  O   UNL A   1      38.593  38.090  39.545  1.00  0.00    -0.237 OA
ATOM     97  O   UNL A   1      38.509  36.239  41.169  1.00  0.00    -0.744 OA
ENDBRANCH  93  94
ENDBRANCH  61  86
ENDBRANCH  35  36
ENDBRANCH  28  30
ENDBRANCH  27  28
ENDBRANCH  26  27
ENDBRANCH   1  26
TORSDOF 18
ENDMDL
MODEL 2
REMARK VINA RESULT:     -11.6      5.765     11.594
REMARK SMILES CCS(=O)(=O)Nc1ccc(N2CC[NH+](C)CC2)cc1C(=O)OCCOC(=O)c1ccc(-c2c3nc(c(-c4c(F)cc(S(=O)(=O)[O-])cc4F)c4ccc([nH]4)c(-c4c(F)cc(S(=O)(=O)[O-])cc4F)c4nc(c(-c5c(F)cc(S(=O)(=O)[O-])cc5F)c5ccc2[nH]5)C=C4)C=C3)cc1
REMARK SMILES IDX 23 1 22 2 20 3 21 4 19 5 7 6 8 7 9 8 18 9 10 10 6 11 3 13
REMARK SMILES IDX 4 14 5 15 2 16 1 17 11 18 12 19 17 20 13 21 16 22 14 23
REMARK SMILES IDX 15 24 24 26 25 27 26 28 27 29 28 30 29 31 93 32 30 33 92 34
REMARK SMILES IDX 31 35 32 36 33 37 86 38 34 39 91 40 85 41 87 42 35 43 90 44
REMARK SMILES IDX 84 45 83 46 36 48 70 49 49 50 69 51 50 52 53 53 68 54 88 55
REMARK SMILES IDX 51 56 52 57 67 59 89 60 54 61 37 62 38 63 47 64 39 65 40 66
REMARK SMILES IDX 46 67 48 68 41 69 42 70 43 71 44 72 45 73 71 74 72 75 81 76
REMARK SMILES IDX 73 77 74 78 80 79 82 80 75 81 76 82 77 83 78 84 79 85 55 86
REMARK SMILES IDX 56 87 65 88 57 89 58 90 64 91 66 92 59 93 60 94 61 95 62 96
REMARK SMILES IDX 63 97
REMARK H PARENT 6 12 14 25 87 47 53 58
REMARK Flexibility Score: inf
ROOT
ATOM      1  C   UNL A   1      32.361  31.020  26.880  1.00  0.00     0.275 C 
ENDROOT
BRANCH   1   2
ATOM      2  O   UNL A   1      32.413  30.142  25.728  1.00  0.00    -0.458 OA
BRANCH   2   3
ATOM      3  C   UNL A   1      31.268  30.164  25.013  1.00  0.00     0.340 C 
ATOM      4  O   UNL A   1      30.459  31.082  25.010  1.00  0.00    -0.246 OA
BRANCH   3   5
ATOM      5  C   UNL A   1      30.948  28.927  24.286  1.00  0.00     0.086 A 
ATOM      6  C   UNL A   1      30.704  28.932  22.911  1.00  0.00     0.063 A 
ATOM      7  C   UNL A   1      30.618  27.702  22.255  1.00  0.00     0.030 A 
ATOM      8  C   UNL A   1      30.898  26.500  22.925  1.00  0.00     0.028 A 
ATOM      9  C   UNL A   1      31.201  27.701  24.950  1.00  0.00     0.043 A 
ATOM     10  C   UNL A   1      31.247  26.473  24.279  1.00  0.00     0.038 A 
BRANCH   6  11
ATOM     11  N   UNL A   1      30.368  30.078  22.126  1.00  0.00    -0.283 N 
ATOM     12  H   UNL A   1      31.109  30.504  21.637  1.00  0.00     0.180 HD
BRANCH  11  13
ATOM     13  S   UNL A   1      28.869  30.776  21.946  1.00  0.00     0.232 S 
ATOM     14  O   UNL A   1      28.400  30.381  20.635  1.00  0.00    -0.207 OA
ATOM     15  O   UNL A   1      29.092  32.188  22.192  1.00  0.00    -0.207 OA
BRANCH  13  16
ATOM     16  C   UNL A   1      27.659  30.249  23.161  1.00  0.00     0.156 C 
ATOM     17  C   UNL A   1      27.210  28.815  23.154  1.00  0.00     0.023 C 
ENDBRANCH  13  16
ENDBRANCH  11  13
ENDBRANCH   6  11
BRANCH  10  18
ATOM     18  N   UNL A   1      31.731  25.333  24.894  1.00  0.00    -0.360 N 
ATOM     19  C   UNL A   1      32.666  25.359  26.039  1.00  0.00     0.178 C 
ATOM     20  C   UNL A   1      31.065  24.031  24.692  1.00  0.00     0.178 C 
ATOM     21  C   UNL A   1      33.624  24.133  26.024  1.00  0.00     0.283 C 
ATOM     22  C   UNL A   1      32.103  22.886  24.639  1.00  0.00     0.283 C 
ATOM     23  N   UNL A   1      32.941  22.830  25.852  1.00  0.00    -0.334 N 
ATOM     24  C   UNL A   1      33.936  21.756  25.727  1.00  0.00     0.332 C 
ATOM     25  H   UNL A   1      32.357  22.640  26.665  1.00  0.00     0.347 HD
ENDBRANCH  10  18
ENDBRANCH   3   5
ENDBRANCH   2   3
ENDBRANCH   1   2
BRANCH   1  26
ATOM     26  C   UNL A   1      33.722  31.456  27.429  1.00  0.00     0.275 C 
BRANCH  26  27
ATOM     27  O   UNL A   1      34.212  30.587  28.466  1.00  0.00    -0.458 OA
BRANCH  27  28
ATOM     28  C   UNL A   1      34.972  29.562  28.016  1.00  0.00     0.338 C 
ATOM     29  O   UNL A   1      34.597  28.610  27.356  1.00  0.00    -0.246 OA
BRANCH  28  30
ATOM     30  C   UNL A   1      36.394  29.741  28.360  1.00  0.00     0.060 A 
ATOM     31  C   UNL A   1      37.288  30.067  27.354  1.00  0.00     0.016 A 
ATOM     32  C   UNL A   1      36.878  29.296  29.586  1.00  0.00     0.016 A 
ATOM     33  C   UNL A   1      38.632  29.762  27.481  1.00  0.00     0.010 A 
ATOM     34  C   UNL A   1      38.260  29.139  29.769  1.00  0.00     0.010 A 
ATOM     35  C   UNL A   1      39.149  29.300  28.692  1.00  0.00    -0.014 A 
BRANCH  35  36
ATOM     36  C   UNL A   1      40.590  28.926  28.784  1.00  0.00     0.031 A 
ATOM     37  C   UNL A   1      41.595  29.932  29.288  1.00  0.00     0.074 A 
ATOM     38  C   UNL A   1      40.997  27.675  28.482  1.00  0.00     0.049 A 
ATOM     39  N   UNL A   1      42.901  29.889  29.238  1.00  0.00    -0.248 NA
ATOM     40  C   UNL A   1      41.063  31.152  29.918  1.00  0.00     0.031 C 
ATOM     41  C   UNL A   1      40.125  26.570  28.068  1.00  0.00     0.029 A 
ATOM     42  N   UNL A   1      42.248  27.108  28.498  1.00  0.00    -0.354 N 
ATOM     43  C   UNL A   1      43.343  31.110  29.739  1.00  0.00     0.074 A 
ATOM     44  C   UNL A   1      42.164  31.866  30.106  1.00  0.00     0.031 C 
ATOM     45  C   UNL A   1      40.851  25.454  27.933  1.00  0.00     0.029 A 
ATOM     46  C   UNL A   1      42.257  25.789  28.105  1.00  0.00     0.049 A 
ATOM     47  H   UNL A   1      43.059  27.597  28.765  1.00  0.00     0.167 HD
ATOM     48  C   UNL A   1      44.615  31.559  29.864  1.00  0.00     0.037 A 
ATOM     49  C   UNL A   1      43.279  24.954  27.842  1.00  0.00     0.037 A 
ATOM     50  C   UNL A   1      45.775  30.762  29.553  1.00  0.00     0.049 A 
ATOM     51  C   UNL A   1      44.679  25.483  27.951  1.00  0.00     0.074 A 
ATOM     52  C   UNL A   1      47.111  31.112  29.638  1.00  0.00     0.029 A 
ATOM     53  N   UNL A   1      45.737  29.445  29.114  1.00  0.00    -0.354 N 
ATOM     54  N   UNL A   1      45.083  26.671  28.330  1.00  0.00    -0.248 NA
ATOM     55  C   UNL A   1      45.761  24.569  27.567  1.00  0.00     0.031 C 
ATOM     56  C   UNL A   1      47.878  30.025  29.205  1.00  0.00     0.029 A 
ATOM     57  C   UNL A   1      47.024  28.975  28.908  1.00  0.00     0.049 A 
ATOM     58  H   UNL A   1      44.915  28.921  28.972  1.00  0.00     0.167 HD
ATOM     59  C   UNL A   1      46.469  26.650  28.232  1.00  0.00     0.074 A 
ATOM     60  C   UNL A   1      46.831  25.315  27.796  1.00  0.00     0.031 C 
ATOM     61  C   UNL A   1      47.360  27.644  28.467  1.00  0.00     0.037 A 
BRANCH  48  62
ATOM     62  C   UNL A   1      44.822  32.988  30.295  1.00  0.00     0.058 A 
ATOM     63  C   UNL A   1      45.025  33.353  31.634  1.00  0.00     0.135 A 
ATOM     64  C   UNL A   1      44.844  34.012  29.331  1.00  0.00     0.135 A 
ATOM     65  F   UNL A   1      44.994  32.423  32.602  1.00  0.00    -0.206 F 
ATOM     66  C   UNL A   1      45.218  34.682  32.005  1.00  0.00     0.059 A 
ATOM     67  C   UNL A   1      45.065  35.342  29.674  1.00  0.00     0.059 A 
ATOM     68  F   UNL A   1      44.650  33.723  28.035  1.00  0.00    -0.206 F 
ATOM     69  C   UNL A   1      45.239  35.670  31.017  1.00  0.00     0.060 A 
BRANCH  69  70
ATOM     70  S   UNL A   1      45.499  37.386  31.514  1.00  0.00     0.124 S 
ATOM     71  O   UNL A   1      46.851  37.631  31.024  1.00  0.00    -0.237 OA
ATOM     72  O   UNL A   1      44.431  38.081  30.802  1.00  0.00    -0.237 OA
ATOM     73  O   UNL A   1      45.358  37.347  32.966  1.00  0.00    -0.744 OA
ENDBRANCH  69  70
ENDBRANCH  48  62
BRANCH  49  74
ATOM     74  C   UNL A   1      43.010  23.564  27.378  1.00  0.00     0.058 A 
ATOM     75  C   UNL A   1      43.150  23.213  26.028  1.00  0.00     0.135 A 
ATOM     76  C   UNL A   1      42.627  22.554  28.278  1.00  0.00     0.135 A 
ATOM     77  F   UNL A   1      43.507  24.142  25.128  1.00  0.00    -0.206 F 
ATOM     78  C   UNL A   1      42.914  21.915  25.585  1.00  0.00     0.059 A 
ATOM     79  C   UNL A   1      42.423  21.243  27.865  1.00  0.00     0.059 A 
ATOM     80  F   UNL A   1      42.488  22.832  29.584  1.00  0.00    -0.206 F 
ATOM     81  C   UNL A   1      42.557  20.935  26.514  1.00  0.00     0.060 A 
BRANCH  81  82
ATOM     82  S   UNL A   1      42.311  19.242  25.937  1.00  0.00     0.124 S 
ATOM     83  O   UNL A   1      43.096  19.234  24.710  1.00  0.00    -0.237 OA
ATOM     84  O   UNL A   1      42.848  18.461  27.047  1.00  0.00    -0.237 OA
ATOM     85  O   UNL A   1      40.864  19.156  25.764  1.00  0.00    -0.744 OA
ENDBRANCH  81  82
ENDBRANCH  49  74
BRANCH  61  86
ATOM     86  C   UNL A   1      48.813  27.308  28.280  1.00  0.00     0.058 A 
ATOM     87  C   UNL A   1      49.612  26.868  29.348  1.00  0.00     0.135 A 
ATOM     88  C   UNL A   1      49.412  27.423  27.015  1.00  0.00     0.135 A 
ATOM     89  F   UNL A   1      49.089  26.750  30.579  1.00  0.00    -0.206 F 
ATOM     90  C   UNL A   1      50.964  26.595  29.178  1.00  0.00     0.059 A 
ATOM     91  C   UNL A   1      50.755  27.122  26.815  1.00  0.00     0.059 A 
ATOM     92  F   UNL A   1      48.690  27.827  25.958  1.00  0.00    -0.206 F 
ATOM     93  C   UNL A   1      51.527  26.728  27.908  1.00  0.00     0.060 A 
BRANCH  93  94
ATOM     94  S   UNL A   1      53.285  26.375  27.701  1.00  0.00     0.124 S 
ATOM     95  O   UNL A   1      53.781  27.648  27.189  1.00  0.00    -0.237 OA
ATOM     96  O   UNL A   1      53.695  26.032  29.059  1.00  0.00    -0.237 OA
ATOM     97  O   UNL A   1      53.298  25.268  26.750  1.00  0.00    -0.744 OA
ENDBRANCH  93  94
ENDBRANCH  61  86
ENDBRANCH  35  36
ENDBRANCH  28  30
ENDBRANCH  27  28
ENDBRANCH  26  27
ENDBRANCH   1  26
TORSDOF 18
ENDMDL
MODEL 3
REMARK VINA RESULT:     -11.5      1.425      2.291
REMARK SMILES CCS(=O)(=O)Nc1ccc(N2CC[NH+](C)CC2)cc1C(=O)OCCOC(=O)c1ccc(-c2c3nc(c(-c4c(F)cc(S(=O)(=O)[O-])cc4F)c4ccc([nH]4)c(-c4c(F)cc(S(=O)(=O)[O-])cc4F)c4nc(c(-c5c(F)cc(S(=O)(=O)[O-])cc5F)c5ccc2[nH]5)C=C4)C=C3)cc1
REMARK SMILES IDX 23 1 22 2 20 3 21 4 19 5 7 6 8 7 9 8 18 9 10 10 6 11 3 13
REMARK SMILES IDX 4 14 5 15 2 16 1 17 11 18 12 19 17 20 13 21 16 22 14 23
REMARK SMILES IDX 15 24 24 26 25 27 26 28 27 29 28 30 29 31 93 32 30 33 92 34
REMARK SMILES IDX 31 35 32 36 33 37 86 38 34 39 91 40 85 41 87 42 35 43 90 44
REMARK SMILES IDX 84 45 83 46 36 48 70 49 49 50 69 51 50 52 53 53 68 54 88 55
REMARK SMILES IDX 51 56 52 57 67 59 89 60 54 61 37 62 38 63 47 64 39 65 40 66
REMARK SMILES IDX 46 67 48 68 41 69 42 70 43 71 44 72 45 73 71 74 72 75 81 76
REMARK SMILES IDX 73 77 74 78 80 79 82 80 75 81 76 82 77 83 78 84 79 85 55 86
REMARK SMILES IDX 56 87 65 88 57 89 58 90 64 91 66 92 59 93 60 94 61 95 62 96
REMARK SMILES IDX 63 97
REMARK H PARENT 6 12 14 25 87 47 53 58
REMARK Flexibility Score: inf
ROOT
ATOM      1  C   UNL A   1      37.748  21.035  24.786  1.00  0.00     0.275 C 
ENDROOT
BRANCH   1   2
ATOM      2  O   UNL A   1      36.562  20.487  25.412  1.00  0.00    -0.458 OA
BRANCH   2   3
ATOM      3  C   UNL A   1      35.584  21.406  25.552  1.00  0.00     0.340 C 
ATOM      4  O   UNL A   1      35.506  22.214  26.468  1.00  0.00    -0.246 OA
BRANCH   3   5
ATOM      5  C   UNL A   1      34.487  21.324  24.578  1.00  0.00     0.086 A 
ATOM      6  C   UNL A   1      33.675  20.191  24.488  1.00  0.00     0.063 A 
ATOM      7  C   UNL A   1      32.529  20.266  23.693  1.00  0.00     0.030 A 
ATOM      8  C   UNL A   1      32.129  21.478  23.107  1.00  0.00     0.028 A 
ATOM      9  C   UNL A   1      34.080  22.530  23.955  1.00  0.00     0.043 A 
ATOM     10  C   UNL A   1      32.868  22.654  23.266  1.00  0.00     0.038 A 
BRANCH   6  11
ATOM     11  N   UNL A   1      33.988  18.896  25.004  1.00  0.00    -0.283 N 
ATOM     12  H   UNL A   1      34.686  18.860  25.698  1.00  0.00     0.180 HD
BRANCH  11  13
ATOM     13  S   UNL A   1      33.311  17.441  24.564  1.00  0.00     0.232 S 
ATOM     14  O   UNL A   1      33.551  17.302  23.143  1.00  0.00    -0.207 OA
ATOM     15  O   UNL A   1      31.935  17.528  25.017  1.00  0.00    -0.207 OA
BRANCH  13  16
ATOM     16  C   UNL A   1      34.016  16.018  25.397  1.00  0.00     0.156 C 
ATOM     17  C   UNL A   1      35.509  15.844  25.388  1.00  0.00     0.023 C 
ENDBRANCH  13  16
ENDBRANCH  11  13
ENDBRANCH   6  11
BRANCH  10  18
ATOM     18  N   UNL A   1      32.381  23.890  22.880  1.00  0.00    -0.360 N 
ATOM     19  C   UNL A   1      32.914  24.654  21.732  1.00  0.00     0.178 C 
ATOM     20  C   UNL A   1      31.065  24.360  23.355  1.00  0.00     0.178 C 
ATOM     21  C   UNL A   1      32.817  26.189  21.971  1.00  0.00     0.283 C 
ATOM     22  C   UNL A   1      31.085  25.884  23.612  1.00  0.00     0.283 C 
ATOM     23  N   UNL A   1      31.483  26.651  22.416  1.00  0.00    -0.334 N 
ATOM     24  C   UNL A   1      31.529  28.085  22.731  1.00  0.00     0.332 C 
ATOM     25  H   UNL A   1      30.802  26.503  21.672  1.00  0.00     0.347 HD
ENDBRANCH  10  18
ENDBRANCH   3   5
ENDBRANCH   2   3
ENDBRANCH   1   2
BRANCH   1  26
ATOM     26  C   UNL A   1      38.839  21.500  25.755  1.00  0.00     0.275 C 
BRANCH  26  27
ATOM     27  O   UNL A   1      38.738  22.898  26.083  1.00  0.00    -0.458 OA
BRANCH  27  28
ATOM     28  C   UNL A   1      39.907  23.461  26.468  1.00  0.00     0.338 C 
ATOM     29  O   UNL A   1      41.026  23.019  26.282  1.00  0.00    -0.246 OA
BRANCH  28  30
ATOM     30  C   UNL A   1      39.699  24.769  27.114  1.00  0.00     0.060 A 
ATOM     31  C   UNL A   1      40.445  25.853  26.682  1.00  0.00     0.016 A 
ATOM     32  C   UNL A   1      39.010  24.851  28.320  1.00  0.00     0.016 A 
ATOM     33  C   UNL A   1      40.678  26.926  27.523  1.00  0.00     0.010 A 
ATOM     34  C   UNL A   1      39.118  26.011  29.101  1.00  0.00     0.010 A 
ATOM     35  C   UNL A   1      40.015  27.034  28.746  1.00  0.00    -0.014 A 
BRANCH  35  36
ATOM     36  C   UNL A   1      40.327  28.172  29.658  1.00  0.00     0.031 A 
ATOM     37  C   UNL A   1      41.607  28.165  30.456  1.00  0.00     0.074 A 
ATOM     38  C   UNL A   1      39.506  29.242  29.730  1.00  0.00     0.049 A 
ATOM     39  N   UNL A   1      41.960  28.930  31.456  1.00  0.00    -0.248 NA
ATOM     40  C   UNL A   1      42.616  27.156  30.093  1.00  0.00     0.031 C 
ATOM     41  C   UNL A   1      38.278  29.429  28.949  1.00  0.00     0.029 A 
ATOM     42  N   UNL A   1      39.588  30.390  30.479  1.00  0.00    -0.354 N 
ATOM     43  C   UNL A   1      43.184  28.437  31.900  1.00  0.00     0.074 A 
ATOM     44  C   UNL A   1      43.520  27.317  31.049  1.00  0.00     0.031 C 
ATOM     45  C   UNL A   1      37.762  30.637  29.210  1.00  0.00     0.029 A 
ATOM     46  C   UNL A   1      38.533  31.251  30.280  1.00  0.00     0.049 A 
ATOM     47  H   UNL A   1      40.329  30.578  31.098  1.00  0.00     0.167 HD
ATOM     48  C   UNL A   1      43.942  28.874  32.935  1.00  0.00     0.037 A 
ATOM     49  C   UNL A   1      38.178  32.375  30.930  1.00  0.00     0.037 A 
ATOM     50  C   UNL A   1      43.617  30.033  33.727  1.00  0.00     0.049 A 
ATOM     51  C   UNL A   1      39.011  32.820  32.096  1.00  0.00     0.074 A 
ATOM     52  C   UNL A   1      44.308  30.567  34.801  1.00  0.00     0.029 A 
ATOM     53  N   UNL A   1      42.513  30.851  33.520  1.00  0.00    -0.354 N 
ATOM     54  N   UNL A   1      40.112  32.289  32.571  1.00  0.00    -0.248 NA
ATOM     55  C   UNL A   1      38.539  33.998  32.833  1.00  0.00     0.031 C 
ATOM     56  C   UNL A   1      43.599  31.676  35.271  1.00  0.00     0.029 A 
ATOM     57  C   UNL A   1      42.496  31.872  34.455  1.00  0.00     0.049 A 
ATOM     58  H   UNL A   1      41.841  30.723  32.811  1.00  0.00     0.167 HD
ATOM     59  C   UNL A   1      40.467  33.069  33.665  1.00  0.00     0.074 A 
ATOM     60  C   UNL A   1      39.483  34.130  33.752  1.00  0.00     0.031 C 
ATOM     61  C   UNL A   1      41.502  32.915  34.527  1.00  0.00     0.037 A 
BRANCH  48  62
ATOM     62  C   UNL A   1      45.157  28.067  33.311  1.00  0.00     0.058 A 
ATOM     63  C   UNL A   1      46.441  28.360  32.825  1.00  0.00     0.135 A 
ATOM     64  C   UNL A   1      45.031  26.988  34.204  1.00  0.00     0.135 A 
ATOM     65  F   UNL A   1      46.621  29.364  31.952  1.00  0.00    -0.206 F 
ATOM     66  C   UNL A   1      47.549  27.600  33.191  1.00  0.00     0.059 A 
ATOM     67  C   UNL A   1      46.128  26.234  34.608  1.00  0.00     0.059 A 
ATOM     68  F   UNL A   1      43.827  26.657  34.697  1.00  0.00    -0.206 F 
ATOM     69  C   UNL A   1      47.383  26.540  34.086  1.00  0.00     0.060 A 
BRANCH  69  70
ATOM     70  S   UNL A   1      48.832  25.570  34.558  1.00  0.00     0.124 S 
ATOM     71  O   UNL A   1      49.840  26.083  33.635  1.00  0.00    -0.237 OA
ATOM     72  O   UNL A   1      49.009  25.936  35.959  1.00  0.00    -0.237 OA
ATOM     73  O   UNL A   1      48.411  24.193  34.321  1.00  0.00    -0.744 OA
ENDBRANCH  69  70
ENDBRANCH  48  62
BRANCH  49  74
ATOM     74  C   UNL A   1      36.940  33.106  30.539  1.00  0.00     0.058 A 
ATOM     75  C   UNL A   1      36.919  33.938  29.411  1.00  0.00     0.135 A 
ATOM     76  C   UNL A   1      35.748  32.970  31.272  1.00  0.00     0.135 A 
ATOM     77  F   UNL A   1      38.032  34.108  28.681  1.00  0.00    -0.206 F 
ATOM     78  C   UNL A   1      35.765  34.616  29.028  1.00  0.00     0.059 A 
ATOM     79  C   UNL A   1      34.574  33.606  30.887  1.00  0.00     0.059 A 
ATOM     80  F   UNL A   1      35.709  32.176  32.354  1.00  0.00    -0.206 F 
ATOM     81  C   UNL A   1      34.595  34.437  29.770  1.00  0.00     0.060 A 
BRANCH  81  82
ATOM     82  S   UNL A   1      33.089  35.274  29.230  1.00  0.00     0.124 S 
ATOM     83  O   UNL A   1      32.581  34.345  28.229  1.00  0.00    -0.237 OA
ATOM     84  O   UNL A   1      32.325  35.359  30.471  1.00  0.00    -0.237 OA
ATOM     85  O   UNL A   1      33.581  36.549  28.718  1.00  0.00    -0.744 OA
ENDBRANCH  81  82
ENDBRANCH  49  74
BRANCH  61  86
ATOM     86  C   UNL A   1      41.630  33.939  35.619  1.00  0.00     0.058 A 
ATOM     87  C   UNL A   1      42.368  35.121  35.440  1.00  0.00     0.135 A 
ATOM     88  C   UNL A   1      41.003  33.737  36.860  1.00  0.00     0.135 A 
ATOM     89  F   UNL A   1      42.994  35.356  34.276  1.00  0.00    -0.206 F 
ATOM     90  C   UNL A   1      42.514  36.046  36.467  1.00  0.00     0.059 A 
ATOM     91  C   UNL A   1      41.108  34.666  37.889  1.00  0.00     0.059 A 
ATOM     92  F   UNL A   1      40.276  32.630  37.079  1.00  0.00    -0.206 F 
ATOM     93  C   UNL A   1      41.883  35.808  37.689  1.00  0.00     0.060 A 
BRANCH  93  94
ATOM     94  S   UNL A   1      42.085  37.015  39.015  1.00  0.00     0.124 S 
ATOM     95  O   UNL A   1      43.086  37.910  38.446  1.00  0.00    -0.237 OA
ATOM     96  O   UNL A   1      40.739  37.565  39.143  1.00  0.00    -0.237 OA
ATOM     97  O   UNL A   1      42.534  36.207  40.144  1.00  0.00    -0.744 OA
ENDBRANCH  93  94
ENDBRANCH  61  86
ENDBRANCH  35  36
ENDBRANCH  28  30
ENDBRANCH  27  28
ENDBRANCH  26  27
ENDBRANCH   1  26
TORSDOF 18
ENDMDL
