MODEL 1
REMARK VINA RESULT:     -11.4      0.000      0.000
REMARK SMILES O=C(C[C@@H]1C(=O)NCC[N@H+]1Cc1ccc(F)c(F)c1)OCCOC(=O)c1ccc(-c2c3nc(c(-c4c(F)cc(S(=O)(=O)[O-])cc4F)c4ccc([nH]4)c(-c4c(F)cc(S(=O)(=O)[O-])cc4F)c4nc(c(-c5c(F)cc(S(=O)(=O)[O-])cc5F)c5ccc2[nH]5)C=C4)C=C3)cc1
REMARK SMILES IDX 21 1 20 2 2 3 1 4 3 5 4 6 5 7 10 8 6 9 7 10 9 11 8 13 11 15
REMARK SMILES IDX 12 16 13 17 19 18 14 19 17 20 15 21 18 22 16 23 22 24 23 25
REMARK SMILES IDX 24 26 25 27 26 28 27 29 91 30 28 31 90 32 29 33 30 34 31 35
REMARK SMILES IDX 84 36 32 37 89 38 83 39 85 40 33 41 88 42 82 43 81 44 34 46
REMARK SMILES IDX 68 47 47 48 67 49 48 50 51 51 66 52 86 53 49 54 50 55 65 57
REMARK SMILES IDX 87 58 52 59 35 60 36 61 45 62 37 63 38 64 44 65 46 66 39 67
REMARK SMILES IDX 40 68 41 69 42 70 43 71 69 72 70 73 79 74 71 75 72 76 78 77
REMARK SMILES IDX 80 78 73 79 74 80 75 81 76 82 77 83 53 84 54 85 63 86 55 87
REMARK SMILES IDX 56 88 62 89 64 90 57 91 58 92 59 93 60 94 61 95
REMARK H PARENT 10 12 7 14 85 45 51 56
REMARK Flexibility Score: inf
ROOT
ATOM      1  C   UNL A   1      33.245  28.547  26.352  1.00  0.00     0.274 C 
ENDROOT
BRANCH   1   2
ATOM      2  O   UNL A   1      32.492  27.428  26.863  1.00  0.00    -0.462 OA
BRANCH   2   3
ATOM      3  C   UNL A   1      32.079  26.338  26.195  1.00  0.00     0.312 C 
ATOM      4  O   UNL A   1      31.022  26.379  25.563  1.00  0.00    -0.252 OA
BRANCH   3   5
ATOM      5  C   UNL A   1      32.885  25.080  26.219  1.00  0.00     0.198 C 
BRANCH   5   6
ATOM      6  C   UNL A   1      32.420  23.869  25.393  1.00  0.00     0.285 C 
ATOM      7  C   UNL A   1      31.726  22.833  26.349  1.00  0.00     0.279 C 
ATOM      8  N   UNL A   1      33.258  23.148  24.418  1.00  0.00    -0.319 N 
ATOM      9  O   UNL A   1      31.256  23.130  27.447  1.00  0.00    -0.268 OA
ATOM     10  N   UNL A   1      31.571  21.542  25.914  1.00  0.00    -0.345 N 
ATOM     11  C   UNL A   1      32.502  22.123  23.700  1.00  0.00     0.284 C 
ATOM     12  H   UNL A   1      33.926  22.852  25.131  1.00  0.00     0.349 HD
ATOM     13  C   UNL A   1      32.175  21.022  24.710  1.00  0.00     0.177 C 
ATOM     14  H   UNL A   1      31.016  20.934  26.455  1.00  0.00     0.163 HD
BRANCH   8  15
ATOM     15  C   UNL A   1      34.490  23.607  23.804  1.00  0.00     0.299 C 
BRANCH  15  16
ATOM     16  C   UNL A   1      35.694  23.091  24.589  1.00  0.00     0.009 A 
ATOM     17  C   UNL A   1      36.429  23.950  25.429  1.00  0.00     0.013 A 
ATOM     18  C   UNL A   1      36.159  21.777  24.432  1.00  0.00     0.052 A 
ATOM     19  C   UNL A   1      37.659  23.565  25.967  1.00  0.00     0.043 A 
ATOM     20  C   UNL A   1      37.391  21.397  24.966  1.00  0.00     0.159 A 
ATOM     21  C   UNL A   1      38.147  22.295  25.706  1.00  0.00     0.158 A 
ATOM     22  F   UNL A   1      37.868  20.169  24.720  1.00  0.00    -0.204 F 
ATOM     23  F   UNL A   1      39.355  21.949  26.170  1.00  0.00    -0.204 F 
ENDBRANCH  15  16
ENDBRANCH   8  15
ENDBRANCH   5   6
ENDBRANCH   3   5
ENDBRANCH   2   3
ENDBRANCH   1   2
BRANCH   1  24
ATOM     24  C   UNL A   1      33.081  29.723  27.312  1.00  0.00     0.275 C 
BRANCH  24  25
ATOM     25  O   UNL A   1      34.178  30.621  27.088  1.00  0.00    -0.458 OA
BRANCH  25  26
ATOM     26  C   UNL A   1      34.747  31.125  28.212  1.00  0.00     0.338 C 
ATOM     27  O   UNL A   1      34.232  31.870  29.021  1.00  0.00    -0.246 OA
BRANCH  26  28
ATOM     28  C   UNL A   1      36.031  30.415  28.421  1.00  0.00     0.060 A 
ATOM     29  C   UNL A   1      36.332  29.938  29.705  1.00  0.00     0.016 A 
ATOM     30  C   UNL A   1      36.900  30.169  27.353  1.00  0.00     0.016 A 
ATOM     31  C   UNL A   1      37.530  29.259  29.934  1.00  0.00     0.010 A 
ATOM     32  C   UNL A   1      38.094  29.494  27.580  1.00  0.00     0.010 A 
ATOM     33  C   UNL A   1      38.430  29.078  28.878  1.00  0.00    -0.014 A 
BRANCH  33  34
ATOM     34  C   UNL A   1      39.838  28.706  29.129  1.00  0.00     0.031 A 
ATOM     35  C   UNL A   1      40.769  29.808  29.551  1.00  0.00     0.074 A 
ATOM     36  C   UNL A   1      40.292  27.470  28.866  1.00  0.00     0.049 A 
ATOM     37  N   UNL A   1      42.071  29.806  29.643  1.00  0.00    -0.248 NA
ATOM     38  C   UNL A   1      40.139  31.098  29.881  1.00  0.00     0.031 C 
ATOM     39  C   UNL A   1      39.468  26.339  28.442  1.00  0.00     0.029 A 
ATOM     40  N   UNL A   1      41.572  26.976  28.871  1.00  0.00    -0.354 N 
ATOM     41  C   UNL A   1      42.417  31.100  30.018  1.00  0.00     0.074 A 
ATOM     42  C   UNL A   1      41.193  31.863  30.114  1.00  0.00     0.031 C 
ATOM     43  C   UNL A   1      40.271  25.291  28.186  1.00  0.00     0.029 A 
ATOM     44  C   UNL A   1      41.662  25.691  28.396  1.00  0.00     0.049 A 
ATOM     45  H   UNL A   1      42.349  27.493  29.185  1.00  0.00     0.167 HD
ATOM     46  C   UNL A   1      43.649  31.605  30.255  1.00  0.00     0.037 A 
ATOM     47  C   UNL A   1      42.752  24.944  28.124  1.00  0.00     0.037 A 
ATOM     48  C   UNL A   1      44.855  30.835  30.136  1.00  0.00     0.049 A 
ATOM     49  C   UNL A   1      44.118  25.524  28.379  1.00  0.00     0.074 A 
ATOM     50  C   UNL A   1      46.156  31.225  30.390  1.00  0.00     0.029 A 
ATOM     51  N   UNL A   1      44.904  29.514  29.710  1.00  0.00    -0.354 N 
ATOM     52  N   UNL A   1      44.436  26.728  28.797  1.00  0.00    -0.248 NA
ATOM     53  C   UNL A   1      45.274  24.652  28.131  1.00  0.00     0.031 C 
ATOM     54  C   UNL A   1      46.998  30.153  30.074  1.00  0.00     0.029 A 
ATOM     55  C   UNL A   1      46.216  29.080  29.671  1.00  0.00     0.049 A 
ATOM     56  H   UNL A   1      44.121  28.968  29.469  1.00  0.00     0.167 HD
ATOM     57  C   UNL A   1      45.824  26.749  28.887  1.00  0.00     0.074 A 
ATOM     58  C   UNL A   1      46.286  25.437  28.480  1.00  0.00     0.031 C 
ATOM     59  C   UNL A   1      46.643  27.760  29.274  1.00  0.00     0.037 A 
BRANCH  46  60
ATOM     60  C   UNL A   1      43.733  33.058  30.624  1.00  0.00     0.058 A 
ATOM     61  C   UNL A   1      43.758  34.070  29.650  1.00  0.00     0.135 A 
ATOM     62  C   UNL A   1      43.827  33.446  31.971  1.00  0.00     0.135 A 
ATOM     63  F   UNL A   1      43.695  33.753  28.345  1.00  0.00    -0.206 F 
ATOM     64  C   UNL A   1      43.918  35.407  29.992  1.00  0.00     0.059 A 
ATOM     65  C   UNL A   1      43.958  34.781  32.338  1.00  0.00     0.059 A 
ATOM     66  F   UNL A   1      43.813  32.520  32.942  1.00  0.00    -0.206 F 
ATOM     67  C   UNL A   1      44.025  35.753  31.340  1.00  0.00     0.060 A 
BRANCH  67  68
ATOM     68  S   UNL A   1      44.266  37.488  31.772  1.00  0.00     0.124 S 
ATOM     69  O   UNL A   1      45.694  37.519  32.070  1.00  0.00    -0.237 OA
ATOM     70  O   UNL A   1      43.860  38.176  30.551  1.00  0.00    -0.237 OA
ATOM     71  O   UNL A   1      43.382  37.679  32.918  1.00  0.00    -0.744 OA
ENDBRANCH  67  68
ENDBRANCH  46  60
BRANCH  47  72
ATOM     72  C   UNL A   1      42.581  23.574  27.573  1.00  0.00     0.058 A 
ATOM     73  C   UNL A   1      42.618  23.340  26.191  1.00  0.00     0.135 A 
ATOM     74  C   UNL A   1      42.429  22.463  28.418  1.00  0.00     0.135 A 
ATOM     75  F   UNL A   1      42.751  24.369  25.340  1.00  0.00    -0.206 F 
ATOM     76  C   UNL A   1      42.516  22.054  25.665  1.00  0.00     0.059 A 
ATOM     77  C   UNL A   1      42.345  21.167  27.919  1.00  0.00     0.059 A 
ATOM     78  F   UNL A   1      42.397  22.632  29.750  1.00  0.00    -0.206 F 
ATOM     79  C   UNL A   1      42.389  20.973  26.539  1.00  0.00     0.060 A 
BRANCH  79  80
ATOM     80  S   UNL A   1      42.350  19.303  25.850  1.00  0.00     0.124 S 
ATOM     81  O   UNL A   1      40.924  19.115  25.609  1.00  0.00    -0.237 OA
ATOM     82  O   UNL A   1      43.186  19.441  24.661  1.00  0.00    -0.237 OA
ATOM     83  O   UNL A   1      42.924  18.486  26.916  1.00  0.00    -0.744 OA
ENDBRANCH  79  80
ENDBRANCH  47  72
BRANCH  59  84
ATOM     84  C   UNL A   1      48.121  27.487  29.320  1.00  0.00     0.058 A 
ATOM     85  C   UNL A   1      48.979  27.917  28.298  1.00  0.00     0.135 A 
ATOM     86  C   UNL A   1      48.692  26.895  30.457  1.00  0.00     0.135 A 
ATOM     87  F   UNL A   1      48.481  28.484  27.189  1.00  0.00    -0.206 F 
ATOM     88  C   UNL A   1      50.359  27.771  28.404  1.00  0.00     0.059 A 
ATOM     89  C   UNL A   1      50.068  26.758  30.594  1.00  0.00     0.059 A 
ATOM     90  F   UNL A   1      47.910  26.477  31.466  1.00  0.00    -0.206 F 
ATOM     91  C   UNL A   1      50.894  27.200  29.561  1.00  0.00     0.060 A 
BRANCH  91  92
ATOM     92  S   UNL A   1      52.689  27.090  29.723  1.00  0.00     0.124 S 
ATOM     93  O   UNL A   1      52.835  26.695  31.120  1.00  0.00    -0.237 OA
ATOM     94  O   UNL A   1      53.031  26.069  28.736  1.00  0.00    -0.237 OA
ATOM     95  O   UNL A   1      53.143  28.440  29.400  1.00  0.00    -0.744 OA
ENDBRANCH  91  92
ENDBRANCH  59  84
ENDBRANCH  33  34
ENDBRANCH  26  28
ENDBRANCH  25  26
ENDBRANCH  24  25
ENDBRANCH   1  24
TORSDOF 17
ENDMDL
MODEL 2
REMARK VINA RESULT:     -11.0      1.160      1.994
REMARK SMILES O=C(C[C@@H]1C(=O)NCC[N@H+]1Cc1ccc(F)c(F)c1)OCCOC(=O)c1ccc(-c2c3nc(c(-c4c(F)cc(S(=O)(=O)[O-])cc4F)c4ccc([nH]4)c(-c4c(F)cc(S(=O)(=O)[O-])cc4F)c4nc(c(-c5c(F)cc(S(=O)(=O)[O-])cc5F)c5ccc2[nH]5)C=C4)C=C3)cc1
REMARK SMILES IDX 21 1 20 2 2 3 1 4 3 5 4 6 5 7 10 8 6 9 7 10 9 11 8 13 11 15
REMARK SMILES IDX 12 16 13 17 19 18 14 19 17 20 15 21 18 22 16 23 22 24 23 25
REMARK SMILES IDX 24 26 25 27 26 28 27 29 91 30 28 31 90 32 29 33 30 34 31 35
REMARK SMILES IDX 84 36 32 37 89 38 83 39 85 40 33 41 88 42 82 43 81 44 34 46
REMARK SMILES IDX 68 47 47 48 67 49 48 50 51 51 66 52 86 53 49 54 50 55 65 57
REMARK SMILES IDX 87 58 52 59 35 60 36 61 45 62 37 63 38 64 44 65 46 66 39 67
REMARK SMILES IDX 40 68 41 69 42 70 43 71 69 72 70 73 79 74 71 75 72 76 78 77
REMARK SMILES IDX 80 78 73 79 74 80 75 81 76 82 77 83 53 84 54 85 63 86 55 87
REMARK SMILES IDX 56 88 62 89 64 90 57 91 58 92 59 93 60 94 61 95
REMARK H PARENT 10 12 7 14 85 45 51 56
REMARK Flexibility Score: inf
ROOT
ATOM      1  C   UNL A   1      31.853  30.169  26.837  1.00  0.00     0.274 C 
ENDROOT
BRANCH   1   2
ATOM      2  O   UNL A   1      31.567  30.168  25.423  1.00  0.00    -0.462 OA
BRANCH   2   3
ATOM      3  C   UNL A   1      31.584  29.123  24.579  1.00  0.00     0.312 C 
ATOM      4  O   UNL A   1      30.989  29.204  23.502  1.00  0.00    -0.252 OA
BRANCH   3   5
ATOM      5  C   UNL A   1      32.310  27.868  24.937  1.00  0.00     0.198 C 
BRANCH   5   6
ATOM      6  C   UNL A   1      31.560  26.524  24.901  1.00  0.00     0.285 C 
ATOM      7  C   UNL A   1      31.055  26.181  26.349  1.00  0.00     0.279 C 
ATOM      8  N   UNL A   1      32.066  25.300  24.257  1.00  0.00    -0.319 N 
ATOM      9  O   UNL A   1      30.903  27.023  27.233  1.00  0.00    -0.268 OA
ATOM     10  N   UNL A   1      30.698  24.887  26.628  1.00  0.00    -0.345 N 
ATOM     11  C   UNL A   1      31.077  24.223  24.278  1.00  0.00     0.284 C 
ATOM     12  H   UNL A   1      32.868  25.238  24.884  1.00  0.00     0.349 HD
ATOM     13  C   UNL A   1      30.935  23.777  25.735  1.00  0.00     0.177 C 
ATOM     14  H   UNL A   1      30.254  24.704  27.489  1.00  0.00     0.163 HD
BRANCH   8  15
ATOM     15  C   UNL A   1      33.132  25.193  23.279  1.00  0.00     0.299 C 
BRANCH  15  16
ATOM     16  C   UNL A   1      34.313  24.424  23.869  1.00  0.00     0.009 A 
ATOM     17  C   UNL A   1      34.731  24.651  25.195  1.00  0.00     0.013 A 
ATOM     18  C   UNL A   1      35.071  23.538  23.088  1.00  0.00     0.052 A 
ATOM     19  C   UNL A   1      35.938  24.139  25.675  1.00  0.00     0.043 A 
ATOM     20  C   UNL A   1      36.280  23.034  23.569  1.00  0.00     0.159 A 
ATOM     21  C   UNL A   1      36.721  23.354  24.844  1.00  0.00     0.158 A 
ATOM     22  F   UNL A   1      37.041  22.271  22.772  1.00  0.00    -0.204 F 
ATOM     23  F   UNL A   1      37.908  22.916  25.285  1.00  0.00    -0.204 F 
ENDBRANCH  15  16
ENDBRANCH   8  15
ENDBRANCH   5   6
ENDBRANCH   3   5
ENDBRANCH   2   3
ENDBRANCH   1   2
BRANCH   1  24
ATOM     24  C   UNL A   1      32.993  31.150  27.103  1.00  0.00     0.275 C 
BRANCH  24  25
ATOM     25  O   UNL A   1      34.061  30.415  27.719  1.00  0.00    -0.458 OA
BRANCH  25  26
ATOM     26  C   UNL A   1      34.782  31.110  28.634  1.00  0.00     0.338 C 
ATOM     27  O   UNL A   1      34.379  31.991  29.366  1.00  0.00    -0.246 OA
BRANCH  26  28
ATOM     28  C   UNL A   1      36.097  30.440  28.769  1.00  0.00     0.060 A 
ATOM     29  C   UNL A   1      36.523  30.048  30.047  1.00  0.00     0.016 A 
ATOM     30  C   UNL A   1      36.876  30.150  27.644  1.00  0.00     0.016 A 
ATOM     31  C   UNL A   1      37.753  29.410  30.208  1.00  0.00     0.010 A 
ATOM     32  C   UNL A   1      38.103  29.515  27.803  1.00  0.00     0.010 A 
ATOM     33  C   UNL A   1      38.562  29.185  29.088  1.00  0.00    -0.014 A 
BRANCH  33  34
ATOM     34  C   UNL A   1      39.996  28.858  29.234  1.00  0.00     0.031 A 
ATOM     35  C   UNL A   1      40.924  29.995  29.556  1.00  0.00     0.074 A 
ATOM     36  C   UNL A   1      40.464  27.630  28.962  1.00  0.00     0.049 A 
ATOM     37  N   UNL A   1      42.229  30.033  29.545  1.00  0.00    -0.248 NA
ATOM     38  C   UNL A   1      40.284  31.275  29.909  1.00  0.00     0.031 C 
ATOM     39  C   UNL A   1      39.644  26.467  28.629  1.00  0.00     0.029 A 
ATOM     40  N   UNL A   1      41.755  27.172  28.875  1.00  0.00    -0.354 N 
ATOM     41  C   UNL A   1      42.565  31.343  29.863  1.00  0.00     0.074 A 
ATOM     42  C   UNL A   1      41.330  32.074  30.041  1.00  0.00     0.031 C 
ATOM     43  C   UNL A   1      40.455  25.436  28.332  1.00  0.00     0.029 A 
ATOM     44  C   UNL A   1      41.846  25.879  28.422  1.00  0.00     0.049 A 
ATOM     45  H   UNL A   1      42.538  27.718  29.115  1.00  0.00     0.167 HD
ATOM     46  C   UNL A   1      43.796  31.889  29.991  1.00  0.00     0.037 A 
ATOM     47  C   UNL A   1      42.932  25.157  28.080  1.00  0.00     0.037 A 
ATOM     48  C   UNL A   1      45.011  31.151  29.793  1.00  0.00     0.049 A 
ATOM     49  C   UNL A   1      44.297  25.781  28.213  1.00  0.00     0.074 A 
ATOM     50  C   UNL A   1      46.316  31.583  29.934  1.00  0.00     0.029 A 
ATOM     51  N   UNL A   1      45.066  29.822  29.392  1.00  0.00    -0.354 N 
ATOM     52  N   UNL A   1      44.610  27.003  28.579  1.00  0.00    -0.248 NA
ATOM     53  C   UNL A   1      45.455  24.936  27.892  1.00  0.00     0.031 C 
ATOM     54  C   UNL A   1      47.161  30.528  29.574  1.00  0.00     0.029 A 
ATOM     55  C   UNL A   1      46.382  29.423  29.258  1.00  0.00     0.049 A 
ATOM     56  H   UNL A   1      44.282  29.248  29.226  1.00  0.00     0.167 HD
ATOM     57  C   UNL A   1      46.000  27.065  28.558  1.00  0.00     0.074 A 
ATOM     58  C   UNL A   1      46.467  25.757  28.143  1.00  0.00     0.031 C 
ATOM     59  C   UNL A   1      46.816  28.107  28.857  1.00  0.00     0.037 A 
BRANCH  46  60
ATOM     60  C   UNL A   1      43.866  33.352  30.321  1.00  0.00     0.058 A 
ATOM     61  C   UNL A   1      43.958  34.333  29.320  1.00  0.00     0.135 A 
ATOM     62  C   UNL A   1      43.876  33.780  31.659  1.00  0.00     0.135 A 
ATOM     63  F   UNL A   1      43.975  33.978  28.024  1.00  0.00    -0.206 F 
ATOM     64  C   UNL A   1      44.104  35.680  29.632  1.00  0.00     0.059 A 
ATOM     65  C   UNL A   1      43.992  35.124  31.994  1.00  0.00     0.059 A 
ATOM     66  F   UNL A   1      43.796  32.884  32.655  1.00  0.00    -0.206 F 
ATOM     67  C   UNL A   1      44.129  36.066  30.974  1.00  0.00     0.060 A 
BRANCH  67  68
ATOM     68  S   UNL A   1      44.352  37.812  31.368  1.00  0.00     0.124 S 
ATOM     69  O   UNL A   1      43.658  38.453  30.255  1.00  0.00    -0.237 OA
ATOM     70  O   UNL A   1      43.702  37.927  32.669  1.00  0.00    -0.237 OA
ATOM     71  O   UNL A   1      45.802  37.975  31.380  1.00  0.00    -0.744 OA
ENDBRANCH  67  68
ENDBRANCH  46  60
BRANCH  47  72
ATOM     72  C   UNL A   1      42.760  23.770  27.573  1.00  0.00     0.058 A 
ATOM     73  C   UNL A   1      42.803  22.671  28.442  1.00  0.00     0.135 A 
ATOM     74  C   UNL A   1      42.497  23.518  26.217  1.00  0.00     0.135 A 
ATOM     75  F   UNL A   1      43.062  22.857  29.746  1.00  0.00    -0.206 F 
ATOM     76  C   UNL A   1      42.588  21.372  27.988  1.00  0.00     0.059 A 
ATOM     77  C   UNL A   1      42.259  22.233  25.742  1.00  0.00     0.059 A 
ATOM     78  F   UNL A   1      42.436  24.538  25.345  1.00  0.00    -0.206 F 
ATOM     79  C   UNL A   1      42.307  21.164  26.637  1.00  0.00     0.060 A 
BRANCH  79  80
ATOM     80  S   UNL A   1      41.939  19.486  26.077  1.00  0.00     0.124 S 
ATOM     81  O   UNL A   1      42.270  18.700  27.259  1.00  0.00    -0.237 OA
ATOM     82  O   UNL A   1      40.520  19.577  25.746  1.00  0.00    -0.237 OA
ATOM     83  O   UNL A   1      42.829  19.311  24.932  1.00  0.00    -0.744 OA
ENDBRANCH  79  80
ENDBRANCH  47  72
BRANCH  59  84
ATOM     84  C   UNL A   1      48.300  27.877  28.790  1.00  0.00     0.058 A 
ATOM     85  C   UNL A   1      48.996  27.257  29.839  1.00  0.00     0.135 A 
ATOM     86  C   UNL A   1      49.006  28.174  27.614  1.00  0.00     0.135 A 
ATOM     87  F   UNL A   1      48.366  26.959  30.985  1.00  0.00    -0.206 F 
ATOM     88  C   UNL A   1      50.345  26.936  29.721  1.00  0.00     0.059 A 
ATOM     89  C   UNL A   1      50.348  27.842  27.466  1.00  0.00     0.059 A 
ATOM     90  F   UNL A   1      48.380  28.757  26.579  1.00  0.00    -0.206 F 
ATOM     91  C   UNL A   1      51.009  27.223  28.526  1.00  0.00     0.060 A 
BRANCH  91  92
ATOM     92  S   UNL A   1      52.737  26.729  28.355  1.00  0.00     0.124 S 
ATOM     93  O   UNL A   1      53.079  26.372  29.727  1.00  0.00    -0.237 OA
ATOM     94  O   UNL A   1      52.652  25.616  27.413  1.00  0.00    -0.237 OA
ATOM     95  O   UNL A   1      53.386  27.930  27.837  1.00  0.00    -0.744 OA
ENDBRANCH  91  92
ENDBRANCH  59  84
ENDBRANCH  33  34
ENDBRANCH  26  28
ENDBRANCH  25  26
ENDBRANCH  24  25
ENDBRANCH   1  24
TORSDOF 17
ENDMDL
MODEL 3
REMARK VINA RESULT:     -10.7      1.466      2.492
REMARK SMILES O=C(C[C@@H]1C(=O)NCC[N@H+]1Cc1ccc(F)c(F)c1)OCCOC(=O)c1ccc(-c2c3nc(c(-c4c(F)cc(S(=O)(=O)[O-])cc4F)c4ccc([nH]4)c(-c4c(F)cc(S(=O)(=O)[O-])cc4F)c4nc(c(-c5c(F)cc(S(=O)(=O)[O-])cc5F)c5ccc2[nH]5)C=C4)C=C3)cc1
REMARK SMILES IDX 21 1 20 2 2 3 1 4 3 5 4 6 5 7 10 8 6 9 7 10 9 11 8 13 11 15
REMARK SMILES IDX 12 16 13 17 19 18 14 19 17 20 15 21 18 22 16 23 22 24 23 25
REMARK SMILES IDX 24 26 25 27 26 28 27 29 91 30 28 31 90 32 29 33 30 34 31 35
REMARK SMILES IDX 84 36 32 37 89 38 83 39 85 40 33 41 88 42 82 43 81 44 34 46
REMARK SMILES IDX 68 47 47 48 67 49 48 50 51 51 66 52 86 53 49 54 50 55 65 57
REMARK SMILES IDX 87 58 52 59 35 60 36 61 45 62 37 63 38 64 44 65 46 66 39 67
REMARK SMILES IDX 40 68 41 69 42 70 43 71 69 72 70 73 79 74 71 75 72 76 78 77
REMARK SMILES IDX 80 78 73 79 74 80 75 81 76 82 77 83 53 84 54 85 63 86 55 87
REMARK SMILES IDX 56 88 62 89 64 90 57 91 58 92 59 93 60 94 61 95
REMARK H PARENT 10 12 7 14 85 45 51 56
REMARK Flexibility Score: inf
ROOT
ATOM      1  C   UNL A   1      32.258  30.465  26.910  1.00  0.00     0.274 C 
ENDROOT
BRANCH   1   2
ATOM      2  O   UNL A   1      32.469  29.071  26.603  1.00  0.00    -0.462 OA
BRANCH   2   3
ATOM      3  C   UNL A   1      31.682  28.029  26.918  1.00  0.00     0.312 C 
ATOM      4  O   UNL A   1      31.122  28.003  28.016  1.00  0.00    -0.252 OA
BRANCH   3   5
ATOM      5  C   UNL A   1      31.487  26.904  25.955  1.00  0.00     0.198 C 
BRANCH   5   6
ATOM      6  C   UNL A   1      32.058  27.021  24.530  1.00  0.00     0.285 C 
ATOM      7  C   UNL A   1      30.898  26.794  23.495  1.00  0.00     0.279 C 
ATOM      8  N   UNL A   1      33.276  26.341  24.057  1.00  0.00    -0.319 N 
ATOM      9  O   UNL A   1      29.707  26.937  23.765  1.00  0.00    -0.268 OA
ATOM     10  N   UNL A   1      31.228  26.485  22.199  1.00  0.00    -0.345 N 
ATOM     11  C   UNL A   1      33.634  26.745  22.699  1.00  0.00     0.284 C 
ATOM     12  H   UNL A   1      32.877  25.413  24.201  1.00  0.00     0.349 HD
ATOM     13  C   UNL A   1      32.569  26.167  21.766  1.00  0.00     0.177 C 
ATOM     14  H   UNL A   1      30.509  26.480  21.526  1.00  0.00     0.163 HD
BRANCH   8  15
ATOM     15  C   UNL A   1      34.325  25.748  24.865  1.00  0.00     0.299 C 
BRANCH  15  16
ATOM     16  C   UNL A   1      34.406  24.245  24.602  1.00  0.00     0.009 A 
ATOM     17  C   UNL A   1      33.296  23.411  24.840  1.00  0.00     0.013 A 
ATOM     18  C   UNL A   1      35.606  23.636  24.204  1.00  0.00     0.052 A 
ATOM     19  C   UNL A   1      33.416  22.020  24.831  1.00  0.00     0.043 A 
ATOM     20  C   UNL A   1      35.724  22.246  24.203  1.00  0.00     0.159 A 
ATOM     21  C   UNL A   1      34.642  21.446  24.540  1.00  0.00     0.158 A 
ATOM     22  F   UNL A   1      36.907  21.684  23.920  1.00  0.00    -0.204 F 
ATOM     23  F   UNL A   1      34.772  20.113  24.595  1.00  0.00    -0.204 F 
ENDBRANCH  15  16
ENDBRANCH   8  15
ENDBRANCH   5   6
ENDBRANCH   3   5
ENDBRANCH   2   3
ENDBRANCH   1   2
BRANCH   1  24
ATOM     24  C   UNL A   1      33.614  31.112  27.186  1.00  0.00     0.275 C 
BRANCH  24  25
ATOM     25  O   UNL A   1      34.226  30.390  28.264  1.00  0.00    -0.458 OA
BRANCH  25  26
ATOM     26  C   UNL A   1      35.075  31.117  29.033  1.00  0.00     0.338 C 
ATOM     27  O   UNL A   1      34.790  32.057  29.747  1.00  0.00    -0.246 OA
BRANCH  26  28
ATOM     28  C   UNL A   1      36.380  30.413  29.048  1.00  0.00     0.060 A 
ATOM     29  C   UNL A   1      36.876  29.948  30.275  1.00  0.00     0.016 A 
ATOM     30  C   UNL A   1      37.077  30.164  27.862  1.00  0.00     0.016 A 
ATOM     31  C   UNL A   1      38.099  29.276  30.323  1.00  0.00     0.010 A 
ATOM     32  C   UNL A   1      38.295  29.496  27.909  1.00  0.00     0.010 A 
ATOM     33  C   UNL A   1      38.828  29.091  29.143  1.00  0.00    -0.014 A 
BRANCH  33  34
ATOM     34  C   UNL A   1      40.260  28.727  29.178  1.00  0.00     0.031 A 
ATOM     35  C   UNL A   1      41.241  29.843  29.405  1.00  0.00     0.074 A 
ATOM     36  C   UNL A   1      40.672  27.482  28.892  1.00  0.00     0.049 A 
ATOM     37  N   UNL A   1      42.541  29.844  29.287  1.00  0.00    -0.248 NA
ATOM     38  C   UNL A   1      40.666  31.145  29.784  1.00  0.00     0.031 C 
ATOM     39  C   UNL A   1      39.796  26.337  28.647  1.00  0.00     0.029 A 
ATOM     40  N   UNL A   1      41.938  26.987  28.710  1.00  0.00    -0.354 N 
ATOM     41  C   UNL A   1      42.936  31.149  29.553  1.00  0.00     0.074 A 
ATOM     42  C   UNL A   1      41.740  31.917  29.817  1.00  0.00     0.031 C 
ATOM     43  C   UNL A   1      40.553  25.279  28.304  1.00  0.00     0.029 A 
ATOM     44  C   UNL A   1      41.958  25.685  28.274  1.00  0.00     0.049 A 
ATOM     45  H   UNL A   1      42.753  27.515  28.876  1.00  0.00     0.167 HD
ATOM     46  C   UNL A   1      44.188  31.662  29.571  1.00  0.00     0.037 A 
ATOM     47  C   UNL A   1      42.993  24.927  27.859  1.00  0.00     0.037 A 
ATOM     48  C   UNL A   1      45.363  30.887  29.289  1.00  0.00     0.049 A 
ATOM     49  C   UNL A   1      44.380  25.515  27.870  1.00  0.00     0.074 A 
ATOM     50  C   UNL A   1      46.686  31.285  29.317  1.00  0.00     0.029 A 
ATOM     51  N   UNL A   1      45.350  29.551  28.909  1.00  0.00    -0.354 N 
ATOM     52  N   UNL A   1      44.755  26.734  28.187  1.00  0.00    -0.248 NA
ATOM     53  C   UNL A   1      45.486  24.633  27.472  1.00  0.00     0.031 C 
ATOM     54  C   UNL A   1      47.471  30.201  28.909  1.00  0.00     0.029 A 
ATOM     55  C   UNL A   1      46.640  29.114  28.677  1.00  0.00     0.049 A 
ATOM     56  H   UNL A   1      44.540  28.997  28.818  1.00  0.00     0.167 HD
ATOM     57  C   UNL A   1      46.139  26.757  28.052  1.00  0.00     0.074 A 
ATOM     58  C   UNL A   1      46.537  25.430  27.625  1.00  0.00     0.031 C 
ATOM     59  C   UNL A   1      47.005  27.779  28.266  1.00  0.00     0.037 A 
BRANCH  46  60
ATOM     60  C   UNL A   1      44.323  33.128  29.868  1.00  0.00     0.058 A 
ATOM     61  C   UNL A   1      44.597  33.598  31.163  1.00  0.00     0.135 A 
ATOM     62  C   UNL A   1      44.140  34.079  28.852  1.00  0.00     0.135 A 
ATOM     63  F   UNL A   1      44.758  32.732  32.178  1.00  0.00    -0.206 F 
ATOM     64  C   UNL A   1      44.642  34.958  31.449  1.00  0.00     0.059 A 
ATOM     65  C   UNL A   1      44.209  35.444  29.110  1.00  0.00     0.059 A 
ATOM     66  F   UNL A   1      43.870  33.685  27.598  1.00  0.00    -0.206 F 
ATOM     67  C   UNL A   1      44.437  35.874  30.417  1.00  0.00     0.060 A 
BRANCH  67  68
ATOM     68  S   UNL A   1      44.463  37.637  30.805  1.00  0.00     0.124 S 
ATOM     69  O   UNL A   1      43.660  37.678  32.024  1.00  0.00    -0.237 OA
ATOM     70  O   UNL A   1      45.888  37.899  30.978  1.00  0.00    -0.237 OA
ATOM     71  O   UNL A   1      43.854  38.253  29.631  1.00  0.00    -0.744 OA
ENDBRANCH  67  68
ENDBRANCH  46  60
BRANCH  47  72
ATOM     72  C   UNL A   1      42.744  23.538  27.393  1.00  0.00     0.058 A 
ATOM     73  C   UNL A   1      42.672  23.234  26.026  1.00  0.00     0.135 A 
ATOM     74  C   UNL A   1      42.622  22.475  28.303  1.00  0.00     0.135 A 
ATOM     75  F   UNL A   1      42.771  24.215  25.115  1.00  0.00    -0.206 F 
ATOM     76  C   UNL A   1      42.494  21.929  25.576  1.00  0.00     0.059 A 
ATOM     77  C   UNL A   1      42.465  21.160  27.879  1.00  0.00     0.059 A 
ATOM     78  F   UNL A   1      42.694  22.712  29.623  1.00  0.00    -0.206 F 
ATOM     79  C   UNL A   1      42.401  20.896  26.511  1.00  0.00     0.060 A 
BRANCH  79  80
ATOM     80  S   UNL A   1      42.263  19.197  25.914  1.00  0.00     0.124 S 
ATOM     81  O   UNL A   1      43.148  19.217  24.755  1.00  0.00    -0.237 OA
ATOM     82  O   UNL A   1      42.732  18.428  27.063  1.00  0.00    -0.237 OA
ATOM     83  O   UNL A   1      40.839  19.058  25.620  1.00  0.00    -0.744 OA
ENDBRANCH  79  80
ENDBRANCH  47  72
BRANCH  59  84
ATOM     84  C   UNL A   1      48.472  27.507  28.084  1.00  0.00     0.058 A 
ATOM     85  C   UNL A   1      49.253  26.970  29.117  1.00  0.00     0.135 A 
ATOM     86  C   UNL A   1      49.067  27.676  26.824  1.00  0.00     0.135 A 
ATOM     87  F   UNL A   1      48.731  26.796  30.340  1.00  0.00    -0.206 F 
ATOM     88  C   UNL A   1      50.579  26.606  28.905  1.00  0.00     0.059 A 
ATOM     89  C   UNL A   1      50.383  27.298  26.584  1.00  0.00     0.059 A 
ATOM     90  F   UNL A   1      48.355  28.176  25.801  1.00  0.00    -0.206 F 
ATOM     91  C   UNL A   1      51.132  26.764  27.632  1.00  0.00     0.060 A 
BRANCH  91  92
ATOM     92  S   UNL A   1      52.828  26.212  27.349  1.00  0.00     0.124 S 
ATOM     93  O   UNL A   1      53.372  27.320  26.571  1.00  0.00    -0.237 OA
ATOM     94  O   UNL A   1      53.344  26.077  28.708  1.00  0.00    -0.237 OA
ATOM     95  O   UNL A   1      52.660  24.957  26.622  1.00  0.00    -0.744 OA
ENDBRANCH  91  92
ENDBRANCH  59  84
ENDBRANCH  33  34
ENDBRANCH  26  28
ENDBRANCH  25  26
ENDBRANCH  24  25
ENDBRANCH   1  24
TORSDOF 17
ENDMDL
