MODEL 1
REMARK VINA RESULT:     -11.8      0.000      0.000
REMARK SMILES C[C@H]1CCC[C@H](C)N1C(=O)[C@H]1[C@@H](C(=O)OCCOC(=O)c2ccc(-c3c4nc(c(-c5c(F)cc(S(=O)(=O)[O-])cc5F)c5ccc([nH]5)c(-c5c(F)cc(S(=O)(=O)[O-])cc5F)c5nc(c(-c6c(F)cc(S(=O)(=O)[O-])cc6F)c6ccc3[nH]6)C=C5)C=C4)cc2)[C@H]2CC[C@@H]1O2
REMARK SMILES IDX 17 1 16 2 15 3 13 4 14 5 12 6 11 7 90 8 87 9 89 10 91 11
REMARK SMILES IDX 88 12 9 13 1 14 2 15 3 16 8 17 4 18 6 19 5 20 7 21 10 22
REMARK SMILES IDX 18 23 19 24 20 25 21 26 22 27 86 28 23 29 85 30 24 31 25 32
REMARK SMILES IDX 26 33 79 34 27 35 84 36 78 37 80 38 28 39 83 40 77 41 76 42
REMARK SMILES IDX 29 44 63 45 42 46 62 47 43 48 46 49 61 50 81 51 44 52 45 53
REMARK SMILES IDX 60 55 82 56 47 57 30 58 31 59 40 60 32 61 33 62 39 63 41 64
REMARK SMILES IDX 34 65 35 66 36 67 37 68 38 69 64 70 65 71 74 72 66 73 67 74
REMARK SMILES IDX 73 75 75 76 68 77 69 78 70 79 71 80 72 81 48 82 49 83 58 84
REMARK SMILES IDX 50 85 51 86 57 87 59 88 52 89 53 90 54 91 55 92 56 93
REMARK H PARENT 80 43 46 54
REMARK Flexibility Score: inf
ROOT
ATOM      1  C   UNL A   1      32.850  30.416  27.236  1.00  0.00     0.275 C 
ENDROOT
BRANCH   1   2
ATOM      2  C   UNL A   1      31.900  29.234  27.089  1.00  0.00     0.274 C 
BRANCH   2   3
ATOM      3  O   UNL A   1      32.575  28.092  26.492  1.00  0.00    -0.462 OA
BRANCH   3   4
ATOM      4  C   UNL A   1      31.743  27.100  26.092  1.00  0.00     0.312 C 
ATOM      5  O   UNL A   1      31.069  26.434  26.874  1.00  0.00    -0.252 OA
BRANCH   4   6
ATOM      6  C   UNL A   1      31.685  26.831  24.593  1.00  0.00     0.143 C 
ATOM      7  C   UNL A   1      32.158  25.527  23.959  1.00  0.00     0.124 C 
ATOM      8  C   UNL A   1      32.352  26.014  22.507  1.00  0.00     0.132 C 
ATOM      9  C   UNL A   1      32.201  27.970  23.623  1.00  0.00     0.133 C 
ATOM     10  C   UNL A   1      33.632  26.659  22.048  1.00  0.00     0.035 C 
ATOM     11  O   UNL A   1      31.573  27.243  22.553  1.00  0.00    -0.373 OA
ATOM     12  C   UNL A   1      33.539  27.999  22.749  1.00  0.00     0.036 C 
BRANCH   7  13
ATOM     13  C   UNL A   1      33.328  24.809  24.602  1.00  0.00     0.229 C 
ATOM     14  C   UNL A   1      31.420  22.659  23.150  1.00  0.00     0.031 C 
ATOM     15  C   UNL A   1      32.402  22.370  24.290  1.00  0.00     0.082 C 
ATOM     16  C   UNL A   1      33.019  20.996  23.941  1.00  0.00     0.025 C 
ATOM     17  N   UNL A   1      33.440  23.406  24.613  1.00  0.00    -0.337 N 
ATOM     18  C   UNL A   1      34.061  20.535  24.937  1.00  0.00     0.004 C 
ATOM     19  C   UNL A   1      34.627  22.944  25.396  1.00  0.00     0.082 C 
ATOM     20  C   UNL A   1      35.161  21.572  24.986  1.00  0.00     0.025 C 
ATOM     21  C   UNL A   1      34.363  23.001  26.907  1.00  0.00     0.031 C 
ATOM     22  O   UNL A   1      34.228  25.490  25.102  1.00  0.00    -0.274 OA
ENDBRANCH   7  13
ENDBRANCH   4   6
ENDBRANCH   3   4
ENDBRANCH   2   3
ENDBRANCH   1   2
BRANCH   1  23
ATOM     23  O   UNL A   1      34.104  29.882  27.667  1.00  0.00    -0.458 OA
BRANCH  23  24
ATOM     24  C   UNL A   1      34.824  30.674  28.487  1.00  0.00     0.338 C 
ATOM     25  O   UNL A   1      34.434  31.628  29.142  1.00  0.00    -0.246 OA
BRANCH  24  26
ATOM     26  C   UNL A   1      36.184  30.127  28.543  1.00  0.00     0.060 A 
ATOM     27  C   UNL A   1      36.670  29.650  29.761  1.00  0.00     0.016 A 
ATOM     28  C   UNL A   1      37.001  30.166  27.420  1.00  0.00     0.016 A 
ATOM     29  C   UNL A   1      38.010  29.317  29.895  1.00  0.00     0.010 A 
ATOM     30  C   UNL A   1      38.313  29.706  27.527  1.00  0.00     0.010 A 
ATOM     31  C   UNL A   1      38.843  29.310  28.770  1.00  0.00    -0.014 A 
BRANCH  31  32
ATOM     32  C   UNL A   1      40.271  28.918  28.880  1.00  0.00     0.031 A 
ATOM     33  C   UNL A   1      41.287  29.949  29.284  1.00  0.00     0.074 A 
ATOM     34  C   UNL A   1      40.663  27.663  28.583  1.00  0.00     0.049 A 
ATOM     35  N   UNL A   1      42.584  29.936  29.131  1.00  0.00    -0.248 NA
ATOM     36  C   UNL A   1      40.767  31.175  29.913  1.00  0.00     0.031 C 
ATOM     37  C   UNL A   1      39.776  26.552  28.229  1.00  0.00     0.029 A 
ATOM     38  N   UNL A   1      41.918  27.111  28.523  1.00  0.00    -0.354 N 
ATOM     39  C   UNL A   1      43.025  31.185  29.553  1.00  0.00     0.074 A 
ATOM     40  C   UNL A   1      41.860  31.921  29.994  1.00  0.00     0.031 C 
ATOM     41  C   UNL A   1      40.509  25.449  28.018  1.00  0.00     0.029 A 
ATOM     42  C   UNL A   1      41.920  25.798  28.119  1.00  0.00     0.049 A 
ATOM     43  H   UNL A   1      42.738  27.609  28.747  1.00  0.00     0.167 HD
ATOM     44  C   UNL A   1      44.289  31.671  29.549  1.00  0.00     0.037 A 
ATOM     45  C   UNL A   1      42.942  24.979  27.803  1.00  0.00     0.037 A 
ATOM     46  C   UNL A   1      45.440  30.890  29.179  1.00  0.00     0.049 A 
ATOM     47  C   UNL A   1      44.339  25.522  27.846  1.00  0.00     0.074 A 
ATOM     48  C   UNL A   1      46.770  31.269  29.144  1.00  0.00     0.029 A 
ATOM     49  N   UNL A   1      45.396  29.553  28.807  1.00  0.00    -0.354 N 
ATOM     50  N   UNL A   1      44.739  26.736  28.144  1.00  0.00    -0.248 NA
ATOM     51  C   UNL A   1      45.421  24.598  27.485  1.00  0.00     0.031 C 
ATOM     52  C   UNL A   1      47.528  30.165  28.738  1.00  0.00     0.029 A 
ATOM     53  C   UNL A   1      46.674  29.089  28.549  1.00  0.00     0.049 A 
ATOM     54  H   UNL A   1      44.575  29.013  28.738  1.00  0.00     0.167 HD
ATOM     55  C   UNL A   1      46.120  26.726  28.003  1.00  0.00     0.074 A 
ATOM     56  C   UNL A   1      46.488  25.377  27.615  1.00  0.00     0.031 C 
ATOM     57  C   UNL A   1      47.004  27.740  28.164  1.00  0.00     0.037 A 
BRANCH  44  58
ATOM     58  C   UNL A   1      44.478  33.120  29.903  1.00  0.00     0.058 A 
ATOM     59  C   UNL A   1      44.783  33.540  31.207  1.00  0.00     0.135 A 
ATOM     60  C   UNL A   1      44.351  34.106  28.911  1.00  0.00     0.135 A 
ATOM     61  F   UNL A   1      44.894  32.642  32.198  1.00  0.00    -0.206 F 
ATOM     62  C   UNL A   1      44.924  34.890  31.521  1.00  0.00     0.059 A 
ATOM     63  C   UNL A   1      44.511  35.459  29.197  1.00  0.00     0.059 A 
ATOM     64  F   UNL A   1      44.057  33.761  27.647  1.00  0.00    -0.206 F 
ATOM     65  C   UNL A   1      44.779  35.842  30.510  1.00  0.00     0.060 A 
BRANCH  65  66
ATOM     66  S   UNL A   1      44.952  37.592  30.927  1.00  0.00     0.124 S 
ATOM     67  O   UNL A   1      46.373  37.676  31.247  1.00  0.00    -0.237 OA
ATOM     68  O   UNL A   1      44.540  38.254  29.692  1.00  0.00    -0.237 OA
ATOM     69  O   UNL A   1      44.042  37.761  32.056  1.00  0.00    -0.744 OA
ENDBRANCH  65  66
ENDBRANCH  44  58
BRANCH  45  70
ATOM     70  C   UNL A   1      42.657  23.586  27.371  1.00  0.00     0.058 A 
ATOM     71  C   UNL A   1      42.633  23.245  26.011  1.00  0.00     0.135 A 
ATOM     72  C   UNL A   1      42.475  22.556  28.308  1.00  0.00     0.135 A 
ATOM     73  F   UNL A   1      42.793  24.196  25.079  1.00  0.00    -0.206 F 
ATOM     74  C   UNL A   1      42.450  21.931  25.594  1.00  0.00     0.059 A 
ATOM     75  C   UNL A   1      42.314  21.231  27.916  1.00  0.00     0.059 A 
ATOM     76  F   UNL A   1      42.506  22.829  29.622  1.00  0.00    -0.206 F 
ATOM     77  C   UNL A   1      42.299  20.929  26.555  1.00  0.00     0.060 A 
BRANCH  77  78
ATOM     78  S   UNL A   1      42.163  19.210  26.013  1.00  0.00     0.124 S 
ATOM     79  O   UNL A   1      40.733  19.098  25.753  1.00  0.00    -0.237 OA
ATOM     80  O   UNL A   1      43.030  19.184  24.838  1.00  0.00    -0.237 OA
ATOM     81  O   UNL A   1      42.660  18.459  27.162  1.00  0.00    -0.744 OA
ENDBRANCH  77  78
ENDBRANCH  45  70
BRANCH  57  82
ATOM     82  C   UNL A   1      48.450  27.415  27.939  1.00  0.00     0.058 A 
ATOM     83  C   UNL A   1      49.025  27.493  26.662  1.00  0.00     0.135 A 
ATOM     84  C   UNL A   1      49.273  27.055  29.016  1.00  0.00     0.135 A 
ATOM     85  F   UNL A   1      48.273  27.826  25.602  1.00  0.00    -0.206 F 
ATOM     86  C   UNL A   1      50.368  27.201  26.456  1.00  0.00     0.059 A 
ATOM     87  C   UNL A   1      50.623  26.776  28.836  1.00  0.00     0.059 A 
ATOM     88  F   UNL A   1      48.767  26.975  30.257  1.00  0.00    -0.206 F 
ATOM     89  C   UNL A   1      51.158  26.840  27.550  1.00  0.00     0.060 A 
BRANCH  89  90
ATOM     90  S   UNL A   1      52.907  26.483  27.278  1.00  0.00     0.124 S 
ATOM     91  O   UNL A   1      52.834  25.271  26.469  1.00  0.00    -0.237 OA
ATOM     92  O   UNL A   1      53.371  27.681  26.586  1.00  0.00    -0.237 OA
ATOM     93  O   UNL A   1      53.429  26.307  28.630  1.00  0.00    -0.744 OA
ENDBRANCH  89  90
ENDBRANCH  57  82
ENDBRANCH  31  32
ENDBRANCH  24  26
ENDBRANCH  23  24
ENDBRANCH   1  23
TORSDOF 15
ENDMDL
MODEL 2
REMARK VINA RESULT:     -11.8      1.246      1.881
REMARK SMILES C[C@H]1CCC[C@H](C)N1C(=O)[C@H]1[C@@H](C(=O)OCCOC(=O)c2ccc(-c3c4nc(c(-c5c(F)cc(S(=O)(=O)[O-])cc5F)c5ccc([nH]5)c(-c5c(F)cc(S(=O)(=O)[O-])cc5F)c5nc(c(-c6c(F)cc(S(=O)(=O)[O-])cc6F)c6ccc3[nH]6)C=C5)C=C4)cc2)[C@H]2CC[C@@H]1O2
REMARK SMILES IDX 17 1 16 2 15 3 13 4 14 5 12 6 11 7 90 8 87 9 89 10 91 11
REMARK SMILES IDX 88 12 9 13 1 14 2 15 3 16 8 17 4 18 6 19 5 20 7 21 10 22
REMARK SMILES IDX 18 23 19 24 20 25 21 26 22 27 86 28 23 29 85 30 24 31 25 32
REMARK SMILES IDX 26 33 79 34 27 35 84 36 78 37 80 38 28 39 83 40 77 41 76 42
REMARK SMILES IDX 29 44 63 45 42 46 62 47 43 48 46 49 61 50 81 51 44 52 45 53
REMARK SMILES IDX 60 55 82 56 47 57 30 58 31 59 40 60 32 61 33 62 39 63 41 64
REMARK SMILES IDX 34 65 35 66 36 67 37 68 38 69 64 70 65 71 74 72 66 73 67 74
REMARK SMILES IDX 73 75 75 76 68 77 69 78 70 79 71 80 72 81 48 82 49 83 58 84
REMARK SMILES IDX 50 85 51 86 57 87 59 88 52 89 53 90 54 91 55 92 56 93
REMARK H PARENT 80 43 46 54
REMARK Flexibility Score: inf
ROOT
ATOM      1  C   UNL A   1      34.026  30.775  27.441  1.00  0.00     0.275 C 
ENDROOT
BRANCH   1   2
ATOM      2  C   UNL A   1      32.786  29.912  27.251  1.00  0.00     0.274 C 
BRANCH   2   3
ATOM      3  O   UNL A   1      33.138  28.596  26.742  1.00  0.00    -0.462 OA
BRANCH   3   4
ATOM      4  C   UNL A   1      32.076  27.833  26.386  1.00  0.00     0.312 C 
ATOM      5  O   UNL A   1      31.344  27.280  27.204  1.00  0.00    -0.252 OA
BRANCH   4   6
ATOM      6  C   UNL A   1      31.828  27.677  24.890  1.00  0.00     0.143 C 
ATOM      7  C   UNL A   1      32.021  26.362  24.144  1.00  0.00     0.124 C 
ATOM      8  C   UNL A   1      32.145  26.910  22.707  1.00  0.00     0.132 C 
ATOM      9  C   UNL A   1      32.420  28.787  23.929  1.00  0.00     0.133 C 
ATOM     10  C   UNL A   1      33.460  27.380  22.144  1.00  0.00     0.035 C 
ATOM     11  O   UNL A   1      31.580  28.237  22.899  1.00  0.00    -0.373 OA
ATOM     12  C   UNL A   1      33.652  28.669  22.918  1.00  0.00     0.036 C 
BRANCH   7  13
ATOM     13  C   UNL A   1      33.119  25.431  24.619  1.00  0.00     0.229 C 
ATOM     14  C   UNL A   1      30.767  23.703  23.259  1.00  0.00     0.031 C 
ATOM     15  C   UNL A   1      31.796  23.188  24.270  1.00  0.00     0.082 C 
ATOM     16  C   UNL A   1      32.153  21.766  23.782  1.00  0.00     0.025 C 
ATOM     17  N   UNL A   1      33.010  24.030  24.540  1.00  0.00    -0.337 N 
ATOM     18  C   UNL A   1      33.199  21.083  24.635  1.00  0.00     0.004 C 
ATOM     19  C   UNL A   1      34.178  23.340  25.166  1.00  0.00     0.082 C 
ATOM     20  C   UNL A   1      34.449  21.935  24.626  1.00  0.00     0.025 C 
ATOM     21  C   UNL A   1      34.073  23.328  26.698  1.00  0.00     0.031 C 
ATOM     22  O   UNL A   1      34.159  25.931  25.058  1.00  0.00    -0.274 OA
ENDBRANCH   7  13
ENDBRANCH   4   6
ENDBRANCH   3   4
ENDBRANCH   2   3
ENDBRANCH   1   2
BRANCH   1  23
ATOM     23  O   UNL A   1      34.990  29.964  28.118  1.00  0.00    -0.458 OA
BRANCH  23  24
ATOM     24  C   UNL A   1      35.809  30.618  28.966  1.00  0.00     0.338 C 
ATOM     25  O   UNL A   1      35.517  31.491  29.768  1.00  0.00    -0.246 OA
BRANCH  24  26
ATOM     26  C   UNL A   1      37.143  30.021  28.835  1.00  0.00     0.060 A 
ATOM     27  C   UNL A   1      37.800  29.579  29.984  1.00  0.00     0.016 A 
ATOM     28  C   UNL A   1      37.772  29.980  27.597  1.00  0.00     0.016 A 
ATOM     29  C   UNL A   1      39.134  29.201  29.922  1.00  0.00     0.010 A 
ATOM     30  C   UNL A   1      39.070  29.475  27.519  1.00  0.00     0.010 A 
ATOM     31  C   UNL A   1      39.777  29.113  28.682  1.00  0.00    -0.014 A 
BRANCH  31  32
ATOM     32  C   UNL A   1      41.192  28.671  28.586  1.00  0.00     0.031 A 
ATOM     33  C   UNL A   1      42.291  29.682  28.759  1.00  0.00     0.074 A 
ATOM     34  C   UNL A   1      41.493  27.388  28.307  1.00  0.00     0.049 A 
ATOM     35  N   UNL A   1      43.545  29.609  28.401  1.00  0.00    -0.248 NA
ATOM     36  C   UNL A   1      41.917  30.961  29.387  1.00  0.00     0.031 C 
ATOM     37  C   UNL A   1      40.526  26.294  28.167  1.00  0.00     0.029 A 
ATOM     38  N   UNL A   1      42.704  26.784  28.080  1.00  0.00    -0.354 N 
ATOM     39  C   UNL A   1      44.086  30.861  28.670  1.00  0.00     0.074 A 
ATOM     40  C   UNL A   1      43.030  31.666  29.246  1.00  0.00     0.031 C 
ATOM     41  C   UNL A   1      41.182  25.153  27.909  1.00  0.00     0.029 A 
ATOM     42  C   UNL A   1      42.601  25.451  27.762  1.00  0.00     0.049 A 
ATOM     43  H   UNL A   1      43.564  27.260  28.140  1.00  0.00     0.167 HD
ATOM     44  C   UNL A   1      45.347  31.296  28.434  1.00  0.00     0.037 A 
ATOM     45  C   UNL A   1      43.533  24.577  27.336  1.00  0.00     0.037 A 
ATOM     46  C   UNL A   1      46.398  30.450  27.933  1.00  0.00     0.049 A 
ATOM     47  C   UNL A   1      44.935  25.065  27.123  1.00  0.00     0.074 A 
ATOM     48  C   UNL A   1      47.716  30.774  27.663  1.00  0.00     0.029 A 
ATOM     49  N   UNL A   1      46.255  29.097  27.655  1.00  0.00    -0.354 N 
ATOM     50  N   UNL A   1      45.414  26.277  27.279  1.00  0.00    -0.248 NA
ATOM     51  C   UNL A   1      45.915  24.081  26.650  1.00  0.00     0.031 C 
ATOM     52  C   UNL A   1      48.365  29.620  27.209  1.00  0.00     0.029 A 
ATOM     53  C   UNL A   1      47.459  28.570  27.224  1.00  0.00     0.049 A 
ATOM     54  H   UNL A   1      45.418  28.587  27.751  1.00  0.00     0.167 HD
ATOM     55  C   UNL A   1      46.753  26.204  26.919  1.00  0.00     0.074 A 
ATOM     56  C   UNL A   1      47.012  24.822  26.560  1.00  0.00     0.031 C 
ATOM     57  C   UNL A   1      47.682  27.189  26.875  1.00  0.00     0.037 A 
BRANCH  44  58
ATOM     58  C   UNL A   1      45.635  32.753  28.665  1.00  0.00     0.058 A 
ATOM     59  C   UNL A   1      45.358  33.735  27.701  1.00  0.00     0.135 A 
ATOM     60  C   UNL A   1      46.201  33.172  29.880  1.00  0.00     0.135 A 
ATOM     61  F   UNL A   1      44.837  33.387  26.513  1.00  0.00    -0.206 F 
ATOM     62  C   UNL A   1      45.661  35.076  27.921  1.00  0.00     0.059 A 
ATOM     63  C   UNL A   1      46.491  34.510  30.132  1.00  0.00     0.059 A 
ATOM     64  F   UNL A   1      46.490  32.275  30.837  1.00  0.00    -0.206 F 
ATOM     65  C   UNL A   1      46.234  35.453  29.138  1.00  0.00     0.060 A 
BRANCH  65  66
ATOM     66  S   UNL A   1      46.635  37.193  29.413  1.00  0.00     0.124 S 
ATOM     67  O   UNL A   1      47.522  37.468  28.286  1.00  0.00    -0.237 OA
ATOM     68  O   UNL A   1      45.324  37.833  29.358  1.00  0.00    -0.237 OA
ATOM     69  O   UNL A   1      47.271  37.189  30.727  1.00  0.00    -0.744 OA
ENDBRANCH  65  66
ENDBRANCH  44  58
BRANCH  45  70
ATOM     70  C   UNL A   1      43.140  23.174  27.041  1.00  0.00     0.058 A 
ATOM     71  C   UNL A   1      43.050  22.716  25.719  1.00  0.00     0.135 A 
ATOM     72  C   UNL A   1      42.917  22.248  28.072  1.00  0.00     0.135 A 
ATOM     73  F   UNL A   1      43.245  23.566  24.700  1.00  0.00    -0.206 F 
ATOM     74  C   UNL A   1      42.764  21.385  25.429  1.00  0.00     0.059 A 
ATOM     75  C   UNL A   1      42.653  20.907  27.808  1.00  0.00     0.059 A 
ATOM     76  F   UNL A   1      43.008  22.634  29.355  1.00  0.00    -0.206 F 
ATOM     77  C   UNL A   1      42.575  20.486  26.481  1.00  0.00     0.060 A 
BRANCH  77  78
ATOM     78  S   UNL A   1      42.305  18.741  26.102  1.00  0.00     0.124 S 
ATOM     79  O   UNL A   1      40.890  18.733  25.751  1.00  0.00    -0.237 OA
ATOM     80  O   UNL A   1      43.237  18.512  25.001  1.00  0.00    -0.237 OA
ATOM     81  O   UNL A   1      42.652  18.071  27.352  1.00  0.00    -0.744 OA
ENDBRANCH  77  78
ENDBRANCH  45  70
BRANCH  57  82
ATOM     82  C   UNL A   1      49.061  26.796  26.442  1.00  0.00     0.058 A 
ATOM     83  C   UNL A   1      50.018  26.352  27.367  1.00  0.00     0.135 A 
ATOM     84  C   UNL A   1      49.419  26.835  25.086  1.00  0.00     0.135 A 
ATOM     85  F   UNL A   1      49.721  26.307  28.675  1.00  0.00    -0.206 F 
ATOM     86  C   UNL A   1      51.294  25.979  26.964  1.00  0.00     0.059 A 
ATOM     87  C   UNL A   1      50.684  26.449  24.658  1.00  0.00     0.059 A 
ATOM     88  F   UNL A   1      48.533  27.247  24.165  1.00  0.00    -0.206 F 
ATOM     89  C   UNL A   1      51.619  26.035  25.606  1.00  0.00     0.060 A 
BRANCH  89  90
ATOM     90  S   UNL A   1      53.272  25.528  25.087  1.00  0.00     0.124 S 
ATOM     91  O   UNL A   1      53.223  24.089  25.322  1.00  0.00    -0.237 OA
ATOM     92  O   UNL A   1      53.306  25.942  23.687  1.00  0.00    -0.237 OA
ATOM     93  O   UNL A   1      54.150  26.282  25.977  1.00  0.00    -0.744 OA
ENDBRANCH  89  90
ENDBRANCH  57  82
ENDBRANCH  31  32
ENDBRANCH  24  26
ENDBRANCH  23  24
ENDBRANCH   1  23
TORSDOF 15
ENDMDL
MODEL 3
REMARK VINA RESULT:     -11.4      4.203     10.015
REMARK SMILES C[C@H]1CCC[C@H](C)N1C(=O)[C@H]1[C@@H](C(=O)OCCOC(=O)c2ccc(-c3c4nc(c(-c5c(F)cc(S(=O)(=O)[O-])cc5F)c5ccc([nH]5)c(-c5c(F)cc(S(=O)(=O)[O-])cc5F)c5nc(c(-c6c(F)cc(S(=O)(=O)[O-])cc6F)c6ccc3[nH]6)C=C5)C=C4)cc2)[C@H]2CC[C@@H]1O2
REMARK SMILES IDX 17 1 16 2 15 3 13 4 14 5 12 6 11 7 90 8 87 9 89 10 91 11
REMARK SMILES IDX 88 12 9 13 1 14 2 15 3 16 8 17 4 18 6 19 5 20 7 21 10 22
REMARK SMILES IDX 18 23 19 24 20 25 21 26 22 27 86 28 23 29 85 30 24 31 25 32
REMARK SMILES IDX 26 33 79 34 27 35 84 36 78 37 80 38 28 39 83 40 77 41 76 42
REMARK SMILES IDX 29 44 63 45 42 46 62 47 43 48 46 49 61 50 81 51 44 52 45 53
REMARK SMILES IDX 60 55 82 56 47 57 30 58 31 59 40 60 32 61 33 62 39 63 41 64
REMARK SMILES IDX 34 65 35 66 36 67 37 68 38 69 64 70 65 71 74 72 66 73 67 74
REMARK SMILES IDX 73 75 75 76 68 77 69 78 70 79 71 80 72 81 48 82 49 83 58 84
REMARK SMILES IDX 50 85 51 86 57 87 59 88 52 89 53 90 54 91 55 92 56 93
REMARK H PARENT 80 43 46 54
REMARK Flexibility Score: inf
ROOT
ATOM      1  C   UNL A   1      37.082  22.865  24.208  1.00  0.00     0.275 C 
ENDROOT
BRANCH   1   2
ATOM      2  C   UNL A   1      35.960  23.728  23.647  1.00  0.00     0.274 C 
BRANCH   2   3
ATOM      3  O   UNL A   1      35.114  22.964  22.743  1.00  0.00    -0.462 OA
BRANCH   3   4
ATOM      4  C   UNL A   1      33.808  23.327  22.762  1.00  0.00     0.312 C 
ATOM      5  O   UNL A   1      33.327  24.139  21.975  1.00  0.00    -0.252 OA
BRANCH   4   6
ATOM      6  C   UNL A   1      32.941  22.677  23.834  1.00  0.00     0.143 C 
ATOM      7  C   UNL A   1      32.077  23.473  24.806  1.00  0.00     0.124 C 
ATOM      8  C   UNL A   1      31.889  22.403  25.902  1.00  0.00     0.132 C 
ATOM      9  C   UNL A   1      33.595  21.530  24.709  1.00  0.00     0.133 C 
ATOM     10  C   UNL A   1      32.893  22.212  27.008  1.00  0.00     0.035 C 
ATOM     11  O   UNL A   1      32.264  21.212  25.153  1.00  0.00    -0.373 OA
ATOM     12  C   UNL A   1      34.039  21.584  26.243  1.00  0.00     0.036 C 
BRANCH   7  13
ATOM     13  C   UNL A   1      32.579  24.831  25.253  1.00  0.00     0.229 C 
ATOM     14  C   UNL A   1      29.903  25.203  23.501  1.00  0.00     0.031 C 
ATOM     15  C   UNL A   1      30.982  26.265  23.738  1.00  0.00     0.082 C 
ATOM     16  C   UNL A   1      30.203  27.589  23.906  1.00  0.00     0.025 C 
ATOM     17  N   UNL A   1      31.976  26.034  24.839  1.00  0.00    -0.337 N 
ATOM     18  C   UNL A   1      31.094  28.779  24.191  1.00  0.00     0.004 C 
ATOM     19  C   UNL A   1      32.719  27.233  25.334  1.00  0.00     0.082 C 
ATOM     20  C   UNL A   1      31.869  28.497  25.459  1.00  0.00     0.025 C 
ATOM     21  C   UNL A   1      33.980  27.500  24.500  1.00  0.00     0.031 C 
ATOM     22  O   UNL A   1      33.531  24.872  26.038  1.00  0.00    -0.274 OA
ENDBRANCH   7  13
ENDBRANCH   4   6
ENDBRANCH   3   4
ENDBRANCH   2   3
ENDBRANCH   1   2
BRANCH   1  23
ATOM     23  O   UNL A   1      37.506  23.483  25.425  1.00  0.00    -0.458 OA
BRANCH  23  24
ATOM     24  C   UNL A   1      38.711  23.095  25.887  1.00  0.00     0.338 C 
ATOM     25  O   UNL A   1      39.321  22.071  25.626  1.00  0.00    -0.246 OA
BRANCH  24  26
ATOM     26  C   UNL A   1      39.237  24.189  26.711  1.00  0.00     0.060 A 
ATOM     27  C   UNL A   1      38.900  24.236  28.065  1.00  0.00     0.016 A 
ATOM     28  C   UNL A   1      39.984  25.206  26.131  1.00  0.00     0.016 A 
ATOM     29  C   UNL A   1      39.209  25.357  28.822  1.00  0.00     0.010 A 
ATOM     30  C   UNL A   1      40.406  26.270  26.929  1.00  0.00     0.010 A 
ATOM     31  C   UNL A   1      39.994  26.376  28.271  1.00  0.00    -0.014 A 
BRANCH  31  32
ATOM     32  C   UNL A   1      40.372  27.567  29.074  1.00  0.00     0.031 A 
ATOM     33  C   UNL A   1      41.655  27.547  29.858  1.00  0.00     0.074 A 
ATOM     34  C   UNL A   1      39.560  28.640  29.134  1.00  0.00     0.049 A 
ATOM     35  N   UNL A   1      42.023  28.301  30.859  1.00  0.00    -0.248 NA
ATOM     36  C   UNL A   1      42.638  26.515  29.487  1.00  0.00     0.031 C 
ATOM     37  C   UNL A   1      38.313  28.812  28.383  1.00  0.00     0.029 A 
ATOM     38  N   UNL A   1      39.658  29.793  29.873  1.00  0.00    -0.354 N 
ATOM     39  C   UNL A   1      43.233  27.776  31.299  1.00  0.00     0.074 A 
ATOM     40  C   UNL A   1      43.549  26.656  30.439  1.00  0.00     0.031 C 
ATOM     41  C   UNL A   1      37.780  30.007  28.676  1.00  0.00     0.029 A 
ATOM     42  C   UNL A   1      38.588  30.640  29.710  1.00  0.00     0.049 A 
ATOM     43  H   UNL A   1      40.420  29.993  30.463  1.00  0.00     0.167 HD
ATOM     44  C   UNL A   1      43.993  28.188  32.342  1.00  0.00     0.037 A 
ATOM     45  C   UNL A   1      38.258  31.770  30.363  1.00  0.00     0.037 A 
ATOM     46  C   UNL A   1      43.695  29.354  33.132  1.00  0.00     0.049 A 
ATOM     47  C   UNL A   1      39.136  32.235  31.487  1.00  0.00     0.074 A 
ATOM     48  C   UNL A   1      44.394  29.874  34.206  1.00  0.00     0.029 A 
ATOM     49  N   UNL A   1      42.617  30.200  32.908  1.00  0.00    -0.354 N 
ATOM     50  N   UNL A   1      40.221  31.675  31.966  1.00  0.00    -0.248 NA
ATOM     51  C   UNL A   1      38.733  33.467  32.177  1.00  0.00     0.031 C 
ATOM     52  C   UNL A   1      43.731  31.028  34.640  1.00  0.00     0.029 A 
ATOM     53  C   UNL A   1      42.635  31.243  33.818  1.00  0.00     0.049 A 
ATOM     54  H   UNL A   1      41.939  30.077  32.205  1.00  0.00     0.167 HD
ATOM     55  C   UNL A   1      40.631  32.481  33.020  1.00  0.00     0.074 A 
ATOM     56  C   UNL A   1      39.689  33.583  33.090  1.00  0.00     0.031 C 
ATOM     57  C   UNL A   1      41.681  32.322  33.861  1.00  0.00     0.037 A 
BRANCH  44  58
ATOM     58  C   UNL A   1      45.180  27.343  32.714  1.00  0.00     0.058 A 
ATOM     59  C   UNL A   1      45.089  26.284  33.630  1.00  0.00     0.135 A 
ATOM     60  C   UNL A   1      46.434  27.603  32.138  1.00  0.00     0.135 A 
ATOM     61  F   UNL A   1      43.920  26.006  34.228  1.00  0.00    -0.206 F 
ATOM     62  C   UNL A   1      46.207  25.532  33.985  1.00  0.00     0.059 A 
ATOM     63  C   UNL A   1      47.560  26.850  32.460  1.00  0.00     0.059 A 
ATOM     64  F   UNL A   1      46.579  28.606  31.257  1.00  0.00    -0.206 F 
ATOM     65  C   UNL A   1      47.439  25.828  33.399  1.00  0.00     0.060 A 
BRANCH  65  66
ATOM     66  S   UNL A   1      48.887  24.857  33.874  1.00  0.00     0.124 S 
ATOM     67  O   UNL A   1      49.606  24.769  32.607  1.00  0.00    -0.237 OA
ATOM     68  O   UNL A   1      49.507  25.693  34.897  1.00  0.00    -0.237 OA
ATOM     69  O   UNL A   1      48.312  23.606  34.358  1.00  0.00    -0.744 OA
ENDBRANCH  65  66
ENDBRANCH  44  58
BRANCH  45  70
ATOM     70  C   UNL A   1      37.014  32.494  29.992  1.00  0.00     0.058 A 
ATOM     71  C   UNL A   1      35.803  32.224  30.645  1.00  0.00     0.135 A 
ATOM     72  C   UNL A   1      37.025  33.516  29.030  1.00  0.00     0.135 A 
ATOM     73  F   UNL A   1      35.740  31.250  31.566  1.00  0.00    -0.206 F 
ATOM     74  C   UNL A   1      34.649  32.949  30.367  1.00  0.00     0.059 A 
ATOM     75  C   UNL A   1      35.890  34.271  28.751  1.00  0.00     0.059 A 
ATOM     76  F   UNL A   1      38.164  33.823  28.389  1.00  0.00    -0.206 F 
ATOM     77  C   UNL A   1      34.704  33.977  29.423  1.00  0.00     0.060 A 
BRANCH  77  78
ATOM     78  S   UNL A   1      33.231  34.983  29.137  1.00  0.00     0.124 S 
ATOM     79  O   UNL A   1      32.602  34.960  30.452  1.00  0.00    -0.237 OA
ATOM     80  O   UNL A   1      33.803  36.263  28.725  1.00  0.00    -0.237 OA
ATOM     81  O   UNL A   1      32.530  34.255  28.084  1.00  0.00    -0.744 OA
ENDBRANCH  77  78
ENDBRANCH  45  70
BRANCH  57  82
ATOM     82  C   UNL A   1      41.869  33.375  34.911  1.00  0.00     0.058 A 
ATOM     83  C   UNL A   1      42.605  34.540  34.652  1.00  0.00     0.135 A 
ATOM     84  C   UNL A   1      41.282  33.229  36.177  1.00  0.00     0.135 A 
ATOM     85  F   UNL A   1      43.190  34.718  33.457  1.00  0.00    -0.206 F 
ATOM     86  C   UNL A   1      42.771  35.521  35.623  1.00  0.00     0.059 A 
ATOM     87  C   UNL A   1      41.421  34.204  37.157  1.00  0.00     0.059 A 
ATOM     88  F   UNL A   1      40.564  32.132  36.466  1.00  0.00    -0.206 F 
ATOM     89  C   UNL A   1      42.178  35.341  36.875  1.00  0.00     0.060 A 
BRANCH  89  90
ATOM     90  S   UNL A   1      42.380  36.627  38.125  1.00  0.00     0.124 S 
ATOM     91  O   UNL A   1      42.967  35.873  39.227  1.00  0.00    -0.237 OA
ATOM     92  O   UNL A   1      43.269  37.577  37.462  1.00  0.00    -0.237 OA
ATOM     93  O   UNL A   1      41.017  37.103  38.342  1.00  0.00    -0.744 OA
ENDBRANCH  89  90
ENDBRANCH  57  82
ENDBRANCH  31  32
ENDBRANCH  24  26
ENDBRANCH  23  24
ENDBRANCH   1  23
TORSDOF 15
ENDMDL
