MODEL 1
REMARK VINA RESULT:     -10.8      0.000      0.000
REMARK SMILES C[C@H](O)[C@@H](NC(=O)c1ccc(Cl)c(S(C)(=O)=O)c1)C(=O)OCCOC(=O)c1ccc(-c2c3nc(c(-c4c(F)cc(S(=O)(=O)[O-])cc4F)c4ccc([nH]4)c(-c4c(F)cc(S(=O)(=O)[O-])cc4F)c4nc(c(-c5c(F)cc(S(=O)(=O)[O-])cc5F)c5ccc2[nH]5)C=C4)C=C3)cc1
REMARK SMILES IDX 22 1 21 2 19 3 20 4 4 5 2 6 1 7 3 8 5 10 6 11 7 13 8 14 9 15
REMARK SMILES IDX 18 16 10 17 13 18 11 19 12 20 14 21 15 22 16 23 17 24 23 25
REMARK SMILES IDX 24 26 25 27 26 28 27 29 28 30 92 31 29 32 91 33 30 34 31 35
REMARK SMILES IDX 32 36 85 37 33 38 90 39 84 40 86 41 34 42 89 43 83 44 82 45
REMARK SMILES IDX 35 47 69 48 48 49 68 50 49 51 52 52 67 53 87 54 50 55 51 56
REMARK SMILES IDX 66 58 88 59 53 60 36 61 37 62 46 63 38 64 39 65 45 66 47 67
REMARK SMILES IDX 40 68 41 69 42 70 43 71 44 72 70 73 71 74 80 75 72 76 73 77
REMARK SMILES IDX 79 78 81 79 74 80 75 81 76 82 77 83 78 84 54 85 55 86 64 87
REMARK SMILES IDX 56 88 57 89 63 90 65 91 58 92 59 93 60 94 61 95 62 96
REMARK H PARENT 3 9 5 12 86 46 52 57
REMARK Flexibility Score: inf
ROOT
ATOM      1  C   UNL A   1      31.898  29.720  26.409  1.00  0.00     0.274 C 
ENDROOT
BRANCH   1   2
ATOM      2  O   UNL A   1      31.879  28.771  25.318  1.00  0.00    -0.460 OA
BRANCH   2   3
ATOM      3  C   UNL A   1      31.378  27.554  25.645  1.00  0.00     0.331 C 
ATOM      4  O   UNL A   1      30.991  27.262  26.773  1.00  0.00    -0.250 OA
BRANCH   3   5
ATOM      5  C   UNL A   1      31.460  26.493  24.549  1.00  0.00     0.221 C 
BRANCH   5   6
ATOM      6  C   UNL A   1      30.156  26.306  23.739  1.00  0.00     0.145 C 
ATOM      7  C   UNL A   1      29.557  27.579  23.160  1.00  0.00     0.041 C 
BRANCH   6   8
ATOM      8  O   UNL A   1      29.167  25.760  24.634  1.00  0.00    -0.391 OA
ATOM      9  H   UNL A   1      29.054  24.814  24.453  1.00  0.00     0.211 HD
ENDBRANCH   6   8
ENDBRANCH   5   6
BRANCH   5  10
ATOM     10  N   UNL A   1      32.599  26.599  23.598  1.00  0.00    -0.336 N 
ATOM     11  C   UNL A   1      33.169  25.679  22.759  1.00  0.00     0.252 C 
ATOM     12  H   UNL A   1      33.018  27.489  23.566  1.00  0.00     0.164 HD
ATOM     13  O   UNL A   1      33.772  26.034  21.751  1.00  0.00    -0.269 OA
BRANCH  11  14
ATOM     14  C   UNL A   1      33.260  24.272  23.163  1.00  0.00     0.041 A 
ATOM     15  C   UNL A   1      32.511  23.282  22.534  1.00  0.00     0.015 A 
ATOM     16  C   UNL A   1      34.153  23.947  24.184  1.00  0.00     0.035 A 
ATOM     17  C   UNL A   1      32.591  21.967  23.006  1.00  0.00     0.023 A 
ATOM     18  C   UNL A   1      34.269  22.616  24.620  1.00  0.00     0.086 A 
ATOM     19  C   UNL A   1      33.466  21.624  24.050  1.00  0.00     0.059 A 
ATOM     20  Cl  UNL A   1      33.468  19.967  24.522  1.00  0.00    -0.083 Cl
BRANCH  18  21
ATOM     21  S   UNL A   1      35.459  22.316  25.902  1.00  0.00     0.177 S 
ATOM     22  C   UNL A   1      36.469  23.774  25.839  1.00  0.00     0.164 C 
ATOM     23  O   UNL A   1      34.737  22.335  27.163  1.00  0.00    -0.224 OA
ATOM     24  O   UNL A   1      36.275  21.166  25.573  1.00  0.00    -0.224 OA
ENDBRANCH  18  21
ENDBRANCH  11  14
ENDBRANCH   5  10
ENDBRANCH   3   5
ENDBRANCH   2   3
ENDBRANCH   1   2
BRANCH   1  25
ATOM     25  C   UNL A   1      33.130  29.674  27.326  1.00  0.00     0.275 C 
BRANCH  25  26
ATOM     26  O   UNL A   1      33.982  30.829  27.203  1.00  0.00    -0.458 OA
BRANCH  26  27
ATOM     27  C   UNL A   1      34.716  31.095  28.307  1.00  0.00     0.338 C 
ATOM     28  O   UNL A   1      34.384  31.807  29.243  1.00  0.00    -0.246 OA
BRANCH  27  29
ATOM     29  C   UNL A   1      35.957  30.305  28.351  1.00  0.00     0.060 A 
ATOM     30  C   UNL A   1      36.372  29.820  29.595  1.00  0.00     0.016 A 
ATOM     31  C   UNL A   1      36.808  30.228  27.250  1.00  0.00     0.016 A 
ATOM     32  C   UNL A   1      37.655  29.321  29.769  1.00  0.00     0.010 A 
ATOM     33  C   UNL A   1      38.099  29.712  27.420  1.00  0.00     0.010 A 
ATOM     34  C   UNL A   1      38.542  29.298  28.690  1.00  0.00    -0.014 A 
BRANCH  34  35
ATOM     35  C   UNL A   1      39.964  28.961  28.946  1.00  0.00     0.031 A 
ATOM     36  C   UNL A   1      40.858  29.981  29.596  1.00  0.00     0.074 A 
ATOM     37  C   UNL A   1      40.424  27.727  28.671  1.00  0.00     0.049 A 
ATOM     38  N   UNL A   1      42.135  29.910  29.869  1.00  0.00    -0.248 NA
ATOM     39  C   UNL A   1      40.231  31.252  29.994  1.00  0.00     0.031 C 
ATOM     40  C   UNL A   1      39.628  26.637  28.105  1.00  0.00     0.029 A 
ATOM     41  N   UNL A   1      41.671  27.180  28.836  1.00  0.00    -0.354 N 
ATOM     42  C   UNL A   1      42.471  31.132  30.444  1.00  0.00     0.074 A 
ATOM     43  C   UNL A   1      41.266  31.932  30.463  1.00  0.00     0.031 C 
ATOM     44  C   UNL A   1      40.405  25.550  27.974  1.00  0.00     0.029 A 
ATOM     45  C   UNL A   1      41.762  25.881  28.399  1.00  0.00     0.049 A 
ATOM     46  H   UNL A   1      42.427  27.671  29.232  1.00  0.00     0.167 HD
ATOM     47  C   UNL A   1      43.673  31.542  30.915  1.00  0.00     0.037 A 
ATOM     48  C   UNL A   1      42.827  25.060  28.325  1.00  0.00     0.037 A 
ATOM     49  C   UNL A   1      44.861  30.726  30.904  1.00  0.00     0.049 A 
ATOM     50  C   UNL A   1      44.163  25.556  28.809  1.00  0.00     0.074 A 
ATOM     51  C   UNL A   1      46.132  31.044  31.350  1.00  0.00     0.029 A 
ATOM     52  N   UNL A   1      44.923  29.424  30.423  1.00  0.00    -0.354 N 
ATOM     53  N   UNL A   1      44.474  26.724  29.321  1.00  0.00    -0.248 NA
ATOM     54  C   UNL A   1      45.292  24.622  28.709  1.00  0.00     0.031 C 
ATOM     55  C   UNL A   1      46.971  29.953  31.098  1.00  0.00     0.029 A 
ATOM     56  C   UNL A   1      46.212  28.932  30.548  1.00  0.00     0.049 A 
ATOM     57  H   UNL A   1      44.163  28.925  30.048  1.00  0.00     0.167 HD
ATOM     58  C   UNL A   1      45.828  26.656  29.631  1.00  0.00     0.074 A 
ATOM     59  C   UNL A   1      46.270  25.326  29.261  1.00  0.00     0.031 C 
ATOM     60  C   UNL A   1      46.633  27.604  30.173  1.00  0.00     0.037 A 
BRANCH  47  61
ATOM     61  C   UNL A   1      43.772  32.949  31.444  1.00  0.00     0.058 A 
ATOM     62  C   UNL A   1      43.624  33.248  32.807  1.00  0.00     0.135 A 
ATOM     63  C   UNL A   1      44.039  34.016  30.569  1.00  0.00     0.135 A 
ATOM     64  F   UNL A   1      43.349  32.272  33.687  1.00  0.00    -0.206 F 
ATOM     65  C   UNL A   1      43.708  34.554  33.281  1.00  0.00     0.059 A 
ATOM     66  C   UNL A   1      44.155  35.326  31.024  1.00  0.00     0.059 A 
ATOM     67  F   UNL A   1      44.187  33.792  29.254  1.00  0.00    -0.206 F 
ATOM     68  C   UNL A   1      43.973  35.588  32.381  1.00  0.00     0.060 A 
BRANCH  68  69
ATOM     69  S   UNL A   1      44.077  37.277  33.009  1.00  0.00     0.124 S 
ATOM     70  O   UNL A   1      44.079  38.049  31.770  1.00  0.00    -0.237 OA
ATOM     71  O   UNL A   1      42.868  37.385  33.819  1.00  0.00    -0.237 OA
ATOM     72  O   UNL A   1      45.330  37.287  33.756  1.00  0.00    -0.744 OA
ENDBRANCH  68  69
ENDBRANCH  47  61
BRANCH  48  73
ATOM     73  C   UNL A   1      42.673  23.693  27.760  1.00  0.00     0.058 A 
ATOM     74  C   UNL A   1      42.449  22.584  28.588  1.00  0.00     0.135 A 
ATOM     75  C   UNL A   1      42.733  23.473  26.374  1.00  0.00     0.135 A 
ATOM     76  F   UNL A   1      42.392  22.741  29.919  1.00  0.00    -0.206 F 
ATOM     77  C   UNL A   1      42.302  21.303  28.066  1.00  0.00     0.059 A 
ATOM     78  C   UNL A   1      42.560  22.205  25.827  1.00  0.00     0.059 A 
ATOM     79  F   UNL A   1      42.933  24.501  25.536  1.00  0.00    -0.206 F 
ATOM     80  C   UNL A   1      42.354  21.124  26.682  1.00  0.00     0.060 A 
BRANCH  80  81
ATOM     81  S   UNL A   1      42.107  19.467  26.011  1.00  0.00     0.124 S 
ATOM     82  O   UNL A   1      42.603  18.631  27.099  1.00  0.00    -0.237 OA
ATOM     83  O   UNL A   1      40.665  19.438  25.789  1.00  0.00    -0.237 OA
ATOM     84  O   UNL A   1      42.919  19.471  24.798  1.00  0.00    -0.744 OA
ENDBRANCH  80  81
ENDBRANCH  48  73
BRANCH  60  85
ATOM     85  C   UNL A   1      48.062  27.214  30.441  1.00  0.00     0.058 A 
ATOM     86  C   UNL A   1      48.453  26.602  31.642  1.00  0.00     0.135 A 
ATOM     87  C   UNL A   1      49.053  27.457  29.477  1.00  0.00     0.135 A 
ATOM     88  F   UNL A   1      47.546  26.350  32.599  1.00  0.00    -0.206 F 
ATOM     89  C   UNL A   1      49.784  26.288  31.898  1.00  0.00     0.059 A 
ATOM     90  C   UNL A   1      50.386  27.123  29.698  1.00  0.00     0.059 A 
ATOM     91  F   UNL A   1      48.733  28.026  28.304  1.00  0.00    -0.206 F 
ATOM     92  C   UNL A   1      50.745  26.561  30.922  1.00  0.00     0.060 A 
BRANCH  92  93
ATOM     93  S   UNL A   1      52.471  26.165  31.270  1.00  0.00     0.124 S 
ATOM     94  O   UNL A   1      52.350  24.857  31.905  1.00  0.00    -0.237 OA
ATOM     95  O   UNL A   1      53.070  26.171  29.939  1.00  0.00    -0.237 OA
ATOM     96  O   UNL A   1      52.898  27.252  32.146  1.00  0.00    -0.744 OA
ENDBRANCH  92  93
ENDBRANCH  60  85
ENDBRANCH  34  35
ENDBRANCH  27  29
ENDBRANCH  26  27
ENDBRANCH  25  26
ENDBRANCH   1  25
TORSDOF 19
ENDMDL
MODEL 2
REMARK VINA RESULT:     -10.7      2.688      3.611
REMARK SMILES C[C@H](O)[C@@H](NC(=O)c1ccc(Cl)c(S(C)(=O)=O)c1)C(=O)OCCOC(=O)c1ccc(-c2c3nc(c(-c4c(F)cc(S(=O)(=O)[O-])cc4F)c4ccc([nH]4)c(-c4c(F)cc(S(=O)(=O)[O-])cc4F)c4nc(c(-c5c(F)cc(S(=O)(=O)[O-])cc5F)c5ccc2[nH]5)C=C4)C=C3)cc1
REMARK SMILES IDX 22 1 21 2 19 3 20 4 4 5 2 6 1 7 3 8 5 10 6 11 7 13 8 14 9 15
REMARK SMILES IDX 18 16 10 17 13 18 11 19 12 20 14 21 15 22 16 23 17 24 23 25
REMARK SMILES IDX 24 26 25 27 26 28 27 29 28 30 92 31 29 32 91 33 30 34 31 35
REMARK SMILES IDX 32 36 85 37 33 38 90 39 84 40 86 41 34 42 89 43 83 44 82 45
REMARK SMILES IDX 35 47 69 48 48 49 68 50 49 51 52 52 67 53 87 54 50 55 51 56
REMARK SMILES IDX 66 58 88 59 53 60 36 61 37 62 46 63 38 64 39 65 45 66 47 67
REMARK SMILES IDX 40 68 41 69 42 70 43 71 44 72 70 73 71 74 80 75 72 76 73 77
REMARK SMILES IDX 79 78 81 79 74 80 75 81 76 82 77 83 78 84 54 85 55 86 64 87
REMARK SMILES IDX 56 88 57 89 63 90 65 91 58 92 59 93 60 94 61 95 62 96
REMARK H PARENT 3 9 5 12 86 46 52 57
REMARK Flexibility Score: inf
ROOT
ATOM      1  C   UNL A   1      34.568  29.000  26.616  1.00  0.00     0.274 C 
ENDROOT
BRANCH   1   2
ATOM      2  O   UNL A   1      33.288  28.679  26.024  1.00  0.00    -0.460 OA
BRANCH   2   3
ATOM      3  C   UNL A   1      33.143  27.375  25.678  1.00  0.00     0.331 C 
ATOM      4  O   UNL A   1      33.705  26.454  26.263  1.00  0.00    -0.250 OA
BRANCH   3   5
ATOM      5  C   UNL A   1      32.345  27.119  24.401  1.00  0.00     0.221 C 
BRANCH   5   6
ATOM      6  C   UNL A   1      31.227  28.151  24.125  1.00  0.00     0.145 C 
ATOM      7  C   UNL A   1      30.097  27.667  23.229  1.00  0.00     0.041 C 
BRANCH   6   8
ATOM      8  O   UNL A   1      31.832  29.271  23.450  1.00  0.00    -0.391 OA
ATOM      9  H   UNL A   1      31.394  30.091  23.727  1.00  0.00     0.211 HD
ENDBRANCH   6   8
ENDBRANCH   5   6
BRANCH   5  10
ATOM     10  N   UNL A   1      33.127  26.920  23.151  1.00  0.00    -0.336 N 
ATOM     11  C   UNL A   1      33.234  25.846  22.308  1.00  0.00     0.252 C 
ATOM     12  H   UNL A   1      33.665  27.699  22.881  1.00  0.00     0.164 HD
ATOM     13  O   UNL A   1      33.542  25.997  21.131  1.00  0.00    -0.269 OA
BRANCH  11  14
ATOM     14  C   UNL A   1      33.199  24.482  22.847  1.00  0.00     0.041 A 
ATOM     15  C   UNL A   1      32.151  23.611  22.562  1.00  0.00     0.015 A 
ATOM     16  C   UNL A   1      34.274  24.068  23.634  1.00  0.00     0.035 A 
ATOM     17  C   UNL A   1      32.140  22.345  23.157  1.00  0.00     0.023 A 
ATOM     18  C   UNL A   1      34.284  22.776  24.187  1.00  0.00     0.086 A 
ATOM     19  C   UNL A   1      33.201  21.919  23.973  1.00  0.00     0.059 A 
ATOM     20  Cl  UNL A   1      33.059  20.332  24.631  1.00  0.00    -0.083 Cl
BRANCH  18  21
ATOM     21  S   UNL A   1      35.716  22.349  25.145  1.00  0.00     0.177 S 
ATOM     22  C   UNL A   1      36.592  23.891  25.238  1.00  0.00     0.164 C 
ATOM     23  O   UNL A   1      35.251  22.026  26.482  1.00  0.00    -0.224 OA
ATOM     24  O   UNL A   1      36.532  21.389  24.430  1.00  0.00    -0.224 OA
ENDBRANCH  18  21
ENDBRANCH  11  14
ENDBRANCH   5  10
ENDBRANCH   3   5
ENDBRANCH   2   3
ENDBRANCH   1   2
BRANCH   1  25
ATOM     25  C   UNL A   1      34.534  29.516  28.062  1.00  0.00     0.275 C 
BRANCH  25  26
ATOM     26  O   UNL A   1      35.670  30.334  28.407  1.00  0.00    -0.458 OA
BRANCH  26  27
ATOM     27  C   UNL A   1      36.382  29.875  29.462  1.00  0.00     0.338 C 
ATOM     28  O   UNL A   1      35.928  29.358  30.471  1.00  0.00    -0.246 OA
BRANCH  27  29
ATOM     29  C   UNL A   1      37.832  29.932  29.218  1.00  0.00     0.060 A 
ATOM     30  C   UNL A   1      38.268  29.850  27.892  1.00  0.00     0.016 A 
ATOM     31  C   UNL A   1      38.748  29.842  30.264  1.00  0.00     0.016 A 
ATOM     32  C   UNL A   1      39.603  29.611  27.599  1.00  0.00     0.010 A 
ATOM     33  C   UNL A   1      40.099  29.614  29.970  1.00  0.00     0.010 A 
ATOM     34  C   UNL A   1      40.524  29.453  28.638  1.00  0.00    -0.014 A 
BRANCH  34  35
ATOM     35  C   UNL A   1      41.894  28.990  28.310  1.00  0.00     0.031 A 
ATOM     36  C   UNL A   1      43.036  29.968  28.357  1.00  0.00     0.074 A 
ATOM     37  C   UNL A   1      42.122  27.688  28.052  1.00  0.00     0.049 A 
ATOM     38  N   UNL A   1      44.297  29.785  28.066  1.00  0.00    -0.248 NA
ATOM     39  C   UNL A   1      42.714  31.338  28.791  1.00  0.00     0.031 C 
ATOM     40  C   UNL A   1      41.101  26.639  28.049  1.00  0.00     0.029 A 
ATOM     41  N   UNL A   1      43.283  27.027  27.749  1.00  0.00    -0.354 N 
ATOM     42  C   UNL A   1      44.915  31.018  28.254  1.00  0.00     0.074 A 
ATOM     43  C   UNL A   1      43.884  31.945  28.667  1.00  0.00     0.031 C 
ATOM     44  C   UNL A   1      41.684  25.464  27.762  1.00  0.00     0.029 A 
ATOM     45  C   UNL A   1      43.105  25.685  27.513  1.00  0.00     0.049 A 
ATOM     46  H   UNL A   1      44.162  27.471  27.706  1.00  0.00     0.167 HD
ATOM     47  C   UNL A   1      46.222  31.340  28.100  1.00  0.00     0.037 A 
ATOM     48  C   UNL A   1      43.985  24.747  27.115  1.00  0.00     0.037 A 
ATOM     49  C   UNL A   1      47.239  30.399  27.704  1.00  0.00     0.049 A 
ATOM     50  C   UNL A   1      45.423  25.141  26.903  1.00  0.00     0.074 A 
ATOM     51  C   UNL A   1      48.592  30.621  27.513  1.00  0.00     0.029 A 
ATOM     52  N   UNL A   1      47.016  29.054  27.443  1.00  0.00    -0.354 N 
ATOM     53  N   UNL A   1      45.988  26.316  27.053  1.00  0.00    -0.248 NA
ATOM     54  C   UNL A   1      46.342  24.081  26.470  1.00  0.00     0.031 C 
ATOM     55  C   UNL A   1      49.177  29.421  27.092  1.00  0.00     0.029 A 
ATOM     56  C   UNL A   1      48.202  28.437  27.077  1.00  0.00     0.049 A 
ATOM     57  H   UNL A   1      46.143  28.604  27.507  1.00  0.00     0.167 HD
ATOM     58  C   UNL A   1      47.335  26.131  26.762  1.00  0.00     0.074 A 
ATOM     59  C   UNL A   1      47.499  24.727  26.441  1.00  0.00     0.031 C 
ATOM     60  C   UNL A   1      48.345  27.037  26.761  1.00  0.00     0.037 A 
BRANCH  47  61
ATOM     61  C   UNL A   1      46.616  32.777  28.320  1.00  0.00     0.058 A 
ATOM     62  C   UNL A   1      46.555  33.735  27.296  1.00  0.00     0.135 A 
ATOM     63  C   UNL A   1      47.045  33.207  29.587  1.00  0.00     0.135 A 
ATOM     64  F   UNL A   1      46.170  33.380  26.060  1.00  0.00    -0.206 F 
ATOM     65  C   UNL A   1      46.931  35.058  27.511  1.00  0.00     0.059 A 
ATOM     66  C   UNL A   1      47.400  34.530  29.833  1.00  0.00     0.059 A 
ATOM     67  F   UNL A   1      47.127  32.334  30.605  1.00  0.00    -0.206 F 
ATOM     68  C   UNL A   1      47.354  35.446  28.783  1.00  0.00     0.060 A 
BRANCH  68  69
ATOM     69  S   UNL A   1      47.842  37.164  29.048  1.00  0.00     0.124 S 
ATOM     70  O   UNL A   1      48.233  37.566  27.701  1.00  0.00    -0.237 OA
ATOM     71  O   UNL A   1      46.612  37.763  29.555  1.00  0.00    -0.237 OA
ATOM     72  O   UNL A   1      48.931  37.065  30.014  1.00  0.00    -0.744 OA
ENDBRANCH  68  69
ENDBRANCH  47  61
BRANCH  48  73
ATOM     73  C   UNL A   1      43.527  23.352  26.879  1.00  0.00     0.058 A 
ATOM     74  C   UNL A   1      43.416  22.831  25.582  1.00  0.00     0.135 A 
ATOM     75  C   UNL A   1      43.205  22.506  27.953  1.00  0.00     0.135 A 
ATOM     76  F   UNL A   1      43.704  23.603  24.523  1.00  0.00    -0.206 F 
ATOM     77  C   UNL A   1      42.989  21.527  25.354  1.00  0.00     0.059 A 
ATOM     78  C   UNL A   1      42.804  21.188  27.751  1.00  0.00     0.059 A 
ATOM     79  F   UNL A   1      43.306  22.949  29.215  1.00  0.00    -0.206 F 
ATOM     80  C   UNL A   1      42.690  20.711  26.447  1.00  0.00     0.060 A 
BRANCH  80  81
ATOM     81  S   UNL A   1      42.191  19.003  26.143  1.00  0.00     0.124 S 
ATOM     82  O   UNL A   1      43.059  18.636  25.029  1.00  0.00    -0.237 OA
ATOM     83  O   UNL A   1      42.489  18.365  27.422  1.00  0.00    -0.237 OA
ATOM     84  O   UNL A   1      40.771  19.119  25.826  1.00  0.00    -0.744 OA
ENDBRANCH  80  81
ENDBRANCH  48  73
BRANCH  60  85
ATOM     85  C   UNL A   1      49.724  26.522  26.448  1.00  0.00     0.058 A 
ATOM     86  C   UNL A   1      50.223  26.481  25.137  1.00  0.00     0.135 A 
ATOM     87  C   UNL A   1      50.558  26.063  27.480  1.00  0.00     0.135 A 
ATOM     88  F   UNL A   1      49.466  26.904  24.112  1.00  0.00    -0.206 F 
ATOM     89  C   UNL A   1      51.482  25.960  24.854  1.00  0.00     0.059 A 
ATOM     90  C   UNL A   1      51.833  25.568  27.225  1.00  0.00     0.059 A 
ATOM     91  F   UNL A   1      50.139  26.094  28.755  1.00  0.00    -0.206 F 
ATOM     92  C   UNL A   1      52.277  25.498  25.905  1.00  0.00     0.060 A 
BRANCH  92  93
ATOM     93  S   UNL A   1      53.901  24.809  25.526  1.00  0.00     0.124 S 
ATOM     94  O   UNL A   1      54.578  24.932  26.812  1.00  0.00    -0.237 OA
ATOM     95  O   UNL A   1      53.576  23.449  25.108  1.00  0.00    -0.237 OA
ATOM     96  O   UNL A   1      54.400  25.681  24.466  1.00  0.00    -0.744 OA
ENDBRANCH  92  93
ENDBRANCH  60  85
ENDBRANCH  34  35
ENDBRANCH  27  29
ENDBRANCH  26  27
ENDBRANCH  25  26
ENDBRANCH   1  25
TORSDOF 19
ENDMDL
MODEL 3
REMARK VINA RESULT:     -10.7      2.795      3.498
REMARK SMILES C[C@H](O)[C@@H](NC(=O)c1ccc(Cl)c(S(C)(=O)=O)c1)C(=O)OCCOC(=O)c1ccc(-c2c3nc(c(-c4c(F)cc(S(=O)(=O)[O-])cc4F)c4ccc([nH]4)c(-c4c(F)cc(S(=O)(=O)[O-])cc4F)c4nc(c(-c5c(F)cc(S(=O)(=O)[O-])cc5F)c5ccc2[nH]5)C=C4)C=C3)cc1
REMARK SMILES IDX 22 1 21 2 19 3 20 4 4 5 2 6 1 7 3 8 5 10 6 11 7 13 8 14 9 15
REMARK SMILES IDX 18 16 10 17 13 18 11 19 12 20 14 21 15 22 16 23 17 24 23 25
REMARK SMILES IDX 24 26 25 27 26 28 27 29 28 30 92 31 29 32 91 33 30 34 31 35
REMARK SMILES IDX 32 36 85 37 33 38 90 39 84 40 86 41 34 42 89 43 83 44 82 45
REMARK SMILES IDX 35 47 69 48 48 49 68 50 49 51 52 52 67 53 87 54 50 55 51 56
REMARK SMILES IDX 66 58 88 59 53 60 36 61 37 62 46 63 38 64 39 65 45 66 47 67
REMARK SMILES IDX 40 68 41 69 42 70 43 71 44 72 70 73 71 74 80 75 72 76 73 77
REMARK SMILES IDX 79 78 81 79 74 80 75 81 76 82 77 83 78 84 54 85 55 86 64 87
REMARK SMILES IDX 56 88 57 89 63 90 65 91 58 92 59 93 60 94 61 95 62 96
REMARK H PARENT 3 9 5 12 86 46 52 57
REMARK Flexibility Score: inf
ROOT
ATOM      1  C   UNL A   1      31.775  29.573  25.510  1.00  0.00     0.274 C 
ENDROOT
BRANCH   1   2
ATOM      2  O   UNL A   1      32.435  28.287  25.467  1.00  0.00    -0.460 OA
BRANCH   2   3
ATOM      3  C   UNL A   1      31.612  27.230  25.682  1.00  0.00     0.331 C 
ATOM      4  O   UNL A   1      31.024  27.035  26.741  1.00  0.00    -0.250 OA
BRANCH   3   5
ATOM      5  C   UNL A   1      31.572  26.190  24.564  1.00  0.00     0.221 C 
BRANCH   5   6
ATOM      6  C   UNL A   1      30.238  26.140  23.782  1.00  0.00     0.145 C 
ATOM      7  C   UNL A   1      29.817  27.445  23.124  1.00  0.00     0.041 C 
BRANCH   6   8
ATOM      8  O   UNL A   1      29.200  25.803  24.722  1.00  0.00    -0.391 OA
ATOM      9  H   UNL A   1      28.397  26.303  24.511  1.00  0.00     0.211 HD
ENDBRANCH   6   8
ENDBRANCH   5   6
BRANCH   5  10
ATOM     10  N   UNL A   1      32.694  26.212  23.587  1.00  0.00    -0.336 N 
ATOM     11  C   UNL A   1      33.195  25.245  22.757  1.00  0.00     0.252 C 
ATOM     12  H   UNL A   1      33.162  27.076  23.527  1.00  0.00     0.164 HD
ATOM     13  O   UNL A   1      33.794  25.544  21.730  1.00  0.00    -0.269 OA
BRANCH  11  14
ATOM     14  C   UNL A   1      33.215  23.843  23.189  1.00  0.00     0.041 A 
ATOM     15  C   UNL A   1      32.358  22.896  22.638  1.00  0.00     0.015 A 
ATOM     16  C   UNL A   1      34.153  23.476  24.155  1.00  0.00     0.035 A 
ATOM     17  C   UNL A   1      32.379  21.589  23.136  1.00  0.00     0.023 A 
ATOM     18  C   UNL A   1      34.205  22.150  24.616  1.00  0.00     0.086 A 
ATOM     19  C   UNL A   1      33.299  21.207  24.127  1.00  0.00     0.059 A 
ATOM     20  Cl  UNL A   1      33.218  19.563  24.640  1.00  0.00    -0.083 Cl
BRANCH  18  21
ATOM     21  S   UNL A   1      35.458  21.793  25.823  1.00  0.00     0.177 S 
ATOM     22  C   UNL A   1      36.299  23.349  25.977  1.00  0.00     0.164 C 
ATOM     23  O   UNL A   1      34.775  21.536  27.079  1.00  0.00    -0.224 OA
ATOM     24  O   UNL A   1      36.386  20.808  25.309  1.00  0.00    -0.224 OA
ENDBRANCH  18  21
ENDBRANCH  11  14
ENDBRANCH   5  10
ENDBRANCH   3   5
ENDBRANCH   2   3
ENDBRANCH   1   2
BRANCH   1  25
ATOM     25  C   UNL A   1      32.293  30.564  26.563  1.00  0.00     0.275 C 
BRANCH  25  26
ATOM     26  O   UNL A   1      33.537  30.162  27.169  1.00  0.00    -0.458 OA
BRANCH  26  27
ATOM     27  C   UNL A   1      34.269  31.187  27.662  1.00  0.00     0.338 C 
ATOM     28  O   UNL A   1      33.847  32.286  27.990  1.00  0.00    -0.246 OA
BRANCH  27  29
ATOM     29  C   UNL A   1      35.667  30.800  27.910  1.00  0.00     0.060 A 
ATOM     30  C   UNL A   1      35.940  29.440  28.086  1.00  0.00     0.016 A 
ATOM     31  C   UNL A   1      36.646  31.753  28.186  1.00  0.00     0.016 A 
ATOM     32  C   UNL A   1      37.160  29.023  28.600  1.00  0.00     0.010 A 
ATOM     33  C   UNL A   1      37.883  31.333  28.692  1.00  0.00     0.010 A 
ATOM     34  C   UNL A   1      38.128  29.971  28.943  1.00  0.00    -0.014 A 
BRANCH  34  35
ATOM     35  C   UNL A   1      39.332  29.520  29.683  1.00  0.00     0.031 A 
ATOM     36  C   UNL A   1      39.684  30.178  30.989  1.00  0.00     0.074 A 
ATOM     37  C   UNL A   1      40.054  28.480  29.227  1.00  0.00     0.049 A 
ATOM     38  N   UNL A   1      40.711  29.969  31.772  1.00  0.00    -0.248 NA
ATOM     39  C   UNL A   1      38.756  31.209  31.481  1.00  0.00     0.031 C 
ATOM     40  C   UNL A   1      39.762  27.722  28.009  1.00  0.00     0.029 A 
ATOM     41  N   UNL A   1      41.174  27.876  29.737  1.00  0.00    -0.354 N 
ATOM     42  C   UNL A   1      40.568  30.858  32.833  1.00  0.00     0.074 A 
ATOM     43  C   UNL A   1      39.365  31.621  32.583  1.00  0.00     0.031 C 
ATOM     44  C   UNL A   1      40.680  26.751  27.868  1.00  0.00     0.029 A 
ATOM     45  C   UNL A   1      41.648  26.850  28.956  1.00  0.00     0.049 A 
ATOM     46  H   UNL A   1      41.597  28.151  30.583  1.00  0.00     0.167 HD
ATOM     47  C   UNL A   1      41.367  31.017  33.916  1.00  0.00     0.037 A 
ATOM     48  C   UNL A   1      42.754  26.093  29.090  1.00  0.00     0.037 A 
ATOM     49  C   UNL A   1      42.554  30.236  34.158  1.00  0.00     0.049 A 
ATOM     50  C   UNL A   1      43.652  26.322  30.276  1.00  0.00     0.074 A 
ATOM     51  C   UNL A   1      43.439  30.318  35.220  1.00  0.00     0.029 A 
ATOM     52  N   UNL A   1      43.022  29.226  33.328  1.00  0.00    -0.354 N 
ATOM     53  N   UNL A   1      43.524  27.187  31.255  1.00  0.00    -0.248 NA
ATOM     54  C   UNL A   1      44.844  25.470  30.377  1.00  0.00     0.031 C 
ATOM     55  C   UNL A   1      44.464  29.389  35.008  1.00  0.00     0.029 A 
ATOM     56  C   UNL A   1      44.189  28.687  33.845  1.00  0.00     0.049 A 
ATOM     57  H   UNL A   1      42.588  28.935  32.494  1.00  0.00     0.167 HD
ATOM     58  C   UNL A   1      44.602  26.964  32.105  1.00  0.00     0.074 A 
ATOM     59  C   UNL A   1      45.363  25.873  31.529  1.00  0.00     0.031 C 
ATOM     60  C   UNL A   1      44.933  27.601  33.256  1.00  0.00     0.037 A 
BRANCH  47  61
ATOM     61  C   UNL A   1      41.005  32.101  34.897  1.00  0.00     0.058 A 
ATOM     62  C   UNL A   1      41.538  33.397  34.810  1.00  0.00     0.135 A 
ATOM     63  C   UNL A   1      40.092  31.841  35.933  1.00  0.00     0.135 A 
ATOM     64  F   UNL A   1      42.430  33.698  33.852  1.00  0.00    -0.206 F 
ATOM     65  C   UNL A   1      41.201  34.387  35.729  1.00  0.00     0.059 A 
ATOM     66  C   UNL A   1      39.720  32.823  36.846  1.00  0.00     0.059 A 
ATOM     67  F   UNL A   1      39.552  30.619  36.068  1.00  0.00    -0.206 F 
ATOM     68  C   UNL A   1      40.292  34.090  36.745  1.00  0.00     0.060 A 
BRANCH  68  69
ATOM     69  S   UNL A   1      39.867  35.382  37.932  1.00  0.00     0.124 S 
ATOM     70  O   UNL A   1      41.040  35.379  38.799  1.00  0.00    -0.237 OA
ATOM     71  O   UNL A   1      39.716  36.555  37.076  1.00  0.00    -0.237 OA
ATOM     72  O   UNL A   1      38.635  34.894  38.542  1.00  0.00    -0.744 OA
ENDBRANCH  68  69
ENDBRANCH  47  61
BRANCH  48  73
ATOM     73  C   UNL A   1      43.076  25.063  28.069  1.00  0.00     0.058 A 
ATOM     74  C   UNL A   1      43.814  25.382  26.920  1.00  0.00     0.135 A 
ATOM     75  C   UNL A   1      42.663  23.730  28.230  1.00  0.00     0.135 A 
ATOM     76  F   UNL A   1      44.224  26.643  26.715  1.00  0.00    -0.206 F 
ATOM     77  C   UNL A   1      44.121  24.423  25.960  1.00  0.00     0.059 A 
ATOM     78  C   UNL A   1      42.983  22.747  27.298  1.00  0.00     0.059 A 
ATOM     79  F   UNL A   1      41.965  23.368  29.317  1.00  0.00    -0.206 F 
ATOM     80  C   UNL A   1      43.704  23.106  26.161  1.00  0.00     0.060 A 
BRANCH  80  81
ATOM     81  S   UNL A   1      44.155  21.856  24.938  1.00  0.00     0.124 S 
ATOM     82  O   UNL A   1      43.194  20.798  25.231  1.00  0.00    -0.237 OA
ATOM     83  O   UNL A   1      43.955  22.571  23.682  1.00  0.00    -0.237 OA
ATOM     84  O   UNL A   1      45.545  21.554  25.263  1.00  0.00    -0.744 OA
ENDBRANCH  80  81
ENDBRANCH  48  73
BRANCH  60  85
ATOM     85  C   UNL A   1      46.146  27.096  33.990  1.00  0.00     0.058 A 
ATOM     86  C   UNL A   1      46.063  26.081  34.955  1.00  0.00     0.135 A 
ATOM     87  C   UNL A   1      47.413  27.640  33.719  1.00  0.00     0.135 A 
ATOM     88  F   UNL A   1      44.877  25.528  35.255  1.00  0.00    -0.206 F 
ATOM     89  C   UNL A   1      47.184  25.654  35.661  1.00  0.00     0.059 A 
ATOM     90  C   UNL A   1      48.553  27.207  34.389  1.00  0.00     0.059 A 
ATOM     91  F   UNL A   1      47.554  28.603  32.795  1.00  0.00    -0.206 F 
ATOM     92  C   UNL A   1      48.424  26.231  35.376  1.00  0.00     0.060 A 
BRANCH  92  93
ATOM     93  S   UNL A   1      49.869  25.683  36.308  1.00  0.00     0.124 S 
ATOM     94  O   UNL A   1      49.388  25.786  37.682  1.00  0.00    -0.237 OA
ATOM     95  O   UNL A   1      50.071  24.327  35.807  1.00  0.00    -0.237 OA
ATOM     96  O   UNL A   1      50.901  26.644  35.930  1.00  0.00    -0.744 OA
ENDBRANCH  92  93
ENDBRANCH  60  85
ENDBRANCH  34  35
ENDBRANCH  27  29
ENDBRANCH  26  27
ENDBRANCH  25  26
ENDBRANCH   1  25
TORSDOF 19
ENDMDL
