MODEL 1
REMARK VINA RESULT:     -12.6      0.000      0.000
REMARK SMILES CC(C)=C1[C@H]2CC[C@@H]1[C@@H](C(=O)Nc1cc(C)cc(C)c1)[C@@H]2C(=O)OCCOC(=O)c1ccc(-c2c3nc(c(-c4c(F)cc(S(=O)(=O)[O-])cc4F)c4ccc([nH]4)c(-c4c(F)cc(S(=O)(=O)[O-])cc4F)c4nc(c(-c5c(F)cc(S(=O)(=O)[O-])cc5F)c5ccc2[nH]5)C=C4)C=C3)cc1
REMARK SMILES IDX 26 1 25 2 24 3 22 4 23 5 21 6 1 7 2 8 3 9 4 10 5 11 8 12
REMARK SMILES IDX 6 13 7 14 9 15 10 16 11 17 12 18 13 20 14 21 20 22 15 23
REMARK SMILES IDX 18 24 16 25 17 26 19 27 27 28 28 29 29 30 30 31 31 32 95 33
REMARK SMILES IDX 32 34 94 35 33 36 34 37 35 38 88 39 36 40 93 41 87 42 89 43
REMARK SMILES IDX 37 44 92 45 86 46 85 47 38 49 72 50 51 51 71 52 52 53 55 54
REMARK SMILES IDX 70 55 90 56 53 57 54 58 69 60 91 61 56 62 39 63 40 64 49 65
REMARK SMILES IDX 41 66 42 67 48 68 50 69 43 70 44 71 45 72 46 73 47 74 73 75
REMARK SMILES IDX 74 76 83 77 75 78 76 79 82 80 84 81 77 82 78 83 79 84 80 85
REMARK SMILES IDX 81 86 57 87 58 88 67 89 59 90 60 91 66 92 68 93 61 94 62 95
REMARK SMILES IDX 63 96 64 97 65 98
REMARK H PARENT 12 19 89 48 55 59
REMARK Flexibility Score: inf
ROOT
ATOM      1  C   UNL A   1      38.839  22.831  26.186  1.00  0.00     0.275 C 
ENDROOT
BRANCH   1   2
ATOM      2  C   UNL A   1      37.480  23.312  25.680  1.00  0.00     0.274 C 
BRANCH   2   3
ATOM      3  O   UNL A   1      36.800  22.267  24.958  1.00  0.00    -0.462 OA
BRANCH   3   4
ATOM      4  C   UNL A   1      36.115  22.611  23.838  1.00  0.00     0.310 C 
ATOM      5  O   UNL A   1      36.640  22.916  22.775  1.00  0.00    -0.252 OA
BRANCH   4   6
ATOM      6  C   UNL A   1      34.622  22.712  24.067  1.00  0.00     0.119 C 
ATOM      7  C   UNL A   1      30.519  23.014  25.920  1.00  0.00     0.039 C 
ATOM      8  C   UNL A   1      31.976  22.695  26.048  1.00  0.00    -0.077 C 
ATOM      9  C   UNL A   1      32.604  23.123  27.350  1.00  0.00     0.039 C 
ATOM     10  C   UNL A   1      32.694  22.130  25.066  1.00  0.00    -0.064 C 
ATOM     11  C   UNL A   1      34.121  21.693  25.106  1.00  0.00     0.030 C 
ATOM     12  C   UNL A   1      32.422  21.792  23.614  1.00  0.00     0.029 C 
ATOM     13  C   UNL A   1      33.948  20.239  24.583  1.00  0.00     0.009 C 
ATOM     14  C   UNL A   1      32.709  20.292  23.669  1.00  0.00     0.009 C 
ATOM     15  C   UNL A   1      33.649  22.454  22.904  1.00  0.00     0.101 C 
BRANCH  15  16
ATOM     16  C   UNL A   1      33.241  23.504  21.881  1.00  0.00     0.228 C 
ATOM     17  O   UNL A   1      33.427  23.240  20.683  1.00  0.00    -0.274 OA
ATOM     18  N   UNL A   1      32.538  24.636  22.073  1.00  0.00    -0.326 N 
ATOM     19  H   UNL A   1      32.372  25.132  21.238  1.00  0.00     0.169 HD
BRANCH  18  20
ATOM     20  C   UNL A   1      31.997  25.256  23.189  1.00  0.00     0.041 A 
ATOM     21  C   UNL A   1      32.781  25.746  24.226  1.00  0.00     0.029 A 
ATOM     22  C   UNL A   1      30.632  25.553  23.138  1.00  0.00     0.029 A 
ATOM     23  C   UNL A   1      32.189  26.502  25.248  1.00  0.00    -0.049 A 
ATOM     24  C   UNL A   1      30.016  26.263  24.169  1.00  0.00    -0.049 A 
ATOM     25  C   UNL A   1      33.014  27.071  26.365  1.00  0.00     0.044 C 
ATOM     26  C   UNL A   1      30.803  26.732  25.226  1.00  0.00     0.007 A 
ATOM     27  C   UNL A   1      28.527  26.432  24.179  1.00  0.00     0.044 C 
ENDBRANCH  18  20
ENDBRANCH  15  16
ENDBRANCH   4   6
ENDBRANCH   3   4
ENDBRANCH   2   3
ENDBRANCH   1   2
BRANCH   1  28
ATOM     28  O   UNL A   1      39.317  23.686  27.237  1.00  0.00    -0.458 OA
BRANCH  28  29
ATOM     29  C   UNL A   1      40.154  24.670  26.836  1.00  0.00     0.338 C 
ATOM     30  O   UNL A   1      40.607  24.852  25.721  1.00  0.00    -0.246 OA
BRANCH  29  31
ATOM     31  C   UNL A   1      40.342  25.614  27.943  1.00  0.00     0.060 A 
ATOM     32  C   UNL A   1      39.292  25.765  28.842  1.00  0.00     0.016 A 
ATOM     33  C   UNL A   1      41.473  26.417  28.039  1.00  0.00     0.016 A 
ATOM     34  C   UNL A   1      39.330  26.754  29.811  1.00  0.00     0.010 A 
ATOM     35  C   UNL A   1      41.530  27.389  29.044  1.00  0.00     0.010 A 
ATOM     36  C   UNL A   1      40.447  27.577  29.922  1.00  0.00    -0.014 A 
BRANCH  36  37
ATOM     37  C   UNL A   1      40.429  28.676  30.910  1.00  0.00     0.031 A 
ATOM     38  C   UNL A   1      41.421  28.666  32.035  1.00  0.00     0.074 A 
ATOM     39  C   UNL A   1      39.568  29.701  30.763  1.00  0.00     0.049 A 
ATOM     40  N   UNL A   1      41.448  29.395  33.119  1.00  0.00    -0.248 NA
ATOM     41  C   UNL A   1      42.525  27.697  31.930  1.00  0.00     0.031 C 
ATOM     42  C   UNL A   1      38.638  29.874  29.644  1.00  0.00     0.029 A 
ATOM     43  N   UNL A   1      39.337  30.792  31.558  1.00  0.00    -0.354 N 
ATOM     44  C   UNL A   1      42.536  28.937  33.852  1.00  0.00     0.074 A 
ATOM     45  C   UNL A   1      43.147  27.871  33.089  1.00  0.00     0.031 C 
ATOM     46  C   UNL A   1      37.943  31.009  29.820  1.00  0.00     0.029 A 
ATOM     47  C   UNL A   1      38.318  31.594  31.102  1.00  0.00     0.049 A 
ATOM     48  H   UNL A   1      39.849  30.985  32.377  1.00  0.00     0.167 HD
ATOM     49  C   UNL A   1      42.969  29.371  35.059  1.00  0.00     0.037 A 
ATOM     50  C   UNL A   1      37.717  32.650  31.681  1.00  0.00     0.037 A 
ATOM     51  C   UNL A   1      42.367  30.467  35.773  1.00  0.00     0.049 A 
ATOM     52  C   UNL A   1      38.180  33.079  33.045  1.00  0.00     0.074 A 
ATOM     53  C   UNL A   1      42.702  30.978  37.014  1.00  0.00     0.029 A 
ATOM     54  N   UNL A   1      41.315  31.237  35.294  1.00  0.00    -0.354 N 
ATOM     55  N   UNL A   1      39.140  32.577  33.786  1.00  0.00    -0.248 NA
ATOM     56  C   UNL A   1      37.467  34.203  33.663  1.00  0.00     0.031 C 
ATOM     57  C   UNL A   1      41.835  32.039  37.297  1.00  0.00     0.029 A 
ATOM     58  C   UNL A   1      40.986  32.216  36.216  1.00  0.00     0.049 A 
ATOM     59  H   UNL A   1      40.869  31.104  34.427  1.00  0.00     0.167 HD
ATOM     60  C   UNL A   1      39.159  33.334  34.950  1.00  0.00     0.074 A 
ATOM     61  C   UNL A   1      38.123  34.338  34.808  1.00  0.00     0.031 C 
ATOM     62  C   UNL A   1      39.954  33.208  36.040  1.00  0.00     0.037 A 
BRANCH  49  63
ATOM     63  C   UNL A   1      44.110  28.630  35.698  1.00  0.00     0.058 A 
ATOM     64  C   UNL A   1      45.449  28.992  35.486  1.00  0.00     0.135 A 
ATOM     65  C   UNL A   1      43.853  27.549  36.559  1.00  0.00     0.135 A 
ATOM     66  F   UNL A   1      45.753  30.002  34.656  1.00  0.00    -0.206 F 
ATOM     67  C   UNL A   1      46.494  28.297  36.089  1.00  0.00     0.059 A 
ATOM     68  C   UNL A   1      44.881  26.856  37.191  1.00  0.00     0.059 A 
ATOM     69  F   UNL A   1      42.591  27.157  36.793  1.00  0.00    -0.206 F 
ATOM     70  C   UNL A   1      46.200  27.230  36.939  1.00  0.00     0.060 A 
BRANCH  70  71
ATOM     71  S   UNL A   1      47.564  26.343  37.725  1.00  0.00     0.124 S 
ATOM     72  O   UNL A   1      48.656  27.301  37.579  1.00  0.00    -0.237 OA
ATOM     73  O   UNL A   1      47.070  26.149  39.084  1.00  0.00    -0.237 OA
ATOM     74  O   UNL A   1      47.684  25.128  36.925  1.00  0.00    -0.744 OA
ENDBRANCH  70  71
ENDBRANCH  49  63
BRANCH  50  75
ATOM     75  C   UNL A   1      36.587  33.333  30.997  1.00  0.00     0.058 A 
ATOM     76  C   UNL A   1      35.268  33.167  31.438  1.00  0.00     0.135 A 
ATOM     77  C   UNL A   1      36.807  34.178  29.896  1.00  0.00     0.135 A 
ATOM     78  F   UNL A   1      35.004  32.364  32.480  1.00  0.00    -0.206 F 
ATOM     79  C   UNL A   1      34.203  33.804  30.807  1.00  0.00     0.059 A 
ATOM     80  C   UNL A   1      35.763  34.847  29.267  1.00  0.00     0.059 A 
ATOM     81  F   UNL A   1      38.053  34.381  29.441  1.00  0.00    -0.206 F 
ATOM     82  C   UNL A   1      34.461  34.644  29.723  1.00  0.00     0.060 A 
BRANCH  82  83
ATOM     83  S   UNL A   1      33.080  35.502  28.937  1.00  0.00     0.124 S 
ATOM     84  O   UNL A   1      32.469  34.427  28.164  1.00  0.00    -0.237 OA
ATOM     85  O   UNL A   1      32.316  35.976  30.086  1.00  0.00    -0.237 OA
ATOM     86  O   UNL A   1      33.736  36.548  28.157  1.00  0.00    -0.744 OA
ENDBRANCH  82  83
ENDBRANCH  50  75
BRANCH  62  87
ATOM     87  C   UNL A   1      39.758  34.209  37.141  1.00  0.00     0.058 A 
ATOM     88  C   UNL A   1      38.987  33.914  38.275  1.00  0.00     0.135 A 
ATOM     89  C   UNL A   1      40.377  35.467  37.072  1.00  0.00     0.135 A 
ATOM     90  F   UNL A   1      38.369  32.727  38.384  1.00  0.00    -0.206 F 
ATOM     91  C   UNL A   1      38.812  34.845  39.293  1.00  0.00     0.059 A 
ATOM     92  C   UNL A   1      40.236  36.405  38.089  1.00  0.00     0.059 A 
ATOM     93  F   UNL A   1      41.132  35.792  36.010  1.00  0.00    -0.206 F 
ATOM     94  C   UNL A   1      39.438  36.089  39.189  1.00  0.00     0.060 A 
BRANCH  94  95
ATOM     95  S   UNL A   1      39.222  37.284  40.525  1.00  0.00     0.124 S 
ATOM     96  O   UNL A   1      38.269  38.216  39.931  1.00  0.00    -0.237 OA
ATOM     97  O   UNL A   1      38.704  36.454  41.609  1.00  0.00    -0.237 OA
ATOM     98  O   UNL A   1      40.569  37.807  40.733  1.00  0.00    -0.744 OA
ENDBRANCH  94  95
ENDBRANCH  62  87
ENDBRANCH  36  37
ENDBRANCH  29  31
ENDBRANCH  28  29
ENDBRANCH   1  28
TORSDOF 16
ENDMDL
MODEL 2
REMARK VINA RESULT:     -12.5      6.705     11.916
REMARK SMILES CC(C)=C1[C@H]2CC[C@@H]1[C@@H](C(=O)Nc1cc(C)cc(C)c1)[C@@H]2C(=O)OCCOC(=O)c1ccc(-c2c3nc(c(-c4c(F)cc(S(=O)(=O)[O-])cc4F)c4ccc([nH]4)c(-c4c(F)cc(S(=O)(=O)[O-])cc4F)c4nc(c(-c5c(F)cc(S(=O)(=O)[O-])cc5F)c5ccc2[nH]5)C=C4)C=C3)cc1
REMARK SMILES IDX 26 1 25 2 24 3 22 4 23 5 21 6 1 7 2 8 3 9 4 10 5 11 8 12
REMARK SMILES IDX 6 13 7 14 9 15 10 16 11 17 12 18 13 20 14 21 20 22 15 23
REMARK SMILES IDX 18 24 16 25 17 26 19 27 27 28 28 29 29 30 30 31 31 32 95 33
REMARK SMILES IDX 32 34 94 35 33 36 34 37 35 38 88 39 36 40 93 41 87 42 89 43
REMARK SMILES IDX 37 44 92 45 86 46 85 47 38 49 72 50 51 51 71 52 52 53 55 54
REMARK SMILES IDX 70 55 90 56 53 57 54 58 69 60 91 61 56 62 39 63 40 64 49 65
REMARK SMILES IDX 41 66 42 67 48 68 50 69 43 70 44 71 45 72 46 73 47 74 73 75
REMARK SMILES IDX 74 76 83 77 75 78 76 79 82 80 84 81 77 82 78 83 79 84 80 85
REMARK SMILES IDX 81 86 57 87 58 88 67 89 59 90 60 91 66 92 68 93 61 94 62 95
REMARK SMILES IDX 63 96 64 97 65 98
REMARK H PARENT 12 19 89 48 55 59
REMARK Flexibility Score: inf
ROOT
ATOM      1  C   UNL A   1      34.103  30.937  27.838  1.00  0.00     0.275 C 
ENDROOT
BRANCH   1   2
ATOM      2  C   UNL A   1      32.917  30.116  27.337  1.00  0.00     0.274 C 
BRANCH   2   3
ATOM      3  O   UNL A   1      33.185  28.704  27.445  1.00  0.00    -0.462 OA
BRANCH   3   4
ATOM      4  C   UNL A   1      32.169  27.843  27.182  1.00  0.00     0.310 C 
ATOM      5  O   UNL A   1      31.149  27.754  27.853  1.00  0.00    -0.252 OA
BRANCH   4   6
ATOM      6  C   UNL A   1      32.479  26.895  26.043  1.00  0.00     0.119 C 
ATOM      7  C   UNL A   1      34.424  23.894  23.291  1.00  0.00     0.039 C 
ATOM      8  C   UNL A   1      34.532  24.884  24.409  1.00  0.00    -0.077 C 
ATOM      9  C   UNL A   1      35.465  24.480  25.522  1.00  0.00     0.039 C 
ATOM     10  C   UNL A   1      33.813  26.015  24.461  1.00  0.00    -0.064 C 
ATOM     11  C   UNL A   1      33.894  27.109  25.475  1.00  0.00     0.030 C 
ATOM     12  C   UNL A   1      32.672  26.584  23.643  1.00  0.00     0.029 C 
ATOM     13  C   UNL A   1      34.050  28.322  24.516  1.00  0.00     0.009 C 
ATOM     14  C   UNL A   1      33.324  27.902  23.224  1.00  0.00     0.009 C 
ATOM     15  C   UNL A   1      31.634  26.939  24.759  1.00  0.00     0.101 C 
BRANCH  15  16
ATOM     16  C   UNL A   1      30.309  26.210  24.582  1.00  0.00     0.228 C 
ATOM     17  O   UNL A   1      29.348  26.865  24.147  1.00  0.00    -0.274 OA
ATOM     18  N   UNL A   1      30.057  24.891  24.670  1.00  0.00    -0.326 N 
ATOM     19  H   UNL A   1      29.118  24.665  24.476  1.00  0.00     0.169 HD
BRANCH  18  20
ATOM     20  C   UNL A   1      30.830  23.781  24.976  1.00  0.00     0.041 A 
ATOM     21  C   UNL A   1      31.145  22.807  24.036  1.00  0.00     0.029 A 
ATOM     22  C   UNL A   1      31.456  23.783  26.225  1.00  0.00     0.029 A 
ATOM     23  C   UNL A   1      32.060  21.796  24.364  1.00  0.00    -0.049 A 
ATOM     24  C   UNL A   1      32.333  22.759  26.587  1.00  0.00    -0.049 A 
ATOM     25  C   UNL A   1      32.444  20.748  23.361  1.00  0.00     0.044 C 
ATOM     26  C   UNL A   1      32.628  21.764  25.648  1.00  0.00     0.007 A 
ATOM     27  C   UNL A   1      32.868  22.687  27.985  1.00  0.00     0.044 C 
ENDBRANCH  18  20
ENDBRANCH  15  16
ENDBRANCH   4   6
ENDBRANCH   3   4
ENDBRANCH   2   3
ENDBRANCH   1   2
BRANCH   1  28
ATOM     28  O   UNL A   1      35.168  30.074  28.270  1.00  0.00    -0.458 OA
BRANCH  28  29
ATOM     29  C   UNL A   1      36.121  30.674  29.019  1.00  0.00     0.338 C 
ATOM     30  O   UNL A   1      35.967  31.530  29.870  1.00  0.00    -0.246 OA
BRANCH  29  31
ATOM     31  C   UNL A   1      37.409  30.025  28.755  1.00  0.00     0.060 A 
ATOM     32  C   UNL A   1      38.203  29.704  29.851  1.00  0.00     0.016 A 
ATOM     33  C   UNL A   1      37.885  29.836  27.462  1.00  0.00     0.016 A 
ATOM     34  C   UNL A   1      39.496  29.245  29.675  1.00  0.00     0.010 A 
ATOM     35  C   UNL A   1      39.178  29.332  27.283  1.00  0.00     0.010 A 
ATOM     36  C   UNL A   1      39.999  29.055  28.391  1.00  0.00    -0.014 A 
BRANCH  36  37
ATOM     37  C   UNL A   1      41.410  28.641  28.230  1.00  0.00     0.031 A 
ATOM     38  C   UNL A   1      42.495  29.667  28.368  1.00  0.00     0.074 A 
ATOM     39  C   UNL A   1      41.711  27.346  28.018  1.00  0.00     0.049 A 
ATOM     40  N   UNL A   1      43.760  29.578  28.057  1.00  0.00    -0.248 NA
ATOM     41  C   UNL A   1      42.099  30.974  28.920  1.00  0.00     0.031 C 
ATOM     42  C   UNL A   1      40.746  26.244  27.983  1.00  0.00     0.029 A 
ATOM     43  N   UNL A   1      42.918  26.737  27.797  1.00  0.00    -0.354 N 
ATOM     44  C   UNL A   1      44.302  30.829  28.322  1.00  0.00     0.074 A 
ATOM     45  C   UNL A   1      43.230  31.661  28.824  1.00  0.00     0.031 C 
ATOM     46  C   UNL A   1      41.399  25.093  27.761  1.00  0.00     0.029 A 
ATOM     47  C   UNL A   1      42.812  25.388  27.555  1.00  0.00     0.049 A 
ATOM     48  H   UNL A   1      43.778  27.217  27.809  1.00  0.00     0.167 HD
ATOM     49  C   UNL A   1      45.580  31.238  28.148  1.00  0.00     0.037 A 
ATOM     50  C   UNL A   1      43.743  24.500  27.158  1.00  0.00     0.037 A 
ATOM     51  C   UNL A   1      46.636  30.373  27.690  1.00  0.00     0.049 A 
ATOM     52  C   UNL A   1      45.144  24.989  26.919  1.00  0.00     0.074 A 
ATOM     53  C   UNL A   1      47.964  30.680  27.451  1.00  0.00     0.029 A 
ATOM     54  N   UNL A   1      46.486  29.018  27.424  1.00  0.00    -0.354 N 
ATOM     55  N   UNL A   1      45.632  26.199  27.068  1.00  0.00    -0.248 NA
ATOM     56  C   UNL A   1      46.118  24.002  26.440  1.00  0.00     0.031 C 
ATOM     57  C   UNL A   1      48.609  29.518  27.014  1.00  0.00     0.029 A 
ATOM     58  C   UNL A   1      47.694  28.477  27.020  1.00  0.00     0.049 A 
ATOM     59  H   UNL A   1      45.643  28.517  27.510  1.00  0.00     0.167 HD
ATOM     60  C   UNL A   1      46.973  26.115  26.717  1.00  0.00     0.074 A 
ATOM     61  C   UNL A   1      47.222  24.731  26.363  1.00  0.00     0.031 C 
ATOM     62  C   UNL A   1      47.912  27.092  26.683  1.00  0.00     0.037 A 
BRANCH  49  63
ATOM     63  C   UNL A   1      45.891  32.686  28.405  1.00  0.00     0.058 A 
ATOM     64  C   UNL A   1      45.733  33.671  27.419  1.00  0.00     0.135 A 
ATOM     65  C   UNL A   1      46.336  33.096  29.674  1.00  0.00     0.135 A 
ATOM     66  F   UNL A   1      45.333  33.333  26.183  1.00  0.00    -0.206 F 
ATOM     67  C   UNL A   1      46.023  35.009  27.674  1.00  0.00     0.059 A 
ATOM     68  C   UNL A   1      46.609  34.430  29.958  1.00  0.00     0.059 A 
ATOM     69  F   UNL A   1      46.510  32.194  30.652  1.00  0.00    -0.206 F 
ATOM     70  C   UNL A   1      46.461  35.378  28.947  1.00  0.00     0.060 A 
BRANCH  70  71
ATOM     71  S   UNL A   1      46.822  37.119  29.270  1.00  0.00     0.124 S 
ATOM     72  O   UNL A   1      46.407  37.249  30.664  1.00  0.00    -0.237 OA
ATOM     73  O   UNL A   1      48.260  37.190  29.029  1.00  0.00    -0.237 OA
ATOM     74  O   UNL A   1      45.991  37.825  28.299  1.00  0.00    -0.744 OA
ENDBRANCH  70  71
ENDBRANCH  49  63
BRANCH  50  75
ATOM     75  C   UNL A   1      43.366  23.083  26.913  1.00  0.00     0.058 A 
ATOM     76  C   UNL A   1      43.275  22.573  25.612  1.00  0.00     0.135 A 
ATOM     77  C   UNL A   1      43.104  22.206  27.980  1.00  0.00     0.135 A 
ATOM     78  F   UNL A   1      43.507  23.372  24.560  1.00  0.00    -0.206 F 
ATOM     79  C   UNL A   1      42.925  21.247  25.372  1.00  0.00     0.059 A 
ATOM     80  C   UNL A   1      42.781  20.871  27.766  1.00  0.00     0.059 A 
ATOM     81  F   UNL A   1      43.189  22.641  29.246  1.00  0.00    -0.206 F 
ATOM     82  C   UNL A   1      42.682  20.403  26.457  1.00  0.00     0.060 A 
BRANCH  82  83
ATOM     83  S   UNL A   1      42.273  18.673  26.140  1.00  0.00     0.124 S 
ATOM     84  O   UNL A   1      40.872  18.770  25.746  1.00  0.00    -0.237 OA
ATOM     85  O   UNL A   1      43.212  18.322  25.079  1.00  0.00    -0.237 OA
ATOM     86  O   UNL A   1      42.525  18.028  27.425  1.00  0.00    -0.744 OA
ENDBRANCH  82  83
ENDBRANCH  50  75
BRANCH  62  87
ATOM     87  C   UNL A   1      49.301  26.682  26.290  1.00  0.00     0.058 A 
ATOM     88  C   UNL A   1      49.761  26.809  24.970  1.00  0.00     0.135 A 
ATOM     89  C   UNL A   1      50.193  26.186  27.255  1.00  0.00     0.135 A 
ATOM     90  F   UNL A   1      48.943  27.271  24.011  1.00  0.00    -0.206 F 
ATOM     91  C   UNL A   1      51.050  26.431  24.613  1.00  0.00     0.059 A 
ATOM     92  C   UNL A   1      51.494  25.825  26.925  1.00  0.00     0.059 A 
ATOM     93  F   UNL A   1      49.802  26.055  28.533  1.00  0.00    -0.206 F 
ATOM     94  C   UNL A   1      51.909  25.937  25.598  1.00  0.00     0.060 A 
BRANCH  94  95
ATOM     95  S   UNL A   1      53.588  25.468  25.129  1.00  0.00     0.124 S 
ATOM     96  O   UNL A   1      53.578  24.035  25.406  1.00  0.00    -0.237 OA
ATOM     97  O   UNL A   1      53.636  25.840  23.718  1.00  0.00    -0.237 OA
ATOM     98  O   UNL A   1      54.424  26.275  26.012  1.00  0.00    -0.744 OA
ENDBRANCH  94  95
ENDBRANCH  62  87
ENDBRANCH  36  37
ENDBRANCH  29  31
ENDBRANCH  28  29
ENDBRANCH   1  28
TORSDOF 16
ENDMDL
MODEL 3
REMARK VINA RESULT:     -12.5      6.806     12.012
REMARK SMILES CC(C)=C1[C@H]2CC[C@@H]1[C@@H](C(=O)Nc1cc(C)cc(C)c1)[C@@H]2C(=O)OCCOC(=O)c1ccc(-c2c3nc(c(-c4c(F)cc(S(=O)(=O)[O-])cc4F)c4ccc([nH]4)c(-c4c(F)cc(S(=O)(=O)[O-])cc4F)c4nc(c(-c5c(F)cc(S(=O)(=O)[O-])cc5F)c5ccc2[nH]5)C=C4)C=C3)cc1
REMARK SMILES IDX 26 1 25 2 24 3 22 4 23 5 21 6 1 7 2 8 3 9 4 10 5 11 8 12
REMARK SMILES IDX 6 13 7 14 9 15 10 16 11 17 12 18 13 20 14 21 20 22 15 23
REMARK SMILES IDX 18 24 16 25 17 26 19 27 27 28 28 29 29 30 30 31 31 32 95 33
REMARK SMILES IDX 32 34 94 35 33 36 34 37 35 38 88 39 36 40 93 41 87 42 89 43
REMARK SMILES IDX 37 44 92 45 86 46 85 47 38 49 72 50 51 51 71 52 52 53 55 54
REMARK SMILES IDX 70 55 90 56 53 57 54 58 69 60 91 61 56 62 39 63 40 64 49 65
REMARK SMILES IDX 41 66 42 67 48 68 50 69 43 70 44 71 45 72 46 73 47 74 73 75
REMARK SMILES IDX 74 76 83 77 75 78 76 79 82 80 84 81 77 82 78 83 79 84 80 85
REMARK SMILES IDX 81 86 57 87 58 88 67 89 59 90 60 91 66 92 68 93 61 94 62 95
REMARK SMILES IDX 63 96 64 97 65 98
REMARK H PARENT 12 19 89 48 55 59
REMARK Flexibility Score: inf
ROOT
ATOM      1  C   UNL A   1      34.554  30.893  27.595  1.00  0.00     0.275 C 
ENDROOT
BRANCH   1   2
ATOM      2  C   UNL A   1      33.175  30.335  27.251  1.00  0.00     0.274 C 
BRANCH   2   3
ATOM      3  O   UNL A   1      33.245  28.923  26.975  1.00  0.00    -0.462 OA
BRANCH   3   4
ATOM      4  C   UNL A   1      32.092  28.208  27.018  1.00  0.00     0.310 C 
ATOM      5  O   UNL A   1      31.366  28.129  28.000  1.00  0.00    -0.252 OA
BRANCH   4   6
ATOM      6  C   UNL A   1      31.851  27.400  25.760  1.00  0.00     0.119 C 
ATOM      7  C   UNL A   1      32.143  25.572  21.645  1.00  0.00     0.039 C 
ATOM      8  C   UNL A   1      32.525  26.649  22.613  1.00  0.00    -0.077 C 
ATOM      9  C   UNL A   1      33.961  27.097  22.524  1.00  0.00     0.039 C 
ATOM     10  C   UNL A   1      31.683  27.142  23.533  1.00  0.00    -0.064 C 
ATOM     11  C   UNL A   1      31.922  28.265  24.488  1.00  0.00     0.030 C 
ATOM     12  C   UNL A   1      30.295  26.766  24.009  1.00  0.00     0.029 C 
ATOM     13  C   UNL A   1      30.656  29.115  24.191  1.00  0.00     0.009 C 
ATOM     14  C   UNL A   1      29.591  28.096  23.740  1.00  0.00     0.009 C 
ATOM     15  C   UNL A   1      30.507  26.681  25.557  1.00  0.00     0.101 C 
BRANCH  15  16
ATOM     16  C   UNL A   1      30.178  25.307  26.121  1.00  0.00     0.228 C 
ATOM     17  O   UNL A   1      29.159  25.203  26.822  1.00  0.00    -0.274 OA
ATOM     18  N   UNL A   1      30.747  24.121  25.832  1.00  0.00    -0.326 N 
ATOM     19  H   UNL A   1      30.327  23.367  26.307  1.00  0.00     0.169 HD
BRANCH  18  20
ATOM     20  C   UNL A   1      31.794  23.730  25.012  1.00  0.00     0.041 A 
ATOM     21  C   UNL A   1      33.111  24.103  25.251  1.00  0.00     0.029 A 
ATOM     22  C   UNL A   1      31.500  22.771  24.038  1.00  0.00     0.029 A 
ATOM     23  C   UNL A   1      34.142  23.546  24.480  1.00  0.00    -0.049 A 
ATOM     24  C   UNL A   1      32.506  22.242  23.229  1.00  0.00    -0.049 A 
ATOM     25  C   UNL A   1      35.577  23.904  24.736  1.00  0.00     0.044 C 
ATOM     26  C   UNL A   1      33.829  22.639  23.455  1.00  0.00     0.007 A 
ATOM     27  C   UNL A   1      32.153  21.340  22.086  1.00  0.00     0.044 C 
ENDBRANCH  18  20
ENDBRANCH  15  16
ENDBRANCH   4   6
ENDBRANCH   3   4
ENDBRANCH   2   3
ENDBRANCH   1   2
BRANCH   1  28
ATOM     28  O   UNL A   1      35.481  29.826  27.852  1.00  0.00    -0.458 OA
BRANCH  28  29
ATOM     29  C   UNL A   1      36.013  29.818  29.096  1.00  0.00     0.338 C 
ATOM     30  O   UNL A   1      35.419  29.819  30.158  1.00  0.00    -0.246 OA
BRANCH  29  31
ATOM     31  C   UNL A   1      37.468  29.662  28.988  1.00  0.00     0.060 A 
ATOM     32  C   UNL A   1      38.019  29.645  27.712  1.00  0.00     0.016 A 
ATOM     33  C   UNL A   1      38.264  29.423  30.103  1.00  0.00     0.016 A 
ATOM     34  C   UNL A   1      39.355  29.336  27.525  1.00  0.00     0.010 A 
ATOM     35  C   UNL A   1      39.624  29.151  29.918  1.00  0.00     0.010 A 
ATOM     36  C   UNL A   1      40.172  29.084  28.624  1.00  0.00    -0.014 A 
BRANCH  36  37
ATOM     37  C   UNL A   1      41.575  28.677  28.393  1.00  0.00     0.031 A 
ATOM     38  C   UNL A   1      42.662  29.704  28.500  1.00  0.00     0.074 A 
ATOM     39  C   UNL A   1      41.870  27.387  28.148  1.00  0.00     0.049 A 
ATOM     40  N   UNL A   1      43.913  29.624  28.132  1.00  0.00    -0.248 NA
ATOM     41  C   UNL A   1      42.288  31.001  29.090  1.00  0.00     0.031 C 
ATOM     42  C   UNL A   1      40.907  26.282  28.138  1.00  0.00     0.029 A 
ATOM     43  N   UNL A   1      43.067  26.784  27.865  1.00  0.00    -0.354 N 
ATOM     44  C   UNL A   1      44.463  30.872  28.393  1.00  0.00     0.074 A 
ATOM     45  C   UNL A   1      43.412  31.693  28.955  1.00  0.00     0.031 C 
ATOM     46  C   UNL A   1      41.552  25.137  27.869  1.00  0.00     0.029 A 
ATOM     47  C   UNL A   1      42.954  25.439  27.606  1.00  0.00     0.049 A 
ATOM     48  H   UNL A   1      43.925  27.267  27.847  1.00  0.00     0.167 HD
ATOM     49  C   UNL A   1      45.731  31.288  28.169  1.00  0.00     0.037 A 
ATOM     50  C   UNL A   1      43.869  24.561  27.155  1.00  0.00     0.037 A 
ATOM     51  C   UNL A   1      46.768  30.433  27.652  1.00  0.00     0.049 A 
ATOM     52  C   UNL A   1      45.257  25.058  26.862  1.00  0.00     0.074 A 
ATOM     53  C   UNL A   1      48.083  30.748  27.359  1.00  0.00     0.029 A 
ATOM     54  N   UNL A   1      46.610  29.082  27.371  1.00  0.00    -0.354 N 
ATOM     55  N   UNL A   1      45.747  26.267  27.008  1.00  0.00    -0.248 NA
ATOM     56  C   UNL A   1      46.211  24.081  26.325  1.00  0.00     0.031 C 
ATOM     57  C   UNL A   1      48.711  29.596  26.876  1.00  0.00     0.029 A 
ATOM     58  C   UNL A   1      47.800  28.551  26.906  1.00  0.00     0.049 A 
ATOM     59  H   UNL A   1      45.773  28.577  27.486  1.00  0.00     0.167 HD
ATOM     60  C   UNL A   1      47.072  26.192  26.597  1.00  0.00     0.074 A 
ATOM     61  C   UNL A   1      47.309  24.815  26.211  1.00  0.00     0.031 C 
ATOM     62  C   UNL A   1      48.006  27.172  26.538  1.00  0.00     0.037 A 
BRANCH  49  63
ATOM     63  C   UNL A   1      46.050  32.733  28.435  1.00  0.00     0.058 A 
ATOM     64  C   UNL A   1      46.543  33.174  29.672  1.00  0.00     0.135 A 
ATOM     65  C   UNL A   1      45.878  33.689  27.420  1.00  0.00     0.135 A 
ATOM     66  F   UNL A   1      46.706  32.308  30.684  1.00  0.00    -0.206 F 
ATOM     67  C   UNL A   1      46.837  34.517  29.900  1.00  0.00     0.059 A 
ATOM     68  C   UNL A   1      46.187  35.031  27.619  1.00  0.00     0.059 A 
ATOM     69  F   UNL A   1      45.403  33.322  26.219  1.00  0.00    -0.206 F 
ATOM     70  C   UNL A   1      46.654  35.437  28.867  1.00  0.00     0.060 A 
BRANCH  70  71
ATOM     71  S   UNL A   1      47.049  37.174  29.172  1.00  0.00     0.124 S 
ATOM     72  O   UNL A   1      45.786  37.823  28.833  1.00  0.00    -0.237 OA
ATOM     73  O   UNL A   1      47.400  37.172  30.588  1.00  0.00    -0.237 OA
ATOM     74  O   UNL A   1      48.155  37.436  28.256  1.00  0.00    -0.744 OA
ENDBRANCH  70  71
ENDBRANCH  49  63
BRANCH  50  75
ATOM     75  C   UNL A   1      43.485  23.146  26.904  1.00  0.00     0.058 A 
ATOM     76  C   UNL A   1      43.314  22.663  25.601  1.00  0.00     0.135 A 
ATOM     77  C   UNL A   1      43.295  22.246  27.966  1.00  0.00     0.135 A 
ATOM     78  F   UNL A   1      43.476  23.485  24.553  1.00  0.00    -0.206 F 
ATOM     79  C   UNL A   1      42.958  21.340  25.355  1.00  0.00     0.059 A 
ATOM     80  C   UNL A   1      42.966  20.913  27.746  1.00  0.00     0.059 A 
ATOM     81  F   UNL A   1      43.457  22.655  29.234  1.00  0.00    -0.206 F 
ATOM     82  C   UNL A   1      42.788  20.471  26.435  1.00  0.00     0.060 A 
BRANCH  82  83
ATOM     83  S   UNL A   1      42.369  18.745  26.108  1.00  0.00     0.124 S 
ATOM     84  O   UNL A   1      40.959  18.849  25.751  1.00  0.00    -0.237 OA
ATOM     85  O   UNL A   1      43.281  18.406  25.020  1.00  0.00    -0.237 OA
ATOM     86  O   UNL A   1      42.653  18.085  27.379  1.00  0.00    -0.744 OA
ENDBRANCH  82  83
ENDBRANCH  50  75
BRANCH  62  87
ATOM     87  C   UNL A   1      49.378  26.774  26.077  1.00  0.00     0.058 A 
ATOM     88  C   UNL A   1      50.296  26.159  26.942  1.00  0.00     0.135 A 
ATOM     89  C   UNL A   1      49.765  26.982  24.744  1.00  0.00     0.135 A 
ATOM     90  F   UNL A   1      49.975  25.946  28.228  1.00  0.00    -0.206 F 
ATOM     91  C   UNL A   1      51.564  25.789  26.508  1.00  0.00     0.059 A 
ATOM     92  C   UNL A   1      51.018  26.598  24.281  1.00  0.00     0.059 A 
ATOM     93  F   UNL A   1      48.918  27.558  23.875  1.00  0.00    -0.206 F 
ATOM     94  C   UNL A   1      51.917  26.015  25.176  1.00  0.00     0.060 A 
BRANCH  94  95
ATOM     95  S   UNL A   1      53.558  25.514  24.616  1.00  0.00     0.124 S 
ATOM     96  O   UNL A   1      53.533  24.080  24.885  1.00  0.00    -0.237 OA
ATOM     97  O   UNL A   1      53.539  25.894  23.206  1.00  0.00    -0.237 OA
ATOM     98  O   UNL A   1      54.458  26.297  25.457  1.00  0.00    -0.744 OA
ENDBRANCH  94  95
ENDBRANCH  62  87
ENDBRANCH  36  37
ENDBRANCH  29  31
ENDBRANCH  28  29
ENDBRANCH   1  28
TORSDOF 16
ENDMDL
