MODEL 1
REMARK VINA RESULT:     -13.3      0.000      0.000
REMARK SMILES Cc1c(-c2nn(-c3ccccc3)cc2/C=N/O)nnn1-c1ccc(C(=O)OCCOC(=O)c2ccc(-c3c4nc(c(-c5c(F)cc(S(=O)(=O)[O-])cc5F)c5ccc([nH]5)c(-c5c(F)cc(S(=O)(=O)[O-])cc5F)c5nc(c(-c6c(F)cc(S(=O)(=O)[O-])cc6F)c6ccc3[nH]6)C=C5)C=C4)cc2)cc1
REMARK SMILES IDX 28 1 27 2 25 3 26 4 24 5 21 6 22 7 100 8 23 9 99 10 20 11
REMARK SMILES IDX 1 12 2 13 3 14 18 15 19 16 4 17 5 18 14 19 6 20 13 21 15 22
REMARK SMILES IDX 16 23 17 24 7 26 8 27 12 28 9 29 11 30 10 31 29 32 30 33
REMARK SMILES IDX 31 34 32 35 33 36 34 37 98 38 35 39 97 40 36 41 37 42 38 43
REMARK SMILES IDX 91 44 39 45 96 46 90 47 92 48 40 49 95 50 89 51 88 52 41 54
REMARK SMILES IDX 75 55 54 56 74 57 55 58 58 59 73 60 93 61 56 62 57 63 72 65
REMARK SMILES IDX 94 66 59 67 42 68 43 69 52 70 44 71 45 72 51 73 53 74 46 75
REMARK SMILES IDX 47 76 48 77 49 78 50 79 76 80 77 81 86 82 78 83 79 84 85 85
REMARK SMILES IDX 87 86 80 87 81 88 82 89 83 90 84 91 60 92 61 93 70 94 62 95
REMARK SMILES IDX 63 96 69 97 71 98 64 99 65 100 66 101 67 102 68 103
REMARK H PARENT 17 25 92 53 58 64
REMARK Flexibility Score: inf
ROOT
ATOM      1  C   UNL A   1      43.423  18.652  25.733  1.00  0.00     0.275 C 
ENDROOT
BRANCH   1   2
ATOM      2  O   UNL A   1      42.143  19.245  25.450  1.00  0.00    -0.458 OA
BRANCH   2   3
ATOM      3  C   UNL A   1      41.468  19.732  26.523  1.00  0.00     0.338 C 
ATOM      4  O   UNL A   1      41.865  19.756  27.680  1.00  0.00    -0.246 OA
BRANCH   3   5
ATOM      5  C   UNL A   1      40.170  20.315  26.105  1.00  0.00     0.060 A 
ATOM      6  C   UNL A   1      37.826  21.402  25.062  1.00  0.00     0.067 A 
ATOM      7  C   UNL A   1      38.048  20.026  24.953  1.00  0.00     0.029 A 
ATOM      8  C   UNL A   1      38.712  22.212  25.786  1.00  0.00     0.029 A 
ATOM      9  C   UNL A   1      39.240  19.492  25.449  1.00  0.00     0.018 A 
ATOM     10  C   UNL A   1      39.876  21.664  26.324  1.00  0.00     0.018 A 
BRANCH   6  11
ATOM     11  N   UNL A   1      36.756  21.989  24.354  1.00  0.00    -0.217 N 
ATOM     12  C   UNL A   1      34.923  21.675  26.085  1.00  0.00     0.069 C 
ATOM     13  C   UNL A   1      35.432  22.069  24.751  1.00  0.00     0.071 A 
ATOM     14  C   UNL A   1      34.824  22.713  23.693  1.00  0.00     0.137 A 
ATOM     15  N   UNL A   1      35.754  23.080  22.767  1.00  0.00    -0.128 NA
ATOM     16  N   UNL A   1      36.946  22.703  23.219  1.00  0.00    -0.061 NA
BRANCH  14  17
ATOM     17  C   UNL A   1      33.425  23.109  23.573  1.00  0.00     0.124 A 
ATOM     18  N   UNL A   1      33.072  24.384  23.372  1.00  0.00    -0.165 NA
ATOM     19  C   UNL A   1      32.308  22.255  23.717  1.00  0.00     0.044 A 
ATOM     20  N   UNL A   1      31.728  24.385  23.479  1.00  0.00    -0.240 N 
ATOM     21  C   UNL A   1      31.229  23.121  23.693  1.00  0.00     0.125 A 
BRANCH  19  22
ATOM     22  C   UNL A   1      32.211  20.826  23.874  1.00  0.00     0.166 C 
ATOM     23  N   UNL A   1      32.001  20.315  25.040  1.00  0.00    -0.097 NA
BRANCH  23  24
ATOM     24  O   UNL A   1      31.984  18.918  24.940  1.00  0.00    -0.411 OA
ATOM     25  H   UNL A   1      32.481  18.491  24.270  1.00  0.00     0.330 HD
ENDBRANCH  23  24
ENDBRANCH  19  22
BRANCH  20  26
ATOM     26  C   UNL A   1      31.001  25.598  23.409  1.00  0.00     0.065 A 
ATOM     27  C   UNL A   1      29.694  25.641  23.912  1.00  0.00     0.028 A 
ATOM     28  C   UNL A   1      31.567  26.737  22.822  1.00  0.00     0.028 A 
ATOM     29  C   UNL A   1      28.964  26.827  23.852  1.00  0.00     0.002 A 
ATOM     30  C   UNL A   1      30.809  27.906  22.720  1.00  0.00     0.002 A 
ATOM     31  C   UNL A   1      29.516  27.955  23.243  1.00  0.00     0.000 A 
ENDBRANCH  20  26
ENDBRANCH  14  17
ENDBRANCH   6  11
ENDBRANCH   3   5
ENDBRANCH   2   3
ENDBRANCH   1   2
BRANCH   1  32
ATOM     32  C   UNL A   1      44.507  19.203  24.817  1.00  0.00     0.275 C 
BRANCH  32  33
ATOM     33  O   UNL A   1      44.952  20.484  25.255  1.00  0.00    -0.458 OA
BRANCH  33  34
ATOM     34  C   UNL A   1      44.419  21.530  24.584  1.00  0.00     0.338 C 
ATOM     35  O   UNL A   1      44.608  21.828  23.416  1.00  0.00    -0.246 OA
BRANCH  34  36
ATOM     36  C   UNL A   1      43.753  22.421  25.537  1.00  0.00     0.060 A 
ATOM     37  C   UNL A   1      42.912  23.402  25.002  1.00  0.00     0.016 A 
ATOM     38  C   UNL A   1      44.215  22.475  26.859  1.00  0.00     0.016 A 
ATOM     39  C   UNL A   1      42.693  24.545  25.736  1.00  0.00     0.010 A 
ATOM     40  C   UNL A   1      44.009  23.623  27.583  1.00  0.00     0.010 A 
ATOM     41  C   UNL A   1      43.320  24.673  26.978  1.00  0.00    -0.014 A 
BRANCH  41  42
ATOM     42  C   UNL A   1      43.180  25.926  27.686  1.00  0.00     0.031 A 
ATOM     43  C   UNL A   1      44.266  26.888  27.388  1.00  0.00     0.074 A 
ATOM     44  C   UNL A   1      42.078  26.209  28.405  1.00  0.00     0.049 A 
ATOM     45  N   UNL A   1      45.135  27.389  28.202  1.00  0.00    -0.248 NA
ATOM     46  C   UNL A   1      44.519  27.201  25.970  1.00  0.00     0.031 C 
ATOM     47  C   UNL A   1      40.836  25.436  28.497  1.00  0.00     0.029 A 
ATOM     48  N   UNL A   1      41.787  27.330  29.112  1.00  0.00    -0.354 N 
ATOM     49  C   UNL A   1      45.905  28.255  27.432  1.00  0.00     0.074 A 
ATOM     50  C   UNL A   1      45.619  27.947  26.057  1.00  0.00     0.031 C 
ATOM     51  C   UNL A   1      39.862  26.224  29.005  1.00  0.00     0.029 A 
ATOM     52  C   UNL A   1      40.436  27.506  29.373  1.00  0.00     0.049 A 
ATOM     53  H   UNL A   1      42.477  27.965  29.413  1.00  0.00     0.167 HD
ATOM     54  C   UNL A   1      46.522  29.335  27.983  1.00  0.00     0.037 A 
ATOM     55  C   UNL A   1      39.844  28.667  29.757  1.00  0.00     0.037 A 
ATOM     56  C   UNL A   1      46.644  29.199  29.411  1.00  0.00     0.049 A 
ATOM     57  C   UNL A   1      40.920  29.552  30.288  1.00  0.00     0.074 A 
ATOM     58  C   UNL A   1      47.240  28.266  30.240  1.00  0.00     0.029 A 
ATOM     59  N   UNL A   1      45.770  29.901  30.206  1.00  0.00    -0.354 N 
ATOM     60  N   UNL A   1      41.593  29.307  31.381  1.00  0.00    -0.248 NA
ATOM     61  C   UNL A   1      41.573  30.460  29.353  1.00  0.00     0.031 C 
ATOM     62  C   UNL A   1      46.352  28.133  31.345  1.00  0.00     0.029 A 
ATOM     63  C   UNL A   1      45.301  29.033  31.159  1.00  0.00     0.049 A 
ATOM     64  H   UNL A   1      45.526  30.850  30.109  1.00  0.00     0.167 HD
ATOM     65  C   UNL A   1      42.900  29.675  31.091  1.00  0.00     0.074 A 
ATOM     66  C   UNL A   1      42.810  30.455  29.859  1.00  0.00     0.031 C 
ATOM     67  C   UNL A   1      43.963  29.079  31.709  1.00  0.00     0.037 A 
BRANCH  54  68
ATOM     68  C   UNL A   1      46.670  30.655  27.270  1.00  0.00     0.058 A 
ATOM     69  C   UNL A   1      47.944  31.247  27.174  1.00  0.00     0.135 A 
ATOM     70  C   UNL A   1      45.580  31.490  26.928  1.00  0.00     0.135 A 
ATOM     71  F   UNL A   1      49.047  30.549  27.484  1.00  0.00    -0.206 F 
ATOM     72  C   UNL A   1      48.116  32.590  26.836  1.00  0.00     0.059 A 
ATOM     73  C   UNL A   1      45.734  32.810  26.532  1.00  0.00     0.059 A 
ATOM     74  F   UNL A   1      44.306  31.101  27.061  1.00  0.00    -0.206 F 
ATOM     75  C   UNL A   1      47.000  33.367  26.535  1.00  0.00     0.060 A 
BRANCH  75  76
ATOM     76  S   UNL A   1      47.201  35.128  26.228  1.00  0.00     0.124 S 
ATOM     77  O   UNL A   1      48.234  35.126  25.198  1.00  0.00    -0.237 OA
ATOM     78  O   UNL A   1      45.862  35.515  25.794  1.00  0.00    -0.237 OA
ATOM     79  O   UNL A   1      47.607  35.651  27.529  1.00  0.00    -0.744 OA
ENDBRANCH  75  76
ENDBRANCH  54  68
BRANCH  55  80
ATOM     80  C   UNL A   1      38.505  29.174  29.343  1.00  0.00     0.058 A 
ATOM     81  C   UNL A   1      37.502  29.446  30.289  1.00  0.00     0.135 A 
ATOM     82  C   UNL A   1      38.261  29.646  28.035  1.00  0.00     0.135 A 
ATOM     83  F   UNL A   1      37.656  29.060  31.565  1.00  0.00    -0.206 F 
ATOM     84  C   UNL A   1      36.349  30.176  29.969  1.00  0.00     0.059 A 
ATOM     85  C   UNL A   1      37.116  30.359  27.689  1.00  0.00     0.059 A 
ATOM     86  F   UNL A   1      39.176  29.512  27.064  1.00  0.00    -0.206 F 
ATOM     87  C   UNL A   1      36.173  30.644  28.668  1.00  0.00     0.060 A 
BRANCH  87  88
ATOM     88  S   UNL A   1      34.776  31.726  28.282  1.00  0.00     0.124 S 
ATOM     89  O   UNL A   1      33.865  30.813  27.602  1.00  0.00    -0.237 OA
ATOM     90  O   UNL A   1      34.359  32.175  29.606  1.00  0.00    -0.237 OA
ATOM     91  O   UNL A   1      35.371  32.759  27.436  1.00  0.00    -0.744 OA
ENDBRANCH  87  88
ENDBRANCH  55  80
BRANCH  67  92
ATOM     92  C   UNL A   1      43.699  28.203  32.908  1.00  0.00     0.058 A 
ATOM     93  C   UNL A   1      43.466  28.688  34.207  1.00  0.00     0.135 A 
ATOM     94  C   UNL A   1      43.504  26.829  32.696  1.00  0.00     0.135 A 
ATOM     95  F   UNL A   1      43.520  30.000  34.474  1.00  0.00    -0.206 F 
ATOM     96  C   UNL A   1      43.101  27.841  35.255  1.00  0.00     0.059 A 
ATOM     97  C   UNL A   1      43.107  25.972  33.719  1.00  0.00     0.059 A 
ATOM     98  F   UNL A   1      43.643  26.312  31.464  1.00  0.00    -0.206 F 
ATOM     99  C   UNL A   1      42.921  26.482  35.001  1.00  0.00     0.060 A 
BRANCH  99 100
ATOM    100  S   UNL A   1      42.371  25.403  36.341  1.00  0.00     0.124 S 
ATOM    101  O   UNL A   1      42.145  24.141  35.644  1.00  0.00    -0.237 OA
ATOM    102  O   UNL A   1      43.507  25.426  37.258  1.00  0.00    -0.237 OA
ATOM    103  O   UNL A   1      41.167  26.064  36.839  1.00  0.00    -0.744 OA
ENDBRANCH  99 100
ENDBRANCH  67  92
ENDBRANCH  41  42
ENDBRANCH  34  36
ENDBRANCH  33  34
ENDBRANCH  32  33
ENDBRANCH   1  32
TORSDOF 19
ENDMDL
MODEL 2
REMARK VINA RESULT:     -12.9      1.228      1.876
REMARK SMILES Cc1c(-c2nn(-c3ccccc3)cc2/C=N/O)nnn1-c1ccc(C(=O)OCCOC(=O)c2ccc(-c3c4nc(c(-c5c(F)cc(S(=O)(=O)[O-])cc5F)c5ccc([nH]5)c(-c5c(F)cc(S(=O)(=O)[O-])cc5F)c5nc(c(-c6c(F)cc(S(=O)(=O)[O-])cc6F)c6ccc3[nH]6)C=C5)C=C4)cc2)cc1
REMARK SMILES IDX 28 1 27 2 25 3 26 4 24 5 21 6 22 7 100 8 23 9 99 10 20 11
REMARK SMILES IDX 1 12 2 13 3 14 18 15 19 16 4 17 5 18 14 19 6 20 13 21 15 22
REMARK SMILES IDX 16 23 17 24 7 26 8 27 12 28 9 29 11 30 10 31 29 32 30 33
REMARK SMILES IDX 31 34 32 35 33 36 34 37 98 38 35 39 97 40 36 41 37 42 38 43
REMARK SMILES IDX 91 44 39 45 96 46 90 47 92 48 40 49 95 50 89 51 88 52 41 54
REMARK SMILES IDX 75 55 54 56 74 57 55 58 58 59 73 60 93 61 56 62 57 63 72 65
REMARK SMILES IDX 94 66 59 67 42 68 43 69 52 70 44 71 45 72 51 73 53 74 46 75
REMARK SMILES IDX 47 76 48 77 49 78 50 79 76 80 77 81 86 82 78 83 79 84 85 85
REMARK SMILES IDX 87 86 80 87 81 88 82 89 83 90 84 91 60 92 61 93 70 94 62 95
REMARK SMILES IDX 63 96 69 97 71 98 64 99 65 100 66 101 67 102 68 103
REMARK H PARENT 17 25 92 53 58 64
REMARK Flexibility Score: inf
ROOT
ATOM      1  C   UNL A   1      40.923  19.648  26.917  1.00  0.00     0.275 C 
ENDROOT
BRANCH   1   2
ATOM      2  O   UNL A   1      39.907  20.303  26.139  1.00  0.00    -0.458 OA
BRANCH   2   3
ATOM      3  C   UNL A   1      39.611  21.577  26.505  1.00  0.00     0.338 C 
ATOM      4  O   UNL A   1      40.214  22.253  27.327  1.00  0.00    -0.246 OA
BRANCH   3   5
ATOM      5  C   UNL A   1      38.469  22.097  25.716  1.00  0.00     0.060 A 
ATOM      6  C   UNL A   1      36.176  23.065  24.464  1.00  0.00     0.067 A 
ATOM      7  C   UNL A   1      36.941  23.931  25.251  1.00  0.00     0.029 A 
ATOM      8  C   UNL A   1      36.612  21.758  24.211  1.00  0.00     0.029 A 
ATOM      9  C   UNL A   1      38.072  23.432  25.902  1.00  0.00     0.018 A 
ATOM     10  C   UNL A   1      37.770  21.279  24.823  1.00  0.00     0.018 A 
BRANCH   6  11
ATOM     11  N   UNL A   1      34.908  23.484  24.007  1.00  0.00    -0.217 N 
ATOM     12  C   UNL A   1      34.166  24.793  26.054  1.00  0.00     0.069 C 
ATOM     13  C   UNL A   1      33.956  24.199  24.713  1.00  0.00     0.071 A 
ATOM     14  C   UNL A   1      32.918  24.318  23.812  1.00  0.00     0.137 A 
ATOM     15  N   UNL A   1      33.276  23.788  22.608  1.00  0.00    -0.128 NA
ATOM     16  N   UNL A   1      34.526  23.351  22.714  1.00  0.00    -0.061 NA
BRANCH  14  17
ATOM     17  C   UNL A   1      31.652  25.019  23.995  1.00  0.00     0.124 A 
ATOM     18  N   UNL A   1      31.294  26.037  23.204  1.00  0.00    -0.165 NA
ATOM     19  C   UNL A   1      30.713  24.778  25.024  1.00  0.00     0.044 A 
ATOM     20  N   UNL A   1      30.170  26.526  23.767  1.00  0.00    -0.240 N 
ATOM     21  C   UNL A   1      29.791  25.798  24.871  1.00  0.00     0.125 A 
BRANCH  19  22
ATOM     22  C   UNL A   1      30.651  23.760  26.042  1.00  0.00     0.166 C 
ATOM     23  N   UNL A   1      29.737  23.808  26.952  1.00  0.00    -0.097 NA
BRANCH  23  24
ATOM     24  O   UNL A   1      29.909  22.737  27.839  1.00  0.00    -0.411 OA
ATOM     25  H   UNL A   1      29.561  22.789  28.708  1.00  0.00     0.330 HD
ENDBRANCH  23  24
ENDBRANCH  19  22
BRANCH  20  26
ATOM     26  C   UNL A   1      29.547  27.684  23.243  1.00  0.00     0.065 A 
ATOM     27  C   UNL A   1      30.336  28.664  22.625  1.00  0.00     0.028 A 
ATOM     28  C   UNL A   1      28.164  27.866  23.361  1.00  0.00     0.028 A 
ATOM     29  C   UNL A   1      29.738  29.810  22.103  1.00  0.00     0.002 A 
ATOM     30  C   UNL A   1      27.580  29.041  22.880  1.00  0.00     0.002 A 
ATOM     31  C   UNL A   1      28.364  30.005  22.243  1.00  0.00     0.000 A 
ENDBRANCH  20  26
ENDBRANCH  14  17
ENDBRANCH   6  11
ENDBRANCH   3   5
ENDBRANCH   2   3
ENDBRANCH   1   2
BRANCH   1  32
ATOM     32  C   UNL A   1      42.159  19.348  26.080  1.00  0.00     0.275 C 
BRANCH  32  33
ATOM     33  O   UNL A   1      43.195  20.294  26.330  1.00  0.00    -0.458 OA
BRANCH  33  34
ATOM     34  C   UNL A   1      43.746  20.838  25.222  1.00  0.00     0.338 C 
ATOM     35  O   UNL A   1      44.190  20.245  24.253  1.00  0.00    -0.246 OA
BRANCH  34  36
ATOM     36  C   UNL A   1      43.962  22.269  25.449  1.00  0.00     0.060 A 
ATOM     37  C   UNL A   1      44.933  22.620  26.392  1.00  0.00     0.016 A 
ATOM     38  C   UNL A   1      43.006  23.185  24.987  1.00  0.00     0.016 A 
ATOM     39  C   UNL A   1      44.822  23.839  27.021  1.00  0.00     0.010 A 
ATOM     40  C   UNL A   1      42.888  24.394  25.627  1.00  0.00     0.010 A 
ATOM     41  C   UNL A   1      43.747  24.667  26.689  1.00  0.00    -0.014 A 
BRANCH  41  42
ATOM     42  C   UNL A   1      43.573  25.891  27.441  1.00  0.00     0.031 A 
ATOM     43  C   UNL A   1      44.626  26.896  27.170  1.00  0.00     0.074 A 
ATOM     44  C   UNL A   1      42.467  26.115  28.175  1.00  0.00     0.049 A 
ATOM     45  N   UNL A   1      45.484  27.395  27.995  1.00  0.00    -0.248 NA
ATOM     46  C   UNL A   1      44.860  27.265  25.762  1.00  0.00     0.031 C 
ATOM     47  C   UNL A   1      41.251  25.301  28.248  1.00  0.00     0.029 A 
ATOM     48  N   UNL A   1      42.147  27.202  28.922  1.00  0.00    -0.354 N 
ATOM     49  C   UNL A   1      46.222  28.311  27.251  1.00  0.00     0.074 A 
ATOM     50  C   UNL A   1      45.937  28.041  25.869  1.00  0.00     0.031 C 
ATOM     51  C   UNL A   1      40.256  26.040  28.788  1.00  0.00     0.029 A 
ATOM     52  C   UNL A   1      40.792  27.327  29.197  1.00  0.00     0.049 A 
ATOM     53  H   UNL A   1      42.818  27.847  29.241  1.00  0.00     0.167 HD
ATOM     54  C   UNL A   1      46.809  29.390  27.836  1.00  0.00     0.037 A 
ATOM     55  C   UNL A   1      40.167  28.454  29.623  1.00  0.00     0.037 A 
ATOM     56  C   UNL A   1      46.945  29.209  29.257  1.00  0.00     0.049 A 
ATOM     57  C   UNL A   1      41.219  29.354  30.178  1.00  0.00     0.074 A 
ATOM     58  C   UNL A   1      47.575  28.268  30.050  1.00  0.00     0.029 A 
ATOM     59  N   UNL A   1      46.055  29.857  30.080  1.00  0.00    -0.354 N 
ATOM     60  N   UNL A   1      41.906  29.093  31.258  1.00  0.00    -0.248 NA
ATOM     61  C   UNL A   1      41.837  30.313  29.271  1.00  0.00     0.031 C 
ATOM     62  C   UNL A   1      46.699  28.070  31.156  1.00  0.00     0.029 A 
ATOM     63  C   UNL A   1      45.619  28.942  31.006  1.00  0.00     0.049 A 
ATOM     64  H   UNL A   1      45.781  30.800  30.018  1.00  0.00     0.167 HD
ATOM     65  C   UNL A   1      43.200  29.511  30.974  1.00  0.00     0.074 A 
ATOM     66  C   UNL A   1      43.077  30.329  29.770  1.00  0.00     0.031 C 
ATOM     67  C   UNL A   1      44.284  28.927  31.565  1.00  0.00     0.037 A 
BRANCH  54  68
ATOM     68  C   UNL A   1      46.911  30.738  27.167  1.00  0.00     0.058 A 
ATOM     69  C   UNL A   1      48.160  31.386  27.111  1.00  0.00     0.135 A 
ATOM     70  C   UNL A   1      45.792  31.536  26.834  1.00  0.00     0.135 A 
ATOM     71  F   UNL A   1      49.287  30.726  27.418  1.00  0.00    -0.206 F 
ATOM     72  C   UNL A   1      48.279  32.746  26.820  1.00  0.00     0.059 A 
ATOM     73  C   UNL A   1      45.896  32.874  26.482  1.00  0.00     0.059 A 
ATOM     74  F   UNL A   1      44.535  31.090  26.933  1.00  0.00    -0.206 F 
ATOM     75  C   UNL A   1      47.137  33.483  26.524  1.00  0.00     0.060 A 
BRANCH  75  76
ATOM     76  S   UNL A   1      47.266  35.261  26.277  1.00  0.00     0.124 S 
ATOM     77  O   UNL A   1      48.324  35.337  25.275  1.00  0.00    -0.237 OA
ATOM     78  O   UNL A   1      45.923  35.602  25.820  1.00  0.00    -0.237 OA
ATOM     79  O   UNL A   1      47.616  35.759  27.604  1.00  0.00    -0.744 OA
ENDBRANCH  75  76
ENDBRANCH  54  68
BRANCH  55  80
ATOM     80  C   UNL A   1      38.810  28.933  29.234  1.00  0.00     0.058 A 
ATOM     81  C   UNL A   1      37.805  29.142  30.195  1.00  0.00     0.135 A 
ATOM     82  C   UNL A   1      38.544  29.442  27.945  1.00  0.00     0.135 A 
ATOM     83  F   UNL A   1      37.981  28.718  31.456  1.00  0.00    -0.206 F 
ATOM     84  C   UNL A   1      36.628  29.846  29.907  1.00  0.00     0.059 A 
ATOM     85  C   UNL A   1      37.374  30.130  27.630  1.00  0.00     0.059 A 
ATOM     86  F   UNL A   1      39.455  29.369  26.965  1.00  0.00    -0.206 F 
ATOM     87  C   UNL A   1      36.429  30.352  28.623  1.00  0.00     0.060 A 
BRANCH  87  88
ATOM     88  S   UNL A   1      34.998  31.402  28.283  1.00  0.00     0.124 S 
ATOM     89  O   UNL A   1      34.100  30.478  27.598  1.00  0.00    -0.237 OA
ATOM     90  O   UNL A   1      34.591  31.813  29.621  1.00  0.00    -0.237 OA
ATOM     91  O   UNL A   1      35.549  32.468  27.448  1.00  0.00    -0.744 OA
ENDBRANCH  87  88
ENDBRANCH  55  80
BRANCH  67  92
ATOM     92  C   UNL A   1      44.055  28.003  32.734  1.00  0.00     0.058 A 
ATOM     93  C   UNL A   1      43.859  28.436  34.059  1.00  0.00     0.135 A 
ATOM     94  C   UNL A   1      43.857  26.639  32.473  1.00  0.00     0.135 A 
ATOM     95  F   UNL A   1      43.918  29.736  34.376  1.00  0.00    -0.206 F 
ATOM     96  C   UNL A   1      43.524  27.546  35.081  1.00  0.00     0.059 A 
ATOM     97  C   UNL A   1      43.491  25.740  33.472  1.00  0.00     0.059 A 
ATOM     98  F   UNL A   1      43.961  26.172  31.218  1.00  0.00    -0.206 F 
ATOM     99  C   UNL A   1      43.340  26.198  34.778  1.00  0.00     0.060 A 
BRANCH  99 100
ATOM    100  S   UNL A   1      42.830  25.064  36.088  1.00  0.00     0.124 S 
ATOM    101  O   UNL A   1      42.066  24.065  35.348  1.00  0.00    -0.237 OA
ATOM    102  O   UNL A   1      44.106  24.611  36.634  1.00  0.00    -0.237 OA
ATOM    103  O   UNL A   1      42.045  25.910  36.984  1.00  0.00    -0.744 OA
ENDBRANCH  99 100
ENDBRANCH  67  92
ENDBRANCH  41  42
ENDBRANCH  34  36
ENDBRANCH  33  34
ENDBRANCH  32  33
ENDBRANCH   1  32
TORSDOF 19
ENDMDL
MODEL 3
REMARK VINA RESULT:     -12.9      3.129     10.231
REMARK SMILES Cc1c(-c2nn(-c3ccccc3)cc2/C=N/O)nnn1-c1ccc(C(=O)OCCOC(=O)c2ccc(-c3c4nc(c(-c5c(F)cc(S(=O)(=O)[O-])cc5F)c5ccc([nH]5)c(-c5c(F)cc(S(=O)(=O)[O-])cc5F)c5nc(c(-c6c(F)cc(S(=O)(=O)[O-])cc6F)c6ccc3[nH]6)C=C5)C=C4)cc2)cc1
REMARK SMILES IDX 28 1 27 2 25 3 26 4 24 5 21 6 22 7 100 8 23 9 99 10 20 11
REMARK SMILES IDX 1 12 2 13 3 14 18 15 19 16 4 17 5 18 14 19 6 20 13 21 15 22
REMARK SMILES IDX 16 23 17 24 7 26 8 27 12 28 9 29 11 30 10 31 29 32 30 33
REMARK SMILES IDX 31 34 32 35 33 36 34 37 98 38 35 39 97 40 36 41 37 42 38 43
REMARK SMILES IDX 91 44 39 45 96 46 90 47 92 48 40 49 95 50 89 51 88 52 41 54
REMARK SMILES IDX 75 55 54 56 74 57 55 58 58 59 73 60 93 61 56 62 57 63 72 65
REMARK SMILES IDX 94 66 59 67 42 68 43 69 52 70 44 71 45 72 51 73 53 74 46 75
REMARK SMILES IDX 47 76 48 77 49 78 50 79 76 80 77 81 86 82 78 83 79 84 85 85
REMARK SMILES IDX 87 86 80 87 81 88 82 89 83 90 84 91 60 92 61 93 70 94 62 95
REMARK SMILES IDX 63 96 69 97 71 98 64 99 65 100 66 101 67 102 68 103
REMARK H PARENT 17 25 92 53 58 64
REMARK Flexibility Score: inf
ROOT
ATOM      1  C   UNL A   1      32.910  35.935  30.058  1.00  0.00     0.275 C 
ENDROOT
BRANCH   1   2
ATOM      2  O   UNL A   1      32.645  34.793  29.225  1.00  0.00    -0.458 OA
BRANCH   2   3
ATOM      3  C   UNL A   1      33.671  34.389  28.432  1.00  0.00     0.338 C 
ATOM      4  O   UNL A   1      34.715  34.995  28.233  1.00  0.00    -0.246 OA
BRANCH   3   5
ATOM      5  C   UNL A   1      33.398  33.046  27.866  1.00  0.00     0.060 A 
ATOM      6  C   UNL A   1      32.715  30.484  27.013  1.00  0.00     0.067 A 
ATOM      7  C   UNL A   1      31.832  31.540  26.775  1.00  0.00     0.029 A 
ATOM      8  C   UNL A   1      33.979  30.722  27.569  1.00  0.00     0.029 A 
ATOM      9  C   UNL A   1      32.165  32.817  27.234  1.00  0.00     0.018 A 
ATOM     10  C   UNL A   1      34.328  32.008  27.980  1.00  0.00     0.018 A 
BRANCH   6  11
ATOM     11  N   UNL A   1      32.288  29.159  26.781  1.00  0.00    -0.217 N 
ATOM     12  C   UNL A   1      33.659  28.664  24.700  1.00  0.00     0.069 C 
ATOM     13  C   UNL A   1      32.636  28.339  25.721  1.00  0.00     0.071 A 
ATOM     14  C   UNL A   1      31.933  27.179  25.975  1.00  0.00     0.137 A 
ATOM     15  N   UNL A   1      31.283  27.274  27.169  1.00  0.00    -0.128 NA
ATOM     16  N   UNL A   1      31.571  28.460  27.694  1.00  0.00    -0.061 NA
BRANCH  14  17
ATOM     17  C   UNL A   1      31.946  25.941  25.204  1.00  0.00     0.124 A 
ATOM     18  N   UNL A   1      32.538  24.833  25.667  1.00  0.00    -0.165 NA
ATOM     19  C   UNL A   1      31.424  25.770  23.902  1.00  0.00     0.044 A 
ATOM     20  N   UNL A   1      32.491  23.966  24.636  1.00  0.00    -0.240 N 
ATOM     21  C   UNL A   1      31.833  24.496  23.550  1.00  0.00     0.125 A 
BRANCH  19  22
ATOM     22  C   UNL A   1      30.659  26.651  23.055  1.00  0.00     0.166 C 
ATOM     23  N   UNL A   1      31.242  27.619  22.434  1.00  0.00    -0.097 NA
BRANCH  23  24
ATOM     24  O   UNL A   1      30.288  28.348  21.712  1.00  0.00    -0.411 OA
ATOM     25  H   UNL A   1      30.563  28.982  21.079  1.00  0.00     0.330 HD
ENDBRANCH  23  24
ENDBRANCH  19  22
BRANCH  20  26
ATOM     26  C   UNL A   1      33.111  22.697  24.733  1.00  0.00     0.065 A 
ATOM     27  C   UNL A   1      34.481  22.627  25.022  1.00  0.00     0.028 A 
ATOM     28  C   UNL A   1      32.377  21.525  24.518  1.00  0.00     0.028 A 
ATOM     29  C   UNL A   1      35.108  21.385  25.121  1.00  0.00     0.002 A 
ATOM     30  C   UNL A   1      33.024  20.288  24.569  1.00  0.00     0.002 A 
ATOM     31  C   UNL A   1      34.383  20.218  24.881  1.00  0.00     0.000 A 
ENDBRANCH  20  26
ENDBRANCH  14  17
ENDBRANCH   6  11
ENDBRANCH   3   5
ENDBRANCH   2   3
ENDBRANCH   1   2
BRANCH   1  32
ATOM     32  C   UNL A   1      32.987  35.547  31.528  1.00  0.00     0.275 C 
BRANCH  32  33
ATOM     33  O   UNL A   1      34.283  35.062  31.867  1.00  0.00    -0.458 OA
BRANCH  33  34
ATOM     34  C   UNL A   1      34.324  33.762  32.239  1.00  0.00     0.338 C 
ATOM     35  O   UNL A   1      33.734  33.246  33.174  1.00  0.00    -0.246 OA
BRANCH  34  36
ATOM     36  C   UNL A   1      35.385  33.084  31.492  1.00  0.00     0.060 A 
ATOM     37  C   UNL A   1      35.348  31.686  31.472  1.00  0.00     0.016 A 
ATOM     38  C   UNL A   1      36.530  33.804  31.124  1.00  0.00     0.016 A 
ATOM     39  C   UNL A   1      36.526  31.004  31.271  1.00  0.00     0.010 A 
ATOM     40  C   UNL A   1      37.707  33.123  30.941  1.00  0.00     0.010 A 
ATOM     41  C   UNL A   1      37.703  31.738  31.098  1.00  0.00    -0.014 A 
BRANCH  41  42
ATOM     42  C   UNL A   1      38.951  31.013  31.008  1.00  0.00     0.031 A 
ATOM     43  C   UNL A   1      39.639  30.874  32.311  1.00  0.00     0.074 A 
ATOM     44  C   UNL A   1      39.332  30.406  29.868  1.00  0.00     0.049 A 
ATOM     45  N   UNL A   1      40.796  31.331  32.657  1.00  0.00    -0.248 NA
ATOM     46  C   UNL A   1      38.864  30.294  33.424  1.00  0.00     0.031 C 
ATOM     47  C   UNL A   1      38.563  30.243  28.631  1.00  0.00     0.029 A 
ATOM     48  N   UNL A   1      40.454  29.684  29.622  1.00  0.00    -0.354 N 
ATOM     49  C   UNL A   1      40.987  30.900  33.966  1.00  0.00     0.074 A 
ATOM     50  C   UNL A   1      39.706  30.455  34.443  1.00  0.00     0.031 C 
ATOM     51  C   UNL A   1      39.136  29.277  27.879  1.00  0.00     0.029 A 
ATOM     52  C   UNL A   1      40.361  28.839  28.526  1.00  0.00     0.049 A 
ATOM     53  H   UNL A   1      41.265  29.754  30.176  1.00  0.00     0.167 HD
ATOM     54  C   UNL A   1      42.234  30.698  34.471  1.00  0.00     0.037 A 
ATOM     55  C   UNL A   1      41.183  27.792  28.255  1.00  0.00     0.037 A 
ATOM     56  C   UNL A   1      43.234  31.381  33.692  1.00  0.00     0.049 A 
ATOM     57  C   UNL A   1      42.428  27.998  29.048  1.00  0.00     0.074 A 
ATOM     58  C   UNL A   1      43.443  32.702  33.342  1.00  0.00     0.029 A 
ATOM     59  N   UNL A   1      43.994  30.638  32.821  1.00  0.00    -0.354 N 
ATOM     60  N   UNL A   1      43.276  28.970  28.834  1.00  0.00    -0.248 NA
ATOM     61  C   UNL A   1      42.490  27.408  30.379  1.00  0.00     0.031 C 
ATOM     62  C   UNL A   1      43.914  32.659  31.999  1.00  0.00     0.029 A 
ATOM     63  C   UNL A   1      44.024  31.317  31.628  1.00  0.00     0.049 A 
ATOM     64  H   UNL A   1      44.434  29.779  33.014  1.00  0.00     0.167 HD
ATOM     65  C   UNL A   1      43.670  29.390  30.099  1.00  0.00     0.074 A 
ATOM     66  C   UNL A   1      43.218  28.338  31.006  1.00  0.00     0.031 C 
ATOM     67  C   UNL A   1      44.066  30.677  30.331  1.00  0.00     0.037 A 
BRANCH  54  68
ATOM     68  C   UNL A   1      42.564  29.589  35.438  1.00  0.00     0.058 A 
ATOM     69  C   UNL A   1      43.382  29.866  36.551  1.00  0.00     0.135 A 
ATOM     70  C   UNL A   1      42.345  28.218  35.166  1.00  0.00     0.135 A 
ATOM     71  F   UNL A   1      43.664  31.133  36.893  1.00  0.00    -0.206 F 
ATOM     72  C   UNL A   1      43.998  28.855  37.290  1.00  0.00     0.059 A 
ATOM     73  C   UNL A   1      42.899  27.198  35.926  1.00  0.00     0.059 A 
ATOM     74  F   UNL A   1      41.671  27.797  34.090  1.00  0.00    -0.206 F 
ATOM     75  C   UNL A   1      43.762  27.525  36.957  1.00  0.00     0.060 A 
BRANCH  75  76
ATOM     76  S   UNL A   1      44.653  26.221  37.820  1.00  0.00     0.124 S 
ATOM     77  O   UNL A   1      46.030  26.506  37.431  1.00  0.00    -0.237 OA
ATOM     78  O   UNL A   1      44.310  26.491  39.213  1.00  0.00    -0.237 OA
ATOM     79  O   UNL A   1      44.079  24.999  37.265  1.00  0.00    -0.744 OA
ENDBRANCH  75  76
ENDBRANCH  54  68
BRANCH  55  80
ATOM     80  C   UNL A   1      40.800  26.476  27.670  1.00  0.00     0.058 A 
ATOM     81  C   UNL A   1      41.548  25.893  26.632  1.00  0.00     0.135 A 
ATOM     82  C   UNL A   1      39.845  25.639  28.284  1.00  0.00     0.135 A 
ATOM     83  F   UNL A   1      42.499  26.603  26.006  1.00  0.00    -0.206 F 
ATOM     84  C   UNL A   1      41.387  24.552  26.254  1.00  0.00     0.059 A 
ATOM     85  C   UNL A   1      39.655  24.309  27.916  1.00  0.00     0.059 A 
ATOM     86  F   UNL A   1      39.123  26.058  29.333  1.00  0.00    -0.206 F 
ATOM     87  C   UNL A   1      40.448  23.762  26.916  1.00  0.00     0.060 A 
BRANCH  87  88
ATOM     88  S   UNL A   1      40.348  21.994  26.554  1.00  0.00     0.124 S 
ATOM     89  O   UNL A   1      41.459  21.810  25.628  1.00  0.00    -0.237 OA
ATOM     90  O   UNL A   1      40.513  21.399  27.875  1.00  0.00    -0.237 OA
ATOM     91  O   UNL A   1      39.017  21.842  25.969  1.00  0.00    -0.744 OA
ENDBRANCH  87  88
ENDBRANCH  55  80
BRANCH  67  92
ATOM     92  C   UNL A   1      44.331  31.572  29.148  1.00  0.00     0.058 A 
ATOM     93  C   UNL A   1      45.470  31.484  28.326  1.00  0.00     0.135 A 
ATOM     94  C   UNL A   1      43.309  32.438  28.729  1.00  0.00     0.135 A 
ATOM     95  F   UNL A   1      46.443  30.602  28.590  1.00  0.00    -0.206 F 
ATOM     96  C   UNL A   1      45.605  32.252  27.169  1.00  0.00     0.059 A 
ATOM     97  C   UNL A   1      43.408  33.189  27.560  1.00  0.00     0.059 A 
ATOM     98  F   UNL A   1      42.166  32.519  29.430  1.00  0.00    -0.206 F 
ATOM     99  C   UNL A   1      44.566  33.102  26.792  1.00  0.00     0.060 A 
BRANCH  99 100
ATOM    100  S   UNL A   1      44.709  34.036  25.252  1.00  0.00     0.124 S 
ATOM    101  O   UNL A   1      46.043  34.615  25.367  1.00  0.00    -0.237 OA
ATOM    102  O   UNL A   1      44.552  33.001  24.234  1.00  0.00    -0.237 OA
ATOM    103  O   UNL A   1      43.607  34.992  25.329  1.00  0.00    -0.744 OA
ENDBRANCH  99 100
ENDBRANCH  67  92
ENDBRANCH  41  42
ENDBRANCH  34  36
ENDBRANCH  33  34
ENDBRANCH  32  33
ENDBRANCH   1  32
TORSDOF 19
ENDMDL
