MODEL 1
REMARK VINA RESULT:      -9.6      0.000      0.000
REMARK SMILES Cc1cc([N+](=O)[O-])c(-c2ccc(C(=O)OCCOC(=O)c3ccc(-c4c5nc(c(-c6c(F)cc(S(=O)(=O)[O-])cc6F)c6ccc([nH]6)c(-c6c(F)cc(S(=O)(=O)[O-])cc6F)c6nc(c(-c7c(F)cc(S(=O)(=O)[O-])cc7F)c7ccc4[nH]7)C=C6)C=C5)cc3)o2)cc1Cl
REMARK SMILES IDX 17 1 16 2 15 3 13 4 14 5 12 6 9 7 10 8 87 9 11 10 8 11 1 12
REMARK SMILES IDX 2 13 3 14 89 15 4 16 88 17 90 18 5 19 6 20 7 21 18 22 19 23
REMARK SMILES IDX 20 24 21 25 22 26 86 27 23 28 85 29 24 30 25 31 26 32 79 33
REMARK SMILES IDX 27 34 84 35 78 36 80 37 28 38 83 39 77 40 76 41 29 43 63 44
REMARK SMILES IDX 42 45 62 46 43 47 46 48 61 49 81 50 44 51 45 52 60 54 82 55
REMARK SMILES IDX 47 56 30 57 31 58 40 59 32 60 33 61 39 62 41 63 34 64 35 65
REMARK SMILES IDX 36 66 37 67 38 68 64 69 65 70 74 71 66 72 67 73 73 74 75 75
REMARK SMILES IDX 68 76 69 77 70 78 71 79 72 80 48 81 49 82 58 83 50 84 51 85
REMARK SMILES IDX 57 86 59 87 52 88 53 89 54 90 55 91 56 92
REMARK H PARENT 80 42 46 53
REMARK Flexibility Score: inf
ROOT
ATOM      1  C   UNL A   1      34.099  32.310  27.796  1.00  0.00     0.275 C 
ENDROOT
BRANCH   1   2
ATOM      2  C   UNL A   1      34.755  33.215  28.846  1.00  0.00     0.275 C 
BRANCH   2   3
ATOM      3  O   UNL A   1      34.578  32.701  30.179  1.00  0.00    -0.456 OA
BRANCH   3   4
ATOM      4  C   UNL A   1      34.421  33.641  31.161  1.00  0.00     0.374 C 
ATOM      5  O   UNL A   1      33.697  34.621  31.063  1.00  0.00    -0.242 OA
BRANCH   4   6
ATOM      6  C   UNL A   1      35.158  33.251  32.342  1.00  0.00     0.212 A 
ATOM      7  C   UNL A   1      36.771  32.171  33.389  1.00  0.00     0.142 A 
ATOM      8  C   UNL A   1      36.198  33.000  34.325  1.00  0.00     0.052 A 
ATOM      9  O   UNL A   1      36.128  32.291  32.199  1.00  0.00    -0.449 OA
ATOM     10  C   UNL A   1      35.162  33.700  33.651  1.00  0.00     0.059 A 
BRANCH   7  11
ATOM     11  C   UNL A   1      37.932  31.301  33.380  1.00  0.00     0.096 A 
ATOM     12  C   UNL A   1      41.308  28.581  33.046  1.00  0.00     0.046 C 
ATOM     13  C   UNL A   1      40.127  29.502  33.181  1.00  0.00    -0.026 A 
ATOM     14  C   UNL A   1      40.326  30.837  33.568  1.00  0.00     0.091 A 
ATOM     15  C   UNL A   1      38.818  29.071  32.918  1.00  0.00     0.045 A 
ATOM     16  C   UNL A   1      39.235  31.720  33.670  1.00  0.00     0.280 A 
ATOM     17  C   UNL A   1      37.739  29.958  33.015  1.00  0.00     0.040 A 
ATOM     18  Cl  UNL A   1      38.478  27.447  32.442  1.00  0.00    -0.084 Cl
BRANCH  16  19
ATOM     19  N   UNL A   1      39.519  33.100  34.042  1.00  0.00     0.063 N 
ATOM     20  O   UNL A   1      39.555  33.390  35.244  1.00  0.00    -0.258 OA
ATOM     21  O   UNL A   1      39.727  33.896  33.114  1.00  0.00    -0.258 OA
ENDBRANCH  16  19
ENDBRANCH   7  11
ENDBRANCH   4   6
ENDBRANCH   3   4
ENDBRANCH   2   3
ENDBRANCH   1   2
BRANCH   1  22
ATOM     22  O   UNL A   1      33.799  31.000  28.314  1.00  0.00    -0.458 OA
BRANCH  22  23
ATOM     23  C   UNL A   1      34.369  29.971  27.641  1.00  0.00     0.338 C 
ATOM     24  O   UNL A   1      33.859  29.314  26.749  1.00  0.00    -0.246 OA
BRANCH  23  25
ATOM     25  C   UNL A   1      35.781  29.821  28.040  1.00  0.00     0.060 A 
ATOM     26  C   UNL A   1      36.753  29.990  27.052  1.00  0.00     0.016 A 
ATOM     27  C   UNL A   1      36.149  29.446  29.334  1.00  0.00     0.016 A 
ATOM     28  C   UNL A   1      38.097  29.773  27.342  1.00  0.00     0.010 A 
ATOM     29  C   UNL A   1      37.501  29.222  29.626  1.00  0.00     0.010 A 
ATOM     30  C   UNL A   1      38.480  29.370  28.627  1.00  0.00    -0.014 A 
BRANCH  30  31
ATOM     31  C   UNL A   1      39.900  29.030  28.882  1.00  0.00     0.031 A 
ATOM     32  C   UNL A   1      40.798  30.041  29.538  1.00  0.00     0.074 A 
ATOM     33  C   UNL A   1      40.364  27.801  28.586  1.00  0.00     0.049 A 
ATOM     34  N   UNL A   1      42.069  29.950  29.831  1.00  0.00    -0.248 NA
ATOM     35  C   UNL A   1      40.183  31.322  29.916  1.00  0.00     0.031 C 
ATOM     36  C   UNL A   1      39.574  26.722  27.992  1.00  0.00     0.029 A 
ATOM     37  N   UNL A   1      41.608  27.251  28.753  1.00  0.00    -0.354 N 
ATOM     38  C   UNL A   1      42.410  31.163  30.420  1.00  0.00     0.074 A 
ATOM     39  C   UNL A   1      41.216  31.981  30.424  1.00  0.00     0.031 C 
ATOM     40  C   UNL A   1      40.352  25.636  27.851  1.00  0.00     0.029 A 
ATOM     41  C   UNL A   1      41.701  25.952  28.314  1.00  0.00     0.049 A 
ATOM     42  H   UNL A   1      42.365  27.740  29.151  1.00  0.00     0.167 HD
ATOM     43  C   UNL A   1      43.608  31.554  30.919  1.00  0.00     0.037 A 
ATOM     44  C   UNL A   1      42.758  25.117  28.279  1.00  0.00     0.037 A 
ATOM     45  C   UNL A   1      44.790  30.733  30.924  1.00  0.00     0.049 A 
ATOM     46  C   UNL A   1      44.088  25.591  28.802  1.00  0.00     0.074 A 
ATOM     47  C   UNL A   1      46.056  31.046  31.385  1.00  0.00     0.029 A 
ATOM     48  N   UNL A   1      44.849  29.430  30.452  1.00  0.00    -0.354 N 
ATOM     49  N   UNL A   1      44.400  26.749  29.334  1.00  0.00    -0.248 NA
ATOM     50  C   UNL A   1      45.211  24.645  28.721  1.00  0.00     0.031 C 
ATOM     51  C   UNL A   1      46.887  29.941  31.172  1.00  0.00     0.029 A 
ATOM     52  C   UNL A   1      46.129  28.927  30.609  1.00  0.00     0.049 A 
ATOM     53  H   UNL A   1      44.091  28.934  30.064  1.00  0.00     0.167 HD
ATOM     54  C   UNL A   1      45.746  26.663  29.671  1.00  0.00     0.074 A 
ATOM     55  C   UNL A   1      46.188  25.336  29.292  1.00  0.00     0.031 C 
ATOM     56  C   UNL A   1      46.545  27.597  30.241  1.00  0.00     0.037 A 
BRANCH  43  57
ATOM     57  C   UNL A   1      43.701  32.941  31.485  1.00  0.00     0.058 A 
ATOM     58  C   UNL A   1      44.033  34.042  30.682  1.00  0.00     0.135 A 
ATOM     59  C   UNL A   1      43.427  33.177  32.841  1.00  0.00     0.135 A 
ATOM     60  F   UNL A   1      44.323  33.868  29.382  1.00  0.00    -0.206 F 
ATOM     61  C   UNL A   1      44.111  35.328  31.208  1.00  0.00     0.059 A 
ATOM     62  C   UNL A   1      43.478  34.457  33.385  1.00  0.00     0.059 A 
ATOM     63  F   UNL A   1      43.107  32.157  33.654  1.00  0.00    -0.206 F 
ATOM     64  C   UNL A   1      43.834  35.525  32.562  1.00  0.00     0.060 A 
BRANCH  64  65
ATOM     65  S   UNL A   1      43.935  37.198  33.233  1.00  0.00     0.124 S 
ATOM     66  O   UNL A   1      42.773  37.227  34.117  1.00  0.00    -0.237 OA
ATOM     67  O   UNL A   1      45.234  37.195  33.896  1.00  0.00    -0.237 OA
ATOM     68  O   UNL A   1      43.842  38.045  32.048  1.00  0.00    -0.744 OA
ENDBRANCH  64  65
ENDBRANCH  43  57
BRANCH  44  69
ATOM     69  C   UNL A   1      42.611  23.749  27.718  1.00  0.00     0.058 A 
ATOM     70  C   UNL A   1      42.468  22.633  28.555  1.00  0.00     0.135 A 
ATOM     71  C   UNL A   1      42.625  23.530  26.331  1.00  0.00     0.135 A 
ATOM     72  F   UNL A   1      42.459  22.792  29.888  1.00  0.00    -0.206 F 
ATOM     73  C   UNL A   1      42.365  21.345  28.041  1.00  0.00     0.059 A 
ATOM     74  C   UNL A   1      42.500  22.254  25.792  1.00  0.00     0.059 A 
ATOM     75  F   UNL A   1      42.748  24.567  25.488  1.00  0.00    -0.206 F 
ATOM     76  C   UNL A   1      42.386  21.165  26.656  1.00  0.00     0.060 A 
BRANCH  76  77
ATOM     77  S   UNL A   1      42.223  19.495  25.990  1.00  0.00     0.124 S 
ATOM     78  O   UNL A   1      40.793  19.433  25.704  1.00  0.00    -0.237 OA
ATOM     79  O   UNL A   1      43.105  19.535  24.828  1.00  0.00    -0.237 OA
ATOM     80  O   UNL A   1      42.685  18.651  27.088  1.00  0.00    -0.744 OA
ENDBRANCH  76  77
ENDBRANCH  44  69
BRANCH  56  81
ATOM     81  C   UNL A   1      47.966  27.205  30.528  1.00  0.00     0.058 A 
ATOM     82  C   UNL A   1      49.006  27.506  29.636  1.00  0.00     0.135 A 
ATOM     83  C   UNL A   1      48.295  26.561  31.731  1.00  0.00     0.135 A 
ATOM     84  F   UNL A   1      48.741  28.118  28.470  1.00  0.00    -0.206 F 
ATOM     85  C   UNL A   1      50.325  27.161  29.916  1.00  0.00     0.059 A 
ATOM     86  C   UNL A   1      49.609  26.225  32.040  1.00  0.00     0.059 A 
ATOM     87  F   UNL A   1      47.337  26.259  32.620  1.00  0.00    -0.206 F 
ATOM     88  C   UNL A   1      50.616  26.519  31.121  1.00  0.00     0.060 A 
BRANCH  88  89
ATOM     89  S   UNL A   1      52.334  26.102  31.493  1.00  0.00     0.124 S 
ATOM     90  O   UNL A   1      52.931  26.111  30.162  1.00  0.00    -0.237 OA
ATOM     91  O   UNL A   1      52.740  27.190  32.377  1.00  0.00    -0.237 OA
ATOM     92  O   UNL A   1      52.232  24.792  32.129  1.00  0.00    -0.744 OA
ENDBRANCH  88  89
ENDBRANCH  56  81
ENDBRANCH  30  31
ENDBRANCH  23  25
ENDBRANCH  22  23
ENDBRANCH   1  22
TORSDOF 16
ENDMDL
MODEL 2
REMARK VINA RESULT:      -9.5      4.974     11.744
REMARK SMILES Cc1cc([N+](=O)[O-])c(-c2ccc(C(=O)OCCOC(=O)c3ccc(-c4c5nc(c(-c6c(F)cc(S(=O)(=O)[O-])cc6F)c6ccc([nH]6)c(-c6c(F)cc(S(=O)(=O)[O-])cc6F)c6nc(c(-c7c(F)cc(S(=O)(=O)[O-])cc7F)c7ccc4[nH]7)C=C6)C=C5)cc3)o2)cc1Cl
REMARK SMILES IDX 17 1 16 2 15 3 13 4 14 5 12 6 9 7 10 8 87 9 11 10 8 11 1 12
REMARK SMILES IDX 2 13 3 14 89 15 4 16 88 17 90 18 5 19 6 20 7 21 18 22 19 23
REMARK SMILES IDX 20 24 21 25 22 26 86 27 23 28 85 29 24 30 25 31 26 32 79 33
REMARK SMILES IDX 27 34 84 35 78 36 80 37 28 38 83 39 77 40 76 41 29 43 63 44
REMARK SMILES IDX 42 45 62 46 43 47 46 48 61 49 81 50 44 51 45 52 60 54 82 55
REMARK SMILES IDX 47 56 30 57 31 58 40 59 32 60 33 61 39 62 41 63 34 64 35 65
REMARK SMILES IDX 36 66 37 67 38 68 64 69 65 70 74 71 66 72 67 73 73 74 75 75
REMARK SMILES IDX 68 76 69 77 70 78 71 79 72 80 48 81 49 82 58 83 50 84 51 85
REMARK SMILES IDX 57 86 59 87 52 88 53 89 54 90 55 91 56 92
REMARK H PARENT 80 42 46 53
REMARK Flexibility Score: inf
ROOT
ATOM      1  C   UNL A   1      40.161  22.292  26.335  1.00  0.00     0.275 C 
ENDROOT
BRANCH   1   2
ATOM      2  C   UNL A   1      38.739  21.931  25.888  1.00  0.00     0.275 C 
BRANCH   2   3
ATOM      3  O   UNL A   1      37.907  23.099  25.760  1.00  0.00    -0.456 OA
BRANCH   3   4
ATOM      4  C   UNL A   1      36.876  22.998  24.865  1.00  0.00     0.374 C 
ATOM      5  O   UNL A   1      36.997  22.569  23.726  1.00  0.00    -0.242 OA
BRANCH   4   6
ATOM      6  C   UNL A   1      35.634  23.381  25.496  1.00  0.00     0.212 A 
ATOM      7  C   UNL A   1      33.861  24.672  25.732  1.00  0.00     0.142 A 
ATOM      8  C   UNL A   1      33.653  23.586  26.551  1.00  0.00     0.052 A 
ATOM      9  O   UNL A   1      35.068  24.572  25.118  1.00  0.00    -0.449 OA
ATOM     10  C   UNL A   1      34.791  22.751  26.396  1.00  0.00     0.059 A 
BRANCH   7  11
ATOM     11  C   UNL A   1      33.054  25.807  25.329  1.00  0.00     0.096 A 
ATOM     12  C   UNL A   1      30.864  29.414  24.278  1.00  0.00     0.046 C 
ATOM     13  C   UNL A   1      31.601  28.161  24.664  1.00  0.00    -0.026 A 
ATOM     14  C   UNL A   1      31.859  27.179  23.694  1.00  0.00     0.091 A 
ATOM     15  C   UNL A   1      32.055  27.943  25.973  1.00  0.00     0.045 A 
ATOM     16  C   UNL A   1      32.574  26.015  24.032  1.00  0.00     0.280 A 
ATOM     17  C   UNL A   1      32.771  26.785  26.299  1.00  0.00     0.040 A 
ATOM     18  Cl  UNL A   1      31.778  29.092  27.231  1.00  0.00    -0.084 Cl
BRANCH  16  19
ATOM     19  N   UNL A   1      32.838  25.055  22.967  1.00  0.00     0.063 N 
ATOM     20  O   UNL A   1      33.759  25.291  22.177  1.00  0.00    -0.258 OA
ATOM     21  O   UNL A   1      32.121  24.044  22.940  1.00  0.00    -0.258 OA
ENDBRANCH  16  19
ENDBRANCH   7  11
ENDBRANCH   4   6
ENDBRANCH   3   4
ENDBRANCH   2   3
ENDBRANCH   1   2
BRANCH   1  22
ATOM     22  O   UNL A   1      40.173  23.330  27.333  1.00  0.00    -0.458 OA
BRANCH  22  23
ATOM     23  C   UNL A   1      41.007  24.366  27.077  1.00  0.00     0.338 C 
ATOM     24  O   UNL A   1      41.805  24.447  26.157  1.00  0.00    -0.246 OA
BRANCH  23  25
ATOM     25  C   UNL A   1      40.731  25.484  27.998  1.00  0.00     0.060 A 
ATOM     26  C   UNL A   1      41.766  26.389  28.246  1.00  0.00     0.016 A 
ATOM     27  C   UNL A   1      39.512  25.606  28.669  1.00  0.00     0.016 A 
ATOM     28  C   UNL A   1      41.599  27.412  29.174  1.00  0.00     0.010 A 
ATOM     29  C   UNL A   1      39.345  26.633  29.607  1.00  0.00     0.010 A 
ATOM     30  C   UNL A   1      40.394  27.532  29.875  1.00  0.00    -0.014 A 
BRANCH  30  31
ATOM     31  C   UNL A   1      40.280  28.555  30.942  1.00  0.00     0.031 A 
ATOM     32  C   UNL A   1      41.204  28.499  32.126  1.00  0.00     0.074 A 
ATOM     33  C   UNL A   1      39.397  29.565  30.817  1.00  0.00     0.049 A 
ATOM     34  N   UNL A   1      41.256  29.282  33.172  1.00  0.00    -0.248 NA
ATOM     35  C   UNL A   1      42.202  27.419  32.132  1.00  0.00     0.031 C 
ATOM     36  C   UNL A   1      38.482  29.751  29.690  1.00  0.00     0.029 A 
ATOM     37  N   UNL A   1      39.132  30.627  31.641  1.00  0.00    -0.354 N 
ATOM     38  C   UNL A   1      42.285  28.788  33.965  1.00  0.00     0.074 A 
ATOM     39  C   UNL A   1      42.816  27.623  33.290  1.00  0.00     0.031 C 
ATOM     40  C   UNL A   1      37.762  30.867  29.890  1.00  0.00     0.029 A 
ATOM     41  C   UNL A   1      38.140  31.455  31.174  1.00  0.00     0.049 A 
ATOM     42  H   UNL A   1      39.608  30.784  32.489  1.00  0.00     0.167 HD
ATOM     43  C   UNL A   1      42.748  29.266  35.145  1.00  0.00     0.037 A 
ATOM     44  C   UNL A   1      37.590  32.555  31.724  1.00  0.00     0.037 A 
ATOM     45  C   UNL A   1      42.224  30.432  35.807  1.00  0.00     0.049 A 
ATOM     46  C   UNL A   1      38.096  33.042  33.056  1.00  0.00     0.074 A 
ATOM     47  C   UNL A   1      42.610  30.984  37.017  1.00  0.00     0.029 A 
ATOM     48  N   UNL A   1      41.206  31.232  35.311  1.00  0.00    -0.354 N 
ATOM     49  N   UNL A   1      39.053  32.550  33.805  1.00  0.00    -0.248 NA
ATOM     50  C   UNL A   1      37.447  34.236  33.618  1.00  0.00     0.031 C 
ATOM     51  C   UNL A   1      41.810  32.105  37.263  1.00  0.00     0.029 A 
ATOM     52  C   UNL A   1      40.948  32.270  36.190  1.00  0.00     0.049 A 
ATOM     53  H   UNL A   1      40.735  31.084  34.459  1.00  0.00     0.167 HD
ATOM     54  C   UNL A   1      39.136  33.384  34.913  1.00  0.00     0.074 A 
ATOM     55  C   UNL A   1      38.140  34.420  34.733  1.00  0.00     0.031 C 
ATOM     56  C   UNL A   1      39.962  33.301  35.985  1.00  0.00     0.037 A 
BRANCH  43  57
ATOM     57  C   UNL A   1      43.869  28.515  35.804  1.00  0.00     0.058 A 
ATOM     58  C   UNL A   1      45.212  28.820  35.541  1.00  0.00     0.135 A 
ATOM     59  C   UNL A   1      43.596  27.498  36.732  1.00  0.00     0.135 A 
ATOM     60  F   UNL A   1      45.527  29.772  34.647  1.00  0.00    -0.206 F 
ATOM     61  C   UNL A   1      46.249  28.128  36.159  1.00  0.00     0.059 A 
ATOM     62  C   UNL A   1      44.615  26.806  37.378  1.00  0.00     0.059 A 
ATOM     63  F   UNL A   1      42.326  27.165  37.017  1.00  0.00    -0.206 F 
ATOM     64  C   UNL A   1      45.940  27.120  37.075  1.00  0.00     0.060 A 
BRANCH  64  65
ATOM     65  S   UNL A   1      47.293  26.231  37.874  1.00  0.00     0.124 S 
ATOM     66  O   UNL A   1      46.664  25.805  39.121  1.00  0.00    -0.237 OA
ATOM     67  O   UNL A   1      47.583  25.169  36.917  1.00  0.00    -0.237 OA
ATOM     68  O   UNL A   1      48.332  27.247  38.012  1.00  0.00    -0.744 OA
ENDBRANCH  64  65
ENDBRANCH  43  57
BRANCH  44  69
ATOM     69  C   UNL A   1      36.490  33.269  31.026  1.00  0.00     0.058 A 
ATOM     70  C   UNL A   1      36.744  34.078  29.909  1.00  0.00     0.135 A 
ATOM     71  C   UNL A   1      35.163  33.167  31.473  1.00  0.00     0.135 A 
ATOM     72  F   UNL A   1      37.998  34.214  29.450  1.00  0.00    -0.206 F 
ATOM     73  C   UNL A   1      35.726  34.779  29.270  1.00  0.00     0.059 A 
ATOM     74  C   UNL A   1      34.125  33.840  30.837  1.00  0.00     0.059 A 
ATOM     75  F   UNL A   1      34.867  32.397  32.531  1.00  0.00    -0.206 F 
ATOM     76  C   UNL A   1      34.418  34.655  29.745  1.00  0.00     0.060 A 
BRANCH  76  77
ATOM     77  S   UNL A   1      33.094  35.543  28.896  1.00  0.00     0.124 S 
ATOM     78  O   UNL A   1      32.472  34.472  28.126  1.00  0.00    -0.237 OA
ATOM     79  O   UNL A   1      32.309  36.068  30.008  1.00  0.00    -0.237 OA
ATOM     80  O   UNL A   1      33.812  36.547  28.117  1.00  0.00    -0.744 OA
ENDBRANCH  76  77
ENDBRANCH  44  69
BRANCH  56  81
ATOM     81  C   UNL A   1      39.852  34.380  37.024  1.00  0.00     0.058 A 
ATOM     82  C   UNL A   1      40.540  35.596  36.897  1.00  0.00     0.135 A 
ATOM     83  C   UNL A   1      39.014  34.210  38.137  1.00  0.00     0.135 A 
ATOM     84  F   UNL A   1      41.358  35.804  35.852  1.00  0.00    -0.206 F 
ATOM     85  C   UNL A   1      40.417  36.602  37.850  1.00  0.00     0.059 A 
ATOM     86  C   UNL A   1      38.861  35.210  39.091  1.00  0.00     0.059 A 
ATOM     87  F   UNL A   1      38.328  33.068  38.299  1.00  0.00    -0.206 F 
ATOM     88  C   UNL A   1      39.576  36.398  38.945  1.00  0.00     0.060 A 
BRANCH  88  89
ATOM     89  S   UNL A   1      39.398  37.720  40.164  1.00  0.00     0.124 S 
ATOM     90  O   UNL A   1      40.710  38.355  40.101  1.00  0.00    -0.237 OA
ATOM     91  O   UNL A   1      38.289  38.502  39.623  1.00  0.00    -0.237 OA
ATOM     92  O   UNL A   1      39.103  37.002  41.400  1.00  0.00    -0.744 OA
ENDBRANCH  88  89
ENDBRANCH  56  81
ENDBRANCH  30  31
ENDBRANCH  23  25
ENDBRANCH  22  23
ENDBRANCH   1  22
TORSDOF 16
ENDMDL
MODEL 3
REMARK VINA RESULT:      -9.4      3.288      6.038
REMARK SMILES Cc1cc([N+](=O)[O-])c(-c2ccc(C(=O)OCCOC(=O)c3ccc(-c4c5nc(c(-c6c(F)cc(S(=O)(=O)[O-])cc6F)c6ccc([nH]6)c(-c6c(F)cc(S(=O)(=O)[O-])cc6F)c6nc(c(-c7c(F)cc(S(=O)(=O)[O-])cc7F)c7ccc4[nH]7)C=C6)C=C5)cc3)o2)cc1Cl
REMARK SMILES IDX 17 1 16 2 15 3 13 4 14 5 12 6 9 7 10 8 87 9 11 10 8 11 1 12
REMARK SMILES IDX 2 13 3 14 89 15 4 16 88 17 90 18 5 19 6 20 7 21 18 22 19 23
REMARK SMILES IDX 20 24 21 25 22 26 86 27 23 28 85 29 24 30 25 31 26 32 79 33
REMARK SMILES IDX 27 34 84 35 78 36 80 37 28 38 83 39 77 40 76 41 29 43 63 44
REMARK SMILES IDX 42 45 62 46 43 47 46 48 61 49 81 50 44 51 45 52 60 54 82 55
REMARK SMILES IDX 47 56 30 57 31 58 40 59 32 60 33 61 39 62 41 63 34 64 35 65
REMARK SMILES IDX 36 66 37 67 38 68 64 69 65 70 74 71 66 72 67 73 73 74 75 75
REMARK SMILES IDX 68 76 69 77 70 78 71 79 72 80 48 81 49 82 58 83 50 84 51 85
REMARK SMILES IDX 57 86 59 87 52 88 53 89 54 90 55 91 56 92
REMARK H PARENT 80 42 46 53
REMARK Flexibility Score: inf
ROOT
ATOM      1  C   UNL A   1      32.338  28.838  27.044  1.00  0.00     0.275 C 
ENDROOT
BRANCH   1   2
ATOM      2  C   UNL A   1      32.176  28.388  25.587  1.00  0.00     0.275 C 
BRANCH   2   3
ATOM      3  O   UNL A   1      30.904  27.753  25.362  1.00  0.00    -0.456 OA
BRANCH   3   4
ATOM      4  C   UNL A   1      30.899  26.745  24.436  1.00  0.00     0.374 C 
ATOM      5  O   UNL A   1      30.741  26.918  23.236  1.00  0.00    -0.242 OA
BRANCH   4   6
ATOM      6  C   UNL A   1      31.198  25.484  25.075  1.00  0.00     0.212 A 
ATOM      7  C   UNL A   1      32.477  23.731  25.472  1.00  0.00     0.142 A 
ATOM      8  C   UNL A   1      31.441  23.658  26.373  1.00  0.00     0.052 A 
ATOM      9  O   UNL A   1      32.320  24.811  24.663  1.00  0.00    -0.449 OA
ATOM     10  C   UNL A   1      30.619  24.788  26.123  1.00  0.00     0.059 A 
BRANCH   7  11
ATOM     11  C   UNL A   1      33.703  22.982  25.273  1.00  0.00     0.096 A 
ATOM     12  C   UNL A   1      37.464  20.817  25.000  1.00  0.00     0.046 C 
ATOM     13  C   UNL A   1      36.176  21.589  25.078  1.00  0.00    -0.026 A 
ATOM     14  C   UNL A   1      34.981  20.994  24.642  1.00  0.00     0.091 A 
ATOM     15  C   UNL A   1      36.125  22.894  25.589  1.00  0.00     0.045 A 
ATOM     16  C   UNL A   1      33.762  21.691  24.736  1.00  0.00     0.280 A 
ATOM     17  C   UNL A   1      34.907  23.578  25.686  1.00  0.00     0.040 A 
ATOM     18  Cl  UNL A   1      37.544  23.705  26.143  1.00  0.00    -0.084 Cl
BRANCH  16  19
ATOM     19  N   UNL A   1      32.556  21.001  24.299  1.00  0.00     0.063 N 
ATOM     20  O   UNL A   1      32.164  21.179  23.139  1.00  0.00    -0.258 OA
ATOM     21  O   UNL A   1      32.010  20.256  25.126  1.00  0.00    -0.258 OA
ENDBRANCH  16  19
ENDBRANCH   7  11
ENDBRANCH   4   6
ENDBRANCH   3   4
ENDBRANCH   2   3
ENDBRANCH   1   2
BRANCH   1  22
ATOM     22  O   UNL A   1      33.712  28.814  27.474  1.00  0.00    -0.458 OA
BRANCH  22  23
ATOM     23  C   UNL A   1      34.231  30.020  27.810  1.00  0.00     0.338 C 
ATOM     24  O   UNL A   1      33.623  31.074  27.898  1.00  0.00    -0.246 OA
BRANCH  23  25
ATOM     25  C   UNL A   1      35.646  29.875  28.200  1.00  0.00     0.060 A 
ATOM     26  C   UNL A   1      36.612  30.070  27.211  1.00  0.00     0.016 A 
ATOM     27  C   UNL A   1      36.022  29.481  29.485  1.00  0.00     0.016 A 
ATOM     28  C   UNL A   1      37.959  29.860  27.492  1.00  0.00     0.010 A 
ATOM     29  C   UNL A   1      37.377  29.264  29.767  1.00  0.00     0.010 A 
ATOM     30  C   UNL A   1      38.351  29.438  28.767  1.00  0.00    -0.014 A 
BRANCH  30  31
ATOM     31  C   UNL A   1      39.775  29.107  29.011  1.00  0.00     0.031 A 
ATOM     32  C   UNL A   1      40.671  30.120  29.666  1.00  0.00     0.074 A 
ATOM     33  C   UNL A   1      40.245  27.882  28.704  1.00  0.00     0.049 A 
ATOM     34  N   UNL A   1      41.945  30.037  29.950  1.00  0.00    -0.248 NA
ATOM     35  C   UNL A   1      40.050  31.395  30.056  1.00  0.00     0.031 C 
ATOM     36  C   UNL A   1      39.458  26.801  28.110  1.00  0.00     0.029 A 
ATOM     37  N   UNL A   1      41.495  27.340  28.860  1.00  0.00    -0.354 N 
ATOM     38  C   UNL A   1      42.281  31.248  30.543  1.00  0.00     0.074 A 
ATOM     39  C   UNL A   1      41.082  32.058  30.560  1.00  0.00     0.031 C 
ATOM     40  C   UNL A   1      40.243  25.721  27.958  1.00  0.00     0.029 A 
ATOM     41  C   UNL A   1      41.593  26.045  28.413  1.00  0.00     0.049 A 
ATOM     42  H   UNL A   1      42.250  27.833  29.255  1.00  0.00     0.167 HD
ATOM     43  C   UNL A   1      43.479  31.645  31.036  1.00  0.00     0.037 A 
ATOM     44  C   UNL A   1      42.656  25.217  28.366  1.00  0.00     0.037 A 
ATOM     45  C   UNL A   1      44.667  30.832  31.028  1.00  0.00     0.049 A 
ATOM     46  C   UNL A   1      43.986  25.698  28.882  1.00  0.00     0.074 A 
ATOM     47  C   UNL A   1      45.935  31.152  31.482  1.00  0.00     0.029 A 
ATOM     48  N   UNL A   1      44.732  29.532  30.549  1.00  0.00    -0.354 N 
ATOM     49  N   UNL A   1      44.294  26.854  29.419  1.00  0.00    -0.248 NA
ATOM     50  C   UNL A   1      45.114  24.760  28.788  1.00  0.00     0.031 C 
ATOM     51  C   UNL A   1      46.772  30.053  31.258  1.00  0.00     0.029 A 
ATOM     52  C   UNL A   1      46.017  29.037  30.693  1.00  0.00     0.049 A 
ATOM     53  H   UNL A   1      43.975  29.034  30.163  1.00  0.00     0.167 HD
ATOM     54  C   UNL A   1      45.642  26.775  29.745  1.00  0.00     0.074 A 
ATOM     55  C   UNL A   1      46.091  25.454  29.356  1.00  0.00     0.031 C 
ATOM     56  C   UNL A   1      46.439  27.712  30.315  1.00  0.00     0.037 A 
BRANCH  43  57
ATOM     57  C   UNL A   1      43.567  33.030  31.609  1.00  0.00     0.058 A 
ATOM     58  C   UNL A   1      43.934  34.130  30.821  1.00  0.00     0.135 A 
ATOM     59  C   UNL A   1      43.253  33.264  32.957  1.00  0.00     0.135 A 
ATOM     60  F   UNL A   1      44.263  33.957  29.530  1.00  0.00    -0.206 F 
ATOM     61  C   UNL A   1      44.007  35.414  31.352  1.00  0.00     0.059 A 
ATOM     62  C   UNL A   1      43.298  34.541  33.506  1.00  0.00     0.059 A 
ATOM     63  F   UNL A   1      42.898  32.244  33.756  1.00  0.00    -0.206 F 
ATOM     64  C   UNL A   1      43.690  35.609  32.699  1.00  0.00     0.060 A 
BRANCH  64  65
ATOM     65  S   UNL A   1      43.784  37.279  33.377  1.00  0.00     0.124 S 
ATOM     66  O   UNL A   1      45.061  37.234  34.083  1.00  0.00    -0.237 OA
ATOM     67  O   UNL A   1      43.752  38.110  32.179  1.00  0.00    -0.237 OA
ATOM     68  O   UNL A   1      42.600  37.367  34.227  1.00  0.00    -0.744 OA
ENDBRANCH  64  65
ENDBRANCH  43  57
BRANCH  44  69
ATOM     69  C   UNL A   1      42.514  23.851  27.798  1.00  0.00     0.058 A 
ATOM     70  C   UNL A   1      42.418  22.726  28.630  1.00  0.00     0.135 A 
ATOM     71  C   UNL A   1      42.486  23.644  26.410  1.00  0.00     0.135 A 
ATOM     72  F   UNL A   1      42.449  22.874  29.964  1.00  0.00    -0.206 F 
ATOM     73  C   UNL A   1      42.321  21.441  28.108  1.00  0.00     0.059 A 
ATOM     74  C   UNL A   1      42.366  22.370  25.864  1.00  0.00     0.059 A 
ATOM     75  F   UNL A   1      42.564  24.689  25.572  1.00  0.00    -0.206 F 
ATOM     76  C   UNL A   1      42.299  21.273  26.722  1.00  0.00     0.060 A 
BRANCH  76  77
ATOM     77  S   UNL A   1      42.143  19.605  26.047  1.00  0.00     0.124 S 
ATOM     78  O   UNL A   1      42.526  18.789  27.194  1.00  0.00    -0.237 OA
ATOM     79  O   UNL A   1      40.734  19.552  25.668  1.00  0.00    -0.237 OA
ATOM     80  O   UNL A   1      43.084  19.608  24.931  1.00  0.00    -0.744 OA
ENDBRANCH  76  77
ENDBRANCH  44  69
BRANCH  56  81
ATOM     81  C   UNL A   1      47.865  27.328  30.590  1.00  0.00     0.058 A 
ATOM     82  C   UNL A   1      48.258  26.802  31.830  1.00  0.00     0.135 A 
ATOM     83  C   UNL A   1      48.838  27.447  29.586  1.00  0.00     0.135 A 
ATOM     84  F   UNL A   1      47.364  26.674  32.824  1.00  0.00    -0.206 F 
ATOM     85  C   UNL A   1      49.575  26.426  32.073  1.00  0.00     0.059 A 
ATOM     86  C   UNL A   1      50.156  27.058  29.801  1.00  0.00     0.059 A 
ATOM     87  F   UNL A   1      48.509  27.936  28.380  1.00  0.00    -0.206 F 
ATOM     88  C   UNL A   1      50.518  26.560  31.052  1.00  0.00     0.060 A 
BRANCH  88  89
ATOM     89  S   UNL A   1      52.220  26.041  31.365  1.00  0.00     0.124 S 
ATOM     90  O   UNL A   1      52.025  24.681  31.858  1.00  0.00    -0.237 OA
ATOM     91  O   UNL A   1      52.833  26.154  30.045  1.00  0.00    -0.237 OA
ATOM     92  O   UNL A   1      52.691  27.008  32.352  1.00  0.00    -0.744 OA
ENDBRANCH  88  89
ENDBRANCH  56  81
ENDBRANCH  30  31
ENDBRANCH  23  25
ENDBRANCH  22  23
ENDBRANCH   1  22
TORSDOF 16
ENDMDL
