MODEL 1
REMARK VINA RESULT:     -11.2      0.000      0.000
REMARK SMILES Cc1oc(CNC(=O)c2ccnn2C)cc1C(=O)OCCOC(=O)c1ccc(-c2c3nc(c(-c4c(F)cc(S(=O)(=O)[O-])cc4F)c4ccc([nH]4)c(-c4c(F)cc(S(=O)(=O)[O-])cc4F)c4nc(c(-c5c(F)cc(S(=O)(=O)[O-])cc5F)c5ccc2[nH]5)C=C4)C=C3)cc1
REMARK SMILES IDX 20 1 19 2 17 3 18 4 16 5 1 6 2 7 3 8 4 9 15 10 5 11 6 12
REMARK SMILES IDX 7 13 8 15 9 16 10 17 13 18 11 19 12 20 14 21 21 22 22 23
REMARK SMILES IDX 23 24 24 25 25 26 26 27 90 28 27 29 89 30 28 31 29 32 30 33
REMARK SMILES IDX 83 34 31 35 88 36 82 37 84 38 32 39 87 40 81 41 80 42 33 44
REMARK SMILES IDX 67 45 46 46 66 47 47 48 50 49 65 50 85 51 48 52 49 53 64 55
REMARK SMILES IDX 86 56 51 57 34 58 35 59 44 60 36 61 37 62 43 63 45 64 38 65
REMARK SMILES IDX 39 66 40 67 41 68 42 69 68 70 69 71 78 72 70 73 71 74 77 75
REMARK SMILES IDX 79 76 72 77 73 78 74 79 75 80 76 81 52 82 53 83 62 84 54 85
REMARK SMILES IDX 55 86 61 87 63 88 56 89 57 90 58 91 59 92 60 93
REMARK H PARENT 6 14 84 43 50 54
REMARK Flexibility Score: inf
ROOT
ATOM      1  C   UNL A   1      38.281  22.003  25.521  1.00  0.00     0.275 C 
ENDROOT
BRANCH   1   2
ATOM      2  O   UNL A   1      36.956  21.947  26.083  1.00  0.00    -0.458 OA
BRANCH   2   3
ATOM      3  C   UNL A   1      36.048  21.230  25.361  1.00  0.00     0.341 C 
ATOM      4  O   UNL A   1      36.219  20.079  24.988  1.00  0.00    -0.246 OA
BRANCH   3   5
ATOM      5  C   UNL A   1      34.782  21.915  25.166  1.00  0.00     0.101 A 
ATOM      6  C   UNL A   1      33.750  22.325  27.565  1.00  0.00     0.088 C 
ATOM      7  C   UNL A   1      33.828  22.310  26.089  1.00  0.00     0.115 A 
ATOM      8  O   UNL A   1      32.750  22.861  25.449  1.00  0.00    -0.464 OA
ATOM      9  C   UNL A   1      33.022  22.852  24.114  1.00  0.00     0.124 A 
ATOM     10  C   UNL A   1      34.281  22.346  23.904  1.00  0.00     0.063 A 
BRANCH   9  11
ATOM     11  C   UNL A   1      32.048  23.441  23.171  1.00  0.00     0.191 C 
BRANCH  11  12
ATOM     12  N   UNL A   1      32.688  24.148  22.088  1.00  0.00    -0.343 N 
ATOM     13  C   UNL A   1      32.741  25.503  21.893  1.00  0.00     0.269 C 
ATOM     14  H   UNL A   1      33.139  23.592  21.413  1.00  0.00     0.164 HD
ATOM     15  O   UNL A   1      33.274  25.938  20.875  1.00  0.00    -0.268 OA
BRANCH  13  16
ATOM     16  C   UNL A   1      32.093  26.353  22.856  1.00  0.00     0.125 A 
ATOM     17  C   UNL A   1      30.877  26.998  22.715  1.00  0.00     0.055 A 
ATOM     18  N   UNL A   1      32.551  26.726  24.096  1.00  0.00    -0.263 N 
ATOM     19  C   UNL A   1      30.638  27.611  23.953  1.00  0.00     0.136 A 
ATOM     20  N   UNL A   1      31.643  27.426  24.809  1.00  0.00    -0.181 NA
ATOM     21  C   UNL A   1      33.827  26.432  24.710  1.00  0.00     0.174 C 
ENDBRANCH  13  16
ENDBRANCH  11  12
ENDBRANCH   9  11
ENDBRANCH   3   5
ENDBRANCH   2   3
ENDBRANCH   1   2
BRANCH   1  22
ATOM     22  C   UNL A   1      39.283  22.549  26.539  1.00  0.00     0.275 C 
BRANCH  22  23
ATOM     23  O   UNL A   1      39.277  23.990  26.542  1.00  0.00    -0.458 OA
BRANCH  23  24
ATOM     24  C   UNL A   1      40.494  24.584  26.555  1.00  0.00     0.338 C 
ATOM     25  O   UNL A   1      41.391  24.449  25.741  1.00  0.00    -0.246 OA
BRANCH  24  26
ATOM     26  C   UNL A   1      40.589  25.499  27.703  1.00  0.00     0.060 A 
ATOM     27  C   UNL A   1      39.506  25.588  28.573  1.00  0.00     0.016 A 
ATOM     28  C   UNL A   1      41.675  26.361  27.849  1.00  0.00     0.016 A 
ATOM     29  C   UNL A   1      39.470  26.569  29.560  1.00  0.00     0.010 A 
ATOM     30  C   UNL A   1      41.667  27.308  28.882  1.00  0.00     0.010 A 
ATOM     31  C   UNL A   1      40.554  27.443  29.732  1.00  0.00    -0.014 A 
BRANCH  31  32
ATOM     32  C   UNL A   1      40.492  28.520  30.762  1.00  0.00     0.031 A 
ATOM     33  C   UNL A   1      41.448  28.511  31.927  1.00  0.00     0.074 A 
ATOM     34  C   UNL A   1      39.600  29.525  30.649  1.00  0.00     0.049 A 
ATOM     35  N   UNL A   1      41.466  29.273  32.990  1.00  0.00    -0.248 NA
ATOM     36  C   UNL A   1      42.524  27.507  31.893  1.00  0.00     0.031 C 
ATOM     37  C   UNL A   1      38.642  29.689  29.554  1.00  0.00     0.029 A 
ATOM     38  N   UNL A   1      39.354  30.603  31.465  1.00  0.00    -0.354 N 
ATOM     39  C   UNL A   1      42.517  28.812  33.775  1.00  0.00     0.074 A 
ATOM     40  C   UNL A   1      43.115  27.701  33.064  1.00  0.00     0.031 C 
ATOM     41  C   UNL A   1      37.933  30.812  29.751  1.00  0.00     0.029 A 
ATOM     42  C   UNL A   1      38.332  31.410  31.022  1.00  0.00     0.049 A 
ATOM     43  H   UNL A   1      39.862  30.781  32.289  1.00  0.00     0.167 HD
ATOM     44  C   UNL A   1      42.945  29.269  34.978  1.00  0.00     0.037 A 
ATOM     45  C   UNL A   1      37.751  32.487  31.588  1.00  0.00     0.037 A 
ATOM     46  C   UNL A   1      42.381  30.404  35.663  1.00  0.00     0.049 A 
ATOM     47  C   UNL A   1      38.226  32.963  32.932  1.00  0.00     0.074 A 
ATOM     48  C   UNL A   1      42.756  30.948  36.880  1.00  0.00     0.029 A 
ATOM     49  N   UNL A   1      41.334  31.178  35.187  1.00  0.00    -0.354 N 
ATOM     50  N   UNL A   1      39.190  32.484  33.682  1.00  0.00    -0.248 NA
ATOM     51  C   UNL A   1      37.525  34.115  33.516  1.00  0.00     0.031 C 
ATOM     52  C   UNL A   1      41.917  32.033  37.153  1.00  0.00     0.029 A 
ATOM     53  C   UNL A   1      41.043  32.189  36.090  1.00  0.00     0.049 A 
ATOM     54  H   UNL A   1      40.865  31.031  34.335  1.00  0.00     0.167 HD
ATOM     55  C   UNL A   1      39.214  33.280  34.822  1.00  0.00     0.074 A 
ATOM     56  C   UNL A   1      38.183  34.283  34.655  1.00  0.00     0.031 C 
ATOM     57  C   UNL A   1      40.017  33.184  35.910  1.00  0.00     0.037 A 
BRANCH  44  58
ATOM     58  C   UNL A   1      44.061  28.519  35.649  1.00  0.00     0.058 A 
ATOM     59  C   UNL A   1      43.823  27.399  36.459  1.00  0.00     0.135 A 
ATOM     60  C   UNL A   1      45.395  28.915  35.452  1.00  0.00     0.135 A 
ATOM     61  F   UNL A   1      42.568  26.989  36.693  1.00  0.00    -0.206 F 
ATOM     62  C   UNL A   1      44.868  26.712  37.073  1.00  0.00     0.059 A 
ATOM     63  C   UNL A   1      46.455  28.230  36.037  1.00  0.00     0.059 A 
ATOM     64  F   UNL A   1      45.677  29.981  34.686  1.00  0.00    -0.206 F 
ATOM     65  C   UNL A   1      46.180  27.139  36.859  1.00  0.00     0.060 A 
BRANCH  65  66
ATOM     66  S   UNL A   1      47.526  26.244  37.665  1.00  0.00     0.124 S 
ATOM     67  O   UNL A   1      48.485  27.318  37.904  1.00  0.00    -0.237 OA
ATOM     68  O   UNL A   1      46.875  25.699  38.852  1.00  0.00    -0.237 OA
ATOM     69  O   UNL A   1      47.925  25.259  36.665  1.00  0.00    -0.744 OA
ENDBRANCH  65  66
ENDBRANCH  44  58
BRANCH  45  70
ATOM     70  C   UNL A   1      36.625  33.168  30.896  1.00  0.00     0.058 A 
ATOM     71  C   UNL A   1      35.301  33.001  31.330  1.00  0.00     0.135 A 
ATOM     72  C   UNL A   1      36.853  34.012  29.798  1.00  0.00     0.135 A 
ATOM     73  F   UNL A   1      35.033  32.194  32.368  1.00  0.00    -0.206 F 
ATOM     74  C   UNL A   1      34.242  33.644  30.699  1.00  0.00     0.059 A 
ATOM     75  C   UNL A   1      35.813  34.686  29.166  1.00  0.00     0.059 A 
ATOM     76  F   UNL A   1      38.102  34.211  29.351  1.00  0.00    -0.206 F 
ATOM     77  C   UNL A   1      34.509  34.489  29.619  1.00  0.00     0.060 A 
BRANCH  77  78
ATOM     78  S   UNL A   1      33.139  35.376  28.847  1.00  0.00     0.124 S 
ATOM     79  O   UNL A   1      32.409  35.859  30.012  1.00  0.00    -0.237 OA
ATOM     80  O   UNL A   1      33.832  36.391  28.058  1.00  0.00    -0.237 OA
ATOM     81  O   UNL A   1      32.470  34.340  28.065  1.00  0.00    -0.744 OA
ENDBRANCH  77  78
ENDBRANCH  45  70
BRANCH  57  82
ATOM     82  C   UNL A   1      39.829  34.204  36.997  1.00  0.00     0.058 A 
ATOM     83  C   UNL A   1      40.360  35.498  36.888  1.00  0.00     0.135 A 
ATOM     84  C   UNL A   1      39.073  33.896  38.139  1.00  0.00     0.135 A 
ATOM     85  F   UNL A   1      41.097  35.838  35.819  1.00  0.00    -0.206 F 
ATOM     86  C   UNL A   1      40.164  36.448  37.886  1.00  0.00     0.059 A 
ATOM     87  C   UNL A   1      38.846  34.837  39.139  1.00  0.00     0.059 A 
ATOM     88  F   UNL A   1      38.536  32.674  38.286  1.00  0.00    -0.206 F 
ATOM     89  C   UNL A   1      39.406  36.107  39.008  1.00  0.00     0.060 A 
BRANCH  89  90
ATOM     90  S   UNL A   1      39.133  37.356  40.284  1.00  0.00     0.124 S 
ATOM     91  O   UNL A   1      38.490  36.570  41.332  1.00  0.00    -0.237 OA
ATOM     92  O   UNL A   1      40.489  37.811  40.576  1.00  0.00    -0.237 OA
ATOM     93  O   UNL A   1      38.280  38.337  39.619  1.00  0.00    -0.744 OA
ENDBRANCH  89  90
ENDBRANCH  57  82
ENDBRANCH  31  32
ENDBRANCH  24  26
ENDBRANCH  23  24
ENDBRANCH  22  23
ENDBRANCH   1  22
TORSDOF 17
ENDMDL
MODEL 2
REMARK VINA RESULT:     -11.2      1.123      2.092
REMARK SMILES Cc1oc(CNC(=O)c2ccnn2C)cc1C(=O)OCCOC(=O)c1ccc(-c2c3nc(c(-c4c(F)cc(S(=O)(=O)[O-])cc4F)c4ccc([nH]4)c(-c4c(F)cc(S(=O)(=O)[O-])cc4F)c4nc(c(-c5c(F)cc(S(=O)(=O)[O-])cc5F)c5ccc2[nH]5)C=C4)C=C3)cc1
REMARK SMILES IDX 20 1 19 2 17 3 18 4 16 5 1 6 2 7 3 8 4 9 15 10 5 11 6 12
REMARK SMILES IDX 7 13 8 15 9 16 10 17 13 18 11 19 12 20 14 21 21 22 22 23
REMARK SMILES IDX 23 24 24 25 25 26 26 27 90 28 27 29 89 30 28 31 29 32 30 33
REMARK SMILES IDX 83 34 31 35 88 36 82 37 84 38 32 39 87 40 81 41 80 42 33 44
REMARK SMILES IDX 67 45 46 46 66 47 47 48 50 49 65 50 85 51 48 52 49 53 64 55
REMARK SMILES IDX 86 56 51 57 34 58 35 59 44 60 36 61 37 62 43 63 45 64 38 65
REMARK SMILES IDX 39 66 40 67 41 68 42 69 68 70 69 71 78 72 70 73 71 74 77 75
REMARK SMILES IDX 79 76 72 77 73 78 74 79 75 80 76 81 52 82 53 83 62 84 54 85
REMARK SMILES IDX 55 86 61 87 63 88 56 89 57 90 58 91 59 92 60 93
REMARK H PARENT 6 14 84 43 50 54
REMARK Flexibility Score: inf
ROOT
ATOM      1  C   UNL A   1      39.038  21.395  25.860  1.00  0.00     0.275 C 
ENDROOT
BRANCH   1   2
ATOM      2  O   UNL A   1      37.836  22.119  25.535  1.00  0.00    -0.458 OA
BRANCH   2   3
ATOM      3  C   UNL A   1      36.756  21.344  25.227  1.00  0.00     0.341 C 
ATOM      4  O   UNL A   1      36.820  20.163  24.924  1.00  0.00    -0.246 OA
BRANCH   3   5
ATOM      5  C   UNL A   1      35.482  22.018  25.406  1.00  0.00     0.101 A 
ATOM      6  C   UNL A   1      33.592  20.212  25.011  1.00  0.00     0.088 C 
ATOM      7  C   UNL A   1      34.190  21.540  25.261  1.00  0.00     0.115 A 
ATOM      8  O   UNL A   1      33.286  22.550  25.460  1.00  0.00    -0.464 OA
ATOM      9  C   UNL A   1      33.994  23.673  25.765  1.00  0.00     0.124 A 
ATOM     10  C   UNL A   1      35.333  23.376  25.811  1.00  0.00     0.063 A 
BRANCH   9  11
ATOM     11  C   UNL A   1      33.270  24.922  26.086  1.00  0.00     0.191 C 
BRANCH  11  12
ATOM     12  N   UNL A   1      31.864  24.699  26.321  1.00  0.00    -0.343 N 
ATOM     13  C   UNL A   1      30.863  25.634  26.344  1.00  0.00     0.269 C 
ATOM     14  H   UNL A   1      31.593  23.766  26.483  1.00  0.00     0.164 HD
ATOM     15  O   UNL A   1      29.722  25.278  26.627  1.00  0.00    -0.268 OA
BRANCH  13  16
ATOM     16  C   UNL A   1      31.215  27.009  26.114  1.00  0.00     0.125 A 
ATOM     17  C   UNL A   1      31.745  27.900  27.031  1.00  0.00     0.055 A 
ATOM     18  N   UNL A   1      31.075  27.734  24.956  1.00  0.00    -0.263 N 
ATOM     19  C   UNL A   1      32.006  29.069  26.303  1.00  0.00     0.136 A 
ATOM     20  N   UNL A   1      31.625  28.965  25.030  1.00  0.00    -0.181 NA
ATOM     21  C   UNL A   1      30.466  27.329  23.709  1.00  0.00     0.174 C 
ENDBRANCH  13  16
ENDBRANCH  11  12
ENDBRANCH   9  11
ENDBRANCH   3   5
ENDBRANCH   2   3
ENDBRANCH   1   2
BRANCH   1  22
ATOM     22  C   UNL A   1      39.913  22.197  26.824  1.00  0.00     0.275 C 
BRANCH  22  23
ATOM     23  O   UNL A   1      39.676  23.611  26.677  1.00  0.00    -0.458 OA
BRANCH  23  24
ATOM     24  C   UNL A   1      40.777  24.399  26.712  1.00  0.00     0.338 C 
ATOM     25  O   UNL A   1      41.807  24.259  26.077  1.00  0.00    -0.246 OA
BRANCH  24  26
ATOM     26  C   UNL A   1      40.547  25.535  27.619  1.00  0.00     0.060 A 
ATOM     27  C   UNL A   1      41.468  26.578  27.623  1.00  0.00     0.016 A 
ATOM     28  C   UNL A   1      39.512  25.512  28.553  1.00  0.00     0.016 A 
ATOM     29  C   UNL A   1      41.399  27.580  28.589  1.00  0.00     0.010 A 
ATOM     30  C   UNL A   1      39.406  26.553  29.487  1.00  0.00     0.010 A 
ATOM     31  C   UNL A   1      40.363  27.583  29.534  1.00  0.00    -0.014 A 
BRANCH  31  32
ATOM     32  C   UNL A   1      40.318  28.633  30.593  1.00  0.00     0.031 A 
ATOM     33  C   UNL A   1      41.280  28.581  31.752  1.00  0.00     0.074 A 
ATOM     34  C   UNL A   1      39.436  29.650  30.512  1.00  0.00     0.049 A 
ATOM     35  N   UNL A   1      41.311  29.315  32.836  1.00  0.00    -0.248 NA
ATOM     36  C   UNL A   1      42.344  27.567  31.686  1.00  0.00     0.031 C 
ATOM     37  C   UNL A   1      38.475  29.853  29.426  1.00  0.00     0.029 A 
ATOM     38  N   UNL A   1      39.206  30.708  31.358  1.00  0.00    -0.354 N 
ATOM     39  C   UNL A   1      42.361  28.820  33.603  1.00  0.00     0.074 A 
ATOM     40  C   UNL A   1      42.943  27.723  32.858  1.00  0.00     0.031 C 
ATOM     41  C   UNL A   1      37.780  30.978  29.658  1.00  0.00     0.029 A 
ATOM     42  C   UNL A   1      38.191  31.538  30.942  1.00  0.00     0.049 A 
ATOM     43  H   UNL A   1      39.721  30.858  32.184  1.00  0.00     0.167 HD
ATOM     44  C   UNL A   1      42.799  29.240  34.814  1.00  0.00     0.037 A 
ATOM     45  C   UNL A   1      37.625  32.605  31.540  1.00  0.00     0.037 A 
ATOM     46  C   UNL A   1      42.252  30.362  35.533  1.00  0.00     0.049 A 
ATOM     47  C   UNL A   1      38.111  33.040  32.894  1.00  0.00     0.074 A 
ATOM     48  C   UNL A   1      42.639  30.869  36.763  1.00  0.00     0.029 A 
ATOM     49  N   UNL A   1      41.210  31.160  35.084  1.00  0.00    -0.354 N 
ATOM     50  N   UNL A   1      39.074  32.530  33.626  1.00  0.00    -0.248 NA
ATOM     51  C   UNL A   1      37.426  34.183  33.513  1.00  0.00     0.031 C 
ATOM     52  C   UNL A   1      41.813  31.956  37.069  1.00  0.00     0.029 A 
ATOM     53  C   UNL A   1      40.935  32.150  36.015  1.00  0.00     0.049 A 
ATOM     54  H   UNL A   1      40.736  31.042  34.230  1.00  0.00     0.167 HD
ATOM     55  C   UNL A   1      39.113  33.294  34.786  1.00  0.00     0.074 A 
ATOM     56  C   UNL A   1      38.092  34.313  34.652  1.00  0.00     0.031 C 
ATOM     57  C   UNL A   1      39.919  33.160  35.868  1.00  0.00     0.037 A 
BRANCH  44  58
ATOM     58  C   UNL A   1      43.910  28.461  35.460  1.00  0.00     0.058 A 
ATOM     59  C   UNL A   1      45.261  28.726  35.189  1.00  0.00     0.135 A 
ATOM     60  C   UNL A   1      43.615  27.449  36.391  1.00  0.00     0.135 A 
ATOM     61  F   UNL A   1      45.597  29.670  34.297  1.00  0.00    -0.206 F 
ATOM     62  C   UNL A   1      46.281  27.998  35.797  1.00  0.00     0.059 A 
ATOM     63  C   UNL A   1      44.618  26.726  37.027  1.00  0.00     0.059 A 
ATOM     64  F   UNL A   1      42.339  27.156  36.686  1.00  0.00    -0.206 F 
ATOM     65  C   UNL A   1      45.948  26.997  36.711  1.00  0.00     0.060 A 
BRANCH  65  66
ATOM     66  S   UNL A   1      47.278  26.054  37.489  1.00  0.00     0.124 S 
ATOM     67  O   UNL A   1      48.457  26.778  37.023  1.00  0.00    -0.237 OA
ATOM     68  O   UNL A   1      46.971  26.190  38.910  1.00  0.00    -0.237 OA
ATOM     69  O   UNL A   1      47.108  24.713  36.940  1.00  0.00    -0.744 OA
ENDBRANCH  65  66
ENDBRANCH  44  58
BRANCH  45  70
ATOM     70  C   UNL A   1      36.503  33.317  30.873  1.00  0.00     0.058 A 
ATOM     71  C   UNL A   1      35.184  33.178  31.329  1.00  0.00     0.135 A 
ATOM     72  C   UNL A   1      36.731  34.163  29.776  1.00  0.00     0.135 A 
ATOM     73  F   UNL A   1      34.914  32.371  32.366  1.00  0.00    -0.206 F 
ATOM     74  C   UNL A   1      34.129  33.850  30.721  1.00  0.00     0.059 A 
ATOM     75  C   UNL A   1      35.696  34.865  29.167  1.00  0.00     0.059 A 
ATOM     76  F   UNL A   1      37.976  34.335  29.308  1.00  0.00    -0.206 F 
ATOM     77  C   UNL A   1      34.396  34.696  29.642  1.00  0.00     0.060 A 
BRANCH  77  78
ATOM     78  S   UNL A   1      33.034  35.620  28.900  1.00  0.00     0.124 S 
ATOM     79  O   UNL A   1      33.750  36.641  28.145  1.00  0.00    -0.237 OA
ATOM     80  O   UNL A   1      32.358  34.595  28.110  1.00  0.00    -0.237 OA
ATOM     81  O   UNL A   1      32.285  36.097  30.060  1.00  0.00    -0.744 OA
ENDBRANCH  77  78
ENDBRANCH  45  70
BRANCH  57  82
ATOM     82  C   UNL A   1      39.748  34.153  36.982  1.00  0.00     0.058 A 
ATOM     83  C   UNL A   1      39.039  33.831  38.149  1.00  0.00     0.135 A 
ATOM     84  C   UNL A   1      40.338  35.425  36.898  1.00  0.00     0.135 A 
ATOM     85  F   UNL A   1      38.451  32.631  38.273  1.00  0.00    -0.206 F 
ATOM     86  C   UNL A   1      38.902  34.746  39.190  1.00  0.00     0.059 A 
ATOM     87  C   UNL A   1      40.231  36.346  37.936  1.00  0.00     0.059 A 
ATOM     88  F   UNL A   1      41.034  35.777  35.806  1.00  0.00    -0.206 F 
ATOM     89  C   UNL A   1      39.502  36.001  39.073  1.00  0.00     0.060 A 
BRANCH  89  90
ATOM     90  S   UNL A   1      39.344  37.170  40.441  1.00  0.00     0.124 S 
ATOM     91  O   UNL A   1      38.759  38.327  39.772  1.00  0.00    -0.237 OA
ATOM     92  O   UNL A   1      38.463  36.459  41.362  1.00  0.00    -0.237 OA
ATOM     93  O   UNL A   1      40.719  37.337  40.902  1.00  0.00    -0.744 OA
ENDBRANCH  89  90
ENDBRANCH  57  82
ENDBRANCH  31  32
ENDBRANCH  24  26
ENDBRANCH  23  24
ENDBRANCH  22  23
ENDBRANCH   1  22
TORSDOF 17
ENDMDL
MODEL 3
REMARK VINA RESULT:     -11.1      6.708     12.159
REMARK SMILES Cc1oc(CNC(=O)c2ccnn2C)cc1C(=O)OCCOC(=O)c1ccc(-c2c3nc(c(-c4c(F)cc(S(=O)(=O)[O-])cc4F)c4ccc([nH]4)c(-c4c(F)cc(S(=O)(=O)[O-])cc4F)c4nc(c(-c5c(F)cc(S(=O)(=O)[O-])cc5F)c5ccc2[nH]5)C=C4)C=C3)cc1
REMARK SMILES IDX 20 1 19 2 17 3 18 4 16 5 1 6 2 7 3 8 4 9 15 10 5 11 6 12
REMARK SMILES IDX 7 13 8 15 9 16 10 17 13 18 11 19 12 20 14 21 21 22 22 23
REMARK SMILES IDX 23 24 24 25 25 26 26 27 90 28 27 29 89 30 28 31 29 32 30 33
REMARK SMILES IDX 83 34 31 35 88 36 82 37 84 38 32 39 87 40 81 41 80 42 33 44
REMARK SMILES IDX 67 45 46 46 66 47 47 48 50 49 65 50 85 51 48 52 49 53 64 55
REMARK SMILES IDX 86 56 51 57 34 58 35 59 44 60 36 61 37 62 43 63 45 64 38 65
REMARK SMILES IDX 39 66 40 67 41 68 42 69 68 70 69 71 78 72 70 73 71 74 77 75
REMARK SMILES IDX 79 76 72 77 73 78 74 79 75 80 76 81 52 82 53 83 62 84 54 85
REMARK SMILES IDX 55 86 61 87 63 88 56 89 57 90 58 91 59 92 60 93
REMARK H PARENT 6 14 84 43 50 54
REMARK Flexibility Score: inf
ROOT
ATOM      1  C   UNL A   1      34.698  31.752  27.659  1.00  0.00     0.275 C 
ENDROOT
BRANCH   1   2
ATOM      2  O   UNL A   1      34.151  30.435  27.462  1.00  0.00    -0.458 OA
BRANCH   2   3
ATOM      3  C   UNL A   1      32.887  30.400  26.951  1.00  0.00     0.341 C 
ATOM      4  O   UNL A   1      32.143  31.367  26.888  1.00  0.00    -0.246 OA
BRANCH   3   5
ATOM      5  C   UNL A   1      32.527  29.121  26.365  1.00  0.00     0.101 A 
ATOM      6  C   UNL A   1      30.908  29.629  24.337  1.00  0.00     0.088 C 
ATOM      7  C   UNL A   1      31.668  28.827  25.318  1.00  0.00     0.115 A 
ATOM      8  O   UNL A   1      31.573  27.470  25.151  1.00  0.00    -0.464 OA
ATOM      9  C   UNL A   1      32.396  26.890  26.068  1.00  0.00     0.124 A 
ATOM     10  C   UNL A   1      33.049  27.863  26.783  1.00  0.00     0.063 A 
BRANCH   9  11
ATOM     11  C   UNL A   1      32.538  25.418  26.085  1.00  0.00     0.191 C 
BRANCH  11  12
ATOM     12  N   UNL A   1      31.498  24.774  26.850  1.00  0.00    -0.343 N 
ATOM     13  C   UNL A   1      31.170  23.443  26.857  1.00  0.00     0.269 C 
ATOM     14  H   UNL A   1      30.963  25.358  27.435  1.00  0.00     0.164 HD
ATOM     15  O   UNL A   1      30.207  23.070  27.522  1.00  0.00    -0.268 OA
BRANCH  13  16
ATOM     16  C   UNL A   1      31.926  22.555  26.016  1.00  0.00     0.125 A 
ATOM     17  C   UNL A   1      31.626  22.177  24.719  1.00  0.00     0.055 A 
ATOM     18  N   UNL A   1      33.078  21.874  26.326  1.00  0.00    -0.263 N 
ATOM     19  C   UNL A   1      32.710  21.391  24.303  1.00  0.00     0.136 A 
ATOM     20  N   UNL A   1      33.612  21.225  25.270  1.00  0.00    -0.181 NA
ATOM     21  C   UNL A   1      33.773  21.812  27.592  1.00  0.00     0.174 C 
ENDBRANCH  13  16
ENDBRANCH  11  12
ENDBRANCH   9  11
ENDBRANCH   3   5
ENDBRANCH   2   3
ENDBRANCH   1   2
BRANCH   1  22
ATOM     22  C   UNL A   1      34.760  32.099  29.147  1.00  0.00     0.275 C 
BRANCH  22  23
ATOM     23  O   UNL A   1      36.125  32.134  29.609  1.00  0.00    -0.458 OA
BRANCH  23  24
ATOM     24  C   UNL A   1      36.473  31.168  30.491  1.00  0.00     0.338 C 
ATOM     25  O   UNL A   1      35.856  30.813  31.480  1.00  0.00    -0.246 OA
BRANCH  24  26
ATOM     26  C   UNL A   1      37.727  30.528  30.060  1.00  0.00     0.060 A 
ATOM     27  C   UNL A   1      38.650  30.156  31.032  1.00  0.00     0.016 A 
ATOM     28  C   UNL A   1      38.052  30.420  28.709  1.00  0.00     0.016 A 
ATOM     29  C   UNL A   1      39.923  29.722  30.670  1.00  0.00     0.010 A 
ATOM     30  C   UNL A   1      39.311  29.924  28.342  1.00  0.00     0.010 A 
ATOM     31  C   UNL A   1      40.271  29.597  29.317  1.00  0.00    -0.014 A 
BRANCH  31  32
ATOM     32  C   UNL A   1      41.650  29.174  28.934  1.00  0.00     0.031 A 
ATOM     33  C   UNL A   1      42.784  30.165  28.969  1.00  0.00     0.074 A 
ATOM     34  C   UNL A   1      41.900  27.897  28.578  1.00  0.00     0.049 A 
ATOM     35  N   UNL A   1      44.015  30.031  28.546  1.00  0.00    -0.248 NA
ATOM     36  C   UNL A   1      42.493  31.485  29.552  1.00  0.00     0.031 C 
ATOM     37  C   UNL A   1      40.910  26.818  28.540  1.00  0.00     0.029 A 
ATOM     38  N   UNL A   1      43.066  27.288  28.182  1.00  0.00    -0.354 N 
ATOM     39  C   UNL A   1      44.631  31.259  28.763  1.00  0.00     0.074 A 
ATOM     40  C   UNL A   1      43.636  32.127  29.357  1.00  0.00     0.031 C 
ATOM     41  C   UNL A   1      41.515  25.678  28.170  1.00  0.00     0.029 A 
ATOM     42  C   UNL A   1      42.917  25.956  27.872  1.00  0.00     0.049 A 
ATOM     43  H   UNL A   1      43.928  27.761  28.126  1.00  0.00     0.167 HD
ATOM     44  C   UNL A   1      45.906  31.630  28.492  1.00  0.00     0.037 A 
ATOM     45  C   UNL A   1      43.794  25.065  27.368  1.00  0.00     0.037 A 
ATOM     46  C   UNL A   1      46.909  30.752  27.946  1.00  0.00     0.049 A 
ATOM     47  C   UNL A   1      45.197  25.504  27.055  1.00  0.00     0.074 A 
ATOM     48  C   UNL A   1      48.232  31.036  27.648  1.00  0.00     0.029 A 
ATOM     49  N   UNL A   1      46.708  29.418  27.628  1.00  0.00    -0.354 N 
ATOM     50  N   UNL A   1      45.748  26.682  27.221  1.00  0.00    -0.248 NA
ATOM     51  C   UNL A   1      46.094  24.498  26.468  1.00  0.00     0.031 C 
ATOM     52  C   UNL A   1      48.822  29.881  27.124  1.00  0.00     0.029 A 
ATOM     53  C   UNL A   1      47.878  28.867  27.129  1.00  0.00     0.049 A 
ATOM     54  H   UNL A   1      45.859  28.933  27.739  1.00  0.00     0.167 HD
ATOM     55  C   UNL A   1      47.056  26.557  26.767  1.00  0.00     0.074 A 
ATOM     56  C   UNL A   1      47.221  25.184  26.337  1.00  0.00     0.031 C 
ATOM     57  C   UNL A   1      48.030  27.498  26.708  1.00  0.00     0.037 A 
BRANCH  44  58
ATOM     58  C   UNL A   1      46.284  33.061  28.752  1.00  0.00     0.058 A 
ATOM     59  C   UNL A   1      46.124  34.062  27.782  1.00  0.00     0.135 A 
ATOM     60  C   UNL A   1      46.787  33.441  30.008  1.00  0.00     0.135 A 
ATOM     61  F   UNL A   1      45.662  33.750  26.561  1.00  0.00    -0.206 F 
ATOM     62  C   UNL A   1      46.475  35.385  28.038  1.00  0.00     0.059 A 
ATOM     63  C   UNL A   1      47.123  34.760  30.293  1.00  0.00     0.059 A 
ATOM     64  F   UNL A   1      46.959  32.522  30.972  1.00  0.00    -0.206 F 
ATOM     65  C   UNL A   1      46.978  35.722  29.296  1.00  0.00     0.060 A 
BRANCH  65  66
ATOM     66  S   UNL A   1      47.437  37.440  29.615  1.00  0.00     0.124 S 
ATOM     67  O   UNL A   1      48.850  37.305  29.954  1.00  0.00    -0.237 OA
ATOM     68  O   UNL A   1      47.150  38.085  28.337  1.00  0.00    -0.237 OA
ATOM     69  O   UNL A   1      46.561  37.825  30.717  1.00  0.00    -0.744 OA
ENDBRANCH  65  66
ENDBRANCH  44  58
BRANCH  45  70
ATOM     70  C   UNL A   1      43.356  23.671  27.095  1.00  0.00     0.058 A 
ATOM     71  C   UNL A   1      43.128  22.765  28.142  1.00  0.00     0.135 A 
ATOM     72  C   UNL A   1      43.139  23.223  25.783  1.00  0.00     0.135 A 
ATOM     73  F   UNL A   1      43.334  23.144  29.413  1.00  0.00    -0.206 F 
ATOM     74  C   UNL A   1      42.704  21.463  27.899  1.00  0.00     0.059 A 
ATOM     75  C   UNL A   1      42.691  21.934  25.515  1.00  0.00     0.059 A 
ATOM     76  F   UNL A   1      43.334  24.054  24.748  1.00  0.00    -0.206 F 
ATOM     77  C   UNL A   1      42.483  21.058  26.580  1.00  0.00     0.060 A 
BRANCH  77  78
ATOM     78  S   UNL A   1      41.866  19.389  26.273  1.00  0.00     0.124 S 
ATOM     79  O   UNL A   1      42.485  19.079  24.990  1.00  0.00    -0.237 OA
ATOM     80  O   UNL A   1      42.376  18.652  27.425  1.00  0.00    -0.237 OA
ATOM     81  O   UNL A   1      40.417  19.570  26.249  1.00  0.00    -0.744 OA
ENDBRANCH  77  78
ENDBRANCH  45  70
BRANCH  57  82
ATOM     82  C   UNL A   1      49.370  27.069  26.181  1.00  0.00     0.058 A 
ATOM     83  C   UNL A   1      50.350  26.524  27.023  1.00  0.00     0.135 A 
ATOM     84  C   UNL A   1      49.659  27.166  24.810  1.00  0.00     0.135 A 
ATOM     85  F   UNL A   1      50.124  26.418  28.342  1.00  0.00    -0.206 F 
ATOM     86  C   UNL A   1      51.582  26.106  26.527  1.00  0.00     0.059 A 
ATOM     87  C   UNL A   1      50.876  26.735  24.290  1.00  0.00     0.059 A 
ATOM     88  F   UNL A   1      48.751  27.674  23.961  1.00  0.00    -0.206 F 
ATOM     89  C   UNL A   1      51.835  26.217  25.159  1.00  0.00     0.060 A 
BRANCH  89  90
ATOM     90  S   UNL A   1      53.425  25.645  24.521  1.00  0.00     0.124 S 
ATOM     91  O   UNL A   1      54.352  26.559  25.180  1.00  0.00    -0.237 OA
ATOM     92  O   UNL A   1      53.468  24.259  24.979  1.00  0.00    -0.237 OA
ATOM     93  O   UNL A   1      53.291  25.816  23.077  1.00  0.00    -0.744 OA
ENDBRANCH  89  90
ENDBRANCH  57  82
ENDBRANCH  31  32
ENDBRANCH  24  26
ENDBRANCH  23  24
ENDBRANCH  22  23
ENDBRANCH   1  22
TORSDOF 17
ENDMDL
