MODEL 1
REMARK VINA RESULT:     -10.8      0.000      0.000
REMARK SMILES Cc1cc(C)cc(C[N@@H+]2CCO[C@@H](CC(=O)OCCOC(=O)c3ccc(-c4c5nc(c(-c6c(F)cc(S(=O)(=O)[O-])cc6F)c6ccc([nH]6)c(-c6c(F)cc(S(=O)(=O)[O-])cc6F)c6nc(c(-c7c(F)cc(S(=O)(=O)[O-])cc7F)c7ccc4[nH]7)C=C6)C=C5)cc3)C2)c1
REMARK SMILES IDX 18 1 17 2 15 3 16 4 14 5 13 6 9 7 10 8 89 9 11 11 12 12 8 13
REMARK SMILES IDX 7 14 1 15 2 16 3 17 90 18 4 19 5 20 6 21 19 22 20 23 21 24
REMARK SMILES IDX 22 25 23 26 24 27 88 28 25 29 87 30 26 31 27 32 28 33 81 34
REMARK SMILES IDX 29 35 86 36 80 37 82 38 30 39 85 40 79 41 78 42 31 44 65 45
REMARK SMILES IDX 44 46 64 47 45 48 48 49 63 50 83 51 46 52 47 53 62 55 84 56
REMARK SMILES IDX 49 57 32 58 33 59 42 60 34 61 35 62 41 63 43 64 36 65 37 66
REMARK SMILES IDX 38 67 39 68 40 69 66 70 67 71 76 72 68 73 69 74 75 75 77 76
REMARK SMILES IDX 70 77 71 78 72 79 73 80 74 81 50 82 51 83 60 84 52 85 53 86
REMARK SMILES IDX 59 87 61 88 54 89 55 90 56 91 57 92 58 93
REMARK H PARENT 9 10 82 43 48 54
REMARK Flexibility Score: inf
ROOT
ATOM      1  C   UNL A   1      42.887  21.721  25.942  1.00  0.00     0.274 C 
ENDROOT
BRANCH   1   2
ATOM      2  O   UNL A   1      41.501  21.391  25.720  1.00  0.00    -0.462 OA
BRANCH   2   3
ATOM      3  C   UNL A   1      40.688  21.451  26.809  1.00  0.00     0.308 C 
ATOM      4  O   UNL A   1      40.620  20.588  27.674  1.00  0.00    -0.252 OA
BRANCH   3   5
ATOM      5  C   UNL A   1      39.784  22.650  26.775  1.00  0.00     0.160 C 
BRANCH   5   6
ATOM      6  C   UNL A   1      38.360  22.466  26.248  1.00  0.00     0.184 C 
ATOM      7  N   UNL A   1      36.569  23.541  24.752  1.00  0.00    -0.327 N 
ATOM      8  C   UNL A   1      36.682  22.342  23.922  1.00  0.00     0.291 C 
ATOM      9  C   UNL A   1      37.755  23.741  25.603  1.00  0.00     0.295 C 
ATOM     10  H   UNL A   1      36.585  24.322  24.095  1.00  0.00     0.348 HD
ATOM     11  C   UNL A   1      37.260  21.114  24.638  1.00  0.00     0.222 C 
ATOM     12  O   UNL A   1      38.508  21.424  25.250  1.00  0.00    -0.366 OA
BRANCH   7  13
ATOM     13  C   UNL A   1      35.261  23.803  25.360  1.00  0.00     0.299 C 
BRANCH  13  14
ATOM     14  C   UNL A   1      34.447  24.971  24.855  1.00  0.00     0.007 A 
ATOM     15  C   UNL A   1      32.869  28.163  26.228  1.00  0.00     0.044 C 
ATOM     16  C   UNL A   1      33.272  27.067  25.290  1.00  0.00    -0.050 A 
ATOM     17  C   UNL A   1      32.840  27.098  23.961  1.00  0.00     0.006 A 
ATOM     18  C   UNL A   1      34.065  25.999  25.727  1.00  0.00     0.013 A 
ATOM     19  C   UNL A   1      33.246  26.110  23.060  1.00  0.00    -0.050 A 
ATOM     20  C   UNL A   1      32.723  26.118  21.654  1.00  0.00     0.044 C 
ATOM     21  C   UNL A   1      34.086  25.083  23.505  1.00  0.00     0.013 A 
ENDBRANCH  13  14
ENDBRANCH   7  13
ENDBRANCH   5   6
ENDBRANCH   3   5
ENDBRANCH   2   3
ENDBRANCH   1   2
BRANCH   1  22
ATOM     22  C   UNL A   1      43.229  23.162  25.544  1.00  0.00     0.275 C 
BRANCH  22  23
ATOM     23  O   UNL A   1      42.966  24.108  26.599  1.00  0.00    -0.458 OA
BRANCH  23  24
ATOM     24  C   UNL A   1      42.449  25.283  26.176  1.00  0.00     0.338 C 
ATOM     25  O   UNL A   1      42.200  25.570  25.010  1.00  0.00    -0.246 OA
BRANCH  24  26
ATOM     26  C   UNL A   1      42.119  26.181  27.292  1.00  0.00     0.060 A 
ATOM     27  C   UNL A   1      42.929  27.307  27.486  1.00  0.00     0.016 A 
ATOM     28  C   UNL A   1      41.102  25.875  28.199  1.00  0.00     0.016 A 
ATOM     29  C   UNL A   1      42.725  28.131  28.590  1.00  0.00     0.010 A 
ATOM     30  C   UNL A   1      40.903  26.701  29.310  1.00  0.00     0.010 A 
ATOM     31  C   UNL A   1      41.715  27.830  29.513  1.00  0.00    -0.014 A 
BRANCH  31  32
ATOM     32  C   UNL A   1      41.477  28.730  30.665  1.00  0.00     0.031 A 
ATOM     33  C   UNL A   1      42.303  28.623  31.912  1.00  0.00     0.074 A 
ATOM     34  C   UNL A   1      40.501  29.651  30.570  1.00  0.00     0.049 A 
ATOM     35  N   UNL A   1      42.209  29.303  33.025  1.00  0.00    -0.248 NA
ATOM     36  C   UNL A   1      43.379  27.621  31.909  1.00  0.00     0.031 C 
ATOM     37  C   UNL A   1      39.656  29.860  29.392  1.00  0.00     0.029 A 
ATOM     38  N   UNL A   1      40.048  30.572  31.478  1.00  0.00    -0.354 N 
ATOM     39  C   UNL A   1      43.214  28.820  33.853  1.00  0.00     0.074 A 
ATOM     40  C   UNL A   1      43.895  27.772  33.122  1.00  0.00     0.031 C 
ATOM     41  C   UNL A   1      38.774  30.838  29.657  1.00  0.00     0.029 A 
ATOM     42  C   UNL A   1      38.973  31.300  31.027  1.00  0.00     0.049 A 
ATOM     43  H   UNL A   1      40.453  30.701  32.365  1.00  0.00     0.167 HD
ATOM     44  C   UNL A   1      43.537  29.217  35.108  1.00  0.00     0.037 A 
ATOM     45  C   UNL A   1      38.216  32.217  31.659  1.00  0.00     0.037 A 
ATOM     46  C   UNL A   1      42.840  30.250  35.832  1.00  0.00     0.049 A 
ATOM     47  C   UNL A   1      38.552  32.594  33.074  1.00  0.00     0.074 A 
ATOM     48  C   UNL A   1      43.098  30.736  37.103  1.00  0.00     0.029 A 
ATOM     49  N   UNL A   1      41.739  30.948  35.355  1.00  0.00    -0.354 N 
ATOM     50  N   UNL A   1      39.520  32.147  33.837  1.00  0.00    -0.248 NA
ATOM     51  C   UNL A   1      37.695  33.601  33.716  1.00  0.00     0.031 C 
ATOM     52  C   UNL A   1      42.128  31.699  37.409  1.00  0.00     0.029 A 
ATOM     53  C   UNL A   1      41.292  31.842  36.313  1.00  0.00     0.049 A 
ATOM     54  H   UNL A   1      41.336  30.826  34.465  1.00  0.00     0.167 HD
ATOM     55  C   UNL A   1      39.403  32.830  35.041  1.00  0.00     0.074 A 
ATOM     56  C   UNL A   1      38.273  33.727  34.903  1.00  0.00     0.031 C 
ATOM     57  C   UNL A   1      40.164  32.727  36.158  1.00  0.00     0.037 A 
BRANCH  44  58
ATOM     58  C   UNL A   1      44.680  28.521  35.791  1.00  0.00     0.058 A 
ATOM     59  C   UNL A   1      46.001  28.978  35.663  1.00  0.00     0.135 A 
ATOM     60  C   UNL A   1      44.447  27.415  36.624  1.00  0.00     0.135 A 
ATOM     61  F   UNL A   1      46.282  30.022  34.868  1.00  0.00    -0.206 F 
ATOM     62  C   UNL A   1      47.054  28.351  36.324  1.00  0.00     0.059 A 
ATOM     63  C   UNL A   1      45.482  26.785  37.309  1.00  0.00     0.059 A 
ATOM     64  F   UNL A   1      43.203  26.937  36.779  1.00  0.00    -0.206 F 
ATOM     65  C   UNL A   1      46.784  27.254  37.144  1.00  0.00     0.060 A 
BRANCH  65  66
ATOM     66  S   UNL A   1      48.158  26.455  38.002  1.00  0.00     0.124 S 
ATOM     67  O   UNL A   1      48.974  27.607  38.379  1.00  0.00    -0.237 OA
ATOM     68  O   UNL A   1      47.487  25.768  39.100  1.00  0.00    -0.237 OA
ATOM     69  O   UNL A   1      48.736  25.586  36.982  1.00  0.00    -0.744 OA
ENDBRANCH  65  66
ENDBRANCH  44  58
BRANCH  45  70
ATOM     70  C   UNL A   1      37.060  32.824  30.953  1.00  0.00     0.058 A 
ATOM     71  C   UNL A   1      37.235  33.885  30.056  1.00  0.00     0.135 A 
ATOM     72  C   UNL A   1      35.761  32.325  31.136  1.00  0.00     0.135 A 
ATOM     73  F   UNL A   1      38.458  34.398  29.852  1.00  0.00    -0.206 F 
ATOM     74  C   UNL A   1      36.160  34.437  29.366  1.00  0.00     0.059 A 
ATOM     75  C   UNL A   1      34.674  32.845  30.443  1.00  0.00     0.059 A 
ATOM     76  F   UNL A   1      35.546  31.299  31.976  1.00  0.00    -0.206 F 
ATOM     77  C   UNL A   1      34.883  33.907  29.565  1.00  0.00     0.060 A 
BRANCH  77  78
ATOM     78  S   UNL A   1      33.501  34.588  28.622  1.00  0.00     0.124 S 
ATOM     79  O   UNL A   1      33.149  33.461  27.765  1.00  0.00    -0.237 OA
ATOM     80  O   UNL A   1      32.541  34.915  29.671  1.00  0.00    -0.237 OA
ATOM     81  O   UNL A   1      34.093  35.738  27.945  1.00  0.00    -0.744 OA
ENDBRANCH  77  78
ENDBRANCH  45  70
BRANCH  57  82
ATOM     82  C   UNL A   1      39.814  33.622  37.313  1.00  0.00     0.058 A 
ATOM     83  C   UNL A   1      38.917  33.214  38.311  1.00  0.00     0.135 A 
ATOM     84  C   UNL A   1      40.422  34.880  37.446  1.00  0.00     0.135 A 
ATOM     85  F   UNL A   1      38.304  32.022  38.223  1.00  0.00    -0.206 F 
ATOM     86  C   UNL A   1      38.621  34.032  39.396  1.00  0.00     0.059 A 
ATOM     87  C   UNL A   1      40.155  35.705  38.533  1.00  0.00     0.059 A 
ATOM     88  F   UNL A   1      41.293  35.312  36.521  1.00  0.00    -0.206 F 
ATOM     89  C   UNL A   1      39.245  35.277  39.499  1.00  0.00     0.060 A 
BRANCH  89  90
ATOM     90  S   UNL A   1      38.882  36.315  40.931  1.00  0.00     0.124 S 
ATOM     91  O   UNL A   1      40.154  36.287  41.643  1.00  0.00    -0.237 OA
ATOM     92  O   UNL A   1      38.527  37.589  40.314  1.00  0.00    -0.237 OA
ATOM     93  O   UNL A   1      37.779  35.615  41.585  1.00  0.00    -0.744 OA
ENDBRANCH  89  90
ENDBRANCH  57  82
ENDBRANCH  31  32
ENDBRANCH  24  26
ENDBRANCH  23  24
ENDBRANCH  22  23
ENDBRANCH   1  22
TORSDOF 17
ENDMDL
MODEL 2
REMARK VINA RESULT:     -10.8      1.501      2.743
REMARK SMILES Cc1cc(C)cc(C[N@@H+]2CCO[C@@H](CC(=O)OCCOC(=O)c3ccc(-c4c5nc(c(-c6c(F)cc(S(=O)(=O)[O-])cc6F)c6ccc([nH]6)c(-c6c(F)cc(S(=O)(=O)[O-])cc6F)c6nc(c(-c7c(F)cc(S(=O)(=O)[O-])cc7F)c7ccc4[nH]7)C=C6)C=C5)cc3)C2)c1
REMARK SMILES IDX 18 1 17 2 15 3 16 4 14 5 13 6 9 7 10 8 89 9 11 11 12 12 8 13
REMARK SMILES IDX 7 14 1 15 2 16 3 17 90 18 4 19 5 20 6 21 19 22 20 23 21 24
REMARK SMILES IDX 22 25 23 26 24 27 88 28 25 29 87 30 26 31 27 32 28 33 81 34
REMARK SMILES IDX 29 35 86 36 80 37 82 38 30 39 85 40 79 41 78 42 31 44 65 45
REMARK SMILES IDX 44 46 64 47 45 48 48 49 63 50 83 51 46 52 47 53 62 55 84 56
REMARK SMILES IDX 49 57 32 58 33 59 42 60 34 61 35 62 41 63 43 64 36 65 37 66
REMARK SMILES IDX 38 67 39 68 40 69 66 70 67 71 76 72 68 73 69 74 75 75 77 76
REMARK SMILES IDX 70 77 71 78 72 79 73 80 74 81 50 82 51 83 60 84 52 85 53 86
REMARK SMILES IDX 59 87 61 88 54 89 55 90 56 91 57 92 58 93
REMARK H PARENT 9 10 82 43 48 54
REMARK Flexibility Score: inf
ROOT
ATOM      1  C   UNL A   1      38.343  21.974  25.511  1.00  0.00     0.274 C 
ENDROOT
BRANCH   1   2
ATOM      2  O   UNL A   1      37.661  23.023  24.792  1.00  0.00    -0.462 OA
BRANCH   2   3
ATOM      3  C   UNL A   1      36.718  22.621  23.898  1.00  0.00     0.308 C 
ATOM      4  O   UNL A   1      36.642  23.020  22.743  1.00  0.00    -0.252 OA
BRANCH   3   5
ATOM      5  C   UNL A   1      35.696  21.715  24.522  1.00  0.00     0.160 C 
BRANCH   5   6
ATOM      6  C   UNL A   1      34.581  22.350  25.354  1.00  0.00     0.184 C 
ATOM      7  N   UNL A   1      32.176  21.986  26.183  1.00  0.00    -0.327 N 
ATOM      8  C   UNL A   1      32.743  21.997  27.531  1.00  0.00     0.291 C 
ATOM      9  C   UNL A   1      33.190  21.690  25.156  1.00  0.00     0.295 C 
ATOM     10  H   UNL A   1      31.545  21.184  26.166  1.00  0.00     0.348 HD
ATOM     11  C   UNL A   1      34.104  22.693  27.653  1.00  0.00     0.222 C 
ATOM     12  O   UNL A   1      35.035  22.157  26.718  1.00  0.00    -0.366 OA
BRANCH   7  13
ATOM     13  C   UNL A   1      31.197  23.032  25.870  1.00  0.00     0.299 C 
BRANCH  13  14
ATOM     14  C   UNL A   1      31.684  24.314  25.237  1.00  0.00     0.007 A 
ATOM     15  C   UNL A   1      31.723  25.971  21.799  1.00  0.00     0.044 C 
ATOM     16  C   UNL A   1      31.955  25.717  23.257  1.00  0.00    -0.050 A 
ATOM     17  C   UNL A   1      32.677  26.644  24.015  1.00  0.00     0.006 A 
ATOM     18  C   UNL A   1      31.472  24.557  23.873  1.00  0.00     0.013 A 
ATOM     19  C   UNL A   1      32.862  26.448  25.386  1.00  0.00    -0.050 A 
ATOM     20  C   UNL A   1      33.693  27.415  26.175  1.00  0.00     0.044 C 
ATOM     21  C   UNL A   1      32.320  25.308  25.993  1.00  0.00     0.013 A 
ENDBRANCH  13  14
ENDBRANCH   7  13
ENDBRANCH   5   6
ENDBRANCH   3   5
ENDBRANCH   2   3
ENDBRANCH   1   2
BRANCH   1  22
ATOM     22  C   UNL A   1      39.300  22.511  26.583  1.00  0.00     0.275 C 
BRANCH  22  23
ATOM     23  O   UNL A   1      39.271  23.947  26.687  1.00  0.00    -0.458 OA
BRANCH  23  24
ATOM     24  C   UNL A   1      40.490  24.522  26.787  1.00  0.00     0.338 C 
ATOM     25  O   UNL A   1      41.440  24.309  26.041  1.00  0.00    -0.246 OA
BRANCH  24  26
ATOM     26  C   UNL A   1      40.546  25.527  27.858  1.00  0.00     0.060 A 
ATOM     27  C   UNL A   1      39.427  25.662  28.687  1.00  0.00     0.016 A 
ATOM     28  C   UNL A   1      41.631  26.398  27.985  1.00  0.00     0.016 A 
ATOM     29  C   UNL A   1      39.387  26.670  29.648  1.00  0.00     0.010 A 
ATOM     30  C   UNL A   1      41.586  27.414  28.946  1.00  0.00     0.010 A 
ATOM     31  C   UNL A   1      40.463  27.557  29.779  1.00  0.00    -0.014 A 
BRANCH  31  32
ATOM     32  C   UNL A   1      40.433  28.603  30.827  1.00  0.00     0.031 A 
ATOM     33  C   UNL A   1      41.338  28.527  32.021  1.00  0.00     0.074 A 
ATOM     34  C   UNL A   1      39.574  29.629  30.686  1.00  0.00     0.049 A 
ATOM     35  N   UNL A   1      41.420  29.333  33.047  1.00  0.00    -0.248 NA
ATOM     36  C   UNL A   1      42.278  27.398  32.067  1.00  0.00     0.031 C 
ATOM     37  C   UNL A   1      38.667  29.815  29.551  1.00  0.00     0.029 A 
ATOM     38  N   UNL A   1      39.313  30.696  31.505  1.00  0.00    -0.354 N 
ATOM     39  C   UNL A   1      42.422  28.816  33.859  1.00  0.00     0.074 A 
ATOM     40  C   UNL A   1      42.906  27.613  33.215  1.00  0.00     0.031 C 
ATOM     41  C   UNL A   1      37.937  30.924  29.754  1.00  0.00     0.029 A 
ATOM     42  C   UNL A   1      38.302  31.505  31.042  1.00  0.00     0.049 A 
ATOM     43  H   UNL A   1      39.802  30.869  32.341  1.00  0.00     0.167 HD
ATOM     44  C   UNL A   1      42.892  29.305  35.032  1.00  0.00     0.037 A 
ATOM     45  C   UNL A   1      37.718  32.578  31.608  1.00  0.00     0.037 A 
ATOM     46  C   UNL A   1      42.388  30.494  35.671  1.00  0.00     0.049 A 
ATOM     47  C   UNL A   1      38.212  33.063  32.941  1.00  0.00     0.074 A 
ATOM     48  C   UNL A   1      42.807  31.081  36.854  1.00  0.00     0.029 A 
ATOM     49  N   UNL A   1      41.347  31.274  35.187  1.00  0.00    -0.354 N 
ATOM     50  N   UNL A   1      39.177  32.579  33.687  1.00  0.00    -0.248 NA
ATOM     51  C   UNL A   1      37.541  34.238  33.513  1.00  0.00     0.031 C 
ATOM     52  C   UNL A   1      41.991  32.191  37.106  1.00  0.00     0.029 A 
ATOM     53  C   UNL A   1      41.093  32.320  36.058  1.00  0.00     0.049 A 
ATOM     54  H   UNL A   1      40.861  31.108  34.347  1.00  0.00     0.167 HD
ATOM     55  C   UNL A   1      39.243  33.401  34.805  1.00  0.00     0.074 A 
ATOM     56  C   UNL A   1      38.225  34.418  34.635  1.00  0.00     0.031 C 
ATOM     57  C   UNL A   1      40.073  33.323  35.873  1.00  0.00     0.037 A 
BRANCH  44  58
ATOM     58  C   UNL A   1      43.992  28.544  35.716  1.00  0.00     0.058 A 
ATOM     59  C   UNL A   1      45.345  28.816  35.458  1.00  0.00     0.135 A 
ATOM     60  C   UNL A   1      43.693  27.567  36.679  1.00  0.00     0.135 A 
ATOM     61  F   UNL A   1      45.687  29.731  34.537  1.00  0.00    -0.206 F 
ATOM     62  C   UNL A   1      46.362  28.134  36.119  1.00  0.00     0.059 A 
ATOM     63  C   UNL A   1      44.694  26.885  37.365  1.00  0.00     0.059 A 
ATOM     64  F   UNL A   1      42.415  27.267  36.962  1.00  0.00    -0.206 F 
ATOM     65  C   UNL A   1      46.026  27.169  37.070  1.00  0.00     0.060 A 
BRANCH  65  66
ATOM     66  S   UNL A   1      47.356  26.296  37.925  1.00  0.00     0.124 S 
ATOM     67  O   UNL A   1      46.603  25.360  38.755  1.00  0.00    -0.237 OA
ATOM     68  O   UNL A   1      48.104  25.702  36.821  1.00  0.00    -0.237 OA
ATOM     69  O   UNL A   1      48.050  27.357  38.649  1.00  0.00    -0.744 OA
ENDBRANCH  65  66
ENDBRANCH  44  58
BRANCH  45  70
ATOM     70  C   UNL A   1      36.592  33.250  30.912  1.00  0.00     0.058 A 
ATOM     71  C   UNL A   1      35.271  33.091  31.351  1.00  0.00     0.135 A 
ATOM     72  C   UNL A   1      36.824  34.094  29.815  1.00  0.00     0.135 A 
ATOM     73  F   UNL A   1      35.002  32.289  32.392  1.00  0.00    -0.206 F 
ATOM     74  C   UNL A   1      34.214  33.743  30.724  1.00  0.00     0.059 A 
ATOM     75  C   UNL A   1      35.787  34.774  29.185  1.00  0.00     0.059 A 
ATOM     76  F   UNL A   1      38.074  34.288  29.367  1.00  0.00    -0.206 F 
ATOM     77  C   UNL A   1      34.484  34.585  29.643  1.00  0.00     0.060 A 
BRANCH  77  78
ATOM     78  S   UNL A   1      33.116  35.476  28.871  1.00  0.00     0.124 S 
ATOM     79  O   UNL A   1      32.364  35.926  30.037  1.00  0.00    -0.237 OA
ATOM     80  O   UNL A   1      33.808  36.517  28.118  1.00  0.00    -0.237 OA
ATOM     81  O   UNL A   1      32.468  34.453  28.056  1.00  0.00    -0.744 OA
ENDBRANCH  77  78
ENDBRANCH  45  70
BRANCH  57  82
ATOM     82  C   UNL A   1      39.932  34.379  36.932  1.00  0.00     0.058 A 
ATOM     83  C   UNL A   1      40.694  35.556  36.901  1.00  0.00     0.135 A 
ATOM     84  C   UNL A   1      38.987  34.233  37.960  1.00  0.00     0.135 A 
ATOM     85  F   UNL A   1      41.617  35.738  35.943  1.00  0.00    -0.206 F 
ATOM     86  C   UNL A   1      40.537  36.546  37.865  1.00  0.00     0.059 A 
ATOM     87  C   UNL A   1      38.799  35.219  38.922  1.00  0.00     0.059 A 
ATOM     88  F   UNL A   1      38.227  33.127  38.028  1.00  0.00    -0.206 F 
ATOM     89  C   UNL A   1      39.586  36.369  38.872  1.00  0.00     0.060 A 
BRANCH  89  90
ATOM     90  S   UNL A   1      39.363  37.677  40.096  1.00  0.00     0.124 S 
ATOM     91  O   UNL A   1      40.633  38.388  40.000  1.00  0.00    -0.237 OA
ATOM     92  O   UNL A   1      38.196  38.391  39.585  1.00  0.00    -0.237 OA
ATOM     93  O   UNL A   1      39.144  36.943  41.339  1.00  0.00    -0.744 OA
ENDBRANCH  89  90
ENDBRANCH  57  82
ENDBRANCH  31  32
ENDBRANCH  24  26
ENDBRANCH  23  24
ENDBRANCH  22  23
ENDBRANCH   1  22
TORSDOF 17
ENDMDL
MODEL 3
REMARK VINA RESULT:     -10.8      6.286     12.396
REMARK SMILES Cc1cc(C)cc(C[N@@H+]2CCO[C@@H](CC(=O)OCCOC(=O)c3ccc(-c4c5nc(c(-c6c(F)cc(S(=O)(=O)[O-])cc6F)c6ccc([nH]6)c(-c6c(F)cc(S(=O)(=O)[O-])cc6F)c6nc(c(-c7c(F)cc(S(=O)(=O)[O-])cc7F)c7ccc4[nH]7)C=C6)C=C5)cc3)C2)c1
REMARK SMILES IDX 18 1 17 2 15 3 16 4 14 5 13 6 9 7 10 8 89 9 11 11 12 12 8 13
REMARK SMILES IDX 7 14 1 15 2 16 3 17 90 18 4 19 5 20 6 21 19 22 20 23 21 24
REMARK SMILES IDX 22 25 23 26 24 27 88 28 25 29 87 30 26 31 27 32 28 33 81 34
REMARK SMILES IDX 29 35 86 36 80 37 82 38 30 39 85 40 79 41 78 42 31 44 65 45
REMARK SMILES IDX 44 46 64 47 45 48 48 49 63 50 83 51 46 52 47 53 62 55 84 56
REMARK SMILES IDX 49 57 32 58 33 59 42 60 34 61 35 62 41 63 43 64 36 65 37 66
REMARK SMILES IDX 38 67 39 68 40 69 66 70 67 71 76 72 68 73 69 74 75 75 77 76
REMARK SMILES IDX 70 77 71 78 72 79 73 80 74 81 50 82 51 83 60 84 52 85 53 86
REMARK SMILES IDX 59 87 61 88 54 89 55 90 56 91 57 92 58 93
REMARK H PARENT 9 10 82 43 48 54
REMARK Flexibility Score: inf
ROOT
ATOM      1  C   UNL A   1      34.661  33.329  31.964  1.00  0.00     0.274 C 
ENDROOT
BRANCH   1   2
ATOM      2  O   UNL A   1      34.223  32.773  30.706  1.00  0.00    -0.462 OA
BRANCH   2   3
ATOM      3  C   UNL A   1      34.190  33.630  29.651  1.00  0.00     0.308 C 
ATOM      4  O   UNL A   1      33.794  34.787  29.709  1.00  0.00    -0.252 OA
BRANCH   3   5
ATOM      5  C   UNL A   1      34.583  32.961  28.366  1.00  0.00     0.160 C 
BRANCH   5   6
ATOM      6  C   UNL A   1      34.286  31.469  28.207  1.00  0.00     0.184 C 
ATOM      7  N   UNL A   1      33.238  29.741  26.621  1.00  0.00    -0.327 N 
ATOM      8  C   UNL A   1      34.574  29.151  26.539  1.00  0.00     0.291 C 
ATOM      9  C   UNL A   1      33.277  31.142  27.075  1.00  0.00     0.295 C 
ATOM     10  H   UNL A   1      32.908  29.788  25.656  1.00  0.00     0.348 HD
ATOM     11  C   UNL A   1      35.504  29.494  27.709  1.00  0.00     0.222 C 
ATOM     12  O   UNL A   1      35.586  30.904  27.897  1.00  0.00    -0.366 OA
BRANCH   7  13
ATOM     13  C   UNL A   1      32.174  28.893  27.167  1.00  0.00     0.299 C 
BRANCH  13  14
ATOM     14  C   UNL A   1      31.500  27.896  26.253  1.00  0.00     0.007 A 
ATOM     15  C   UNL A   1      29.845  27.834  22.815  1.00  0.00     0.044 C 
ATOM     16  C   UNL A   1      30.353  27.400  24.156  1.00  0.00    -0.050 A 
ATOM     17  C   UNL A   1      30.146  26.085  24.583  1.00  0.00     0.006 A 
ATOM     18  C   UNL A   1      31.021  28.296  24.999  1.00  0.00     0.013 A 
ATOM     19  C   UNL A   1      30.654  25.650  25.809  1.00  0.00    -0.050 A 
ATOM     20  C   UNL A   1      30.369  24.256  26.286  1.00  0.00     0.044 C 
ATOM     21  C   UNL A   1      31.369  26.547  26.610  1.00  0.00     0.013 A 
ENDBRANCH  13  14
ENDBRANCH   7  13
ENDBRANCH   5   6
ENDBRANCH   3   5
ENDBRANCH   2   3
ENDBRANCH   1   2
BRANCH   1  22
ATOM     22  C   UNL A   1      36.068  32.866  32.363  1.00  0.00     0.275 C 
BRANCH  22  23
ATOM     23  O   UNL A   1      36.762  32.202  31.289  1.00  0.00    -0.458 OA
BRANCH  23  24
ATOM     24  C   UNL A   1      36.964  30.881  31.492  1.00  0.00     0.338 C 
ATOM     25  O   UNL A   1      36.171  30.115  32.029  1.00  0.00    -0.246 OA
BRANCH  24  26
ATOM     26  C   UNL A   1      38.230  30.415  30.907  1.00  0.00     0.060 A 
ATOM     27  C   UNL A   1      39.225  29.960  31.781  1.00  0.00     0.016 A 
ATOM     28  C   UNL A   1      38.483  30.519  29.537  1.00  0.00     0.016 A 
ATOM     29  C   UNL A   1      40.479  29.607  31.288  1.00  0.00     0.010 A 
ATOM     30  C   UNL A   1      39.745  30.171  29.045  1.00  0.00     0.010 A 
ATOM     31  C   UNL A   1      40.750  29.717  29.918  1.00  0.00    -0.014 A 
BRANCH  31  32
ATOM     32  C   UNL A   1      42.072  29.305  29.393  1.00  0.00     0.031 A 
ATOM     33  C   UNL A   1      43.202  30.287  29.291  1.00  0.00     0.074 A 
ATOM     34  C   UNL A   1      42.242  28.028  29.009  1.00  0.00     0.049 A 
ATOM     35  N   UNL A   1      44.411  30.109  28.825  1.00  0.00    -0.248 NA
ATOM     36  C   UNL A   1      42.941  31.649  29.780  1.00  0.00     0.031 C 
ATOM     37  C   UNL A   1      41.218  26.983  29.090  1.00  0.00     0.029 A 
ATOM     38  N   UNL A   1      43.327  27.393  28.463  1.00  0.00    -0.354 N 
ATOM     39  C   UNL A   1      45.059  31.329  28.969  1.00  0.00     0.074 A 
ATOM     40  C   UNL A   1      44.102  32.248  29.547  1.00  0.00     0.031 C 
ATOM     41  C   UNL A   1      41.721  25.841  28.596  1.00  0.00     0.029 A 
ATOM     42  C   UNL A   1      43.085  26.081  28.136  1.00  0.00     0.049 A 
ATOM     43  H   UNL A   1      44.195  27.834  28.319  1.00  0.00     0.167 HD
ATOM     44  C   UNL A   1      46.336  31.648  28.647  1.00  0.00     0.037 A 
ATOM     45  C   UNL A   1      43.868  25.181  27.512  1.00  0.00     0.037 A 
ATOM     46  C   UNL A   1      47.273  30.728  28.054  1.00  0.00     0.049 A 
ATOM     47  C   UNL A   1      45.259  25.578  27.105  1.00  0.00     0.074 A 
ATOM     48  C   UNL A   1      48.595  30.950  27.704  1.00  0.00     0.029 A 
ATOM     49  N   UNL A   1      46.987  29.413  27.714  1.00  0.00    -0.354 N 
ATOM     50  N   UNL A   1      45.867  26.728  27.268  1.00  0.00    -0.248 NA
ATOM     51  C   UNL A   1      46.071  24.557  26.428  1.00  0.00     0.031 C 
ATOM     52  C   UNL A   1      49.093  29.782  27.114  1.00  0.00     0.029 A 
ATOM     53  C   UNL A   1      48.096  28.820  27.136  1.00  0.00     0.049 A 
ATOM     54  H   UNL A   1      46.122  28.968  27.863  1.00  0.00     0.167 HD
ATOM     55  C   UNL A   1      47.140  26.565  26.734  1.00  0.00     0.074 A 
ATOM     56  C   UNL A   1      47.216  25.202  26.248  1.00  0.00     0.031 C 
ATOM     57  C   UNL A   1      48.154  27.461  26.656  1.00  0.00     0.037 A 
BRANCH  44  58
ATOM     58  C   UNL A   1      46.792  33.056  28.906  1.00  0.00     0.058 A 
ATOM     59  C   UNL A   1      47.400  33.421  30.117  1.00  0.00     0.135 A 
ATOM     60  C   UNL A   1      46.665  34.042  27.913  1.00  0.00     0.135 A 
ATOM     61  F   UNL A   1      47.533  32.522  31.104  1.00  0.00    -0.206 F 
ATOM     62  C   UNL A   1      47.852  34.718  30.341  1.00  0.00     0.059 A 
ATOM     63  C   UNL A   1      47.127  35.340  28.109  1.00  0.00     0.059 A 
ATOM     64  F   UNL A   1      46.088  33.746  26.738  1.00  0.00    -0.206 F 
ATOM     65  C   UNL A   1      47.710  35.671  29.331  1.00  0.00     0.060 A 
BRANCH  65  66
ATOM     66  S   UNL A   1      48.308  37.349  29.632  1.00  0.00     0.124 S 
ATOM     67  O   UNL A   1      47.515  37.735  30.796  1.00  0.00    -0.237 OA
ATOM     68  O   UNL A   1      49.731  37.136  29.879  1.00  0.00    -0.237 OA
ATOM     69  O   UNL A   1      47.988  38.052  28.394  1.00  0.00    -0.744 OA
ENDBRANCH  65  66
ENDBRANCH  44  58
BRANCH  45  70
ATOM     70  C   UNL A   1      43.339  23.824  27.227  1.00  0.00     0.058 A 
ATOM     71  C   UNL A   1      42.779  23.512  25.981  1.00  0.00     0.135 A 
ATOM     72  C   UNL A   1      43.419  22.802  28.186  1.00  0.00     0.135 A 
ATOM     73  F   UNL A   1      42.678  24.457  25.035  1.00  0.00    -0.206 F 
ATOM     74  C   UNL A   1      42.311  22.233  25.695  1.00  0.00     0.059 A 
ATOM     75  C   UNL A   1      42.977  21.512  27.917  1.00  0.00     0.059 A 
ATOM     76  F   UNL A   1      43.959  23.051  29.390  1.00  0.00    -0.206 F 
ATOM     77  C   UNL A   1      42.417  21.239  26.671  1.00  0.00     0.060 A 
BRANCH  77  78
ATOM     78  S   UNL A   1      41.863  19.567  26.273  1.00  0.00     0.124 S 
ATOM     79  O   UNL A   1      42.342  18.817  27.429  1.00  0.00    -0.237 OA
ATOM     80  O   UNL A   1      40.416  19.734  26.176  1.00  0.00    -0.237 OA
ATOM     81  O   UNL A   1      42.537  19.283  25.010  1.00  0.00    -0.744 OA
ENDBRANCH  77  78
ENDBRANCH  45  70
BRANCH  57  82
ATOM     82  C   UNL A   1      49.442  26.990  26.043  1.00  0.00     0.058 A 
ATOM     83  C   UNL A   1      49.713  27.170  24.679  1.00  0.00     0.135 A 
ATOM     84  C   UNL A   1      50.433  26.399  26.840  1.00  0.00     0.135 A 
ATOM     85  F   UNL A   1      48.792  27.724  23.874  1.00  0.00    -0.206 F 
ATOM     86  C   UNL A   1      50.920  26.763  24.121  1.00  0.00     0.059 A 
ATOM     87  C   UNL A   1      51.655  26.002  26.307  1.00  0.00     0.059 A 
ATOM     88  F   UNL A   1      50.224  26.212  28.154  1.00  0.00    -0.206 F 
ATOM     89  C   UNL A   1      51.886  26.179  24.943  1.00  0.00     0.060 A 
BRANCH  89  90
ATOM     90  S   UNL A   1      53.464  25.689  24.217  1.00  0.00     0.124 S 
ATOM     91  O   UNL A   1      54.388  26.605  24.875  1.00  0.00    -0.237 OA
ATOM     92  O   UNL A   1      53.570  24.287  24.612  1.00  0.00    -0.237 OA
ATOM     93  O   UNL A   1      53.263  25.915  22.788  1.00  0.00    -0.744 OA
ENDBRANCH  89  90
ENDBRANCH  57  82
ENDBRANCH  31  32
ENDBRANCH  24  26
ENDBRANCH  23  24
ENDBRANCH  22  23
ENDBRANCH   1  22
TORSDOF 17
ENDMDL
