MODEL 1
REMARK VINA RESULT:     -12.3      0.000      0.000
REMARK SMILES O=C(C[NH+]1CCN(c2cc(-c3ccccc3)nc(-c3ccccc3F)n2)CC1)OCCOC(=O)c1ccc(-c2c3nc(c(-c4c(F)cc(S(=O)(=O)[O-])cc4F)c4ccc([nH]4)c(-c4c(F)cc(S(=O)(=O)[O-])cc4F)c4nc(c(-c5c(F)cc(S(=O)(=O)[O-])cc5F)c5ccc2[nH]5)C=C4)C=C3)cc1
REMARK SMILES IDX 30 1 29 2 2 3 1 4 3 5 4 6 5 7 28 8 6 10 27 11 7 12 8 13 9 14
REMARK SMILES IDX 26 15 10 16 18 17 17 18 11 19 12 20 16 21 13 22 15 23 14 24
REMARK SMILES IDX 19 25 20 26 24 27 21 28 23 29 25 30 22 31 31 32 32 33 33 34
REMARK SMILES IDX 34 35 35 36 36 37 100 38 37 39 99 40 38 41 39 42 40 43 93 44
REMARK SMILES IDX 41 45 98 46 92 47 94 48 42 49 97 50 91 51 90 52 43 54 77 55
REMARK SMILES IDX 56 56 76 57 57 58 60 59 75 60 95 61 58 62 59 63 74 65 96 66
REMARK SMILES IDX 61 67 44 68 45 69 54 70 46 71 47 72 53 73 55 74 48 75 49 76
REMARK SMILES IDX 50 77 51 78 52 79 78 80 79 81 88 82 80 83 81 84 87 85 89 86
REMARK SMILES IDX 82 87 83 88 84 89 85 90 86 91 62 92 63 93 72 94 64 95 65 96
REMARK SMILES IDX 71 97 73 98 66 99 67 100 68 101 69 102 70 103
REMARK H PARENT 4 9 94 53 60 64
REMARK Flexibility Score: inf
ROOT
ATOM      1  C   UNL A   1      32.987  29.063  25.180  1.00  0.00     0.274 C 
ENDROOT
BRANCH   1   2
ATOM      2  O   UNL A   1      31.705  28.632  24.674  1.00  0.00    -0.458 OA
BRANCH   2   3
ATOM      3  C   UNL A   1      31.084  27.459  24.960  1.00  0.00     0.361 C 
ATOM      4  O   UNL A   1      31.136  27.017  26.107  1.00  0.00    -0.245 OA
BRANCH   3   5
ATOM      5  C   UNL A   1      30.356  26.703  23.852  1.00  0.00     0.386 C 
BRANCH   5   6
ATOM      6  N   UNL A   1      31.128  25.693  23.112  1.00  0.00    -0.323 N 
ATOM      7  C   UNL A   1      32.592  25.927  23.092  1.00  0.00     0.284 C 
ATOM      8  C   UNL A   1      30.819  24.297  23.440  1.00  0.00     0.284 C 
ATOM      9  H   UNL A   1      30.792  25.836  22.160  1.00  0.00     0.348 HD
ATOM     10  C   UNL A   1      33.443  25.301  24.235  1.00  0.00     0.179 C 
ATOM     11  C   UNL A   1      31.530  23.770  24.696  1.00  0.00     0.179 C 
ATOM     12  N   UNL A   1      32.961  23.951  24.526  1.00  0.00    -0.345 N 
BRANCH  12  13
ATOM     13  C   UNL A   1      33.844  22.919  24.705  1.00  0.00     0.133 A 
ATOM     14  C   UNL A   1      33.448  21.635  24.422  1.00  0.00     0.076 A 
ATOM     15  N   UNL A   1      35.086  23.175  25.125  1.00  0.00    -0.211 NA
ATOM     16  C   UNL A   1      34.355  20.615  24.609  1.00  0.00     0.076 A 
ATOM     17  C   UNL A   1      35.915  22.125  25.287  1.00  0.00     0.165 A 
ATOM     18  N   UNL A   1      35.595  20.833  25.076  1.00  0.00    -0.228 NA
BRANCH  16  19
ATOM     19  C   UNL A   1      33.942  19.239  24.308  1.00  0.00     0.000 A 
ATOM     20  C   UNL A   1      32.760  18.973  23.605  1.00  0.00     0.010 A 
ATOM     21  C   UNL A   1      34.795  18.159  24.611  1.00  0.00     0.010 A 
ATOM     22  C   UNL A   1      32.460  17.675  23.183  1.00  0.00     0.001 A 
ATOM     23  C   UNL A   1      34.495  16.863  24.193  1.00  0.00     0.001 A 
ATOM     24  C   UNL A   1      33.331  16.624  23.470  1.00  0.00     0.000 A 
ENDBRANCH  16  19
BRANCH  17  25
ATOM     25  C   UNL A   1      37.258  22.446  25.758  1.00  0.00     0.055 A 
ATOM     26  C   UNL A   1      37.580  23.744  26.201  1.00  0.00     0.015 A 
ATOM     27  C   UNL A   1      38.283  21.499  25.720  1.00  0.00     0.134 A 
ATOM     28  C   UNL A   1      38.881  24.071  26.596  1.00  0.00     0.001 A 
ATOM     29  C   UNL A   1      39.587  21.820  26.101  1.00  0.00     0.040 A 
ATOM     30  F   UNL A   1      38.047  20.256  25.272  1.00  0.00    -0.206 F 
ATOM     31  C   UNL A   1      39.887  23.108  26.541  1.00  0.00     0.003 A 
ENDBRANCH  17  25
ENDBRANCH  12  13
ENDBRANCH   5   6
ENDBRANCH   3   5
ENDBRANCH   2   3
ENDBRANCH   1   2
BRANCH   1  32
ATOM     32  C   UNL A   1      32.882  30.203  26.192  1.00  0.00     0.275 C 
BRANCH  32  33
ATOM     33  O   UNL A   1      33.668  29.916  27.356  1.00  0.00    -0.458 OA
BRANCH  33  34
ATOM     34  C   UNL A   1      34.486  30.931  27.739  1.00  0.00     0.338 C 
ATOM     35  O   UNL A   1      34.167  32.097  27.898  1.00  0.00    -0.246 OA
BRANCH  34  36
ATOM     36  C   UNL A   1      35.790  30.370  28.147  1.00  0.00     0.060 A 
ATOM     37  C   UNL A   1      35.862  29.742  29.396  1.00  0.00     0.016 A 
ATOM     38  C   UNL A   1      36.918  30.428  27.319  1.00  0.00     0.016 A 
ATOM     39  C   UNL A   1      37.072  29.224  29.847  1.00  0.00     0.010 A 
ATOM     40  C   UNL A   1      38.133  29.909  27.774  1.00  0.00     0.010 A 
ATOM     41  C   UNL A   1      38.223  29.345  29.057  1.00  0.00    -0.014 A 
BRANCH  41  42
ATOM     42  C   UNL A   1      39.542  29.060  29.668  1.00  0.00     0.031 A 
ATOM     43  C   UNL A   1      39.973  29.886  30.851  1.00  0.00     0.074 A 
ATOM     44  C   UNL A   1      40.316  28.055  29.223  1.00  0.00     0.049 A 
ATOM     45  N   UNL A   1      41.033  29.764  31.605  1.00  0.00    -0.248 NA
ATOM     46  C   UNL A   1      39.085  30.998  31.232  1.00  0.00     0.031 C 
ATOM     47  C   UNL A   1      40.009  27.188  28.085  1.00  0.00     0.029 A 
ATOM     48  N   UNL A   1      41.523  27.595  29.682  1.00  0.00    -0.354 N 
ATOM     49  C   UNL A   1      40.925  30.760  32.568  1.00  0.00     0.074 A 
ATOM     50  C   UNL A   1      39.730  31.517  32.267  1.00  0.00     0.031 C 
ATOM     51  C   UNL A   1      41.012  26.305  27.930  1.00  0.00     0.029 A 
ATOM     52  C   UNL A   1      42.027  26.543  28.955  1.00  0.00     0.049 A 
ATOM     53  H   UNL A   1      41.986  27.982  30.460  1.00  0.00     0.167 HD
ATOM     54  C   UNL A   1      41.732  31.007  33.627  1.00  0.00     0.037 A 
ATOM     55  C   UNL A   1      43.175  25.855  29.107  1.00  0.00     0.037 A 
ATOM     56  C   UNL A   1      42.934  30.270  33.914  1.00  0.00     0.049 A 
ATOM     57  C   UNL A   1      44.085  26.177  30.264  1.00  0.00     0.074 A 
ATOM     58  C   UNL A   1      43.825  30.446  34.958  1.00  0.00     0.029 A 
ATOM     59  N   UNL A   1      43.417  29.220  33.149  1.00  0.00    -0.354 N 
ATOM     60  N   UNL A   1      43.945  27.090  31.198  1.00  0.00    -0.248 NA
ATOM     61  C   UNL A   1      45.300  25.361  30.402  1.00  0.00     0.031 C 
ATOM     62  C   UNL A   1      44.868  29.525  34.803  1.00  0.00     0.029 A 
ATOM     63  C   UNL A   1      44.603  28.748  33.687  1.00  0.00     0.049 A 
ATOM     64  H   UNL A   1      42.982  28.862  32.341  1.00  0.00     0.167 HD
ATOM     65  C   UNL A   1      45.040  26.942  32.044  1.00  0.00     0.074 A 
ATOM     66  C   UNL A   1      45.823  25.840  31.522  1.00  0.00     0.031 C 
ATOM     67  C   UNL A   1      45.370  27.651  33.152  1.00  0.00     0.037 A 
BRANCH  54  68
ATOM     68  C   UNL A   1      41.331  32.120  34.550  1.00  0.00     0.058 A 
ATOM     69  C   UNL A   1      40.424  31.904  35.601  1.00  0.00     0.135 A 
ATOM     70  C   UNL A   1      41.865  33.408  34.399  1.00  0.00     0.135 A 
ATOM     71  F   UNL A   1      39.865  30.695  35.774  1.00  0.00    -0.206 F 
ATOM     72  C   UNL A   1      40.044  32.932  36.455  1.00  0.00     0.059 A 
ATOM     73  C   UNL A   1      41.516  34.447  35.257  1.00  0.00     0.059 A 
ATOM     74  F   UNL A   1      42.729  33.670  33.406  1.00  0.00    -0.206 F 
ATOM     75  C   UNL A   1      40.595  34.202  36.275  1.00  0.00     0.060 A 
BRANCH  75  76
ATOM     76  S   UNL A   1      40.096  35.526  37.396  1.00  0.00     0.124 S 
ATOM     77  O   UNL A   1      41.352  35.816  38.080  1.00  0.00    -0.237 OA
ATOM     78  O   UNL A   1      39.623  36.553  36.475  1.00  0.00    -0.237 OA
ATOM     79  O   UNL A   1      39.063  34.903  38.218  1.00  0.00    -0.744 OA
ENDBRANCH  75  76
ENDBRANCH  54  68
BRANCH  55  80
ATOM     80  C   UNL A   1      43.534  24.783  28.140  1.00  0.00     0.058 A 
ATOM     81  C   UNL A   1      44.290  25.057  26.991  1.00  0.00     0.135 A 
ATOM     82  C   UNL A   1      43.103  23.462  28.339  1.00  0.00     0.135 A 
ATOM     83  F   UNL A   1      44.716  26.307  26.752  1.00  0.00    -0.206 F 
ATOM     84  C   UNL A   1      44.584  24.067  26.059  1.00  0.00     0.059 A 
ATOM     85  C   UNL A   1      43.405  22.450  27.435  1.00  0.00     0.059 A 
ATOM     86  F   UNL A   1      42.387  23.145  29.430  1.00  0.00    -0.206 F 
ATOM     87  C   UNL A   1      44.134  22.765  26.289  1.00  0.00     0.060 A 
BRANCH  87  88
ATOM     88  S   UNL A   1      44.541  21.478  25.089  1.00  0.00     0.124 S 
ATOM     89  O   UNL A   1      44.441  22.209  23.830  1.00  0.00    -0.237 OA
ATOM     90  O   UNL A   1      45.888  21.090  25.497  1.00  0.00    -0.237 OA
ATOM     91  O   UNL A   1      43.509  20.471  25.318  1.00  0.00    -0.744 OA
ENDBRANCH  87  88
ENDBRANCH  55  80
BRANCH  67  92
ATOM     92  C   UNL A   1      46.620  27.243  33.885  1.00  0.00     0.058 A 
ATOM     93  C   UNL A   1      47.885  27.722  33.508  1.00  0.00     0.135 A 
ATOM     94  C   UNL A   1      46.548  26.382  34.992  1.00  0.00     0.135 A 
ATOM     95  F   UNL A   1      48.008  28.547  32.457  1.00  0.00    -0.206 F 
ATOM     96  C   UNL A   1      49.039  27.330  34.178  1.00  0.00     0.059 A 
ATOM     97  C   UNL A   1      47.687  25.999  35.694  1.00  0.00     0.059 A 
ATOM     98  F   UNL A   1      45.362  25.908  35.405  1.00  0.00    -0.206 F 
ATOM     99  C   UNL A   1      48.931  26.463  35.267  1.00  0.00     0.060 A 
BRANCH  99 100
ATOM    100  S   UNL A   1      50.434  25.961  36.131  1.00  0.00     0.124 S 
ATOM    101  O   UNL A   1      50.405  26.832  37.301  1.00  0.00    -0.237 OA
ATOM    102  O   UNL A   1      50.191  24.544  36.389  1.00  0.00    -0.237 OA
ATOM    103  O   UNL A   1      51.491  26.241  35.163  1.00  0.00    -0.744 OA
ENDBRANCH  99 100
ENDBRANCH  67  92
ENDBRANCH  41  42
ENDBRANCH  34  36
ENDBRANCH  33  34
ENDBRANCH  32  33
ENDBRANCH   1  32
TORSDOF 18
ENDMDL
MODEL 2
REMARK VINA RESULT:     -11.9      1.148      3.105
REMARK SMILES O=C(C[NH+]1CCN(c2cc(-c3ccccc3)nc(-c3ccccc3F)n2)CC1)OCCOC(=O)c1ccc(-c2c3nc(c(-c4c(F)cc(S(=O)(=O)[O-])cc4F)c4ccc([nH]4)c(-c4c(F)cc(S(=O)(=O)[O-])cc4F)c4nc(c(-c5c(F)cc(S(=O)(=O)[O-])cc5F)c5ccc2[nH]5)C=C4)C=C3)cc1
REMARK SMILES IDX 30 1 29 2 2 3 1 4 3 5 4 6 5 7 28 8 6 10 27 11 7 12 8 13 9 14
REMARK SMILES IDX 26 15 10 16 18 17 17 18 11 19 12 20 16 21 13 22 15 23 14 24
REMARK SMILES IDX 19 25 20 26 24 27 21 28 23 29 25 30 22 31 31 32 32 33 33 34
REMARK SMILES IDX 34 35 35 36 36 37 100 38 37 39 99 40 38 41 39 42 40 43 93 44
REMARK SMILES IDX 41 45 98 46 92 47 94 48 42 49 97 50 91 51 90 52 43 54 77 55
REMARK SMILES IDX 56 56 76 57 57 58 60 59 75 60 95 61 58 62 59 63 74 65 96 66
REMARK SMILES IDX 61 67 44 68 45 69 54 70 46 71 47 72 53 73 55 74 48 75 49 76
REMARK SMILES IDX 50 77 51 78 52 79 78 80 79 81 88 82 80 83 81 84 87 85 89 86
REMARK SMILES IDX 82 87 83 88 84 89 85 90 86 91 62 92 63 93 72 94 64 95 65 96
REMARK SMILES IDX 71 97 73 98 66 99 67 100 68 101 69 102 70 103
REMARK H PARENT 4 9 94 53 60 64
REMARK Flexibility Score: inf
ROOT
ATOM      1  C   UNL A   1      32.422  29.414  25.015  1.00  0.00     0.274 C 
ENDROOT
BRANCH   1   2
ATOM      2  O   UNL A   1      31.028  29.082  24.836  1.00  0.00    -0.458 OA
BRANCH   2   3
ATOM      3  C   UNL A   1      30.506  28.328  23.835  1.00  0.00     0.361 C 
ATOM      4  O   UNL A   1      29.342  28.517  23.485  1.00  0.00    -0.245 OA
BRANCH   3   5
ATOM      5  C   UNL A   1      31.363  27.247  23.182  1.00  0.00     0.386 C 
BRANCH   5   6
ATOM      6  N   UNL A   1      31.257  25.885  23.729  1.00  0.00    -0.323 N 
ATOM      7  C   UNL A   1      31.604  24.807  22.773  1.00  0.00     0.284 C 
ATOM      8  C   UNL A   1      31.910  25.674  25.025  1.00  0.00     0.284 C 
ATOM      9  H   UNL A   1      30.255  25.814  23.907  1.00  0.00     0.348 HD
ATOM     10  C   UNL A   1      33.088  24.340  22.711  1.00  0.00     0.179 C 
ATOM     11  C   UNL A   1      33.421  25.410  24.938  1.00  0.00     0.179 C 
ATOM     12  N   UNL A   1      33.640  24.271  24.062  1.00  0.00    -0.345 N 
BRANCH  12  13
ATOM     13  C   UNL A   1      34.399  23.200  24.452  1.00  0.00     0.133 A 
ATOM     14  C   UNL A   1      35.657  23.412  24.961  1.00  0.00     0.076 A 
ATOM     15  N   UNL A   1      33.898  21.965  24.360  1.00  0.00    -0.211 NA
ATOM     16  C   UNL A   1      36.400  22.318  25.348  1.00  0.00     0.076 A 
ATOM     17  C   UNL A   1      34.686  20.945  24.755  1.00  0.00     0.165 A 
ATOM     18  N   UNL A   1      35.945  21.060  25.222  1.00  0.00    -0.228 NA
BRANCH  16  19
ATOM     19  C   UNL A   1      37.744  22.535  25.894  1.00  0.00     0.000 A 
ATOM     20  C   UNL A   1      38.748  21.569  25.753  1.00  0.00     0.010 A 
ATOM     21  C   UNL A   1      38.089  23.778  26.462  1.00  0.00     0.010 A 
ATOM     22  C   UNL A   1      40.065  21.850  26.131  1.00  0.00     0.001 A 
ATOM     23  C   UNL A   1      39.401  24.058  26.842  1.00  0.00     0.001 A 
ATOM     24  C   UNL A   1      40.390  23.097  26.668  1.00  0.00     0.000 A 
ENDBRANCH  16  19
BRANCH  17  25
ATOM     25  C   UNL A   1      34.107  19.612  24.625  1.00  0.00     0.055 A 
ATOM     26  C   UNL A   1      32.710  19.426  24.614  1.00  0.00     0.015 A 
ATOM     27  C   UNL A   1      34.915  18.474  24.580  1.00  0.00     0.134 A 
ATOM     28  C   UNL A   1      32.153  18.145  24.553  1.00  0.00     0.001 A 
ATOM     29  C   UNL A   1      34.367  17.192  24.531  1.00  0.00     0.040 A 
ATOM     30  F   UNL A   1      36.252  18.585  24.626  1.00  0.00    -0.206 F 
ATOM     31  C   UNL A   1      32.983  17.026  24.516  1.00  0.00     0.003 A 
ENDBRANCH  17  25
ENDBRANCH  12  13
ENDBRANCH   5   6
ENDBRANCH   3   5
ENDBRANCH   2   3
ENDBRANCH   1   2
BRANCH   1  32
ATOM     32  C   UNL A   1      32.710  30.106  26.348  1.00  0.00     0.275 C 
BRANCH  32  33
ATOM     33  O   UNL A   1      34.114  30.354  26.491  1.00  0.00    -0.458 OA
BRANCH  33  34
ATOM     34  C   UNL A   1      34.439  31.085  27.590  1.00  0.00     0.338 C 
ATOM     35  O   UNL A   1      33.691  31.807  28.227  1.00  0.00    -0.246 OA
BRANCH  34  36
ATOM     36  C   UNL A   1      35.796  30.706  28.035  1.00  0.00     0.060 A 
ATOM     37  C   UNL A   1      36.086  29.340  28.136  1.00  0.00     0.016 A 
ATOM     38  C   UNL A   1      36.779  31.661  28.322  1.00  0.00     0.016 A 
ATOM     39  C   UNL A   1      37.337  28.925  28.582  1.00  0.00     0.010 A 
ATOM     40  C   UNL A   1      38.034  31.243  28.772  1.00  0.00     0.010 A 
ATOM     41  C   UNL A   1      38.302  29.874  28.944  1.00  0.00    -0.014 A 
BRANCH  41  42
ATOM     42  C   UNL A   1      39.503  29.425  29.687  1.00  0.00     0.031 A 
ATOM     43  C   UNL A   1      39.740  29.985  31.063  1.00  0.00     0.074 A 
ATOM     44  C   UNL A   1      40.334  28.500  29.176  1.00  0.00     0.049 A 
ATOM     45  N   UNL A   1      40.662  29.677  31.937  1.00  0.00    -0.248 NA
ATOM     46  C   UNL A   1      38.807  31.032  31.515  1.00  0.00     0.031 C 
ATOM     47  C   UNL A   1      40.211  27.886  27.854  1.00  0.00     0.029 A 
ATOM     48  N   UNL A   1      41.448  27.913  29.719  1.00  0.00    -0.354 N 
ATOM     49  C   UNL A   1      40.404  30.466  33.050  1.00  0.00     0.074 A 
ATOM     50  C   UNL A   1      39.278  31.312  32.722  1.00  0.00     0.031 C 
ATOM     51  C   UNL A   1      41.222  27.015  27.685  1.00  0.00     0.029 A 
ATOM     52  C   UNL A   1      42.058  27.008  28.885  1.00  0.00     0.049 A 
ATOM     53  H   UNL A   1      41.780  28.122  30.622  1.00  0.00     0.167 HD
ATOM     54  C   UNL A   1      41.030  30.469  34.251  1.00  0.00     0.037 A 
ATOM     55  C   UNL A   1      43.163  26.260  29.075  1.00  0.00     0.037 A 
ATOM     56  C   UNL A   1      42.165  29.645  34.571  1.00  0.00     0.049 A 
ATOM     57  C   UNL A   1      43.874  26.313  30.403  1.00  0.00     0.074 A 
ATOM     58  C   UNL A   1      42.875  29.578  35.756  1.00  0.00     0.029 A 
ATOM     59  N   UNL A   1      42.761  28.750  33.697  1.00  0.00    -0.354 N 
ATOM     60  N   UNL A   1      43.589  27.028  31.466  1.00  0.00    -0.248 NA
ATOM     61  C   UNL A   1      45.046  25.441  30.564  1.00  0.00     0.031 C 
ATOM     62  C   UNL A   1      43.925  28.668  35.586  1.00  0.00     0.029 A 
ATOM     63  C   UNL A   1      43.841  28.136  34.310  1.00  0.00     0.049 A 
ATOM     64  H   UNL A   1      42.461  28.575  32.775  1.00  0.00     0.167 HD
ATOM     65  C   UNL A   1      44.531  26.675  32.428  1.00  0.00     0.074 A 
ATOM     66  C   UNL A   1      45.382  25.670  31.826  1.00  0.00     0.031 C 
ATOM     67  C   UNL A   1      44.680  27.139  33.694  1.00  0.00     0.037 A 
BRANCH  54  68
ATOM     68  C   UNL A   1      40.489  31.392  35.304  1.00  0.00     0.058 A 
ATOM     69  C   UNL A   1      39.307  31.090  36.001  1.00  0.00     0.135 A 
ATOM     70  C   UNL A   1      41.159  32.579  35.633  1.00  0.00     0.135 A 
ATOM     71  F   UNL A   1      38.614  29.977  35.707  1.00  0.00    -0.206 F 
ATOM     72  C   UNL A   1      38.799  31.944  36.973  1.00  0.00     0.059 A 
ATOM     73  C   UNL A   1      40.681  33.437  36.619  1.00  0.00     0.059 A 
ATOM     74  F   UNL A   1      42.288  32.919  34.990  1.00  0.00    -0.206 F 
ATOM     75  C   UNL A   1      39.492  33.117  37.274  1.00  0.00     0.060 A 
BRANCH  75  76
ATOM     76  S   UNL A   1      38.822  34.213  38.542  1.00  0.00     0.124 S 
ATOM     77  O   UNL A   1      39.708  33.931  39.668  1.00  0.00    -0.237 OA
ATOM     78  O   UNL A   1      38.974  35.528  37.930  1.00  0.00    -0.237 OA
ATOM     79  O   UNL A   1      37.446  33.752  38.696  1.00  0.00    -0.744 OA
ENDBRANCH  75  76
ENDBRANCH  54  68
BRANCH  55  80
ATOM     80  C   UNL A   1      43.669  25.387  27.982  1.00  0.00     0.058 A 
ATOM     81  C   UNL A   1      43.458  24.001  27.997  1.00  0.00     0.135 A 
ATOM     82  C   UNL A   1      44.396  25.926  26.910  1.00  0.00     0.135 A 
ATOM     83  F   UNL A   1      42.777  23.437  29.007  1.00  0.00    -0.206 F 
ATOM     84  C   UNL A   1      43.973  23.175  27.002  1.00  0.00     0.059 A 
ATOM     85  C   UNL A   1      44.901  25.125  25.892  1.00  0.00     0.059 A 
ATOM     86  F   UNL A   1      44.615  27.249  26.842  1.00  0.00    -0.206 F 
ATOM     87  C   UNL A   1      44.697  23.747  25.954  1.00  0.00     0.060 A 
BRANCH  87  88
ATOM     88  S   UNL A   1      45.341  22.673  24.653  1.00  0.00     0.124 S 
ATOM     89  O   UNL A   1      46.154  23.605  23.880  1.00  0.00    -0.237 OA
ATOM     90  O   UNL A   1      46.073  21.667  25.416  1.00  0.00    -0.237 OA
ATOM     91  O   UNL A   1      44.132  22.191  23.991  1.00  0.00    -0.744 OA
ENDBRANCH  87  88
ENDBRANCH  55  80
BRANCH  67  92
ATOM     92  C   UNL A   1      45.791  26.548  34.518  1.00  0.00     0.058 A 
ATOM     93  C   UNL A   1      47.074  27.119  34.543  1.00  0.00     0.135 A 
ATOM     94  C   UNL A   1      45.565  25.411  35.310  1.00  0.00     0.135 A 
ATOM     95  F   UNL A   1      47.343  28.206  33.804  1.00  0.00    -0.206 F 
ATOM     96  C   UNL A   1      48.103  26.560  35.294  1.00  0.00     0.059 A 
ATOM     97  C   UNL A   1      46.572  24.852  36.091  1.00  0.00     0.059 A 
ATOM     98  F   UNL A   1      44.352  24.835  35.336  1.00  0.00    -0.206 F 
ATOM     99  C   UNL A   1      47.844  25.423  36.061  1.00  0.00     0.060 A 
BRANCH  99 100
ATOM    100  S   UNL A   1      49.185  24.705  37.033  1.00  0.00     0.124 S 
ATOM    101  O   UNL A   1      48.458  24.138  38.163  1.00  0.00    -0.237 OA
ATOM    102  O   UNL A   1      49.767  23.739  36.105  1.00  0.00    -0.237 OA
ATOM    103  O   UNL A   1      50.032  25.854  37.341  1.00  0.00    -0.744 OA
ENDBRANCH  99 100
ENDBRANCH  67  92
ENDBRANCH  41  42
ENDBRANCH  34  36
ENDBRANCH  33  34
ENDBRANCH  32  33
ENDBRANCH   1  32
TORSDOF 18
ENDMDL
MODEL 3
REMARK VINA RESULT:     -11.5      4.801      7.273
REMARK SMILES O=C(C[NH+]1CCN(c2cc(-c3ccccc3)nc(-c3ccccc3F)n2)CC1)OCCOC(=O)c1ccc(-c2c3nc(c(-c4c(F)cc(S(=O)(=O)[O-])cc4F)c4ccc([nH]4)c(-c4c(F)cc(S(=O)(=O)[O-])cc4F)c4nc(c(-c5c(F)cc(S(=O)(=O)[O-])cc5F)c5ccc2[nH]5)C=C4)C=C3)cc1
REMARK SMILES IDX 30 1 29 2 2 3 1 4 3 5 4 6 5 7 28 8 6 10 27 11 7 12 8 13 9 14
REMARK SMILES IDX 26 15 10 16 18 17 17 18 11 19 12 20 16 21 13 22 15 23 14 24
REMARK SMILES IDX 19 25 20 26 24 27 21 28 23 29 25 30 22 31 31 32 32 33 33 34
REMARK SMILES IDX 34 35 35 36 36 37 100 38 37 39 99 40 38 41 39 42 40 43 93 44
REMARK SMILES IDX 41 45 98 46 92 47 94 48 42 49 97 50 91 51 90 52 43 54 77 55
REMARK SMILES IDX 56 56 76 57 57 58 60 59 75 60 95 61 58 62 59 63 74 65 96 66
REMARK SMILES IDX 61 67 44 68 45 69 54 70 46 71 47 72 53 73 55 74 48 75 49 76
REMARK SMILES IDX 50 77 51 78 52 79 78 80 79 81 88 82 80 83 81 84 87 85 89 86
REMARK SMILES IDX 82 87 83 88 84 89 85 90 86 91 62 92 63 93 72 94 64 95 65 96
REMARK SMILES IDX 71 97 73 98 66 99 67 100 68 101 69 102 70 103
REMARK H PARENT 4 9 94 53 60 64
REMARK Flexibility Score: inf
ROOT
ATOM      1  C   UNL A   1      34.557  34.184  32.053  1.00  0.00     0.274 C 
ENDROOT
BRANCH   1   2
ATOM      2  O   UNL A   1      33.982  33.693  30.824  1.00  0.00    -0.458 OA
BRANCH   2   3
ATOM      3  C   UNL A   1      34.663  33.355  29.699  1.00  0.00     0.361 C 
ATOM      4  O   UNL A   1      35.193  34.241  29.030  1.00  0.00    -0.245 OA
BRANCH   3   5
ATOM      5  C   UNL A   1      34.736  31.891  29.274  1.00  0.00     0.386 C 
BRANCH   5   6
ATOM      6  N   UNL A   1      34.759  31.612  27.830  1.00  0.00    -0.323 N 
ATOM      7  C   UNL A   1      35.429  30.343  27.457  1.00  0.00     0.284 C 
ATOM      8  C   UNL A   1      33.474  31.756  27.139  1.00  0.00     0.284 C 
ATOM      9  H   UNL A   1      35.348  32.370  27.485  1.00  0.00     0.348 HD
ATOM     10  C   UNL A   1      34.556  29.055  27.384  1.00  0.00     0.179 C 
ATOM     11  C   UNL A   1      32.552  30.533  27.255  1.00  0.00     0.179 C 
ATOM     12  N   UNL A   1      33.269  29.367  26.766  1.00  0.00    -0.345 N 
BRANCH  12  13
ATOM     13  C   UNL A   1      32.732  28.539  25.816  1.00  0.00     0.133 A 
ATOM     14  C   UNL A   1      31.682  28.981  25.049  1.00  0.00     0.076 A 
ATOM     15  N   UNL A   1      33.254  27.325  25.626  1.00  0.00    -0.211 NA
ATOM     16  C   UNL A   1      31.162  28.131  24.099  1.00  0.00     0.076 A 
ATOM     17  C   UNL A   1      32.690  26.548  24.680  1.00  0.00     0.165 A 
ATOM     18  N   UNL A   1      31.631  26.885  23.916  1.00  0.00    -0.228 NA
BRANCH  16  19
ATOM     19  C   UNL A   1      30.042  28.594  23.273  1.00  0.00     0.000 A 
ATOM     20  C   UNL A   1      28.761  28.043  23.413  1.00  0.00     0.010 A 
ATOM     21  C   UNL A   1      30.203  29.695  22.409  1.00  0.00     0.010 A 
ATOM     22  C   UNL A   1      27.669  28.601  22.741  1.00  0.00     0.001 A 
ATOM     23  C   UNL A   1      29.115  30.250  21.736  1.00  0.00     0.001 A 
ATOM     24  C   UNL A   1      27.846  29.708  21.910  1.00  0.00     0.000 A 
ENDBRANCH  16  19
BRANCH  17  25
ATOM     25  C   UNL A   1      33.280  25.224  24.513  1.00  0.00     0.055 A 
ATOM     26  C   UNL A   1      33.403  24.342  25.605  1.00  0.00     0.015 A 
ATOM     27  C   UNL A   1      33.805  24.816  23.284  1.00  0.00     0.134 A 
ATOM     28  C   UNL A   1      34.025  23.097  25.461  1.00  0.00     0.001 A 
ATOM     29  C   UNL A   1      34.437  23.581  23.136  1.00  0.00     0.040 A 
ATOM     30  F   UNL A   1      33.751  25.628  22.217  1.00  0.00    -0.206 F 
ATOM     31  C   UNL A   1      34.546  22.719  24.225  1.00  0.00     0.003 A 
ENDBRANCH  17  25
ENDBRANCH  12  13
ENDBRANCH   5   6
ENDBRANCH   3   5
ENDBRANCH   2   3
ENDBRANCH   1   2
BRANCH   1  32
ATOM     32  C   UNL A   1      34.663  33.113  33.139  1.00  0.00     0.275 C 
BRANCH  32  33
ATOM     33  O   UNL A   1      35.475  32.021  32.690  1.00  0.00    -0.458 OA
BRANCH  33  34
ATOM     34  C   UNL A   1      36.673  31.921  33.326  1.00  0.00     0.338 C 
ATOM     35  O   UNL A   1      36.880  32.112  34.512  1.00  0.00    -0.246 OA
BRANCH  34  36
ATOM     36  C   UNL A   1      37.661  31.332  32.400  1.00  0.00     0.060 A 
ATOM     37  C   UNL A   1      38.659  30.519  32.951  1.00  0.00     0.016 A 
ATOM     38  C   UNL A   1      37.604  31.542  31.017  1.00  0.00     0.016 A 
ATOM     39  C   UNL A   1      39.636  29.964  32.130  1.00  0.00     0.010 A 
ATOM     40  C   UNL A   1      38.587  30.986  30.194  1.00  0.00     0.010 A 
ATOM     41  C   UNL A   1      39.631  30.230  30.755  1.00  0.00    -0.014 A 
BRANCH  41  42
ATOM     42  C   UNL A   1      40.828  29.883  29.955  1.00  0.00     0.031 A 
ATOM     43  C   UNL A   1      41.871  30.945  29.734  1.00  0.00     0.074 A 
ATOM     44  C   UNL A   1      41.015  28.638  29.482  1.00  0.00     0.049 A 
ATOM     45  N   UNL A   1      43.037  30.855  29.152  1.00  0.00    -0.248 NA
ATOM     46  C   UNL A   1      41.554  32.291  30.242  1.00  0.00     0.031 C 
ATOM     47  C   UNL A   1      40.077  27.525  29.628  1.00  0.00     0.029 A 
ATOM     48  N   UNL A   1      42.067  28.104  28.784  1.00  0.00    -0.354 N 
ATOM     49  C   UNL A   1      43.606  32.118  29.250  1.00  0.00     0.074 A 
ATOM     50  C   UNL A   1      42.633  32.975  29.892  1.00  0.00     0.031 C 
ATOM     51  C   UNL A   1      40.594  26.440  29.025  1.00  0.00     0.029 A 
ATOM     52  C   UNL A   1      41.897  26.781  28.454  1.00  0.00     0.049 A 
ATOM     53  H   UNL A   1      42.869  28.620  28.541  1.00  0.00     0.167 HD
ATOM     54  C   UNL A   1      44.839  32.525  28.867  1.00  0.00     0.037 A 
ATOM     55  C   UNL A   1      42.704  25.945  27.772  1.00  0.00     0.037 A 
ATOM     56  C   UNL A   1      45.799  31.681  28.207  1.00  0.00     0.049 A 
ATOM     57  C   UNL A   1      44.054  26.432  27.311  1.00  0.00     0.074 A 
ATOM     58  C   UNL A   1      47.072  32.000  27.771  1.00  0.00     0.029 A 
ATOM     59  N   UNL A   1      45.585  30.351  27.880  1.00  0.00    -0.354 N 
ATOM     60  N   UNL A   1      44.600  27.618  27.455  1.00  0.00    -0.248 NA
ATOM     61  C   UNL A   1      44.908  25.461  26.611  1.00  0.00     0.031 C 
ATOM     62  C   UNL A   1      47.616  30.871  27.147  1.00  0.00     0.029 A 
ATOM     63  C   UNL A   1      46.698  29.838  27.233  1.00  0.00     0.049 A 
ATOM     64  H   UNL A   1      44.764  29.845  28.078  1.00  0.00     0.167 HD
ATOM     65  C   UNL A   1      45.867  27.527  26.886  1.00  0.00     0.074 A 
ATOM     66  C   UNL A   1      46.013  26.165  26.412  1.00  0.00     0.031 C 
ATOM     67  C   UNL A   1      46.824  28.480  26.766  1.00  0.00     0.037 A 
BRANCH  54  68
ATOM     68  C   UNL A   1      45.213  33.949  29.160  1.00  0.00     0.058 A 
ATOM     69  C   UNL A   1      44.779  35.001  28.336  1.00  0.00     0.135 A 
ATOM     70  C   UNL A   1      45.998  34.272  30.277  1.00  0.00     0.135 A 
ATOM     71  F   UNL A   1      44.046  34.744  27.240  1.00  0.00    -0.206 F 
ATOM     72  C   UNL A   1      45.128  36.321  28.599  1.00  0.00     0.059 A 
ATOM     73  C   UNL A   1      46.339  35.588  30.573  1.00  0.00     0.059 A 
ATOM     74  F   UNL A   1      46.446  33.303  31.091  1.00  0.00    -0.206 F 
ATOM     75  C   UNL A   1      45.909  36.605  29.720  1.00  0.00     0.060 A 
BRANCH  75  76
ATOM     76  S   UNL A   1      46.350  38.324  30.051  1.00  0.00     0.124 S 
ATOM     77  O   UNL A   1      45.121  39.016  29.676  1.00  0.00    -0.237 OA
ATOM     78  O   UNL A   1      46.654  38.300  31.477  1.00  0.00    -0.237 OA
ATOM     79  O   UNL A   1      47.493  38.556  29.173  1.00  0.00    -0.744 OA
ENDBRANCH  75  76
ENDBRANCH  54  68
BRANCH  55  80
ATOM     80  C   UNL A   1      42.265  24.554  27.484  1.00  0.00     0.058 A 
ATOM     81  C   UNL A   1      41.447  24.258  26.384  1.00  0.00     0.135 A 
ATOM     82  C   UNL A   1      42.640  23.494  28.324  1.00  0.00     0.135 A 
ATOM     83  F   UNL A   1      41.053  25.240  25.558  1.00  0.00    -0.206 F 
ATOM     84  C   UNL A   1      40.992  22.965  26.141  1.00  0.00     0.059 A 
ATOM     85  C   UNL A   1      42.218  22.190  28.089  1.00  0.00     0.059 A 
ATOM     86  F   UNL A   1      43.432  23.722  29.383  1.00  0.00    -0.206 F 
ATOM     87  C   UNL A   1      41.381  21.937  27.002  1.00  0.00     0.060 A 
BRANCH  87  88
ATOM     88  S   UNL A   1      40.810  20.258  26.667  1.00  0.00     0.124 S 
ATOM     89  O   UNL A   1      40.826  19.670  28.002  1.00  0.00    -0.237 OA
ATOM     90  O   UNL A   1      39.491  20.490  26.087  1.00  0.00    -0.237 OA
ATOM     91  O   UNL A   1      41.813  19.743  25.739  1.00  0.00    -0.744 OA
ENDBRANCH  87  88
ENDBRANCH  55  80
BRANCH  67  92
ATOM     92  C   UNL A   1      48.120  28.078  26.114  1.00  0.00     0.058 A 
ATOM     93  C   UNL A   1      49.269  27.800  26.870  1.00  0.00     0.135 A 
ATOM     94  C   UNL A   1      48.206  27.947  24.719  1.00  0.00     0.135 A 
ATOM     95  F   UNL A   1      49.241  27.911  28.208  1.00  0.00    -0.206 F 
ATOM     96  C   UNL A   1      50.469  27.444  26.264  1.00  0.00     0.059 A 
ATOM     97  C   UNL A   1      49.388  27.565  24.093  1.00  0.00     0.059 A 
ATOM     98  F   UNL A   1      47.131  28.185  23.949  1.00  0.00    -0.206 F 
ATOM     99  C   UNL A   1      50.521  27.335  24.873  1.00  0.00     0.060 A 
BRANCH  99 100
ATOM    100  S   UNL A   1      52.082  26.872  24.094  1.00  0.00     0.124 S 
ATOM    101  O   UNL A   1      52.354  25.585  24.726  1.00  0.00    -0.237 OA
ATOM    102  O   UNL A   1      51.726  26.820  22.679  1.00  0.00    -0.237 OA
ATOM    103  O   UNL A   1      52.982  27.959  24.466  1.00  0.00    -0.744 OA
ENDBRANCH  99 100
ENDBRANCH  67  92
ENDBRANCH  41  42
ENDBRANCH  34  36
ENDBRANCH  33  34
ENDBRANCH  32  33
ENDBRANCH   1  32
TORSDOF 18
ENDMDL
