MODEL 1
REMARK VINA RESULT:     -11.1      0.000      0.000
REMARK SMILES O=C(OCCOC(=O)[C@H]1CCCN1C(=S)Nc1ccccc1)c1ccc(-c2c3nc(c(-c4c(F)cc(S(=O)(=O)[O-])cc4F)c4ccc([nH]4)c(-c4c(F)cc(S(=O)(=O)[O-])cc4F)c4nc(c(-c5c(F)cc(S(=O)(=O)[O-])cc5F)c5ccc2[nH]5)C=C4)C=C3)cc1
REMARK SMILES IDX 4 1 3 2 2 3 1 4 23 5 24 6 88 7 25 8 87 9 26 10 27 11 28 12
REMARK SMILES IDX 81 13 29 14 86 15 80 16 82 17 30 18 85 19 79 20 78 21 31 23
REMARK SMILES IDX 65 24 44 25 64 26 45 27 48 28 63 29 83 30 46 31 47 32 62 34
REMARK SMILES IDX 84 35 49 36 32 37 33 38 42 39 34 40 35 41 41 42 43 43 36 44
REMARK SMILES IDX 37 45 38 46 39 47 40 48 66 49 67 50 76 51 68 52 69 53 75 54
REMARK SMILES IDX 77 55 70 56 71 57 72 58 73 59 74 60 50 61 51 62 60 63 52 64
REMARK SMILES IDX 53 65 59 66 61 67 54 68 55 69 56 70 57 71 58 72 5 73 6 74
REMARK SMILES IDX 7 75 8 76 9 77 10 78 13 79 11 80 12 81 14 82 15 83 16 84
REMARK SMILES IDX 17 86 18 87 22 88 19 89 21 90 20 91
REMARK H PARENT 82 22 48 33 16 85
REMARK Flexibility Score: inf
ROOT
ATOM      1  C   UNL A   1      40.164  22.832  27.206  1.00  0.00     0.275 C 
ENDROOT
BRANCH   1   2
ATOM      2  O   UNL A   1      41.179  23.729  26.718  1.00  0.00    -0.458 OA
BRANCH   2   3
ATOM      3  C   UNL A   1      41.139  25.074  26.540  1.00  0.00     0.338 C 
ATOM      4  O   UNL A   1      41.539  25.521  25.464  1.00  0.00    -0.246 OA
BRANCH   3   5
ATOM      5  C   UNL A   1      40.811  26.066  27.627  1.00  0.00     0.060 A 
ATOM      6  C   UNL A   1      39.711  26.038  28.493  1.00  0.00     0.016 A 
ATOM      7  C   UNL A   1      41.792  27.054  27.863  1.00  0.00     0.016 A 
ATOM      8  C   UNL A   1      39.621  26.904  29.600  1.00  0.00     0.010 A 
ATOM      9  C   UNL A   1      41.729  27.884  28.992  1.00  0.00     0.010 A 
ATOM     10  C   UNL A   1      40.634  27.819  29.874  1.00  0.00    -0.014 A 
BRANCH  10  11
ATOM     11  C   UNL A   1      40.494  28.858  30.934  1.00  0.00     0.031 A 
ATOM     12  C   UNL A   1      41.211  28.600  32.224  1.00  0.00     0.074 A 
ATOM     13  C   UNL A   1      39.755  29.980  30.800  1.00  0.00     0.049 A 
ATOM     14  N   UNL A   1      41.251  29.339  33.297  1.00  0.00    -0.248 NA
ATOM     15  C   UNL A   1      42.045  27.384  32.293  1.00  0.00     0.031 C 
ATOM     16  C   UNL A   1      39.173  30.479  29.563  1.00  0.00     0.029 A 
ATOM     17  N   UNL A   1      39.312  30.891  31.729  1.00  0.00    -0.354 N 
ATOM     18  C   UNL A   1      42.168  28.722  34.131  1.00  0.00     0.074 A 
ATOM     19  C   UNL A   1      42.570  27.486  33.502  1.00  0.00     0.031 C 
ATOM     20  C   UNL A   1      38.277  31.444  29.826  1.00  0.00     0.029 A 
ATOM     21  C   UNL A   1      38.333  31.741  31.248  1.00  0.00     0.049 A 
ATOM     22  H   UNL A   1      39.657  30.934  32.650  1.00  0.00     0.167 HD
ATOM     23  C   UNL A   1      42.685  29.191  35.286  1.00  0.00     0.037 A 
ATOM     24  C   UNL A   1      37.602  32.688  31.867  1.00  0.00     0.037 A 
ATOM     25  C   UNL A   1      42.252  30.409  35.905  1.00  0.00     0.049 A 
ATOM     26  C   UNL A   1      38.047  33.090  33.246  1.00  0.00     0.074 A 
ATOM     27  C   UNL A   1      42.703  30.991  37.072  1.00  0.00     0.029 A 
ATOM     28  N   UNL A   1      41.236  31.221  35.414  1.00  0.00    -0.354 N 
ATOM     29  N   UNL A   1      39.000  32.560  33.977  1.00  0.00    -0.248 NA
ATOM     30  C   UNL A   1      37.411  34.270  33.841  1.00  0.00     0.031 C 
ATOM     31  C   UNL A   1      41.913  32.117  37.325  1.00  0.00     0.029 A 
ATOM     32  C   UNL A   1      41.008  32.269  36.284  1.00  0.00     0.049 A 
ATOM     33  H   UNL A   1      40.751  31.071  34.570  1.00  0.00     0.167 HD
ATOM     34  C   UNL A   1      39.132  33.387  35.081  1.00  0.00     0.074 A 
ATOM     35  C   UNL A   1      38.147  34.441  34.931  1.00  0.00     0.031 C 
ATOM     36  C   UNL A   1      40.011  33.298  36.110  1.00  0.00     0.037 A 
BRANCH  23  37
ATOM     37  C   UNL A   1      43.759  28.364  35.922  1.00  0.00     0.058 A 
ATOM     38  C   UNL A   1      43.452  27.340  36.836  1.00  0.00     0.135 A 
ATOM     39  C   UNL A   1      45.109  28.632  35.662  1.00  0.00     0.135 A 
ATOM     40  F   UNL A   1      42.173  27.071  37.149  1.00  0.00    -0.206 F 
ATOM     41  C   UNL A   1      44.450  26.632  37.494  1.00  0.00     0.059 A 
ATOM     42  C   UNL A   1      46.125  27.918  36.290  1.00  0.00     0.059 A 
ATOM     43  F   UNL A   1      45.452  29.614  34.815  1.00  0.00    -0.206 F 
ATOM     44  C   UNL A   1      45.784  26.932  37.216  1.00  0.00     0.060 A 
BRANCH  44  45
ATOM     45  S   UNL A   1      47.070  26.017  38.091  1.00  0.00     0.124 S 
ATOM     46  O   UNL A   1      48.147  27.002  38.139  1.00  0.00    -0.237 OA
ATOM     47  O   UNL A   1      46.426  25.722  39.367  1.00  0.00    -0.237 OA
ATOM     48  O   UNL A   1      47.311  24.864  37.230  1.00  0.00    -0.744 OA
ENDBRANCH  44  45
ENDBRANCH  23  37
BRANCH  24  49
ATOM     49  C   UNL A   1      36.494  33.400  31.165  1.00  0.00     0.058 A 
ATOM     50  C   UNL A   1      35.156  33.244  31.555  1.00  0.00     0.135 A 
ATOM     51  C   UNL A   1      36.752  34.247  30.072  1.00  0.00     0.135 A 
ATOM     52  F   UNL A   1      34.853  32.449  32.592  1.00  0.00    -0.206 F 
ATOM     53  C   UNL A   1      34.113  33.870  30.875  1.00  0.00     0.059 A 
ATOM     54  C   UNL A   1      35.727  34.899  29.385  1.00  0.00     0.059 A 
ATOM     55  F   UNL A   1      38.014  34.447  29.661  1.00  0.00    -0.206 F 
ATOM     56  C   UNL A   1      34.407  34.693  29.787  1.00  0.00     0.060 A 
BRANCH  56  57
ATOM     57  S   UNL A   1      33.037  35.499  28.924  1.00  0.00     0.124 S 
ATOM     58  O   UNL A   1      32.429  34.376  28.220  1.00  0.00    -0.237 OA
ATOM     59  O   UNL A   1      32.263  36.049  30.033  1.00  0.00    -0.237 OA
ATOM     60  O   UNL A   1      33.701  36.486  28.079  1.00  0.00    -0.744 OA
ENDBRANCH  56  57
ENDBRANCH  24  49
BRANCH  36  61
ATOM     61  C   UNL A   1      39.947  34.369  37.156  1.00  0.00     0.058 A 
ATOM     62  C   UNL A   1      40.640  35.577  37.002  1.00  0.00     0.135 A 
ATOM     63  C   UNL A   1      39.113  34.218  38.275  1.00  0.00     0.135 A 
ATOM     64  F   UNL A   1      41.457  35.761  35.952  1.00  0.00    -0.206 F 
ATOM     65  C   UNL A   1      40.516  36.602  37.930  1.00  0.00     0.059 A 
ATOM     66  C   UNL A   1      38.949  35.243  39.199  1.00  0.00     0.059 A 
ATOM     67  F   UNL A   1      38.424  33.081  38.460  1.00  0.00    -0.206 F 
ATOM     68  C   UNL A   1      39.659  36.429  39.019  1.00  0.00     0.060 A 
BRANCH  68  69
ATOM     69  S   UNL A   1      39.450  37.800  40.171  1.00  0.00     0.124 S 
ATOM     70  O   UNL A   1      39.202  37.095  41.423  1.00  0.00    -0.237 OA
ATOM     71  O   UNL A   1      40.734  38.488  40.072  1.00  0.00    -0.237 OA
ATOM     72  O   UNL A   1      38.311  38.533  39.625  1.00  0.00    -0.744 OA
ENDBRANCH  68  69
ENDBRANCH  36  61
ENDBRANCH  10  11
ENDBRANCH   3   5
ENDBRANCH   2   3
ENDBRANCH   1   2
BRANCH   1  73
ATOM     73  C   UNL A   1      39.500  21.992  26.106  1.00  0.00     0.274 C 
BRANCH  73  74
ATOM     74  O   UNL A   1      38.272  22.593  25.685  1.00  0.00    -0.461 OA
BRANCH  74  75
ATOM     75  C   UNL A   1      37.235  21.773  25.322  1.00  0.00     0.328 C 
ATOM     76  O   UNL A   1      37.364  20.766  24.644  1.00  0.00    -0.250 OA
BRANCH  75  77
ATOM     77  C   UNL A   1      35.904  22.240  25.979  1.00  0.00     0.194 C 
ATOM     78  C   UNL A   1      35.836  23.733  26.161  1.00  0.00     0.039 C 
ATOM     79  N   UNL A   1      34.674  22.053  25.198  1.00  0.00    -0.335 N 
ATOM     80  C   UNL A   1      35.460  24.219  24.781  1.00  0.00     0.024 C 
ATOM     81  C   UNL A   1      34.653  23.088  24.164  1.00  0.00     0.120 C 
BRANCH  79  82
ATOM     82  C   UNL A   1      33.557  21.325  25.517  1.00  0.00     0.174 C 
ATOM     83  S   UNL A   1      32.053  22.022  25.806  1.00  0.00    -0.041 S 
BRANCH  82  84
ATOM     84  N   UNL A   1      33.579  19.962  25.546  1.00  0.00    -0.333 N 
ATOM     85  H   UNL A   1      33.557  19.570  26.450  1.00  0.00     0.169 HD
BRANCH  84  86
ATOM     86  C   UNL A   1      33.626  19.024  24.508  1.00  0.00     0.040 A 
ATOM     87  C   UNL A   1      34.645  18.073  24.553  1.00  0.00     0.026 A 
ATOM     88  C   UNL A   1      32.632  18.944  23.529  1.00  0.00     0.026 A 
ATOM     89  C   UNL A   1      34.591  16.963  23.709  1.00  0.00     0.002 A 
ATOM     90  C   UNL A   1      32.598  17.844  22.665  1.00  0.00     0.002 A 
ATOM     91  C   UNL A   1      33.559  16.840  22.778  1.00  0.00     0.000 A 
ENDBRANCH  84  86
ENDBRANCH  82  84
ENDBRANCH  79  82
ENDBRANCH  75  77
ENDBRANCH  74  75
ENDBRANCH  73  74
ENDBRANCH   1  73
TORSDOF 17
ENDMDL
MODEL 2
REMARK VINA RESULT:     -10.9      0.560      8.474
REMARK SMILES O=C(OCCOC(=O)[C@H]1CCCN1C(=S)Nc1ccccc1)c1ccc(-c2c3nc(c(-c4c(F)cc(S(=O)(=O)[O-])cc4F)c4ccc([nH]4)c(-c4c(F)cc(S(=O)(=O)[O-])cc4F)c4nc(c(-c5c(F)cc(S(=O)(=O)[O-])cc5F)c5ccc2[nH]5)C=C4)C=C3)cc1
REMARK SMILES IDX 4 1 3 2 2 3 1 4 23 5 24 6 88 7 25 8 87 9 26 10 27 11 28 12
REMARK SMILES IDX 81 13 29 14 86 15 80 16 82 17 30 18 85 19 79 20 78 21 31 23
REMARK SMILES IDX 65 24 44 25 64 26 45 27 48 28 63 29 83 30 46 31 47 32 62 34
REMARK SMILES IDX 84 35 49 36 32 37 33 38 42 39 34 40 35 41 41 42 43 43 36 44
REMARK SMILES IDX 37 45 38 46 39 47 40 48 66 49 67 50 76 51 68 52 69 53 75 54
REMARK SMILES IDX 77 55 70 56 71 57 72 58 73 59 74 60 50 61 51 62 60 63 52 64
REMARK SMILES IDX 53 65 59 66 61 67 54 68 55 69 56 70 57 71 58 72 5 73 6 74
REMARK SMILES IDX 7 75 8 76 9 77 10 78 13 79 11 80 12 81 14 82 15 83 16 84
REMARK SMILES IDX 17 86 18 87 22 88 19 89 21 90 20 91
REMARK H PARENT 82 22 48 33 16 85
REMARK Flexibility Score: inf
ROOT
ATOM      1  C   UNL A   1      40.020  22.955  27.063  1.00  0.00     0.275 C 
ENDROOT
BRANCH   1   2
ATOM      2  O   UNL A   1      40.953  23.868  26.454  1.00  0.00    -0.458 OA
BRANCH   2   3
ATOM      3  C   UNL A   1      40.931  25.224  26.397  1.00  0.00     0.338 C 
ATOM      4  O   UNL A   1      41.280  25.758  25.343  1.00  0.00    -0.246 OA
BRANCH   3   5
ATOM      5  C   UNL A   1      40.685  26.121  27.584  1.00  0.00     0.060 A 
ATOM      6  C   UNL A   1      39.576  26.106  28.439  1.00  0.00     0.016 A 
ATOM      7  C   UNL A   1      41.751  26.980  27.927  1.00  0.00     0.016 A 
ATOM      8  C   UNL A   1      39.554  26.853  29.633  1.00  0.00     0.010 A 
ATOM      9  C   UNL A   1      41.753  27.687  29.138  1.00  0.00     0.010 A 
ATOM     10  C   UNL A   1      40.646  27.633  30.006  1.00  0.00    -0.014 A 
BRANCH  10  11
ATOM     11  C   UNL A   1      40.591  28.562  31.171  1.00  0.00     0.031 A 
ATOM     12  C   UNL A   1      39.714  29.768  31.024  1.00  0.00     0.074 A 
ATOM     13  C   UNL A   1      41.289  28.385  32.313  1.00  0.00     0.049 A 
ATOM     14  N   UNL A   1      39.493  30.724  31.882  1.00  0.00    -0.248 NA
ATOM     15  C   UNL A   1      38.936  29.881  29.776  1.00  0.00     0.031 C 
ATOM     16  C   UNL A   1      42.013  27.182  32.696  1.00  0.00     0.029 A 
ATOM     17  N   UNL A   1      41.557  29.241  33.354  1.00  0.00    -0.354 N 
ATOM     18  C   UNL A   1      38.498  31.502  31.313  1.00  0.00     0.074 A 
ATOM     19  C   UNL A   1      38.245  30.988  29.989  1.00  0.00     0.031 C 
ATOM     20  C   UNL A   1      42.819  27.436  33.740  1.00  0.00     0.029 A 
ATOM     21  C   UNL A   1      42.553  28.789  34.200  1.00  0.00     0.049 A 
ATOM     22  H   UNL A   1      41.086  30.095  33.486  1.00  0.00     0.167 HD
ATOM     23  C   UNL A   1      37.806  32.510  31.884  1.00  0.00     0.037 A 
ATOM     24  C   UNL A   1      43.147  29.374  35.258  1.00  0.00     0.037 A 
ATOM     25  C   UNL A   1      38.093  33.020  33.192  1.00  0.00     0.049 A 
ATOM     26  C   UNL A   1      42.498  30.620  35.793  1.00  0.00     0.074 A 
ATOM     27  C   UNL A   1      37.458  34.035  33.880  1.00  0.00     0.029 A 
ATOM     28  N   UNL A   1      39.128  32.568  34.001  1.00  0.00    -0.354 N 
ATOM     29  N   UNL A   1      41.478  31.280  35.296  1.00  0.00    -0.248 NA
ATOM     30  C   UNL A   1      42.990  31.138  37.074  1.00  0.00     0.031 C 
ATOM     31  C   UNL A   1      38.153  34.245  35.075  1.00  0.00     0.029 A 
ATOM     32  C   UNL A   1      39.185  33.321  35.158  1.00  0.00     0.049 A 
ATOM     33  H   UNL A   1      39.731  31.822  33.782  1.00  0.00     0.167 HD
ATOM     34  C   UNL A   1      41.156  32.244  36.239  1.00  0.00     0.074 A 
ATOM     35  C   UNL A   1      42.103  32.092  37.327  1.00  0.00     0.031 C 
ATOM     36  C   UNL A   1      40.148  33.151  36.219  1.00  0.00     0.037 A 
BRANCH  23  37
ATOM     37  C   UNL A   1      36.693  33.099  31.073  1.00  0.00     0.058 A 
ATOM     38  C   UNL A   1      36.951  33.930  29.968  1.00  0.00     0.135 A 
ATOM     39  C   UNL A   1      35.357  32.879  31.435  1.00  0.00     0.135 A 
ATOM     40  F   UNL A   1      38.216  34.203  29.606  1.00  0.00    -0.206 F 
ATOM     41  C   UNL A   1      35.921  34.548  29.270  1.00  0.00     0.059 A 
ATOM     42  C   UNL A   1      34.309  33.468  30.735  1.00  0.00     0.059 A 
ATOM     43  F   UNL A   1      35.062  32.112  32.495  1.00  0.00    -0.206 F 
ATOM     44  C   UNL A   1      34.603  34.313  29.665  1.00  0.00     0.060 A 
BRANCH  44  45
ATOM     45  S   UNL A   1      33.276  35.137  28.760  1.00  0.00     0.124 S 
ATOM     46  O   UNL A   1      32.787  34.054  27.911  1.00  0.00    -0.237 OA
ATOM     47  O   UNL A   1      32.381  35.552  29.836  1.00  0.00    -0.237 OA
ATOM     48  O   UNL A   1      33.962  36.221  28.064  1.00  0.00    -0.744 OA
ENDBRANCH  44  45
ENDBRANCH  23  37
BRANCH  24  49
ATOM     49  C   UNL A   1      44.307  28.738  35.949  1.00  0.00     0.058 A 
ATOM     50  C   UNL A   1      45.629  29.109  35.658  1.00  0.00     0.135 A 
ATOM     51  C   UNL A   1      44.118  27.732  36.912  1.00  0.00     0.135 A 
ATOM     52  F   UNL A   1      45.868  30.066  34.749  1.00  0.00    -0.206 F 
ATOM     53  C   UNL A   1      46.718  28.488  36.266  1.00  0.00     0.059 A 
ATOM     54  C   UNL A   1      45.192  27.105  37.548  1.00  0.00     0.059 A 
ATOM     55  F   UNL A   1      42.876  27.345  37.243  1.00  0.00    -0.206 F 
ATOM     56  C   UNL A   1      46.490  27.483  37.207  1.00  0.00     0.060 A 
BRANCH  56  57
ATOM     57  S   UNL A   1      47.921  26.697  37.987  1.00  0.00     0.124 S 
ATOM     58  O   UNL A   1      47.284  25.865  39.002  1.00  0.00    -0.237 OA
ATOM     59  O   UNL A   1      48.522  25.983  36.865  1.00  0.00    -0.237 OA
ATOM     60  O   UNL A   1      48.695  27.825  38.494  1.00  0.00    -0.744 OA
ENDBRANCH  56  57
ENDBRANCH  24  49
BRANCH  36  61
ATOM     61  C   UNL A   1      40.018  34.052  37.409  1.00  0.00     0.058 A 
ATOM     62  C   UNL A   1      40.697  35.277  37.470  1.00  0.00     0.135 A 
ATOM     63  C   UNL A   1      39.138  33.726  38.453  1.00  0.00     0.135 A 
ATOM     64  F   UNL A   1      41.557  35.624  36.498  1.00  0.00    -0.206 F 
ATOM     65  C   UNL A   1      40.514  36.150  38.533  1.00  0.00     0.059 A 
ATOM     66  C   UNL A   1      38.915  34.599  39.510  1.00  0.00     0.059 A 
ATOM     67  F   UNL A   1      38.462  32.567  38.433  1.00  0.00    -0.206 F 
ATOM     68  C   UNL A   1      39.612  35.807  39.543  1.00  0.00     0.060 A 
BRANCH  68  69
ATOM     69  S   UNL A   1      39.328  36.987  40.875  1.00  0.00     0.124 S 
ATOM     70  O   UNL A   1      38.669  36.151  41.872  1.00  0.00    -0.237 OA
ATOM     71  O   UNL A   1      40.684  37.418  41.203  1.00  0.00    -0.237 OA
ATOM     72  O   UNL A   1      38.487  38.006  40.253  1.00  0.00    -0.744 OA
ENDBRANCH  68  69
ENDBRANCH  36  61
ENDBRANCH  10  11
ENDBRANCH   3   5
ENDBRANCH   2   3
ENDBRANCH   1   2
BRANCH   1  73
ATOM     73  C   UNL A   1      39.581  21.812  26.139  1.00  0.00     0.274 C 
BRANCH  73  74
ATOM     74  O   UNL A   1      38.520  22.238  25.279  1.00  0.00    -0.461 OA
BRANCH  74  75
ATOM     75  C   UNL A   1      37.407  21.444  25.172  1.00  0.00     0.328 C 
ATOM     76  O   UNL A   1      37.409  20.325  24.683  1.00  0.00    -0.250 OA
BRANCH  75  77
ATOM     77  C   UNL A   1      36.181  22.117  25.853  1.00  0.00     0.194 C 
ATOM     78  C   UNL A   1      36.222  23.619  25.775  1.00  0.00     0.039 C 
ATOM     79  N   UNL A   1      34.869  21.896  25.230  1.00  0.00    -0.335 N 
ATOM     80  C   UNL A   1      35.739  23.893  24.370  1.00  0.00     0.024 C 
ATOM     81  C   UNL A   1      34.806  22.739  24.036  1.00  0.00     0.120 C 
BRANCH  79  82
ATOM     82  C   UNL A   1      33.748  21.321  25.770  1.00  0.00     0.174 C 
ATOM     83  S   UNL A   1      32.493  22.209  26.454  1.00  0.00    -0.041 S 
BRANCH  82  84
ATOM     84  N   UNL A   1      33.542  19.973  25.718  1.00  0.00    -0.333 N 
ATOM     85  H   UNL A   1      33.357  19.553  26.589  1.00  0.00     0.169 HD
BRANCH  84  86
ATOM     86  C   UNL A   1      33.548  19.087  24.634  1.00  0.00     0.040 A 
ATOM     87  C   UNL A   1      34.505  18.072  24.646  1.00  0.00     0.026 A 
ATOM     88  C   UNL A   1      32.569  19.119  23.638  1.00  0.00     0.026 A 
ATOM     89  C   UNL A   1      34.395  17.011  23.747  1.00  0.00     0.002 A 
ATOM     90  C   UNL A   1      32.481  18.069  22.719  1.00  0.00     0.002 A 
ATOM     91  C   UNL A   1      33.374  17.001  22.795  1.00  0.00     0.000 A 
ENDBRANCH  84  86
ENDBRANCH  82  84
ENDBRANCH  79  82
ENDBRANCH  75  77
ENDBRANCH  74  75
ENDBRANCH  73  74
ENDBRANCH   1  73
TORSDOF 17
ENDMDL
MODEL 3
REMARK VINA RESULT:     -10.8      3.700      9.545
REMARK SMILES O=C(OCCOC(=O)[C@H]1CCCN1C(=S)Nc1ccccc1)c1ccc(-c2c3nc(c(-c4c(F)cc(S(=O)(=O)[O-])cc4F)c4ccc([nH]4)c(-c4c(F)cc(S(=O)(=O)[O-])cc4F)c4nc(c(-c5c(F)cc(S(=O)(=O)[O-])cc5F)c5ccc2[nH]5)C=C4)C=C3)cc1
REMARK SMILES IDX 4 1 3 2 2 3 1 4 23 5 24 6 88 7 25 8 87 9 26 10 27 11 28 12
REMARK SMILES IDX 81 13 29 14 86 15 80 16 82 17 30 18 85 19 79 20 78 21 31 23
REMARK SMILES IDX 65 24 44 25 64 26 45 27 48 28 63 29 83 30 46 31 47 32 62 34
REMARK SMILES IDX 84 35 49 36 32 37 33 38 42 39 34 40 35 41 41 42 43 43 36 44
REMARK SMILES IDX 37 45 38 46 39 47 40 48 66 49 67 50 76 51 68 52 69 53 75 54
REMARK SMILES IDX 77 55 70 56 71 57 72 58 73 59 74 60 50 61 51 62 60 63 52 64
REMARK SMILES IDX 53 65 59 66 61 67 54 68 55 69 56 70 57 71 58 72 5 73 6 74
REMARK SMILES IDX 7 75 8 76 9 77 10 78 13 79 11 80 12 81 14 82 15 83 16 84
REMARK SMILES IDX 17 86 18 87 22 88 19 89 21 90 20 91
REMARK H PARENT 82 22 48 33 16 85
REMARK Flexibility Score: inf
ROOT
ATOM      1  C   UNL A   1      32.632  29.824  25.417  1.00  0.00     0.275 C 
ENDROOT
BRANCH   1   2
ATOM      2  O   UNL A   1      33.343  29.612  26.651  1.00  0.00    -0.458 OA
BRANCH   2   3
ATOM      3  C   UNL A   1      34.202  30.430  27.311  1.00  0.00     0.338 C 
ATOM      4  O   UNL A   1      33.930  31.630  27.354  1.00  0.00    -0.246 OA
BRANCH   3   5
ATOM      5  C   UNL A   1      35.551  30.003  27.833  1.00  0.00     0.060 A 
ATOM      6  C   UNL A   1      36.784  30.115  27.179  1.00  0.00     0.016 A 
ATOM      7  C   UNL A   1      35.570  29.557  29.172  1.00  0.00     0.016 A 
ATOM      8  C   UNL A   1      37.999  29.871  27.848  1.00  0.00     0.010 A 
ATOM      9  C   UNL A   1      36.780  29.360  29.855  1.00  0.00     0.010 A 
ATOM     10  C   UNL A   1      38.013  29.512  29.194  1.00  0.00    -0.014 A 
BRANCH  10  11
ATOM     11  C   UNL A   1      39.264  29.086  29.884  1.00  0.00     0.031 A 
ATOM     12  C   UNL A   1      39.757  29.976  30.984  1.00  0.00     0.074 A 
ATOM     13  C   UNL A   1      39.966  27.979  29.562  1.00  0.00     0.049 A 
ATOM     14  N   UNL A   1      40.813  29.834  31.736  1.00  0.00    -0.248 NA
ATOM     15  C   UNL A   1      38.922  31.143  31.326  1.00  0.00     0.031 C 
ATOM     16  C   UNL A   1      39.523  26.913  28.676  1.00  0.00     0.029 A 
ATOM     17  N   UNL A   1      41.237  27.580  29.901  1.00  0.00    -0.354 N 
ATOM     18  C   UNL A   1      40.725  30.841  32.682  1.00  0.00     0.074 A 
ATOM     19  C   UNL A   1      39.588  31.663  32.342  1.00  0.00     0.031 C 
ATOM     20  C   UNL A   1      40.556  26.117  28.352  1.00  0.00     0.029 A 
ATOM     21  C   UNL A   1      41.709  26.529  29.136  1.00  0.00     0.049 A 
ATOM     22  H   UNL A   1      41.762  28.002  30.618  1.00  0.00     0.167 HD
ATOM     23  C   UNL A   1      41.485  31.012  33.784  1.00  0.00     0.037 A 
ATOM     24  C   UNL A   1      42.916  25.931  29.105  1.00  0.00     0.037 A 
ATOM     25  C   UNL A   1      42.625  30.198  34.087  1.00  0.00     0.049 A 
ATOM     26  C   UNL A   1      43.861  26.261  30.226  1.00  0.00     0.074 A 
ATOM     27  C   UNL A   1      43.471  30.271  35.176  1.00  0.00     0.029 A 
ATOM     28  N   UNL A   1      43.097  29.174  33.275  1.00  0.00    -0.354 N 
ATOM     29  N   UNL A   1      43.706  27.145  31.184  1.00  0.00    -0.248 NA
ATOM     30  C   UNL A   1      45.080  25.453  30.339  1.00  0.00     0.031 C 
ATOM     31  C   UNL A   1      44.496  29.338  34.987  1.00  0.00     0.029 A 
ATOM     32  C   UNL A   1      44.255  28.644  33.810  1.00  0.00     0.049 A 
ATOM     33  H   UNL A   1      42.669  28.871  32.442  1.00  0.00     0.167 HD
ATOM     34  C   UNL A   1      44.766  26.948  32.055  1.00  0.00     0.074 A 
ATOM     35  C   UNL A   1      45.566  25.873  31.499  1.00  0.00     0.031 C 
ATOM     36  C   UNL A   1      45.034  27.579  33.226  1.00  0.00     0.037 A 
BRANCH  23  37
ATOM     37  C   UNL A   1      41.086  32.123  34.705  1.00  0.00     0.058 A 
ATOM     38  C   UNL A   1      41.638  33.411  34.583  1.00  0.00     0.135 A 
ATOM     39  C   UNL A   1      40.189  31.887  35.755  1.00  0.00     0.135 A 
ATOM     40  F   UNL A   1      42.534  33.677  33.617  1.00  0.00    -0.206 F 
ATOM     41  C   UNL A   1      41.336  34.418  35.492  1.00  0.00     0.059 A 
ATOM     42  C   UNL A   1      39.853  32.887  36.661  1.00  0.00     0.059 A 
ATOM     43  F   UNL A   1      39.654  30.669  35.925  1.00  0.00    -0.206 F 
ATOM     44  C   UNL A   1      40.445  34.144  36.530  1.00  0.00     0.060 A 
BRANCH  44  45
ATOM     45  S   UNL A   1      40.075  35.455  37.713  1.00  0.00     0.124 S 
ATOM     46  O   UNL A   1      41.332  35.544  38.451  1.00  0.00    -0.237 OA
ATOM     47  O   UNL A   1      39.774  36.585  36.839  1.00  0.00    -0.237 OA
ATOM     48  O   UNL A   1      38.942  34.926  38.464  1.00  0.00    -0.744 OA
ENDBRANCH  44  45
ENDBRANCH  23  37
BRANCH  24  49
ATOM     49  C   UNL A   1      43.241  24.887  28.090  1.00  0.00     0.058 A 
ATOM     50  C   UNL A   1      42.939  23.534  28.303  1.00  0.00     0.135 A 
ATOM     51  C   UNL A   1      43.878  25.222  26.881  1.00  0.00     0.135 A 
ATOM     52  F   UNL A   1      42.330  23.158  29.437  1.00  0.00    -0.206 F 
ATOM     53  C   UNL A   1      43.282  22.549  27.379  1.00  0.00     0.059 A 
ATOM     54  C   UNL A   1      44.217  24.257  25.932  1.00  0.00     0.059 A 
ATOM     55  F   UNL A   1      44.180  26.503  26.615  1.00  0.00    -0.206 F 
ATOM     56  C   UNL A   1      43.925  22.919  26.197  1.00  0.00     0.060 A 
BRANCH  56  57
ATOM     57  S   UNL A   1      44.354  21.623  25.010  1.00  0.00     0.124 S 
ATOM     58  O   UNL A   1      44.174  22.314  23.739  1.00  0.00    -0.237 OA
ATOM     59  O   UNL A   1      45.733  21.319  25.380  1.00  0.00    -0.237 OA
ATOM     60  O   UNL A   1      43.387  20.568  25.294  1.00  0.00    -0.744 OA
ENDBRANCH  56  57
ENDBRANCH  24  49
BRANCH  36  61
ATOM     61  C   UNL A   1      46.245  27.125  33.983  1.00  0.00     0.058 A 
ATOM     62  C   UNL A   1      47.488  27.746  33.805  1.00  0.00     0.135 A 
ATOM     63  C   UNL A   1      46.136  26.121  34.958  1.00  0.00     0.135 A 
ATOM     64  F   UNL A   1      47.640  28.704  32.876  1.00  0.00    -0.206 F 
ATOM     65  C   UNL A   1      48.591  27.382  34.565  1.00  0.00     0.059 A 
ATOM     66  C   UNL A   1      47.218  25.763  35.752  1.00  0.00     0.059 A 
ATOM     67  F   UNL A   1      44.963  25.504  35.168  1.00  0.00    -0.206 F 
ATOM     68  C   UNL A   1      48.442  26.397  35.544  1.00  0.00     0.060 A 
BRANCH  68  69
ATOM     69  S   UNL A   1      49.865  25.992  36.575  1.00  0.00     0.124 S 
ATOM     70  O   UNL A   1      49.242  25.218  37.643  1.00  0.00    -0.237 OA
ATOM     71  O   UNL A   1      50.711  25.238  35.655  1.00  0.00    -0.237 OA
ATOM     72  O   UNL A   1      50.385  27.299  36.966  1.00  0.00    -0.744 OA
ENDBRANCH  68  69
ENDBRANCH  36  61
ENDBRANCH  10  11
ENDBRANCH   3   5
ENDBRANCH   2   3
ENDBRANCH   1   2
BRANCH   1  73
ATOM     73  C   UNL A   1      32.534  28.571  24.536  1.00  0.00     0.274 C 
BRANCH  73  74
ATOM     74  O   UNL A   1      31.401  27.781  24.908  1.00  0.00    -0.461 OA
BRANCH  74  75
ATOM     75  C   UNL A   1      31.581  26.766  25.812  1.00  0.00     0.328 C 
ATOM     76  O   UNL A   1      31.159  26.787  26.958  1.00  0.00    -0.250 OA
BRANCH  75  77
ATOM     77  C   UNL A   1      32.294  25.553  25.147  1.00  0.00     0.194 C 
ATOM     78  C   UNL A   1      32.383  24.359  26.058  1.00  0.00     0.039 C 
ATOM     79  N   UNL A   1      31.610  24.919  24.012  1.00  0.00    -0.335 N 
ATOM     80  C   UNL A   1      31.003  23.754  25.951  1.00  0.00     0.024 C 
ATOM     81  C   UNL A   1      30.514  24.116  24.557  1.00  0.00     0.120 C 
BRANCH  79  82
ATOM     82  C   UNL A   1      32.048  24.766  22.722  1.00  0.00     0.174 C 
ATOM     83  S   UNL A   1      32.061  26.017  21.597  1.00  0.00    -0.041 S 
BRANCH  82  84
ATOM     84  N   UNL A   1      32.580  23.588  22.285  1.00  0.00    -0.333 N 
ATOM     85  H   UNL A   1      32.588  23.481  21.306  1.00  0.00     0.169 HD
BRANCH  84  86
ATOM     86  C   UNL A   1      33.118  22.508  22.994  1.00  0.00     0.040 A 
ATOM     87  C   UNL A   1      34.403  22.663  23.514  1.00  0.00     0.026 A 
ATOM     88  C   UNL A   1      32.373  21.363  23.290  1.00  0.00     0.026 A 
ATOM     89  C   UNL A   1      34.886  21.743  24.445  1.00  0.00     0.002 A 
ATOM     90  C   UNL A   1      32.873  20.427  24.201  1.00  0.00     0.002 A 
ATOM     91  C   UNL A   1      34.115  20.635  24.800  1.00  0.00     0.000 A 
ENDBRANCH  84  86
ENDBRANCH  82  84
ENDBRANCH  79  82
ENDBRANCH  75  77
ENDBRANCH  74  75
ENDBRANCH  73  74
ENDBRANCH   1  73
TORSDOF 17
ENDMDL
