MODEL 1
REMARK VINA RESULT:     -11.8      0.000      0.000
REMARK SMILES CO[C@H]1C[C@@H](C(=O)OCCOC(=O)c2ccc(-c3c4nc(c(-c5c(F)cc(S(=O)(=O)[O-])cc5F)c5ccc([nH]5)c(-c5c(F)cc(S(=O)(=O)[O-])cc5F)c5nc(c(-c6c(F)cc(S(=O)(=O)[O-])cc6F)c6ccc3[nH]6)C=C5)C=C4)cc2)N(C(=O)Nc2cc(C)cc(F)c2)C1
REMARK SMILES IDX 10 1 9 2 8 3 6 4 7 5 5 6 3 7 4 8 92 9 80 10 2 11 1 12 81 13
REMARK SMILES IDX 82 14 83 15 84 17 85 18 91 19 86 20 89 21 87 22 88 23 90 24
REMARK SMILES IDX 11 25 12 26 13 27 14 28 15 29 79 30 16 31 78 32 17 33 18 34
REMARK SMILES IDX 19 35 72 36 20 37 77 38 71 39 73 40 21 41 76 42 70 43 69 44
REMARK SMILES IDX 22 46 56 47 35 48 55 49 36 50 39 51 54 52 74 53 37 54 38 55
REMARK SMILES IDX 53 57 75 58 40 59 23 60 24 61 33 62 25 63 26 64 32 65 34 66
REMARK SMILES IDX 27 67 28 68 29 69 30 70 31 71 57 72 58 73 67 74 59 75 60 76
REMARK SMILES IDX 66 77 68 78 61 79 62 80 63 81 64 82 65 83 41 84 42 85 51 86
REMARK SMILES IDX 43 87 44 88 50 89 52 90 45 91 46 92 47 93 48 94 49 95
REMARK H PARENT 83 16 73 45 39 56
REMARK Flexibility Score: inf
ROOT
ATOM      1  C   UNL A   1      34.731  30.707  27.668  1.00  0.00     0.275 C 
ENDROOT
BRANCH   1   2
ATOM      2  C   UNL A   1      33.291  30.255  27.294  1.00  0.00     0.274 C 
BRANCH   2   3
ATOM      3  O   UNL A   1      33.102  29.056  26.504  1.00  0.00    -0.461 OA
BRANCH   3   4
ATOM      4  C   UNL A   1      31.960  29.042  25.774  1.00  0.00     0.329 C 
ATOM      5  O   UNL A   1      31.393  30.062  25.434  1.00  0.00    -0.250 OA
BRANCH   4   6
ATOM      6  C   UNL A   1      31.477  27.678  25.340  1.00  0.00     0.199 C 
ATOM      7  C   UNL A   1      32.437  25.462  25.797  1.00  0.00     0.140 C 
ATOM      8  C   UNL A   1      31.993  26.754  26.454  1.00  0.00     0.071 C 
ATOM      9  C   UNL A   1      32.731  25.861  24.354  1.00  0.00     0.154 C 
ATOM     10  N   UNL A   1      32.122  27.169  24.100  1.00  0.00    -0.308 N 
BRANCH   7  11
ATOM     11  O   UNL A   1      33.629  24.932  26.381  1.00  0.00    -0.380 OA
ATOM     12  C   UNL A   1      34.306  23.961  25.596  1.00  0.00     0.195 C 
ENDBRANCH   7  11
BRANCH  10  13
ATOM     13  C   UNL A   1      32.092  27.553  22.782  1.00  0.00     0.322 C 
ATOM     14  O   UNL A   1      33.111  27.447  22.087  1.00  0.00    -0.248 OA
ATOM     15  N   UNL A   1      30.975  27.889  22.097  1.00  0.00    -0.308 N 
ATOM     16  H   UNL A   1      30.968  27.514  21.187  1.00  0.00     0.171 HD
BRANCH  15  17
ATOM     17  C   UNL A   1      29.828  28.641  22.369  1.00  0.00     0.046 A 
ATOM     18  C   UNL A   1      29.858  30.007  22.081  1.00  0.00     0.029 A 
ATOM     19  C   UNL A   1      28.741  28.138  23.074  1.00  0.00     0.065 A 
ATOM     20  C   UNL A   1      28.713  30.799  22.255  1.00  0.00    -0.046 A 
ATOM     21  C   UNL A   1      27.574  28.892  23.163  1.00  0.00     0.125 A 
ATOM     22  C   UNL A   1      28.745  32.277  22.027  1.00  0.00     0.044 C 
ATOM     23  C   UNL A   1      27.538  30.203  22.716  1.00  0.00     0.042 A 
ATOM     24  F   UNL A   1      26.450  28.335  23.634  1.00  0.00    -0.207 F 
ENDBRANCH  15  17
ENDBRANCH  10  13
ENDBRANCH   4   6
ENDBRANCH   3   4
ENDBRANCH   2   3
ENDBRANCH   1   2
BRANCH   1  25
ATOM     25  O   UNL A   1      35.504  29.819  28.509  1.00  0.00    -0.458 OA
BRANCH  25  26
ATOM     26  C   UNL A   1      36.221  30.426  29.497  1.00  0.00     0.338 C 
ATOM     27  O   UNL A   1      35.748  30.901  30.521  1.00  0.00    -0.246 OA
BRANCH  26  28
ATOM     28  C   UNL A   1      37.691  30.261  29.307  1.00  0.00     0.060 A 
ATOM     29  C   UNL A   1      38.141  29.934  28.019  1.00  0.00     0.016 A 
ATOM     30  C   UNL A   1      38.616  30.340  30.345  1.00  0.00     0.016 A 
ATOM     31  C   UNL A   1      39.490  29.702  27.745  1.00  0.00     0.010 A 
ATOM     32  C   UNL A   1      39.969  30.040  30.088  1.00  0.00     0.010 A 
ATOM     33  C   UNL A   1      40.411  29.699  28.791  1.00  0.00    -0.014 A 
BRANCH  33  34
ATOM     34  C   UNL A   1      41.765  29.116  28.576  1.00  0.00     0.031 A 
ATOM     35  C   UNL A   1      42.949  30.048  28.627  1.00  0.00     0.074 A 
ATOM     36  C   UNL A   1      41.964  27.800  28.371  1.00  0.00     0.049 A 
ATOM     37  N   UNL A   1      44.199  29.826  28.315  1.00  0.00    -0.248 NA
ATOM     38  C   UNL A   1      42.682  31.417  29.100  1.00  0.00     0.031 C 
ATOM     39  C   UNL A   1      40.933  26.766  28.423  1.00  0.00     0.029 A 
ATOM     40  N   UNL A   1      43.115  27.110  28.059  1.00  0.00    -0.354 N 
ATOM     41  C   UNL A   1      44.858  31.034  28.513  1.00  0.00     0.074 A 
ATOM     42  C   UNL A   1      43.875  31.983  28.985  1.00  0.00     0.031 C 
ATOM     43  C   UNL A   1      41.490  25.579  28.115  1.00  0.00     0.029 A 
ATOM     44  C   UNL A   1      42.904  25.775  27.795  1.00  0.00     0.049 A 
ATOM     45  H   UNL A   1      44.004  27.531  28.029  1.00  0.00     0.167 HD
ATOM     46  C   UNL A   1      46.162  31.327  28.304  1.00  0.00     0.037 A 
ATOM     47  C   UNL A   1      43.744  24.836  27.307  1.00  0.00     0.037 A 
ATOM     48  C   UNL A   1      47.143  30.371  27.859  1.00  0.00     0.049 A 
ATOM     49  C   UNL A   1      45.173  25.215  26.984  1.00  0.00     0.074 A 
ATOM     50  C   UNL A   1      48.495  30.573  27.636  1.00  0.00     0.029 A 
ATOM     51  N   UNL A   1      46.881  29.043  27.562  1.00  0.00    -0.354 N 
ATOM     52  N   UNL A   1      45.787  26.362  27.160  1.00  0.00    -0.248 NA
ATOM     53  C   UNL A   1      46.025  24.176  26.383  1.00  0.00     0.031 C 
ATOM     54  C   UNL A   1      49.035  29.385  27.137  1.00  0.00     0.029 A 
ATOM     55  C   UNL A   1      48.038  28.424  27.120  1.00  0.00     0.049 A 
ATOM     56  H   UNL A   1      46.004  28.606  27.652  1.00  0.00     0.167 HD
ATOM     57  C   UNL A   1      47.100  26.165  26.738  1.00  0.00     0.074 A 
ATOM     58  C   UNL A   1      47.196  24.791  26.298  1.00  0.00     0.031 C 
ATOM     59  C   UNL A   1      48.134  27.043  26.718  1.00  0.00     0.037 A 
BRANCH  46  60
ATOM     60  C   UNL A   1      46.609  32.749  28.490  1.00  0.00     0.058 A 
ATOM     61  C   UNL A   1      46.561  33.693  27.454  1.00  0.00     0.135 A 
ATOM     62  C   UNL A   1      47.019  33.189  29.761  1.00  0.00     0.135 A 
ATOM     63  F   UNL A   1      46.197  33.323  26.216  1.00  0.00    -0.206 F 
ATOM     64  C   UNL A   1      46.906  35.025  27.671  1.00  0.00     0.059 A 
ATOM     65  C   UNL A   1      47.341  34.518  30.007  1.00  0.00     0.059 A 
ATOM     66  F   UNL A   1      47.090  32.324  30.784  1.00  0.00    -0.206 F 
ATOM     67  C   UNL A   1      47.285  35.430  28.953  1.00  0.00     0.060 A 
BRANCH  67  68
ATOM     68  S   UNL A   1      47.680  37.169  29.230  1.00  0.00     0.124 S 
ATOM     69  O   UNL A   1      48.637  37.080  30.330  1.00  0.00    -0.237 OA
ATOM     70  O   UNL A   1      48.235  37.570  27.942  1.00  0.00    -0.237 OA
ATOM     71  O   UNL A   1      46.392  37.763  29.567  1.00  0.00    -0.744 OA
ENDBRANCH  67  68
ENDBRANCH  46  60
BRANCH  47  72
ATOM     72  C   UNL A   1      43.262  23.453  27.018  1.00  0.00     0.058 A 
ATOM     73  C   UNL A   1      43.125  22.498  28.040  1.00  0.00     0.135 A 
ATOM     74  C   UNL A   1      43.003  23.032  25.703  1.00  0.00     0.135 A 
ATOM     75  F   UNL A   1      43.379  22.838  29.313  1.00  0.00    -0.206 F 
ATOM     76  C   UNL A   1      42.789  21.174  27.766  1.00  0.00     0.059 A 
ATOM     77  C   UNL A   1      42.632  21.723  25.408  1.00  0.00     0.059 A 
ATOM     78  F   UNL A   1      43.117  23.897  24.684  1.00  0.00    -0.206 F 
ATOM     79  C   UNL A   1      42.547  20.796  26.445  1.00  0.00     0.060 A 
BRANCH  79  80
ATOM     80  S   UNL A   1      42.117  19.076  26.098  1.00  0.00     0.124 S 
ATOM     81  O   UNL A   1      40.683  19.173  25.853  1.00  0.00    -0.237 OA
ATOM     82  O   UNL A   1      42.946  18.780  24.933  1.00  0.00    -0.237 OA
ATOM     83  O   UNL A   1      42.502  18.380  27.323  1.00  0.00    -0.744 OA
ENDBRANCH  79  80
ENDBRANCH  47  72
BRANCH  59  84
ATOM     84  C   UNL A   1      49.485  26.545  26.276  1.00  0.00     0.058 A 
ATOM     85  C   UNL A   1      49.992  26.801  24.994  1.00  0.00     0.135 A 
ATOM     86  C   UNL A   1      50.323  25.882  27.190  1.00  0.00     0.135 A 
ATOM     87  F   UNL A   1      49.234  27.425  24.079  1.00  0.00    -0.206 F 
ATOM     88  C   UNL A   1      51.277  26.408  24.628  1.00  0.00     0.059 A 
ATOM     89  C   UNL A   1      51.622  25.510  26.857  1.00  0.00     0.059 A 
ATOM     90  F   UNL A   1      49.894  25.622  28.436  1.00  0.00    -0.206 F 
ATOM     91  C   UNL A   1      52.088  25.771  25.570  1.00  0.00     0.060 A 
BRANCH  91  92
ATOM     92  S   UNL A   1      53.774  25.326  25.102  1.00  0.00     0.124 S 
ATOM     93  O   UNL A   1      53.769  23.882  25.314  1.00  0.00    -0.237 OA
ATOM     94  O   UNL A   1      53.838  25.763  23.712  1.00  0.00    -0.237 OA
ATOM     95  O   UNL A   1      54.601  26.092  26.031  1.00  0.00    -0.744 OA
ENDBRANCH  91  92
ENDBRANCH  59  84
ENDBRANCH  33  34
ENDBRANCH  26  28
ENDBRANCH  25  26
ENDBRANCH   1  25
TORSDOF 17
ENDMDL
MODEL 2
REMARK VINA RESULT:     -11.7      1.510      2.366
REMARK SMILES CO[C@H]1C[C@@H](C(=O)OCCOC(=O)c2ccc(-c3c4nc(c(-c5c(F)cc(S(=O)(=O)[O-])cc5F)c5ccc([nH]5)c(-c5c(F)cc(S(=O)(=O)[O-])cc5F)c5nc(c(-c6c(F)cc(S(=O)(=O)[O-])cc6F)c6ccc3[nH]6)C=C5)C=C4)cc2)N(C(=O)Nc2cc(C)cc(F)c2)C1
REMARK SMILES IDX 10 1 9 2 8 3 6 4 7 5 5 6 3 7 4 8 92 9 80 10 2 11 1 12 81 13
REMARK SMILES IDX 82 14 83 15 84 17 85 18 91 19 86 20 89 21 87 22 88 23 90 24
REMARK SMILES IDX 11 25 12 26 13 27 14 28 15 29 79 30 16 31 78 32 17 33 18 34
REMARK SMILES IDX 19 35 72 36 20 37 77 38 71 39 73 40 21 41 76 42 70 43 69 44
REMARK SMILES IDX 22 46 56 47 35 48 55 49 36 50 39 51 54 52 74 53 37 54 38 55
REMARK SMILES IDX 53 57 75 58 40 59 23 60 24 61 33 62 25 63 26 64 32 65 34 66
REMARK SMILES IDX 27 67 28 68 29 69 30 70 31 71 57 72 58 73 67 74 59 75 60 76
REMARK SMILES IDX 66 77 68 78 61 79 62 80 63 81 64 82 65 83 41 84 42 85 51 86
REMARK SMILES IDX 43 87 44 88 50 89 52 90 45 91 46 92 47 93 48 94 49 95
REMARK H PARENT 83 16 73 45 39 56
REMARK Flexibility Score: inf
ROOT
ATOM      1  C   UNL A   1      33.180  30.943  27.544  1.00  0.00     0.275 C 
ENDROOT
BRANCH   1   2
ATOM      2  C   UNL A   1      33.363  29.472  27.072  1.00  0.00     0.274 C 
BRANCH   2   3
ATOM      3  O   UNL A   1      32.447  28.915  26.099  1.00  0.00    -0.461 OA
BRANCH   3   4
ATOM      4  C   UNL A   1      31.644  27.936  26.582  1.00  0.00     0.329 C 
ATOM      5  O   UNL A   1      31.391  27.827  27.766  1.00  0.00    -0.250 OA
BRANCH   4   6
ATOM      6  C   UNL A   1      31.016  27.033  25.546  1.00  0.00     0.199 C 
ATOM      7  C   UNL A   1      31.387  24.639  25.132  1.00  0.00     0.140 C 
ATOM      8  C   UNL A   1      31.066  25.650  26.215  1.00  0.00     0.071 C 
ATOM      9  C   UNL A   1      32.082  25.461  24.050  1.00  0.00     0.154 C 
ATOM     10  N   UNL A   1      31.819  26.879  24.304  1.00  0.00    -0.308 N 
BRANCH   7  11
ATOM     11  O   UNL A   1      32.282  23.619  25.581  1.00  0.00    -0.380 OA
ATOM     12  C   UNL A   1      32.143  23.251  26.945  1.00  0.00     0.195 C 
ENDBRANCH   7  11
BRANCH  10  13
ATOM     13  C   UNL A   1      32.172  27.730  23.286  1.00  0.00     0.322 C 
ATOM     14  O   UNL A   1      33.369  27.904  23.017  1.00  0.00    -0.248 OA
ATOM     15  N   UNL A   1      31.310  28.287  22.405  1.00  0.00    -0.308 N 
ATOM     16  H   UNL A   1      31.660  28.281  21.485  1.00  0.00     0.171 HD
BRANCH  15  17
ATOM     17  C   UNL A   1      30.042  28.870  22.485  1.00  0.00     0.046 A 
ATOM     18  C   UNL A   1      29.899  30.188  22.047  1.00  0.00     0.029 A 
ATOM     19  C   UNL A   1      28.973  28.272  23.142  1.00  0.00     0.065 A 
ATOM     20  C   UNL A   1      28.636  30.801  22.027  1.00  0.00    -0.046 A 
ATOM     21  C   UNL A   1      27.704  28.834  23.039  1.00  0.00     0.125 A 
ATOM     22  C   UNL A   1      28.472  32.235  21.636  1.00  0.00     0.044 C 
ATOM     23  C   UNL A   1      27.520  30.072  22.445  1.00  0.00     0.042 A 
ATOM     24  F   UNL A   1      26.631  28.155  23.467  1.00  0.00    -0.207 F 
ENDBRANCH  15  17
ENDBRANCH  10  13
ENDBRANCH   4   6
ENDBRANCH   3   4
ENDBRANCH   2   3
ENDBRANCH   1   2
BRANCH   1  25
ATOM     25  O   UNL A   1      34.380  31.733  27.716  1.00  0.00    -0.458 OA
BRANCH  25  26
ATOM     26  C   UNL A   1      34.975  31.632  28.938  1.00  0.00     0.338 C 
ATOM     27  O   UNL A   1      34.481  31.994  29.996  1.00  0.00    -0.246 OA
BRANCH  26  28
ATOM     28  C   UNL A   1      36.226  30.819  28.887  1.00  0.00     0.060 A 
ATOM     29  C   UNL A   1      36.911  30.617  30.095  1.00  0.00     0.016 A 
ATOM     30  C   UNL A   1      36.777  30.325  27.707  1.00  0.00     0.016 A 
ATOM     31  C   UNL A   1      38.119  29.920  30.150  1.00  0.00     0.010 A 
ATOM     32  C   UNL A   1      38.030  29.681  27.748  1.00  0.00     0.010 A 
ATOM     33  C   UNL A   1      38.718  29.492  28.966  1.00  0.00    -0.014 A 
BRANCH  33  34
ATOM     34  C   UNL A   1      40.147  29.071  28.976  1.00  0.00     0.031 A 
ATOM     35  C   UNL A   1      41.186  30.113  29.304  1.00  0.00     0.074 A 
ATOM     36  C   UNL A   1      40.532  27.803  28.735  1.00  0.00     0.049 A 
ATOM     37  N   UNL A   1      42.489  30.046  29.221  1.00  0.00    -0.248 NA
ATOM     38  C   UNL A   1      40.681  31.405  29.799  1.00  0.00     0.031 C 
ATOM     39  C   UNL A   1      39.635  26.667  28.529  1.00  0.00     0.029 A 
ATOM     40  N   UNL A   1      41.792  27.262  28.605  1.00  0.00    -0.354 N 
ATOM     41  C   UNL A   1      42.957  31.296  29.611  1.00  0.00     0.074 A 
ATOM     42  C   UNL A   1      41.801  32.099  29.944  1.00  0.00     0.031 C 
ATOM     43  C   UNL A   1      40.373  25.572  28.262  1.00  0.00     0.029 A 
ATOM     44  C   UNL A   1      41.789  25.938  28.227  1.00  0.00     0.049 A 
ATOM     45  H   UNL A   1      42.617  27.774  28.768  1.00  0.00     0.167 HD
ATOM     46  C   UNL A   1      44.234  31.738  29.669  1.00  0.00     0.037 A 
ATOM     47  C   UNL A   1      42.806  25.133  27.851  1.00  0.00     0.037 A 
ATOM     48  C   UNL A   1      45.383  30.927  29.361  1.00  0.00     0.049 A 
ATOM     49  C   UNL A   1      44.217  25.681  27.826  1.00  0.00     0.074 A 
ATOM     50  C   UNL A   1      46.720  31.284  29.409  1.00  0.00     0.029 A 
ATOM     51  N   UNL A   1      45.336  29.607  28.941  1.00  0.00    -0.354 N 
ATOM     52  N   UNL A   1      44.651  26.868  28.183  1.00  0.00    -0.248 NA
ATOM     53  C   UNL A   1      45.278  24.787  27.336  1.00  0.00     0.031 C 
ATOM     54  C   UNL A   1      47.476  30.202  28.951  1.00  0.00     0.029 A 
ATOM     55  C   UNL A   1      46.617  29.147  28.690  1.00  0.00     0.049 A 
ATOM     56  H   UNL A   1      44.514  29.076  28.838  1.00  0.00     0.167 HD
ATOM     57  C   UNL A   1      46.032  26.841  28.004  1.00  0.00     0.074 A 
ATOM     58  C   UNL A   1      46.365  25.524  27.510  1.00  0.00     0.031 C 
ATOM     59  C   UNL A   1      46.944  27.820  28.231  1.00  0.00     0.037 A 
BRANCH  46  60
ATOM     60  C   UNL A   1      44.472  33.180  30.019  1.00  0.00     0.058 A 
ATOM     61  C   UNL A   1      44.755  33.598  31.327  1.00  0.00     0.135 A 
ATOM     62  C   UNL A   1      44.490  34.148  29.000  1.00  0.00     0.135 A 
ATOM     63  F   UNL A   1      44.729  32.719  32.341  1.00  0.00    -0.206 F 
ATOM     64  C   UNL A   1      45.049  34.929  31.614  1.00  0.00     0.059 A 
ATOM     65  C   UNL A   1      44.809  35.476  29.259  1.00  0.00     0.059 A 
ATOM     66  F   UNL A   1      44.218  33.800  27.733  1.00  0.00    -0.206 F 
ATOM     67  C   UNL A   1      45.083  35.859  30.571  1.00  0.00     0.060 A 
BRANCH  67  68
ATOM     68  S   UNL A   1      45.514  37.569  30.951  1.00  0.00     0.124 S 
ATOM     69  O   UNL A   1      44.211  38.224  30.877  1.00  0.00    -0.237 OA
ATOM     70  O   UNL A   1      46.089  37.455  32.287  1.00  0.00    -0.237 OA
ATOM     71  O   UNL A   1      46.455  37.927  29.895  1.00  0.00    -0.744 OA
ENDBRANCH  67  68
ENDBRANCH  46  60
BRANCH  47  72
ATOM     72  C   UNL A   1      42.548  23.734  27.395  1.00  0.00     0.058 A 
ATOM     73  C   UNL A   1      42.396  22.682  28.313  1.00  0.00     0.135 A 
ATOM     74  C   UNL A   1      42.527  23.407  26.029  1.00  0.00     0.135 A 
ATOM     75  F   UNL A   1      42.429  22.933  29.632  1.00  0.00    -0.206 F 
ATOM     76  C   UNL A   1      42.271  21.358  27.898  1.00  0.00     0.059 A 
ATOM     77  C   UNL A   1      42.369  22.096  25.589  1.00  0.00     0.059 A 
ATOM     78  F   UNL A   1      42.667  24.368  25.104  1.00  0.00    -0.206 F 
ATOM     79  C   UNL A   1      42.263  21.076  26.532  1.00  0.00     0.060 A 
BRANCH  79  80
ATOM     80  S   UNL A   1      42.107  19.355  26.002  1.00  0.00     0.124 S 
ATOM     81  O   UNL A   1      43.058  19.298  24.899  1.00  0.00    -0.237 OA
ATOM     82  O   UNL A   1      42.484  18.626  27.209  1.00  0.00    -0.237 OA
ATOM     83  O   UNL A   1      40.699  19.245  25.628  1.00  0.00    -0.744 OA
ENDBRANCH  79  80
ENDBRANCH  47  72
BRANCH  59  84
ATOM     84  C   UNL A   1      48.401  27.501  28.024  1.00  0.00     0.058 A 
ATOM     85  C   UNL A   1      49.193  26.935  29.034  1.00  0.00     0.135 A 
ATOM     86  C   UNL A   1      48.986  27.680  26.758  1.00  0.00     0.135 A 
ATOM     87  F   UNL A   1      48.688  26.746  30.263  1.00  0.00    -0.206 F 
ATOM     88  C   UNL A   1      50.515  26.566  28.800  1.00  0.00     0.059 A 
ATOM     89  C   UNL A   1      50.295  27.290  26.494  1.00  0.00     0.059 A 
ATOM     90  F   UNL A   1      48.272  28.207  25.750  1.00  0.00    -0.206 F 
ATOM     91  C   UNL A   1      51.055  26.739  27.524  1.00  0.00     0.060 A 
BRANCH  91  92
ATOM     92  S   UNL A   1      52.750  26.197  27.219  1.00  0.00     0.124 S 
ATOM     93  O   UNL A   1      52.540  24.869  26.653  1.00  0.00    -0.237 OA
ATOM     94  O   UNL A   1      53.240  27.212  26.292  1.00  0.00    -0.237 OA
ATOM     95  O   UNL A   1      53.362  26.223  28.545  1.00  0.00    -0.744 OA
ENDBRANCH  91  92
ENDBRANCH  59  84
ENDBRANCH  33  34
ENDBRANCH  26  28
ENDBRANCH  25  26
ENDBRANCH   1  25
TORSDOF 17
ENDMDL
MODEL 3
REMARK VINA RESULT:     -11.6      5.614     10.857
REMARK SMILES CO[C@H]1C[C@@H](C(=O)OCCOC(=O)c2ccc(-c3c4nc(c(-c5c(F)cc(S(=O)(=O)[O-])cc5F)c5ccc([nH]5)c(-c5c(F)cc(S(=O)(=O)[O-])cc5F)c5nc(c(-c6c(F)cc(S(=O)(=O)[O-])cc6F)c6ccc3[nH]6)C=C5)C=C4)cc2)N(C(=O)Nc2cc(C)cc(F)c2)C1
REMARK SMILES IDX 10 1 9 2 8 3 6 4 7 5 5 6 3 7 4 8 92 9 80 10 2 11 1 12 81 13
REMARK SMILES IDX 82 14 83 15 84 17 85 18 91 19 86 20 89 21 87 22 88 23 90 24
REMARK SMILES IDX 11 25 12 26 13 27 14 28 15 29 79 30 16 31 78 32 17 33 18 34
REMARK SMILES IDX 19 35 72 36 20 37 77 38 71 39 73 40 21 41 76 42 70 43 69 44
REMARK SMILES IDX 22 46 56 47 35 48 55 49 36 50 39 51 54 52 74 53 37 54 38 55
REMARK SMILES IDX 53 57 75 58 40 59 23 60 24 61 33 62 25 63 26 64 32 65 34 66
REMARK SMILES IDX 27 67 28 68 29 69 30 70 31 71 57 72 58 73 67 74 59 75 60 76
REMARK SMILES IDX 66 77 68 78 61 79 62 80 63 81 64 82 65 83 41 84 42 85 51 86
REMARK SMILES IDX 43 87 44 88 50 89 52 90 45 91 46 92 47 93 48 94 49 95
REMARK H PARENT 83 16 73 45 39 56
REMARK Flexibility Score: inf
ROOT
ATOM      1  C   UNL A   1      38.528  21.822  25.391  1.00  0.00     0.275 C 
ENDROOT
BRANCH   1   2
ATOM      2  C   UNL A   1      37.182  22.583  25.565  1.00  0.00     0.274 C 
BRANCH   2   3
ATOM      3  O   UNL A   1      36.839  23.644  24.641  1.00  0.00    -0.461 OA
BRANCH   3   4
ATOM      4  C   UNL A   1      35.518  23.727  24.350  1.00  0.00     0.329 C 
ATOM      5  O   UNL A   1      35.007  23.077  23.458  1.00  0.00    -0.250 OA
BRANCH   4   6
ATOM      6  C   UNL A   1      34.700  24.618  25.256  1.00  0.00     0.199 C 
ATOM      7  C   UNL A   1      32.660  24.102  26.525  1.00  0.00     0.140 C 
ATOM      8  C   UNL A   1      34.071  23.624  26.245  1.00  0.00     0.071 C 
ATOM      9  C   UNL A   1      32.306  24.951  25.307  1.00  0.00     0.154 C 
ATOM     10  N   UNL A   1      33.542  25.268  24.587  1.00  0.00    -0.308 N 
BRANCH   7  11
ATOM     11  O   UNL A   1      31.725  23.026  26.624  1.00  0.00    -0.380 OA
ATOM     12  C   UNL A   1      30.359  23.410  26.625  1.00  0.00     0.195 C 
ENDBRANCH   7  11
BRANCH  10  13
ATOM     13  C   UNL A   1      33.419  26.222  23.608  1.00  0.00     0.322 C 
ATOM     14  O   UNL A   1      33.713  25.943  22.437  1.00  0.00    -0.248 OA
ATOM     15  N   UNL A   1      32.828  27.428  23.768  1.00  0.00    -0.308 N 
ATOM     16  H   UNL A   1      32.263  27.672  22.999  1.00  0.00     0.171 HD
BRANCH  15  17
ATOM     17  C   UNL A   1      32.825  28.412  24.761  1.00  0.00     0.046 A 
ATOM     18  C   UNL A   1      33.835  28.372  25.724  1.00  0.00     0.029 A 
ATOM     19  C   UNL A   1      31.774  29.304  24.942  1.00  0.00     0.065 A 
ATOM     20  C   UNL A   1      33.934  29.378  26.698  1.00  0.00    -0.046 A 
ATOM     21  C   UNL A   1      31.916  30.356  25.842  1.00  0.00     0.125 A 
ATOM     22  C   UNL A   1      34.960  29.313  27.784  1.00  0.00     0.044 C 
ATOM     23  C   UNL A   1      33.011  30.426  26.689  1.00  0.00     0.042 A 
ATOM     24  F   UNL A   1      31.016  31.349  25.862  1.00  0.00    -0.207 F 
ENDBRANCH  15  17
ENDBRANCH  10  13
ENDBRANCH   4   6
ENDBRANCH   3   4
ENDBRANCH   2   3
ENDBRANCH   1   2
BRANCH   1  25
ATOM     25  O   UNL A   1      39.433  21.817  26.520  1.00  0.00    -0.458 OA
BRANCH  25  26
ATOM     26  C   UNL A   1      40.567  22.557  26.362  1.00  0.00     0.338 C 
ATOM     27  O   UNL A   1      41.507  22.260  25.638  1.00  0.00    -0.246 OA
BRANCH  26  28
ATOM     28  C   UNL A   1      40.455  23.900  27.003  1.00  0.00     0.060 A 
ATOM     29  C   UNL A   1      41.534  24.781  26.840  1.00  0.00     0.016 A 
ATOM     30  C   UNL A   1      39.383  24.285  27.803  1.00  0.00     0.016 A 
ATOM     31  C   UNL A   1      41.556  26.040  27.443  1.00  0.00     0.010 A 
ATOM     32  C   UNL A   1      39.431  25.526  28.470  1.00  0.00     0.010 A 
ATOM     33  C   UNL A   1      40.526  26.402  28.310  1.00  0.00    -0.014 A 
BRANCH  33  34
ATOM     34  C   UNL A   1      40.707  27.569  29.219  1.00  0.00     0.031 A 
ATOM     35  C   UNL A   1      41.873  27.543  30.174  1.00  0.00     0.074 A 
ATOM     36  C   UNL A   1      39.893  28.642  29.193  1.00  0.00     0.049 A 
ATOM     37  N   UNL A   1      42.154  28.345  31.168  1.00  0.00    -0.248 NA
ATOM     38  C   UNL A   1      42.856  26.465  29.976  1.00  0.00     0.031 C 
ATOM     39  C   UNL A   1      38.807  28.863  28.240  1.00  0.00     0.029 A 
ATOM     40  N   UNL A   1      39.849  29.748  30.013  1.00  0.00    -0.354 N 
ATOM     41  C   UNL A   1      43.320  27.846  31.737  1.00  0.00     0.074 A 
ATOM     42  C   UNL A   1      43.702  26.680  30.973  1.00  0.00     0.031 C 
ATOM     43  C   UNL A   1      38.180  30.012  28.553  1.00  0.00     0.029 A 
ATOM     44  C   UNL A   1      38.785  30.584  29.756  1.00  0.00     0.049 A 
ATOM     45  H   UNL A   1      40.515  29.924  30.716  1.00  0.00     0.167 HD
ATOM     46  C   UNL A   1      44.000  28.310  32.811  1.00  0.00     0.037 A 
ATOM     47  C   UNL A   1      38.328  31.655  30.441  1.00  0.00     0.037 A 
ATOM     48  C   UNL A   1      43.630  29.487  33.554  1.00  0.00     0.049 A 
ATOM     49  C   UNL A   1      39.047  32.093  31.699  1.00  0.00     0.074 A 
ATOM     50  C   UNL A   1      44.269  30.045  34.648  1.00  0.00     0.029 A 
ATOM     51  N   UNL A   1      42.524  30.279  33.289  1.00  0.00    -0.354 N 
ATOM     52  N   UNL A   1      40.141  31.609  32.240  1.00  0.00    -0.248 NA
ATOM     53  C   UNL A   1      38.465  33.217  32.449  1.00  0.00     0.031 C 
ATOM     54  C   UNL A   1      43.511  31.133  35.087  1.00  0.00     0.029 A 
ATOM     55  C   UNL A   1      42.441  31.298  34.222  1.00  0.00     0.049 A 
ATOM     56  H   UNL A   1      41.892  30.138  32.548  1.00  0.00     0.167 HD
ATOM     57  C   UNL A   1      40.398  32.397  33.359  1.00  0.00     0.074 A 
ATOM     58  C   UNL A   1      39.349  33.391  33.421  1.00  0.00     0.031 C 
ATOM     59  C   UNL A   1      41.412  32.307  34.256  1.00  0.00     0.037 A 
BRANCH  46  60
ATOM     60  C   UNL A   1      45.181  27.520  33.300  1.00  0.00     0.058 A 
ATOM     61  C   UNL A   1      45.050  26.451  34.197  1.00  0.00     0.135 A 
ATOM     62  C   UNL A   1      46.461  27.797  32.790  1.00  0.00     0.135 A 
ATOM     63  F   UNL A   1      43.854  26.157  34.732  1.00  0.00    -0.206 F 
ATOM     64  C   UNL A   1      46.149  25.684  34.575  1.00  0.00     0.059 A 
ATOM     65  C   UNL A   1      47.567  27.027  33.130  1.00  0.00     0.059 A 
ATOM     66  F   UNL A   1      46.641  28.815  31.933  1.00  0.00    -0.206 F 
ATOM     67  C   UNL A   1      47.402  25.974  34.028  1.00  0.00     0.060 A 
BRANCH  67  68
ATOM     68  S   UNL A   1      48.808  24.939  34.487  1.00  0.00     0.124 S 
ATOM     69  O   UNL A   1      48.151  23.671  34.792  1.00  0.00    -0.237 OA
ATOM     70  O   UNL A   1      49.616  24.957  33.273  1.00  0.00    -0.237 OA
ATOM     71  O   UNL A   1      49.386  25.635  35.631  1.00  0.00    -0.744 OA
ENDBRANCH  67  68
ENDBRANCH  46  60
BRANCH  47  72
ATOM     72  C   UNL A   1      37.087  32.365  30.012  1.00  0.00     0.058 A 
ATOM     73  C   UNL A   1      37.140  33.481  29.160  1.00  0.00     0.135 A 
ATOM     74  C   UNL A   1      35.827  31.993  30.509  1.00  0.00     0.135 A 
ATOM     75  F   UNL A   1      38.320  33.896  28.672  1.00  0.00    -0.206 F 
ATOM     76  C   UNL A   1      36.002  34.221  28.848  1.00  0.00     0.059 A 
ATOM     77  C   UNL A   1      34.670  32.695  30.184  1.00  0.00     0.059 A 
ATOM     78  F   UNL A   1      35.711  30.936  31.327  1.00  0.00    -0.206 F 
ATOM     79  C   UNL A   1      34.771  33.821  29.369  1.00  0.00     0.060 A 
BRANCH  79  80
ATOM     80  S   UNL A   1      33.300  34.790  28.964  1.00  0.00     0.124 S 
ATOM     81  O   UNL A   1      33.889  36.023  28.455  1.00  0.00    -0.237 OA
ATOM     82  O   UNL A   1      32.637  33.943  27.977  1.00  0.00    -0.237 OA
ATOM     83  O   UNL A   1      32.609  34.903  30.246  1.00  0.00    -0.744 OA
ENDBRANCH  79  80
ENDBRANCH  47  72
BRANCH  59  84
ATOM     84  C   UNL A   1      41.497  33.344  35.345  1.00  0.00     0.058 A 
ATOM     85  C   UNL A   1      42.181  34.556  35.169  1.00  0.00     0.135 A 
ATOM     86  C   UNL A   1      40.800  33.155  36.551  1.00  0.00     0.135 A 
ATOM     87  F   UNL A   1      42.868  34.788  34.040  1.00  0.00    -0.206 F 
ATOM     88  C   UNL A   1      42.178  35.541  36.154  1.00  0.00     0.059 A 
ATOM     89  C   UNL A   1      40.757  34.138  37.534  1.00  0.00     0.059 A 
ATOM     90  F   UNL A   1      40.118  32.018  36.768  1.00  0.00    -0.206 F 
ATOM     91  C   UNL A   1      41.456  35.327  37.330  1.00  0.00     0.060 A 
BRANCH  91  92
ATOM     92  S   UNL A   1      41.409  36.638  38.570  1.00  0.00     0.124 S 
ATOM     93  O   UNL A   1      40.076  37.194  38.363  1.00  0.00    -0.237 OA
ATOM     94  O   UNL A   1      41.602  35.899  39.813  1.00  0.00    -0.237 OA
ATOM     95  O   UNL A   1      42.517  37.510  38.188  1.00  0.00    -0.744 OA
ENDBRANCH  91  92
ENDBRANCH  59  84
ENDBRANCH  33  34
ENDBRANCH  26  28
ENDBRANCH  25  26
ENDBRANCH   1  25
TORSDOF 17
ENDMDL
