MODEL 1
REMARK VINA RESULT:     -10.0      0.000      0.000
REMARK SMILES Cc1nc(CN(C)C(=O)NCc2ccc(C(=O)OCCOC(=O)c3ccc(-c4c5nc(c(-c6c(F)cc(S(=O)(=O)[O-])cc6F)c6ccc([nH]6)c(-c6c(F)cc(S(=O)(=O)[O-])cc6F)c6nc(c(-c7c(F)cc(S(=O)(=O)[O-])cc7F)c7ccc4[nH]7)C=C6)C=C5)cc3)o2)n[nH]1
REMARK SMILES IDX 19 1 18 2 16 3 17 4 15 5 12 6 13 7 90 8 14 9 11 10 10 11
REMARK SMILES IDX 8 12 9 13 6 15 7 16 5 17 4 18 1 19 2 20 3 21 92 22 91 23
REMARK SMILES IDX 20 25 21 26 22 27 23 28 24 29 25 30 89 31 26 32 88 33 27 34
REMARK SMILES IDX 28 35 29 36 82 37 30 38 87 39 81 40 83 41 31 42 86 43 80 44
REMARK SMILES IDX 79 45 32 47 66 48 45 49 65 50 46 51 49 52 64 53 84 54 47 55
REMARK SMILES IDX 48 56 63 58 85 59 50 60 33 61 34 62 43 63 35 64 36 65 42 66
REMARK SMILES IDX 44 67 37 68 38 69 39 70 40 71 41 72 67 73 68 74 77 75 69 76
REMARK SMILES IDX 70 77 76 78 78 79 71 80 72 81 73 82 74 83 75 84 51 85 52 86
REMARK SMILES IDX 61 87 53 88 54 89 60 90 62 91 55 92 56 93 57 94 58 95 59 96
REMARK H PARENT 10 14 92 24 83 46 49 57
REMARK Flexibility Score: inf
ROOT
ATOM      1  C   UNL A   1      40.743  19.860  26.332  1.00  0.00     0.275 C 
ENDROOT
BRANCH   1   2
ATOM      2  O   UNL A   1      42.043  20.179  25.804  1.00  0.00    -0.456 OA
BRANCH   2   3
ATOM      3  C   UNL A   1      42.886  19.115  25.635  1.00  0.00     0.374 C 
ATOM      4  O   UNL A   1      42.554  17.945  25.763  1.00  0.00    -0.242 OA
BRANCH   3   5
ATOM      5  C   UNL A   1      44.176  19.579  25.180  1.00  0.00     0.211 A 
ATOM      6  C   UNL A   1      45.586  21.178  24.604  1.00  0.00     0.124 A 
ATOM      7  C   UNL A   1      46.334  20.025  24.729  1.00  0.00     0.048 A 
ATOM      8  O   UNL A   1      44.270  20.890  24.796  1.00  0.00    -0.452 OA
ATOM      9  C   UNL A   1      45.430  19.002  25.114  1.00  0.00     0.058 A 
BRANCH   6  10
ATOM     10  C   UNL A   1      45.893  22.617  24.387  1.00  0.00     0.193 C 
BRANCH  10  11
ATOM     11  N   UNL A   1      44.666  23.377  24.357  1.00  0.00    -0.331 N 
ATOM     12  C   UNL A   1      44.164  24.400  25.067  1.00  0.00     0.317 C 
ATOM     13  O   UNL A   1      42.940  24.541  24.987  1.00  0.00    -0.249 OA
ATOM     14  H   UNL A   1      44.053  23.074  23.648  1.00  0.00     0.165 HD
BRANCH  12  15
ATOM     15  N   UNL A   1      44.941  25.222  25.831  1.00  0.00    -0.320 N 
ATOM     16  C   UNL A   1      45.558  24.897  27.105  1.00  0.00     0.149 C 
BRANCH  15  17
ATOM     17  C   UNL A   1      45.438  26.440  25.176  1.00  0.00     0.200 C 
BRANCH  17  18
ATOM     18  C   UNL A   1      44.684  27.655  25.635  1.00  0.00     0.170 A 
ATOM     19  C   UNL A   1      44.263  30.573  27.640  1.00  0.00     0.089 C 
ATOM     20  C   UNL A   1      44.258  29.410  26.731  1.00  0.00     0.121 A 
ATOM     21  N   UNL A   1      45.258  28.603  26.451  1.00  0.00    -0.215 NA
ATOM     22  N   UNL A   1      43.147  28.992  26.056  1.00  0.00    -0.263 N 
ATOM     23  N   UNL A   1      43.408  27.914  25.301  1.00  0.00    -0.157 NA
ATOM     24  H   UNL A   1      42.266  29.427  26.116  1.00  0.00     0.192 HD
ENDBRANCH  17  18
ENDBRANCH  15  17
ENDBRANCH  12  15
ENDBRANCH  10  11
ENDBRANCH   6  10
ENDBRANCH   3   5
ENDBRANCH   2   3
ENDBRANCH   1   2
BRANCH   1  25
ATOM     25  C   UNL A   1      39.693  20.894  25.903  1.00  0.00     0.275 C 
BRANCH  25  26
ATOM     26  O   UNL A   1      39.809  22.128  26.639  1.00  0.00    -0.458 OA
BRANCH  26  27
ATOM     27  C   UNL A   1      38.957  23.113  26.260  1.00  0.00     0.338 C 
ATOM     28  O   UNL A   1      38.003  22.998  25.508  1.00  0.00    -0.246 OA
BRANCH  27  29
ATOM     29  C   UNL A   1      39.265  24.359  26.989  1.00  0.00     0.060 A 
ATOM     30  C   UNL A   1      39.996  25.343  26.318  1.00  0.00     0.016 A 
ATOM     31  C   UNL A   1      38.900  24.546  28.324  1.00  0.00     0.016 A 
ATOM     32  C   UNL A   1      40.363  26.517  26.969  1.00  0.00     0.010 A 
ATOM     33  C   UNL A   1      39.280  25.721  28.984  1.00  0.00     0.010 A 
ATOM     34  C   UNL A   1      40.019  26.710  28.312  1.00  0.00    -0.014 A 
BRANCH  34  35
ATOM     35  C   UNL A   1      40.482  27.931  29.012  1.00  0.00     0.031 A 
ATOM     36  C   UNL A   1      41.889  28.005  29.532  1.00  0.00     0.074 A 
ATOM     37  C   UNL A   1      39.657  28.985  29.143  1.00  0.00     0.049 A 
ATOM     38  N   UNL A   1      42.475  28.969  30.196  1.00  0.00    -0.248 NA
ATOM     39  C   UNL A   1      42.752  26.844  29.267  1.00  0.00     0.031 C 
ATOM     40  C   UNL A   1      38.283  29.047  28.641  1.00  0.00     0.029 A 
ATOM     41  N   UNL A   1      39.853  30.206  29.736  1.00  0.00    -0.354 N 
ATOM     42  C   UNL A   1      43.770  28.529  30.438  1.00  0.00     0.074 A 
ATOM     43  C   UNL A   1      43.882  27.206  29.859  1.00  0.00     0.031 C 
ATOM     44  C   UNL A   1      37.760  30.246  28.949  1.00  0.00     0.029 A 
ATOM     45  C   UNL A   1      38.748  31.022  29.695  1.00  0.00     0.049 A 
ATOM     46  H   UNL A   1      40.704  30.472  30.153  1.00  0.00     0.167 HD
ATOM     47  C   UNL A   1      44.773  29.171  31.083  1.00  0.00     0.037 A 
ATOM     48  C   UNL A   1      38.551  32.249  30.214  1.00  0.00     0.037 A 
ATOM     49  C   UNL A   1      44.663  30.488  31.653  1.00  0.00     0.049 A 
ATOM     50  C   UNL A   1      39.667  32.923  30.964  1.00  0.00     0.074 A 
ATOM     51  C   UNL A   1      45.626  31.219  32.328  1.00  0.00     0.029 A 
ATOM     52  N   UNL A   1      43.519  31.271  31.616  1.00  0.00    -0.354 N 
ATOM     53  N   UNL A   1      40.883  32.489  31.196  1.00  0.00    -0.248 NA
ATOM     54  C   UNL A   1      39.381  34.249  31.530  1.00  0.00     0.031 C 
ATOM     55  C   UNL A   1      45.056  32.436  32.721  1.00  0.00     0.029 A 
ATOM     56  C   UNL A   1      43.746  32.473  32.267  1.00  0.00     0.049 A 
ATOM     57  H   UNL A   1      42.671  31.011  31.190  1.00  0.00     0.167 HD
ATOM     58  C   UNL A   1      41.511  33.492  31.925  1.00  0.00     0.074 A 
ATOM     59  C   UNL A   1      40.545  34.560  32.087  1.00  0.00     0.031 C 
ATOM     60  C   UNL A   1      42.773  33.523  32.419  1.00  0.00     0.037 A 
BRANCH  47  61
ATOM     61  C   UNL A   1      46.075  28.437  31.226  1.00  0.00     0.058 A 
ATOM     62  C   UNL A   1      46.298  27.537  32.279  1.00  0.00     0.135 A 
ATOM     63  C   UNL A   1      47.104  28.627  30.292  1.00  0.00     0.135 A 
ATOM     64  F   UNL A   1      45.349  27.335  33.207  1.00  0.00    -0.206 F 
ATOM     65  C   UNL A   1      47.510  26.868  32.416  1.00  0.00     0.059 A 
ATOM     66  C   UNL A   1      48.318  27.957  30.400  1.00  0.00     0.059 A 
ATOM     67  F   UNL A   1      46.939  29.481  29.269  1.00  0.00    -0.206 F 
ATOM     68  C   UNL A   1      48.517  27.090  31.475  1.00  0.00     0.060 A 
BRANCH  68  69
ATOM     69  S   UNL A   1      50.092  26.228  31.666  1.00  0.00     0.124 S 
ATOM     70  O   UNL A   1      50.207  26.158  33.119  1.00  0.00    -0.237 OA
ATOM     71  O   UNL A   1      49.844  24.960  30.988  1.00  0.00    -0.237 OA
ATOM     72  O   UNL A   1      51.044  27.114  31.002  1.00  0.00    -0.744 OA
ENDBRANCH  68  69
ENDBRANCH  47  61
BRANCH  48  73
ATOM     73  C   UNL A   1      37.232  32.912  30.058  1.00  0.00     0.058 A 
ATOM     74  C   UNL A   1      36.208  32.714  30.994  1.00  0.00     0.135 A 
ATOM     75  C   UNL A   1      36.978  33.767  28.975  1.00  0.00     0.135 A 
ATOM     76  F   UNL A   1      36.402  31.896  32.039  1.00  0.00    -0.206 F 
ATOM     77  C   UNL A   1      34.972  33.339  30.861  1.00  0.00     0.059 A 
ATOM     78  C   UNL A   1      35.757  34.417  28.830  1.00  0.00     0.059 A 
ATOM     79  F   UNL A   1      37.931  33.992  28.058  1.00  0.00    -0.206 F 
ATOM     80  C   UNL A   1      34.757  34.190  29.776  1.00  0.00     0.060 A 
BRANCH  80  81
ATOM     81  S   UNL A   1      33.173  35.049  29.637  1.00  0.00     0.124 S 
ATOM     82  O   UNL A   1      32.458  34.194  28.699  1.00  0.00    -0.237 OA
ATOM     83  O   UNL A   1      32.688  35.034  31.014  1.00  0.00    -0.237 OA
ATOM     84  O   UNL A   1      33.554  36.366  29.132  1.00  0.00    -0.744 OA
ENDBRANCH  80  81
ENDBRANCH  48  73
BRANCH  60  85
ATOM     85  C   UNL A   1      43.185  34.757  33.169  1.00  0.00     0.058 A 
ATOM     86  C   UNL A   1      43.017  34.855  34.558  1.00  0.00     0.135 A 
ATOM     87  C   UNL A   1      43.795  35.829  32.500  1.00  0.00     0.135 A 
ATOM     88  F   UNL A   1      42.434  33.857  35.241  1.00  0.00    -0.206 F 
ATOM     89  C   UNL A   1      43.427  35.984  35.260  1.00  0.00     0.059 A 
ATOM     90  C   UNL A   1      44.226  36.962  33.184  1.00  0.00     0.059 A 
ATOM     91  F   UNL A   1      43.982  35.778  31.172  1.00  0.00    -0.206 F 
ATOM     92  C   UNL A   1      44.028  37.034  34.562  1.00  0.00     0.060 A 
BRANCH  92  93
ATOM     93  S   UNL A   1      44.590  38.483  35.482  1.00  0.00     0.124 S 
ATOM     94  O   UNL A   1      46.030  38.435  35.252  1.00  0.00    -0.237 OA
ATOM     95  O   UNL A   1      43.880  39.575  34.823  1.00  0.00    -0.237 OA
ATOM     96  O   UNL A   1      44.161  38.202  36.849  1.00  0.00    -0.744 OA
ENDBRANCH  92  93
ENDBRANCH  60  85
ENDBRANCH  34  35
ENDBRANCH  27  29
ENDBRANCH  26  27
ENDBRANCH  25  26
ENDBRANCH   1  25
TORSDOF 19
ENDMDL
MODEL 2
REMARK VINA RESULT:      -9.8      5.385     12.210
REMARK SMILES Cc1nc(CN(C)C(=O)NCc2ccc(C(=O)OCCOC(=O)c3ccc(-c4c5nc(c(-c6c(F)cc(S(=O)(=O)[O-])cc6F)c6ccc([nH]6)c(-c6c(F)cc(S(=O)(=O)[O-])cc6F)c6nc(c(-c7c(F)cc(S(=O)(=O)[O-])cc7F)c7ccc4[nH]7)C=C6)C=C5)cc3)o2)n[nH]1
REMARK SMILES IDX 19 1 18 2 16 3 17 4 15 5 12 6 13 7 90 8 14 9 11 10 10 11
REMARK SMILES IDX 8 12 9 13 6 15 7 16 5 17 4 18 1 19 2 20 3 21 92 22 91 23
REMARK SMILES IDX 20 25 21 26 22 27 23 28 24 29 25 30 89 31 26 32 88 33 27 34
REMARK SMILES IDX 28 35 29 36 82 37 30 38 87 39 81 40 83 41 31 42 86 43 80 44
REMARK SMILES IDX 79 45 32 47 66 48 45 49 65 50 46 51 49 52 64 53 84 54 47 55
REMARK SMILES IDX 48 56 63 58 85 59 50 60 33 61 34 62 43 63 35 64 36 65 42 66
REMARK SMILES IDX 44 67 37 68 38 69 39 70 40 71 41 72 67 73 68 74 77 75 69 76
REMARK SMILES IDX 70 77 76 78 78 79 71 80 72 81 73 82 74 83 75 84 51 85 52 86
REMARK SMILES IDX 61 87 53 88 54 89 60 90 62 91 55 92 56 93 57 94 58 95 59 96
REMARK H PARENT 10 14 92 24 83 46 49 57
REMARK Flexibility Score: inf
ROOT
ATOM      1  C   UNL A   1      34.835  33.870  29.982  1.00  0.00     0.275 C 
ENDROOT
BRANCH   1   2
ATOM      2  O   UNL A   1      34.236  32.811  29.214  1.00  0.00    -0.456 OA
BRANCH   2   3
ATOM      3  C   UNL A   1      34.938  32.416  28.109  1.00  0.00     0.374 C 
ATOM      4  O   UNL A   1      35.834  33.069  27.592  1.00  0.00    -0.242 OA
BRANCH   3   5
ATOM      5  C   UNL A   1      34.540  31.082  27.725  1.00  0.00     0.211 A 
ATOM      6  C   UNL A   1      33.116  29.647  26.836  1.00  0.00     0.124 A 
ATOM      7  C   UNL A   1      34.303  28.965  27.003  1.00  0.00     0.048 A 
ATOM      8  O   UNL A   1      33.235  30.902  27.349  1.00  0.00    -0.452 OA
ATOM      9  C   UNL A   1      35.222  29.891  27.559  1.00  0.00     0.058 A 
BRANCH   6  10
ATOM     10  C   UNL A   1      31.812  29.354  26.182  1.00  0.00     0.193 C 
BRANCH  10  11
ATOM     11  N   UNL A   1      31.415  27.997  26.477  1.00  0.00    -0.331 N 
ATOM     12  C   UNL A   1      30.969  26.960  25.751  1.00  0.00     0.317 C 
ATOM     13  O   UNL A   1      30.390  26.081  26.397  1.00  0.00    -0.249 OA
ATOM     14  H   UNL A   1      31.489  27.783  27.435  1.00  0.00     0.165 HD
BRANCH  12  15
ATOM     15  N   UNL A   1      31.132  26.878  24.398  1.00  0.00    -0.320 N 
ATOM     16  C   UNL A   1      32.260  26.295  23.694  1.00  0.00     0.149 C 
BRANCH  15  17
ATOM     17  C   UNL A   1      29.939  27.138  23.583  1.00  0.00     0.200 C 
BRANCH  17  18
ATOM     18  C   UNL A   1      29.996  28.497  22.945  1.00  0.00     0.170 A 
ATOM     19  C   UNL A   1      28.705  31.749  22.258  1.00  0.00     0.089 C 
ATOM     20  C   UNL A   1      29.395  30.455  22.426  1.00  0.00     0.121 A 
ATOM     21  N   UNL A   1      29.111  29.497  23.281  1.00  0.00    -0.215 NA
ATOM     22  N   UNL A   1      30.449  30.062  21.652  1.00  0.00    -0.263 N 
ATOM     23  N   UNL A   1      30.890  28.845  22.005  1.00  0.00    -0.157 NA
ATOM     24  H   UNL A   1      30.836  30.604  20.927  1.00  0.00     0.192 HD
ENDBRANCH  17  18
ENDBRANCH  15  17
ENDBRANCH  12  15
ENDBRANCH  10  11
ENDBRANCH   6  10
ENDBRANCH   3   5
ENDBRANCH   2   3
ENDBRANCH   1   2
BRANCH   1  25
ATOM     25  C   UNL A   1      35.547  33.326  31.228  1.00  0.00     0.275 C 
BRANCH  25  26
ATOM     26  O   UNL A   1      36.810  32.709  30.911  1.00  0.00    -0.458 OA
BRANCH  26  27
ATOM     27  C   UNL A   1      36.889  31.380  31.171  1.00  0.00     0.338 C 
ATOM     28  O   UNL A   1      36.040  30.694  31.715  1.00  0.00    -0.246 OA
BRANCH  27  29
ATOM     29  C   UNL A   1      38.125  30.821  30.585  1.00  0.00     0.060 A 
ATOM     30  C   UNL A   1      39.148  30.447  31.459  1.00  0.00     0.016 A 
ATOM     31  C   UNL A   1      38.308  30.717  29.204  1.00  0.00     0.016 A 
ATOM     32  C   UNL A   1      40.357  29.963  30.965  1.00  0.00     0.010 A 
ATOM     33  C   UNL A   1      39.528  30.243  28.706  1.00  0.00     0.010 A 
ATOM     34  C   UNL A   1      40.560  29.870  29.583  1.00  0.00    -0.014 A 
BRANCH  34  35
ATOM     35  C   UNL A   1      41.879  29.425  29.072  1.00  0.00     0.031 A 
ATOM     36  C   UNL A   1      43.014  30.404  28.983  1.00  0.00     0.074 A 
ATOM     37  C   UNL A   1      42.067  28.138  28.730  1.00  0.00     0.049 A 
ATOM     38  N   UNL A   1      44.231  30.220  28.537  1.00  0.00    -0.248 NA
ATOM     39  C   UNL A   1      42.747  31.769  29.462  1.00  0.00     0.031 C 
ATOM     40  C   UNL A   1      41.053  27.086  28.815  1.00  0.00     0.029 A 
ATOM     41  N   UNL A   1      43.178  27.496  28.244  1.00  0.00    -0.354 N 
ATOM     42  C   UNL A   1      44.872  31.445  28.671  1.00  0.00     0.074 A 
ATOM     43  C   UNL A   1      43.906  32.369  29.229  1.00  0.00     0.031 C 
ATOM     44  C   UNL A   1      41.590  25.928  28.394  1.00  0.00     0.029 A 
ATOM     45  C   UNL A   1      42.973  26.163  27.982  1.00  0.00     0.049 A 
ATOM     46  H   UNL A   1      44.040  27.948  28.097  1.00  0.00     0.167 HD
ATOM     47  C   UNL A   1      46.149  31.768  28.357  1.00  0.00     0.037 A 
ATOM     48  C   UNL A   1      43.800  25.241  27.453  1.00  0.00     0.037 A 
ATOM     49  C   UNL A   1      47.110  30.849  27.807  1.00  0.00     0.049 A 
ATOM     50  C   UNL A   1      45.200  25.636  27.072  1.00  0.00     0.074 A 
ATOM     51  C   UNL A   1      48.427  31.086  27.455  1.00  0.00     0.029 A 
ATOM     52  N   UNL A   1      46.855  29.514  27.528  1.00  0.00    -0.354 N 
ATOM     53  N   UNL A   1      45.789  26.801  27.193  1.00  0.00    -0.248 NA
ATOM     54  C   UNL A   1      46.046  24.592  26.475  1.00  0.00     0.031 C 
ATOM     55  C   UNL A   1      48.963  29.900  26.939  1.00  0.00     0.029 A 
ATOM     56  C   UNL A   1      47.987  28.917  26.996  1.00  0.00     0.049 A 
ATOM     57  H   UNL A   1      45.997  29.058  27.685  1.00  0.00     0.167 HD
ATOM     58  C   UNL A   1      47.076  26.629  26.697  1.00  0.00     0.074 A 
ATOM     59  C   UNL A   1      47.185  25.244  26.285  1.00  0.00     0.031 C 
ATOM     60  C   UNL A   1      48.076  27.538  26.590  1.00  0.00     0.037 A 
BRANCH  47  61
ATOM     61  C   UNL A   1      46.569  33.192  28.581  1.00  0.00     0.058 A 
ATOM     62  C   UNL A   1      47.092  33.618  29.810  1.00  0.00     0.135 A 
ATOM     63  C   UNL A   1      46.459  34.136  27.548  1.00  0.00     0.135 A 
ATOM     64  F   UNL A   1      47.202  32.756  30.833  1.00  0.00    -0.206 F 
ATOM     65  C   UNL A   1      47.468  34.942  30.018  1.00  0.00     0.059 A 
ATOM     66  C   UNL A   1      46.843  35.460  27.728  1.00  0.00     0.059 A 
ATOM     67  F   UNL A   1      45.960  33.776  26.354  1.00  0.00    -0.206 F 
ATOM     68  C   UNL A   1      47.333  35.857  28.973  1.00  0.00     0.060 A 
BRANCH  68  69
ATOM     69  S   UNL A   1      47.812  37.575  29.253  1.00  0.00     0.124 S 
ATOM     70  O   UNL A   1      48.488  37.894  27.999  1.00  0.00    -0.237 OA
ATOM     71  O   UNL A   1      46.528  38.233  29.464  1.00  0.00    -0.237 OA
ATOM     72  O   UNL A   1      48.674  37.498  30.429  1.00  0.00    -0.744 OA
ENDBRANCH  68  69
ENDBRANCH  47  61
BRANCH  48  73
ATOM     73  C   UNL A   1      43.315  23.855  27.235  1.00  0.00     0.058 A 
ATOM     74  C   UNL A   1      43.324  22.914  28.274  1.00  0.00     0.135 A 
ATOM     75  C   UNL A   1      42.820  23.451  25.986  1.00  0.00     0.135 A 
ATOM     76  F   UNL A   1      43.798  23.252  29.482  1.00  0.00    -0.206 F 
ATOM     77  C   UNL A   1      42.861  21.616  28.082  1.00  0.00     0.059 A 
ATOM     78  C   UNL A   1      42.335  22.166  25.774  1.00  0.00     0.059 A 
ATOM     79  F   UNL A   1      42.785  24.321  24.964  1.00  0.00    -0.206 F 
ATOM     80  C   UNL A   1      42.368  21.252  26.828  1.00  0.00     0.060 A 
BRANCH  80  81
ATOM     81  S   UNL A   1      41.711  19.584  26.596  1.00  0.00     0.124 S 
ATOM     82  O   UNL A   1      41.030  19.714  25.314  1.00  0.00    -0.237 OA
ATOM     83  O   UNL A   1      42.922  18.769  26.597  1.00  0.00    -0.237 OA
ATOM     84  O   UNL A   1      40.845  19.406  27.759  1.00  0.00    -0.744 OA
ENDBRANCH  80  81
ENDBRANCH  48  73
BRANCH  60  85
ATOM     85  C   UNL A   1      49.378  27.060  26.018  1.00  0.00     0.058 A 
ATOM     86  C   UNL A   1      49.654  27.167  24.646  1.00  0.00     0.135 A 
ATOM     87  C   UNL A   1      50.376  26.534  26.852  1.00  0.00     0.135 A 
ATOM     88  F   UNL A   1      48.729  27.658  23.807  1.00  0.00    -0.206 F 
ATOM     89  C   UNL A   1      50.873  26.753  24.117  1.00  0.00     0.059 A 
ATOM     90  C   UNL A   1      51.607  26.128  26.347  1.00  0.00     0.059 A 
ATOM     91  F   UNL A   1      50.161  26.418  28.173  1.00  0.00    -0.206 F 
ATOM     92  C   UNL A   1      51.842  26.232  24.977  1.00  0.00     0.060 A 
BRANCH  92  93
ATOM     93  S   UNL A   1      53.436  25.728  24.291  1.00  0.00     0.124 S 
ATOM     94  O   UNL A   1      54.343  26.672  24.936  1.00  0.00    -0.237 OA
ATOM     95  O   UNL A   1      53.548  24.341  24.731  1.00  0.00    -0.237 OA
ATOM     96  O   UNL A   1      53.256  25.909  22.854  1.00  0.00    -0.744 OA
ENDBRANCH  92  93
ENDBRANCH  60  85
ENDBRANCH  34  35
ENDBRANCH  27  29
ENDBRANCH  26  27
ENDBRANCH  25  26
ENDBRANCH   1  25
TORSDOF 19
ENDMDL
MODEL 3
REMARK VINA RESULT:      -9.8      4.983     12.090
REMARK SMILES Cc1nc(CN(C)C(=O)NCc2ccc(C(=O)OCCOC(=O)c3ccc(-c4c5nc(c(-c6c(F)cc(S(=O)(=O)[O-])cc6F)c6ccc([nH]6)c(-c6c(F)cc(S(=O)(=O)[O-])cc6F)c6nc(c(-c7c(F)cc(S(=O)(=O)[O-])cc7F)c7ccc4[nH]7)C=C6)C=C5)cc3)o2)n[nH]1
REMARK SMILES IDX 19 1 18 2 16 3 17 4 15 5 12 6 13 7 90 8 14 9 11 10 10 11
REMARK SMILES IDX 8 12 9 13 6 15 7 16 5 17 4 18 1 19 2 20 3 21 92 22 91 23
REMARK SMILES IDX 20 25 21 26 22 27 23 28 24 29 25 30 89 31 26 32 88 33 27 34
REMARK SMILES IDX 28 35 29 36 82 37 30 38 87 39 81 40 83 41 31 42 86 43 80 44
REMARK SMILES IDX 79 45 32 47 66 48 45 49 65 50 46 51 49 52 64 53 84 54 47 55
REMARK SMILES IDX 48 56 63 58 85 59 50 60 33 61 34 62 43 63 35 64 36 65 42 66
REMARK SMILES IDX 44 67 37 68 38 69 39 70 40 71 41 72 67 73 68 74 77 75 69 76
REMARK SMILES IDX 70 77 76 78 78 79 71 80 72 81 73 82 74 83 75 84 51 85 52 86
REMARK SMILES IDX 61 87 53 88 54 89 60 90 62 91 55 92 56 93 57 94 58 95 59 96
REMARK H PARENT 10 14 92 24 83 46 49 57
REMARK Flexibility Score: inf
ROOT
ATOM      1  C   UNL A   1      34.521  33.813  29.935  1.00  0.00     0.275 C 
ENDROOT
BRANCH   1   2
ATOM      2  O   UNL A   1      34.634  33.334  28.582  1.00  0.00    -0.456 OA
BRANCH   2   3
ATOM      3  C   UNL A   1      33.455  32.990  27.980  1.00  0.00     0.374 C 
ATOM      4  O   UNL A   1      32.522  33.760  27.802  1.00  0.00    -0.242 OA
BRANCH   3   5
ATOM      5  C   UNL A   1      33.529  31.631  27.497  1.00  0.00     0.211 A 
ATOM      6  C   UNL A   1      32.907  30.002  26.142  1.00  0.00     0.124 A 
ATOM      7  C   UNL A   1      34.046  29.562  26.784  1.00  0.00     0.048 A 
ATOM      8  O   UNL A   1      32.548  31.219  26.635  1.00  0.00    -0.452 OA
ATOM      9  C   UNL A   1      34.454  30.614  27.643  1.00  0.00     0.058 A 
BRANCH   6  10
ATOM     10  C   UNL A   1      32.061  29.497  25.028  1.00  0.00     0.193 C 
BRANCH  10  11
ATOM     11  N   UNL A   1      32.866  29.332  23.841  1.00  0.00    -0.331 N 
ATOM     12  C   UNL A   1      33.330  28.281  23.147  1.00  0.00     0.317 C 
ATOM     13  O   UNL A   1      34.283  28.528  22.401  1.00  0.00    -0.249 OA
ATOM     14  H   UNL A   1      33.138  30.193  23.449  1.00  0.00     0.165 HD
BRANCH  12  15
ATOM     15  N   UNL A   1      32.799  27.028  23.258  1.00  0.00    -0.320 N 
ATOM     16  C   UNL A   1      31.762  26.448  22.424  1.00  0.00     0.149 C 
BRANCH  15  17
ATOM     17  C   UNL A   1      33.538  26.082  24.104  1.00  0.00     0.200 C 
BRANCH  17  18
ATOM     18  C   UNL A   1      32.662  25.509  25.181  1.00  0.00     0.170 A 
ATOM     19  C   UNL A   1      30.685  22.923  26.638  1.00  0.00     0.089 C 
ATOM     20  C   UNL A   1      31.455  24.103  26.196  1.00  0.00     0.121 A 
ATOM     21  N   UNL A   1      32.322  24.175  25.209  1.00  0.00    -0.215 NA
ATOM     22  N   UNL A   1      31.333  25.335  26.771  1.00  0.00    -0.263 N 
ATOM     23  N   UNL A   1      32.139  26.233  26.184  1.00  0.00    -0.157 NA
ATOM     24  H   UNL A   1      30.730  25.538  27.522  1.00  0.00     0.192 HD
ENDBRANCH  17  18
ENDBRANCH  15  17
ENDBRANCH  12  15
ENDBRANCH  10  11
ENDBRANCH   6  10
ENDBRANCH   3   5
ENDBRANCH   2   3
ENDBRANCH   1   2
BRANCH   1  25
ATOM     25  C   UNL A   1      35.094  32.802  30.937  1.00  0.00     0.275 C 
BRANCH  25  26
ATOM     26  O   UNL A   1      36.318  32.202  30.471  1.00  0.00    -0.458 OA
BRANCH  26  27
ATOM     27  C   UNL A   1      36.642  31.018  31.046  1.00  0.00     0.338 C 
ATOM     28  O   UNL A   1      35.971  30.395  31.853  1.00  0.00    -0.246 OA
BRANCH  27  29
ATOM     29  C   UNL A   1      37.894  30.495  30.464  1.00  0.00     0.060 A 
ATOM     30  C   UNL A   1      38.886  30.054  31.343  1.00  0.00     0.016 A 
ATOM     31  C   UNL A   1      38.125  30.490  29.086  1.00  0.00     0.016 A 
ATOM     32  C   UNL A   1      40.110  29.600  30.857  1.00  0.00     0.010 A 
ATOM     33  C   UNL A   1      39.360  30.046  28.597  1.00  0.00     0.010 A 
ATOM     34  C   UNL A   1      40.360  29.605  29.480  1.00  0.00    -0.014 A 
BRANCH  34  35
ATOM     35  C   UNL A   1      41.694  29.191  28.983  1.00  0.00     0.031 A 
ATOM     36  C   UNL A   1      42.816  30.188  28.935  1.00  0.00     0.074 A 
ATOM     37  C   UNL A   1      41.908  27.915  28.616  1.00  0.00     0.049 A 
ATOM     38  N   UNL A   1      44.043  30.032  28.508  1.00  0.00    -0.248 NA
ATOM     39  C   UNL A   1      42.520  31.538  29.439  1.00  0.00     0.031 C 
ATOM     40  C   UNL A   1      40.909  26.846  28.660  1.00  0.00     0.029 A 
ATOM     41  N   UNL A   1      43.037  27.299  28.137  1.00  0.00    -0.354 N 
ATOM     42  C   UNL A   1      44.663  31.263  28.680  1.00  0.00     0.074 A 
ATOM     43  C   UNL A   1      43.674  32.160  29.241  1.00  0.00     0.031 C 
ATOM     44  C   UNL A   1      41.470  25.706  28.224  1.00  0.00     0.029 A 
ATOM     45  C   UNL A   1      42.856  25.970  27.842  1.00  0.00     0.049 A 
ATOM     46  H   UNL A   1      43.895  27.767  28.015  1.00  0.00     0.167 HD
ATOM     47  C   UNL A   1      45.941  31.612  28.397  1.00  0.00     0.037 A 
ATOM     48  C   UNL A   1      43.706  25.072  27.308  1.00  0.00     0.037 A 
ATOM     49  C   UNL A   1      46.925  30.719  27.844  1.00  0.00     0.049 A 
ATOM     50  C   UNL A   1      45.107  25.495  26.961  1.00  0.00     0.074 A 
ATOM     51  C   UNL A   1      48.245  30.983  27.521  1.00  0.00     0.029 A 
ATOM     52  N   UNL A   1      46.695  29.387  27.531  1.00  0.00    -0.354 N 
ATOM     53  N   UNL A   1      45.676  26.667  27.119  1.00  0.00    -0.248 NA
ATOM     54  C   UNL A   1      45.978  24.478  26.357  1.00  0.00     0.031 C 
ATOM     55  C   UNL A   1      48.807  29.816  26.989  1.00  0.00     0.029 A 
ATOM     56  C   UNL A   1      47.845  28.819  27.007  1.00  0.00     0.049 A 
ATOM     57  H   UNL A   1      45.841  28.915  27.663  1.00  0.00     0.167 HD
ATOM     58  C   UNL A   1      46.974  26.525  26.642  1.00  0.00     0.074 A 
ATOM     59  C   UNL A   1      47.111  25.151  26.203  1.00  0.00     0.031 C 
ATOM     60  C   UNL A   1      47.962  27.450  26.574  1.00  0.00     0.037 A 
BRANCH  47  61
ATOM     61  C   UNL A   1      46.336  33.036  28.659  1.00  0.00     0.058 A 
ATOM     62  C   UNL A   1      46.880  33.432  29.889  1.00  0.00     0.135 A 
ATOM     63  C   UNL A   1      46.179  34.011  27.662  1.00  0.00     0.135 A 
ATOM     64  F   UNL A   1      47.033  32.539  30.879  1.00  0.00    -0.206 F 
ATOM     65  C   UNL A   1      47.232  34.756  30.133  1.00  0.00     0.059 A 
ATOM     66  C   UNL A   1      46.539  35.337  27.879  1.00  0.00     0.059 A 
ATOM     67  F   UNL A   1      45.659  33.681  26.469  1.00  0.00    -0.206 F 
ATOM     68  C   UNL A   1      47.051  35.703  29.124  1.00  0.00     0.060 A 
BRANCH  68  69
ATOM     69  S   UNL A   1      47.500  37.421  29.451  1.00  0.00     0.124 S 
ATOM     70  O   UNL A   1      48.943  37.389  29.229  1.00  0.00    -0.237 OA
ATOM     71  O   UNL A   1      46.722  38.148  28.455  1.00  0.00    -0.237 OA
ATOM     72  O   UNL A   1      47.082  37.620  30.835  1.00  0.00    -0.744 OA
ENDBRANCH  68  69
ENDBRANCH  47  61
BRANCH  48  73
ATOM     73  C   UNL A   1      43.246  23.684  27.052  1.00  0.00     0.058 A 
ATOM     74  C   UNL A   1      42.961  23.246  25.751  1.00  0.00     0.135 A 
ATOM     75  C   UNL A   1      43.098  22.767  28.102  1.00  0.00     0.135 A 
ATOM     76  F   UNL A   1      43.078  24.092  24.717  1.00  0.00    -0.206 F 
ATOM     77  C   UNL A   1      42.539  21.944  25.500  1.00  0.00     0.059 A 
ATOM     78  C   UNL A   1      42.695  21.456  27.875  1.00  0.00     0.059 A 
ATOM     79  F   UNL A   1      43.367  23.140  29.364  1.00  0.00    -0.206 F 
ATOM     80  C   UNL A   1      42.411  21.056  26.569  1.00  0.00     0.060 A 
BRANCH  80  81
ATOM     81  S   UNL A   1      41.922  19.348  26.235  1.00  0.00     0.124 S 
ATOM     82  O   UNL A   1      40.474  19.474  26.133  1.00  0.00    -0.237 OA
ATOM     83  O   UNL A   1      42.628  19.059  24.990  1.00  0.00    -0.237 OA
ATOM     84  O   UNL A   1      42.416  18.628  27.406  1.00  0.00    -0.744 OA
ENDBRANCH  80  81
ENDBRANCH  48  73
BRANCH  60  85
ATOM     85  C   UNL A   1      49.282  27.004  26.014  1.00  0.00     0.058 A 
ATOM     86  C   UNL A   1      49.581  27.148  24.651  1.00  0.00     0.135 A 
ATOM     87  C   UNL A   1      50.271  26.471  26.855  1.00  0.00     0.135 A 
ATOM     88  F   UNL A   1      48.666  27.647  23.807  1.00  0.00    -0.206 F 
ATOM     89  C   UNL A   1      50.815  26.763  24.136  1.00  0.00     0.059 A 
ATOM     90  C   UNL A   1      51.517  26.094  26.364  1.00  0.00     0.059 A 
ATOM     91  F   UNL A   1      50.032  26.320  28.167  1.00  0.00    -0.206 F 
ATOM     92  C   UNL A   1      51.776  26.235  25.001  1.00  0.00     0.060 A 
BRANCH  92  93
ATOM     93  S   UNL A   1      53.388  25.769  24.334  1.00  0.00     0.124 S 
ATOM     94  O   UNL A   1      54.266  26.733  24.991  1.00  0.00    -0.237 OA
ATOM     95  O   UNL A   1      53.528  24.384  24.773  1.00  0.00    -0.237 OA
ATOM     96  O   UNL A   1      53.222  25.949  22.894  1.00  0.00    -0.744 OA
ENDBRANCH  92  93
ENDBRANCH  60  85
ENDBRANCH  34  35
ENDBRANCH  27  29
ENDBRANCH  26  27
ENDBRANCH  25  26
ENDBRANCH   1  25
TORSDOF 19
ENDMDL
