MODEL 1
REMARK VINA RESULT:      -9.5      0.000      0.000
REMARK SMILES O=C(COCCNc1nncs1)OCCOC(=O)c1ccc(-c2c3nc(c(-c4c(F)cc(S(=O)(=O)[O-])cc4F)c4ccc([nH]4)c(-c4c(F)cc(S(=O)(=O)[O-])cc4F)c4nc(c(-c5c(F)cc(S(=O)(=O)[O-])cc5F)c5ccc2[nH]5)C=C4)C=C3)cc1
REMARK SMILES IDX 14 1 13 2 2 3 1 4 3 5 4 6 5 7 6 8 7 9 8 11 9 12 12 13 10 14
REMARK SMILES IDX 11 15 15 16 16 17 17 18 18 19 19 20 20 21 84 22 21 23 83 24
REMARK SMILES IDX 22 25 23 26 24 27 77 28 25 29 82 30 76 31 78 32 26 33 81 34
REMARK SMILES IDX 75 35 74 36 27 38 61 39 40 40 60 41 41 42 44 43 59 44 79 45
REMARK SMILES IDX 42 46 43 47 58 49 80 50 45 51 28 52 29 53 38 54 30 55 31 56
REMARK SMILES IDX 37 57 39 58 32 59 33 60 34 61 35 62 36 63 62 64 63 65 72 66
REMARK SMILES IDX 64 67 65 68 71 69 73 70 66 71 67 72 68 73 69 74 70 75 46 76
REMARK SMILES IDX 47 77 56 78 48 79 49 80 55 81 57 82 50 83 51 84 52 85 53 86
REMARK SMILES IDX 54 87
REMARK H PARENT 7 10 78 37 44 48
REMARK Flexibility Score: inf
ROOT
ATOM      1  C   UNL A   1      41.544  20.063  26.526  1.00  0.00     0.274 C 
ENDROOT
BRANCH   1   2
ATOM      2  O   UNL A   1      42.923  19.798  26.204  1.00  0.00    -0.460 OA
BRANCH   2   3
ATOM      3  C   UNL A   1      43.440  18.606  25.823  1.00  0.00     0.332 C 
ATOM      4  O   UNL A   1      42.674  17.685  25.541  1.00  0.00    -0.250 OA
BRANCH   3   5
ATOM      5  C   UNL A   1      44.963  18.426  25.759  1.00  0.00     0.282 C 
BRANCH   5   6
ATOM      6  O   UNL A   1      45.580  18.420  24.481  1.00  0.00    -0.368 OA
BRANCH   6   7
ATOM      7  C   UNL A   1      45.651  19.685  23.810  1.00  0.00     0.182 C 
BRANCH   7   8
ATOM      8  C   UNL A   1      46.386  20.781  24.604  1.00  0.00     0.143 C 
BRANCH   8   9
ATOM      9  N   UNL A   1      46.370  22.060  23.922  1.00  0.00    -0.358 N 
ATOM     10  H   UNL A   1      46.961  22.156  23.141  1.00  0.00     0.163 HD
BRANCH   9  11
ATOM     11  C   UNL A   1      45.618  23.133  24.259  1.00  0.00     0.205 A 
ATOM     12  N   UNL A   1      46.149  24.325  24.436  1.00  0.00    -0.121 NA
ATOM     13  S   UNL A   1      43.922  23.107  24.576  1.00  0.00    -0.083 S 
ATOM     14  N   UNL A   1      45.243  25.275  24.856  1.00  0.00    -0.145 NA
ATOM     15  C   UNL A   1      44.047  24.757  25.009  1.00  0.00     0.204 A 
ENDBRANCH   9  11
ENDBRANCH   8   9
ENDBRANCH   7   8
ENDBRANCH   6   7
ENDBRANCH   5   6
ENDBRANCH   3   5
ENDBRANCH   2   3
ENDBRANCH   1   2
BRANCH   1  16
ATOM     16  C   UNL A   1      41.332  21.526  26.911  1.00  0.00     0.275 C 
BRANCH  16  17
ATOM     17  O   UNL A   1      39.966  21.764  27.302  1.00  0.00    -0.458 OA
BRANCH  17  18
ATOM     18  C   UNL A   1      39.291  22.659  26.530  1.00  0.00     0.338 C 
ATOM     19  O   UNL A   1      38.505  22.395  25.643  1.00  0.00    -0.246 OA
BRANCH  18  20
ATOM     20  C   UNL A   1      39.553  24.036  27.014  1.00  0.00     0.060 A 
ATOM     21  C   UNL A   1      40.104  24.953  26.112  1.00  0.00     0.016 A 
ATOM     22  C   UNL A   1      39.291  24.427  28.332  1.00  0.00     0.016 A 
ATOM     23  C   UNL A   1      40.434  26.242  26.535  1.00  0.00     0.010 A 
ATOM     24  C   UNL A   1      39.622  25.722  28.754  1.00  0.00     0.010 A 
ATOM     25  C   UNL A   1      40.228  26.626  27.866  1.00  0.00    -0.014 A 
BRANCH  25  26
ATOM     26  C   UNL A   1      40.817  27.897  28.358  1.00  0.00     0.031 A 
ATOM     27  C   UNL A   1      42.308  28.084  28.261  1.00  0.00     0.074 A 
ATOM     28  C   UNL A   1      40.050  28.887  28.850  1.00  0.00     0.049 A 
ATOM     29  N   UNL A   1      43.034  29.135  28.544  1.00  0.00    -0.248 NA
ATOM     30  C   UNL A   1      43.082  26.926  27.785  1.00  0.00     0.031 C 
ATOM     31  C   UNL A   1      38.596  28.845  28.996  1.00  0.00     0.029 A 
ATOM     32  N   UNL A   1      40.398  30.131  29.320  1.00  0.00    -0.354 N 
ATOM     33  C   UNL A   1      44.345  28.775  28.258  1.00  0.00     0.074 A 
ATOM     34  C   UNL A   1      44.322  27.392  27.833  1.00  0.00     0.031 C 
ATOM     35  C   UNL A   1      38.177  30.010  29.522  1.00  0.00     0.029 A 
ATOM     36  C   UNL A   1      39.331  30.880  29.753  1.00  0.00     0.049 A 
ATOM     37  H   UNL A   1      41.328  30.456  29.344  1.00  0.00     0.167 HD
ATOM     38  C   UNL A   1      45.468  29.530  28.323  1.00  0.00     0.037 A 
ATOM     39  C   UNL A   1      39.289  32.126  30.267  1.00  0.00     0.037 A 
ATOM     40  C   UNL A   1      45.501  30.900  28.760  1.00  0.00     0.049 A 
ATOM     41  C   UNL A   1      40.560  32.932  30.379  1.00  0.00     0.074 A 
ATOM     42  C   UNL A   1      46.589  31.753  28.836  1.00  0.00     0.029 A 
ATOM     43  N   UNL A   1      44.401  31.617  29.205  1.00  0.00    -0.354 N 
ATOM     44  N   UNL A   1      41.783  32.604  30.036  1.00  0.00    -0.248 NA
ATOM     45  C   UNL A   1      40.439  34.290  30.931  1.00  0.00     0.031 C 
ATOM     46  C   UNL A   1      46.155  32.970  29.373  1.00  0.00     0.029 A 
ATOM     47  C   UNL A   1      44.787  32.893  29.580  1.00  0.00     0.049 A 
ATOM     48  H   UNL A   1      43.481  31.269  29.247  1.00  0.00     0.167 HD
ATOM     49  C   UNL A   1      42.565  33.730  30.285  1.00  0.00     0.074 A 
ATOM     50  C   UNL A   1      41.678  34.746  30.811  1.00  0.00     0.031 C 
ATOM     51  C   UNL A   1      43.895  33.907  30.085  1.00  0.00     0.037 A 
BRANCH  38  52
ATOM     52  C   UNL A   1      46.760  28.876  27.923  1.00  0.00     0.058 A 
ATOM     53  C   UNL A   1      47.574  28.221  28.861  1.00  0.00     0.135 A 
ATOM     54  C   UNL A   1      47.183  28.892  26.585  1.00  0.00     0.135 A 
ATOM     55  F   UNL A   1      47.223  28.192  30.157  1.00  0.00    -0.206 F 
ATOM     56  C   UNL A   1      48.778  27.631  28.492  1.00  0.00     0.059 A 
ATOM     57  C   UNL A   1      48.372  28.287  26.188  1.00  0.00     0.059 A 
ATOM     58  F   UNL A   1      46.443  29.508  25.649  1.00  0.00    -0.206 F 
ATOM     59  C   UNL A   1      49.170  27.674  27.152  1.00  0.00     0.060 A 
BRANCH  59  60
ATOM     60  S   UNL A   1      50.740  26.914  26.689  1.00  0.00     0.124 S 
ATOM     61  O   UNL A   1      50.299  25.612  26.197  1.00  0.00    -0.237 OA
ATOM     62  O   UNL A   1      51.249  27.834  25.677  1.00  0.00    -0.237 OA
ATOM     63  O   UNL A   1      51.488  26.890  27.942  1.00  0.00    -0.744 OA
ENDBRANCH  59  60
ENDBRANCH  38  52
BRANCH  39  64
ATOM     64  C   UNL A   1      37.991  32.716  30.692  1.00  0.00     0.058 A 
ATOM     65  C   UNL A   1      37.159  33.372  29.772  1.00  0.00     0.135 A 
ATOM     66  C   UNL A   1      37.574  32.664  32.029  1.00  0.00     0.135 A 
ATOM     67  F   UNL A   1      37.520  33.459  28.483  1.00  0.00    -0.206 F 
ATOM     68  C   UNL A   1      35.969  33.975  30.168  1.00  0.00     0.059 A 
ATOM     69  C   UNL A   1      36.378  33.241  32.445  1.00  0.00     0.059 A 
ATOM     70  F   UNL A   1      38.332  32.041  32.946  1.00  0.00    -0.206 F 
ATOM     71  C   UNL A   1      35.587  33.905  31.508  1.00  0.00     0.060 A 
BRANCH  71  72
ATOM     72  S   UNL A   1      34.025  34.662  32.006  1.00  0.00     0.124 S 
ATOM     73  O   UNL A   1      33.324  34.757  30.731  1.00  0.00    -0.237 OA
ATOM     74  O   UNL A   1      33.499  33.683  32.953  1.00  0.00    -0.237 OA
ATOM     75  O   UNL A   1      34.441  35.931  32.595  1.00  0.00    -0.744 OA
ENDBRANCH  71  72
ENDBRANCH  39  64
BRANCH  51  76
ATOM     76  C   UNL A   1      44.472  35.268  30.375  1.00  0.00     0.058 A 
ATOM     77  C   UNL A   1      44.509  36.284  29.408  1.00  0.00     0.135 A 
ATOM     78  C   UNL A   1      44.959  35.569  31.658  1.00  0.00     0.135 A 
ATOM     79  F   UNL A   1      44.059  36.050  28.164  1.00  0.00    -0.206 F 
ATOM     80  C   UNL A   1      45.035  37.541  29.693  1.00  0.00     0.059 A 
ATOM     81  C   UNL A   1      45.463  36.828  31.974  1.00  0.00     0.059 A 
ATOM     82  F   UNL A   1      44.935  34.640  32.627  1.00  0.00    -0.206 F 
ATOM     83  C   UNL A   1      45.513  37.803  30.979  1.00  0.00     0.060 A 
BRANCH  83  84
ATOM     84  S   UNL A   1      46.178  39.441  31.344  1.00  0.00     0.124 S 
ATOM     85  O   UNL A   1      45.296  39.882  32.420  1.00  0.00    -0.237 OA
ATOM     86  O   UNL A   1      47.552  39.143  31.736  1.00  0.00    -0.237 OA
ATOM     87  O   UNL A   1      46.035  40.156  30.080  1.00  0.00    -0.744 OA
ENDBRANCH  83  84
ENDBRANCH  51  76
ENDBRANCH  25  26
ENDBRANCH  18  20
ENDBRANCH  17  18
ENDBRANCH  16  17
ENDBRANCH   1  16
TORSDOF 19
ENDMDL
MODEL 2
REMARK VINA RESULT:      -9.5      5.313      6.893
REMARK SMILES O=C(COCCNc1nncs1)OCCOC(=O)c1ccc(-c2c3nc(c(-c4c(F)cc(S(=O)(=O)[O-])cc4F)c4ccc([nH]4)c(-c4c(F)cc(S(=O)(=O)[O-])cc4F)c4nc(c(-c5c(F)cc(S(=O)(=O)[O-])cc5F)c5ccc2[nH]5)C=C4)C=C3)cc1
REMARK SMILES IDX 14 1 13 2 2 3 1 4 3 5 4 6 5 7 6 8 7 9 8 11 9 12 12 13 10 14
REMARK SMILES IDX 11 15 15 16 16 17 17 18 18 19 19 20 20 21 84 22 21 23 83 24
REMARK SMILES IDX 22 25 23 26 24 27 77 28 25 29 82 30 76 31 78 32 26 33 81 34
REMARK SMILES IDX 75 35 74 36 27 38 61 39 40 40 60 41 41 42 44 43 59 44 79 45
REMARK SMILES IDX 42 46 43 47 58 49 80 50 45 51 28 52 29 53 38 54 30 55 31 56
REMARK SMILES IDX 37 57 39 58 32 59 33 60 34 61 35 62 36 63 62 64 63 65 72 66
REMARK SMILES IDX 64 67 65 68 71 69 73 70 66 71 67 72 68 73 69 74 70 75 46 76
REMARK SMILES IDX 47 77 56 78 48 79 49 80 55 81 57 82 50 83 51 84 52 85 53 86
REMARK SMILES IDX 54 87
REMARK H PARENT 7 10 78 37 44 48
REMARK Flexibility Score: inf
ROOT
ATOM      1  C   UNL A   1      43.016  22.885  25.740  1.00  0.00     0.274 C 
ENDROOT
BRANCH   1   2
ATOM      2  O   UNL A   1      41.576  22.858  25.764  1.00  0.00    -0.460 OA
BRANCH   2   3
ATOM      3  C   UNL A   1      40.799  22.599  26.843  1.00  0.00     0.332 C 
ATOM      4  O   UNL A   1      39.836  23.329  27.074  1.00  0.00    -0.250 OA
BRANCH   3   5
ATOM      5  C   UNL A   1      41.140  21.412  27.755  1.00  0.00     0.282 C 
BRANCH   5   6
ATOM      6  O   UNL A   1      40.521  20.165  27.484  1.00  0.00    -0.368 OA
BRANCH   6   7
ATOM      7  C   UNL A   1      40.873  19.545  26.240  1.00  0.00     0.182 C 
BRANCH   7   8
ATOM      8  C   UNL A   1      42.276  18.911  26.224  1.00  0.00     0.143 C 
BRANCH   8   9
ATOM      9  N   UNL A   1      43.098  19.419  25.145  1.00  0.00    -0.358 N 
ATOM     10  H   UNL A   1      42.639  19.916  24.429  1.00  0.00     0.163 HD
BRANCH   9  11
ATOM     11  C   UNL A   1      44.438  19.277  25.029  1.00  0.00     0.205 A 
ATOM     12  N   UNL A   1      45.042  18.138  25.301  1.00  0.00    -0.121 NA
ATOM     13  S   UNL A   1      45.545  20.530  24.601  1.00  0.00    -0.083 S 
ATOM     14  N   UNL A   1      46.416  18.206  25.207  1.00  0.00    -0.145 NA
ATOM     15  C   UNL A   1      46.812  19.416  24.888  1.00  0.00     0.204 A 
ENDBRANCH   9  11
ENDBRANCH   8   9
ENDBRANCH   7   8
ENDBRANCH   6   7
ENDBRANCH   5   6
ENDBRANCH   3   5
ENDBRANCH   2   3
ENDBRANCH   1   2
BRANCH   1  16
ATOM     16  C   UNL A   1      43.566  24.041  26.576  1.00  0.00     0.275 C 
BRANCH  16  17
ATOM     17  O   UNL A   1      43.637  25.250  25.799  1.00  0.00    -0.458 OA
BRANCH  17  18
ATOM     18  C   UNL A   1      42.502  26.002  25.792  1.00  0.00     0.338 C 
ATOM     19  O   UNL A   1      41.681  26.056  24.900  1.00  0.00    -0.246 OA
BRANCH  18  20
ATOM     20  C   UNL A   1      42.334  26.668  27.107  1.00  0.00     0.060 A 
ATOM     21  C   UNL A   1      41.257  26.274  27.907  1.00  0.00     0.016 A 
ATOM     22  C   UNL A   1      43.197  27.678  27.548  1.00  0.00     0.016 A 
ATOM     23  C   UNL A   1      41.013  26.917  29.123  1.00  0.00     0.010 A 
ATOM     24  C   UNL A   1      42.951  28.321  28.768  1.00  0.00     0.010 A 
ATOM     25  C   UNL A   1      41.837  27.967  29.546  1.00  0.00    -0.014 A 
BRANCH  25  26
ATOM     26  C   UNL A   1      41.418  28.803  30.700  1.00  0.00     0.031 A 
ATOM     27  C   UNL A   1      42.184  28.684  31.991  1.00  0.00     0.074 A 
ATOM     28  C   UNL A   1      40.401  29.679  30.606  1.00  0.00     0.049 A 
ATOM     29  N   UNL A   1      42.059  29.369  33.098  1.00  0.00    -0.248 NA
ATOM     30  C   UNL A   1      43.230  27.649  32.037  1.00  0.00     0.031 C 
ATOM     31  C   UNL A   1      39.578  29.902  29.418  1.00  0.00     0.029 A 
ATOM     32  N   UNL A   1      39.889  30.551  31.536  1.00  0.00    -0.354 N 
ATOM     33  C   UNL A   1      43.023  28.866  33.964  1.00  0.00     0.074 A 
ATOM     34  C   UNL A   1      43.688  27.782  33.273  1.00  0.00     0.031 C 
ATOM     35  C   UNL A   1      38.662  30.848  29.695  1.00  0.00     0.029 A 
ATOM     36  C   UNL A   1      38.831  31.297  31.077  1.00  0.00     0.049 A 
ATOM     37  H   UNL A   1      40.249  30.634  32.450  1.00  0.00     0.167 HD
ATOM     38  C   UNL A   1      43.343  29.279  35.214  1.00  0.00     0.037 A 
ATOM     39  C   UNL A   1      38.092  32.239  31.697  1.00  0.00     0.037 A 
ATOM     40  C   UNL A   1      42.676  30.346  35.912  1.00  0.00     0.049 A 
ATOM     41  C   UNL A   1      38.433  32.649  33.109  1.00  0.00     0.074 A 
ATOM     42  C   UNL A   1      42.947  30.851  37.172  1.00  0.00     0.029 A 
ATOM     43  N   UNL A   1      41.599  31.066  35.417  1.00  0.00    -0.354 N 
ATOM     44  N   UNL A   1      39.394  32.215  33.889  1.00  0.00    -0.248 NA
ATOM     45  C   UNL A   1      37.596  33.695  33.717  1.00  0.00     0.031 C 
ATOM     46  C   UNL A   1      42.003  31.844  37.458  1.00  0.00     0.029 A 
ATOM     47  C   UNL A   1      41.178  31.993  36.355  1.00  0.00     0.049 A 
ATOM     48  H   UNL A   1      41.194  30.936  34.529  1.00  0.00     0.167 HD
ATOM     49  C   UNL A   1      39.307  32.968  35.057  1.00  0.00     0.074 A 
ATOM     50  C   UNL A   1      38.198  33.881  34.884  1.00  0.00     0.031 C 
ATOM     51  C   UNL A   1      40.084  32.914  36.168  1.00  0.00     0.037 A 
BRANCH  38  52
ATOM     52  C   UNL A   1      44.461  28.558  35.910  1.00  0.00     0.058 A 
ATOM     53  C   UNL A   1      44.218  27.452  36.740  1.00  0.00     0.135 A 
ATOM     54  C   UNL A   1      45.792  28.969  35.738  1.00  0.00     0.135 A 
ATOM     55  F   UNL A   1      42.960  27.029  36.953  1.00  0.00    -0.206 F 
ATOM     56  C   UNL A   1      45.252  26.796  37.398  1.00  0.00     0.059 A 
ATOM     57  C   UNL A   1      46.845  28.312  36.367  1.00  0.00     0.059 A 
ATOM     58  F   UNL A   1      46.078  30.023  34.958  1.00  0.00    -0.206 F 
ATOM     59  C   UNL A   1      46.563  27.237  37.208  1.00  0.00     0.060 A 
BRANCH  59  60
ATOM     60  S   UNL A   1      47.895  26.385  38.077  1.00  0.00     0.124 S 
ATOM     61  O   UNL A   1      47.163  25.325  38.764  1.00  0.00    -0.237 OA
ATOM     62  O   UNL A   1      48.758  25.952  36.983  1.00  0.00    -0.237 OA
ATOM     63  O   UNL A   1      48.455  27.420  38.939  1.00  0.00    -0.744 OA
ENDBRANCH  59  60
ENDBRANCH  38  52
BRANCH  39  64
ATOM     64  C   UNL A   1      36.965  32.895  30.981  1.00  0.00     0.058 A 
ATOM     65  C   UNL A   1      35.634  32.542  31.249  1.00  0.00     0.135 A 
ATOM     66  C   UNL A   1      37.198  33.863  29.993  1.00  0.00     0.135 A 
ATOM     67  F   UNL A   1      35.360  31.612  32.177  1.00  0.00    -0.206 F 
ATOM     68  C   UNL A   1      34.574  33.108  30.548  1.00  0.00     0.059 A 
ATOM     69  C   UNL A   1      36.153  34.460  29.294  1.00  0.00     0.059 A 
ATOM     70  F   UNL A   1      38.453  34.241  29.705  1.00  0.00    -0.206 F 
ATOM     71  C   UNL A   1      34.844  34.066  29.571  1.00  0.00     0.060 A 
BRANCH  71  72
ATOM     72  S   UNL A   1      33.460  34.821  28.689  1.00  0.00     0.124 S 
ATOM     73  O   UNL A   1      32.481  34.978  29.757  1.00  0.00    -0.237 OA
ATOM     74  O   UNL A   1      34.056  36.053  28.181  1.00  0.00    -0.237 OA
ATOM     75  O   UNL A   1      33.131  33.828  27.670  1.00  0.00    -0.744 OA
ENDBRANCH  71  72
ENDBRANCH  39  64
BRANCH  51  76
ATOM     76  C   UNL A   1      39.809  33.908  37.266  1.00  0.00     0.058 A 
ATOM     77  C   UNL A   1      39.064  33.572  38.407  1.00  0.00     0.135 A 
ATOM     78  C   UNL A   1      40.336  35.208  37.190  1.00  0.00     0.135 A 
ATOM     79  F   UNL A   1      38.535  32.343  38.531  1.00  0.00    -0.206 F 
ATOM     80  C   UNL A   1      38.826  34.497  39.419  1.00  0.00     0.059 A 
ATOM     81  C   UNL A   1      40.134  36.141  38.203  1.00  0.00     0.059 A 
ATOM     82  F   UNL A   1      41.068  35.580  36.127  1.00  0.00    -0.206 F 
ATOM     83  C   UNL A   1      39.363  35.781  39.307  1.00  0.00     0.060 A 
BRANCH  83  84
ATOM     84  S   UNL A   1      39.063  36.970  40.632  1.00  0.00     0.124 S 
ATOM     85  O   UNL A   1      40.405  37.146  41.178  1.00  0.00    -0.237 OA
ATOM     86  O   UNL A   1      38.519  38.116  39.911  1.00  0.00    -0.237 OA
ATOM     87  O   UNL A   1      38.116  36.279  41.502  1.00  0.00    -0.744 OA
ENDBRANCH  83  84
ENDBRANCH  51  76
ENDBRANCH  25  26
ENDBRANCH  18  20
ENDBRANCH  17  18
ENDBRANCH  16  17
ENDBRANCH   1  16
TORSDOF 19
ENDMDL
MODEL 3
REMARK VINA RESULT:      -9.5      3.209     12.342
REMARK SMILES O=C(COCCNc1nncs1)OCCOC(=O)c1ccc(-c2c3nc(c(-c4c(F)cc(S(=O)(=O)[O-])cc4F)c4ccc([nH]4)c(-c4c(F)cc(S(=O)(=O)[O-])cc4F)c4nc(c(-c5c(F)cc(S(=O)(=O)[O-])cc5F)c5ccc2[nH]5)C=C4)C=C3)cc1
REMARK SMILES IDX 14 1 13 2 2 3 1 4 3 5 4 6 5 7 6 8 7 9 8 11 9 12 12 13 10 14
REMARK SMILES IDX 11 15 15 16 16 17 17 18 18 19 19 20 20 21 84 22 21 23 83 24
REMARK SMILES IDX 22 25 23 26 24 27 77 28 25 29 82 30 76 31 78 32 26 33 81 34
REMARK SMILES IDX 75 35 74 36 27 38 61 39 40 40 60 41 41 42 44 43 59 44 79 45
REMARK SMILES IDX 42 46 43 47 58 49 80 50 45 51 28 52 29 53 38 54 30 55 31 56
REMARK SMILES IDX 37 57 39 58 32 59 33 60 34 61 35 62 36 63 62 64 63 65 72 66
REMARK SMILES IDX 64 67 65 68 71 69 73 70 66 71 67 72 68 73 69 74 70 75 46 76
REMARK SMILES IDX 47 77 56 78 48 79 49 80 55 81 57 82 50 83 51 84 52 85 53 86
REMARK SMILES IDX 54 87
REMARK H PARENT 7 10 78 37 44 48
REMARK Flexibility Score: inf
ROOT
ATOM      1  C   UNL A   1      36.139  33.512  31.381  1.00  0.00     0.274 C 
ENDROOT
BRANCH   1   2
ATOM      2  O   UNL A   1      36.727  33.526  32.696  1.00  0.00    -0.460 OA
BRANCH   2   3
ATOM      3  C   UNL A   1      36.426  34.388  33.697  1.00  0.00     0.332 C 
ATOM      4  O   UNL A   1      37.229  34.538  34.617  1.00  0.00    -0.250 OA
BRANCH   3   5
ATOM      5  C   UNL A   1      35.092  35.147  33.668  1.00  0.00     0.282 C 
BRANCH   5   6
ATOM      6  O   UNL A   1      35.022  36.341  32.903  1.00  0.00    -0.368 OA
BRANCH   6   7
ATOM      7  C   UNL A   1      33.883  37.177  33.145  1.00  0.00     0.182 C 
BRANCH   7   8
ATOM      8  C   UNL A   1      32.777  37.062  32.080  1.00  0.00     0.143 C 
BRANCH   8   9
ATOM      9  N   UNL A   1      33.294  37.186  30.732  1.00  0.00    -0.358 N 
ATOM     10  H   UNL A   1      33.662  38.062  30.474  1.00  0.00     0.163 HD
BRANCH   9  11
ATOM     11  C   UNL A   1      33.319  36.211  29.795  1.00  0.00     0.205 A 
ATOM     12  N   UNL A   1      32.740  35.044  29.991  1.00  0.00    -0.121 NA
ATOM     13  S   UNL A   1      34.145  36.296  28.282  1.00  0.00    -0.083 S 
ATOM     14  N   UNL A   1      32.941  34.149  28.962  1.00  0.00    -0.145 NA
ATOM     15  C   UNL A   1      33.697  34.666  28.022  1.00  0.00     0.204 A 
ENDBRANCH   9  11
ENDBRANCH   8   9
ENDBRANCH   7   8
ENDBRANCH   6   7
ENDBRANCH   5   6
ENDBRANCH   3   5
ENDBRANCH   2   3
ENDBRANCH   1   2
BRANCH   1  16
ATOM     16  C   UNL A   1      35.218  32.307  31.195  1.00  0.00     0.275 C 
BRANCH  16  17
ATOM     17  O   UNL A   1      35.912  31.223  30.550  1.00  0.00    -0.458 OA
BRANCH  17  18
ATOM     18  C   UNL A   1      36.653  30.436  31.378  1.00  0.00     0.338 C 
ATOM     19  O   UNL A   1      36.252  29.853  32.364  1.00  0.00    -0.246 OA
BRANCH  18  20
ATOM     20  C   UNL A   1      38.022  30.280  30.829  1.00  0.00     0.060 A 
ATOM     21  C   UNL A   1      38.171  30.252  29.439  1.00  0.00     0.016 A 
ATOM     22  C   UNL A   1      39.145  30.139  31.653  1.00  0.00     0.016 A 
ATOM     23  C   UNL A   1      39.429  30.039  28.871  1.00  0.00     0.010 A 
ATOM     24  C   UNL A   1      40.406  29.927  31.082  1.00  0.00     0.010 A 
ATOM     25  C   UNL A   1      40.550  29.841  29.687  1.00  0.00    -0.014 A 
BRANCH  25  26
ATOM     26  C   UNL A   1      41.818  29.362  29.081  1.00  0.00     0.031 A 
ATOM     27  C   UNL A   1      42.962  30.332  28.946  1.00  0.00     0.074 A 
ATOM     28  C   UNL A   1      41.975  28.085  28.686  1.00  0.00     0.049 A 
ATOM     29  N   UNL A   1      44.185  30.122  28.530  1.00  0.00    -0.248 NA
ATOM     30  C   UNL A   1      42.685  31.726  29.328  1.00  0.00     0.031 C 
ATOM     31  C   UNL A   1      40.957  27.040  28.763  1.00  0.00     0.029 A 
ATOM     32  N   UNL A   1      43.065  27.452  28.139  1.00  0.00    -0.354 N 
ATOM     33  C   UNL A   1      44.829  31.351  28.623  1.00  0.00     0.074 A 
ATOM     34  C   UNL A   1      43.848  32.311  29.081  1.00  0.00     0.031 C 
ATOM     35  C   UNL A   1      41.470  25.894  28.278  1.00  0.00     0.029 A 
ATOM     36  C   UNL A   1      42.852  26.125  27.854  1.00  0.00     0.049 A 
ATOM     37  H   UNL A   1      43.921  27.907  27.967  1.00  0.00     0.167 HD
ATOM     38  C   UNL A   1      46.126  31.652  28.370  1.00  0.00     0.037 A 
ATOM     39  C   UNL A   1      43.678  25.201  27.323  1.00  0.00     0.037 A 
ATOM     40  C   UNL A   1      47.103  30.706  27.901  1.00  0.00     0.049 A 
ATOM     41  C   UNL A   1      45.105  25.572  27.000  1.00  0.00     0.074 A 
ATOM     42  C   UNL A   1      48.446  30.914  27.640  1.00  0.00     0.029 A 
ATOM     43  N   UNL A   1      46.842  29.375  27.610  1.00  0.00    -0.354 N 
ATOM     44  N   UNL A   1      45.721  26.718  27.161  1.00  0.00    -0.248 NA
ATOM     45  C   UNL A   1      45.956  24.510  26.439  1.00  0.00     0.031 C 
ATOM     46  C   UNL A   1      48.987  29.722  27.145  1.00  0.00     0.029 A 
ATOM     47  C   UNL A   1      47.992  28.757  27.149  1.00  0.00     0.049 A 
ATOM     48  H   UNL A   1      45.967  28.936  27.716  1.00  0.00     0.167 HD
ATOM     49  C   UNL A   1      47.040  26.502  26.769  1.00  0.00     0.074 A 
ATOM     50  C   UNL A   1      47.132  25.117  26.359  1.00  0.00     0.031 C 
ATOM     51  C   UNL A   1      48.082  27.372  26.761  1.00  0.00     0.037 A 
BRANCH  38  52
ATOM     52  C   UNL A   1      46.555  33.075  28.586  1.00  0.00     0.058 A 
ATOM     53  C   UNL A   1      47.052  33.513  29.824  1.00  0.00     0.135 A 
ATOM     54  C   UNL A   1      46.480  34.009  27.542  1.00  0.00     0.135 A 
ATOM     55  F   UNL A   1      47.128  32.662  30.862  1.00  0.00    -0.206 F 
ATOM     56  C   UNL A   1      47.433  34.834  30.028  1.00  0.00     0.059 A 
ATOM     57  C   UNL A   1      46.879  35.331  27.716  1.00  0.00     0.059 A 
ATOM     58  F   UNL A   1      46.009  33.643  26.339  1.00  0.00    -0.206 F 
ATOM     59  C   UNL A   1      47.338  35.738  28.968  1.00  0.00     0.060 A 
BRANCH  59  60
ATOM     60  S   UNL A   1      47.824  37.452  29.249  1.00  0.00     0.124 S 
ATOM     61  O   UNL A   1      46.533  38.082  29.510  1.00  0.00    -0.237 OA
ATOM     62  O   UNL A   1      48.719  37.343  30.396  1.00  0.00    -0.237 OA
ATOM     63  O   UNL A   1      48.465  37.833  27.994  1.00  0.00    -0.744 OA
ENDBRANCH  59  60
ENDBRANCH  38  52
BRANCH  39  64
ATOM     64  C   UNL A   1      43.195  23.815  27.085  1.00  0.00     0.058 A 
ATOM     65  C   UNL A   1      43.107  22.889  28.135  1.00  0.00     0.135 A 
ATOM     66  C   UNL A   1      42.842  23.380  25.799  1.00  0.00     0.135 A 
ATOM     67  F   UNL A   1      43.445  23.253  29.382  1.00  0.00    -0.206 F 
ATOM     68  C   UNL A   1      42.709  21.573  27.917  1.00  0.00     0.059 A 
ATOM     69  C   UNL A   1      42.420  22.075  25.559  1.00  0.00     0.059 A 
ATOM     70  F   UNL A   1      42.901  24.230  24.762  1.00  0.00    -0.206 F 
ATOM     71  C   UNL A   1      42.368  21.176  26.623  1.00  0.00     0.060 A 
BRANCH  71  72
ATOM     72  S   UNL A   1      41.819  19.476  26.354  1.00  0.00     0.124 S 
ATOM     73  O   UNL A   1      42.296  18.818  27.565  1.00  0.00    -0.237 OA
ATOM     74  O   UNL A   1      40.373  19.635  26.239  1.00  0.00    -0.237 OA
ATOM     75  O   UNL A   1      42.500  19.097  25.119  1.00  0.00    -0.744 OA
ENDBRANCH  71  72
ENDBRANCH  39  64
BRANCH  51  76
ATOM     76  C   UNL A   1      49.432  26.843  26.353  1.00  0.00     0.058 A 
ATOM     77  C   UNL A   1      50.238  26.101  27.230  1.00  0.00     0.135 A 
ATOM     78  C   UNL A   1      49.907  27.049  25.047  1.00  0.00     0.135 A 
ATOM     79  F   UNL A   1      49.835  25.875  28.492  1.00  0.00    -0.206 F 
ATOM     80  C   UNL A   1      51.480  25.609  26.837  1.00  0.00     0.059 A 
ATOM     81  C   UNL A   1      51.132  26.542  24.623  1.00  0.00     0.059 A 
ATOM     82  F   UNL A   1      49.171  27.740  24.161  1.00  0.00    -0.206 F 
ATOM     83  C   UNL A   1      51.920  25.837  25.532  1.00  0.00     0.060 A 
BRANCH  83  84
ATOM     84  S   UNL A   1      53.523  25.180  25.025  1.00  0.00     0.124 S 
ATOM     85  O   UNL A   1      53.556  25.542  23.612  1.00  0.00    -0.237 OA
ATOM     86  O   UNL A   1      54.449  25.909  25.887  1.00  0.00    -0.237 OA
ATOM     87  O   UNL A   1      53.410  23.752  25.306  1.00  0.00    -0.744 OA
ENDBRANCH  83  84
ENDBRANCH  51  76
ENDBRANCH  25  26
ENDBRANCH  18  20
ENDBRANCH  17  18
ENDBRANCH  16  17
ENDBRANCH   1  16
TORSDOF 19
ENDMDL
