MODEL 1
REMARK VINA RESULT:     -12.2      0.000      0.000
REMARK SMILES C[NH+]1CCN(C(=O)c2ccc3c(c2)N(CC(=O)OCCOC(=O)c2ccc(-c4c5nc(c(-c6c(F)cc(S(=O)(=O)[O-])cc6F)c6ccc([nH]6)c(-c6c(F)cc(S(=O)(=O)[O-])cc6F)c6nc(c(-c7c(F)cc(S(=O)(=O)[O-])cc7F)c7ccc4[nH]7)C=C6)C=C5)cc2)C(=O)CO3)CC1
REMARK SMILES IDX 20 1 19 2 18 3 16 4 17 5 15 6 14 7 8 8 9 9 13 10 10 11 12 12
REMARK SMILES IDX 11 13 93 14 90 15 92 16 91 17 6 18 1 19 2 20 3 21 95 22 4 24
REMARK SMILES IDX 94 25 5 26 7 27 21 28 22 29 23 30 24 31 25 32 89 33 26 34
REMARK SMILES IDX 88 35 27 36 28 37 29 38 82 39 30 40 87 41 81 42 83 43 31 44
REMARK SMILES IDX 86 45 80 46 79 47 32 49 66 50 45 51 65 52 46 53 49 54 64 55
REMARK SMILES IDX 84 56 47 57 48 58 63 60 85 61 50 62 33 63 34 64 43 65 35 66
REMARK SMILES IDX 36 67 42 68 44 69 37 70 38 71 39 72 40 73 41 74 67 75 68 76
REMARK SMILES IDX 77 77 69 78 70 79 76 80 78 81 71 82 72 83 73 84 74 85 75 86
REMARK SMILES IDX 51 87 52 88 61 89 53 90 54 91 60 92 62 93 55 94 56 95 57 96
REMARK SMILES IDX 58 97 59 98
REMARK H PARENT 2 23 83 48 49 59
REMARK Flexibility Score: inf
ROOT
ATOM      1  C   UNL A   1      41.061  22.822  26.178  1.00  0.00     0.275 C 
ENDROOT
BRANCH   1   2
ATOM      2  C   UNL A   1      39.697  22.629  26.860  1.00  0.00     0.274 C 
BRANCH   2   3
ATOM      3  O   UNL A   1      38.740  21.917  26.048  1.00  0.00    -0.461 OA
BRANCH   3   4
ATOM      4  C   UNL A   1      37.712  22.679  25.580  1.00  0.00     0.326 C 
ATOM      5  O   UNL A   1      37.402  23.771  26.055  1.00  0.00    -0.250 OA
BRANCH   4   6
ATOM      6  C   UNL A   1      37.070  22.156  24.297  1.00  0.00     0.248 C 
BRANCH   6   7
ATOM      7  N   UNL A   1      35.701  21.671  24.351  1.00  0.00    -0.295 N 
ATOM      8  C   UNL A   1      33.507  24.427  23.003  1.00  0.00     0.042 A 
ATOM      9  C   UNL A   1      32.276  23.774  22.942  1.00  0.00     0.018 A 
ATOM     10  C   UNL A   1      34.630  23.779  23.549  1.00  0.00     0.044 A 
ATOM     11  C   UNL A   1      32.180  22.462  23.394  1.00  0.00     0.049 A 
ATOM     12  C   UNL A   1      34.565  22.435  23.942  1.00  0.00     0.087 A 
ATOM     13  C   UNL A   1      33.311  21.800  23.886  1.00  0.00     0.143 A 
ATOM     14  O   UNL A   1      33.102  20.497  24.262  1.00  0.00    -0.482 OA
ATOM     15  C   UNL A   1      35.527  20.372  24.816  1.00  0.00     0.265 C 
ATOM     16  C   UNL A   1      34.090  20.029  25.162  1.00  0.00     0.330 C 
ATOM     17  O   UNL A   1      36.455  19.597  25.043  1.00  0.00    -0.270 OA
BRANCH   8  18
ATOM     18  C   UNL A   1      33.581  25.851  22.599  1.00  0.00     0.254 C 
ATOM     19  C   UNL A   1      31.566  29.941  25.468  1.00  0.00     0.332 C 
ATOM     20  N   UNL A   1      32.748  29.120  25.168  1.00  0.00    -0.334 N 
ATOM     21  C   UNL A   1      33.103  29.266  23.736  1.00  0.00     0.283 C 
ATOM     22  C   UNL A   1      32.489  27.716  25.551  1.00  0.00     0.283 C 
ATOM     23  H   UNL A   1      33.550  29.437  25.713  1.00  0.00     0.347 HD
ATOM     24  C   UNL A   1      34.073  28.204  23.182  1.00  0.00     0.181 C 
ATOM     25  C   UNL A   1      33.499  26.678  25.007  1.00  0.00     0.181 C 
ATOM     26  N   UNL A   1      33.707  26.842  23.569  1.00  0.00    -0.327 N 
ATOM     27  O   UNL A   1      33.578  26.078  21.392  1.00  0.00    -0.269 OA
ENDBRANCH   8  18
ENDBRANCH   6   7
ENDBRANCH   4   6
ENDBRANCH   3   4
ENDBRANCH   2   3
ENDBRANCH   1   2
BRANCH   1  28
ATOM     28  O   UNL A   1      41.807  23.936  26.706  1.00  0.00    -0.458 OA
BRANCH  28  29
ATOM     29  C   UNL A   1      41.339  25.118  26.249  1.00  0.00     0.338 C 
ATOM     30  O   UNL A   1      40.986  25.335  25.101  1.00  0.00    -0.246 OA
BRANCH  29  31
ATOM     31  C   UNL A   1      41.277  26.185  27.259  1.00  0.00     0.060 A 
ATOM     32  C   UNL A   1      42.189  27.235  27.301  1.00  0.00     0.016 A 
ATOM     33  C   UNL A   1      40.425  25.961  28.340  1.00  0.00     0.016 A 
ATOM     34  C   UNL A   1      42.283  28.016  28.462  1.00  0.00     0.010 A 
ATOM     35  C   UNL A   1      40.477  26.764  29.472  1.00  0.00     0.010 A 
ATOM     36  C   UNL A   1      41.415  27.795  29.550  1.00  0.00    -0.014 A 
BRANCH  36  37
ATOM     37  C   UNL A   1      41.302  28.760  30.670  1.00  0.00     0.031 A 
ATOM     38  C   UNL A   1      42.123  28.652  31.926  1.00  0.00     0.074 A 
ATOM     39  C   UNL A   1      40.289  29.644  30.595  1.00  0.00     0.049 A 
ATOM     40  N   UNL A   1      42.040  29.360  33.026  1.00  0.00    -0.248 NA
ATOM     41  C   UNL A   1      43.146  27.599  31.973  1.00  0.00     0.031 C 
ATOM     42  C   UNL A   1      39.348  29.744  29.474  1.00  0.00     0.029 A 
ATOM     43  N   UNL A   1      39.855  30.593  31.479  1.00  0.00    -0.354 N 
ATOM     44  C   UNL A   1      42.978  28.824  33.904  1.00  0.00     0.074 A 
ATOM     45  C   UNL A   1      43.610  27.720  33.212  1.00  0.00     0.031 C 
ATOM     46  C   UNL A   1      38.458  30.710  29.732  1.00  0.00     0.029 A 
ATOM     47  C   UNL A   1      38.747  31.275  31.043  1.00  0.00     0.049 A 
ATOM     48  H   UNL A   1      40.295  30.770  32.343  1.00  0.00     0.167 HD
ATOM     49  C   UNL A   1      43.279  29.224  35.165  1.00  0.00     0.037 A 
ATOM     50  C   UNL A   1      38.032  32.249  31.630  1.00  0.00     0.037 A 
ATOM     51  C   UNL A   1      42.655  30.348  35.825  1.00  0.00     0.049 A 
ATOM     52  C   UNL A   1      38.458  32.750  32.971  1.00  0.00     0.074 A 
ATOM     53  C   UNL A   1      42.957  30.906  37.057  1.00  0.00     0.029 A 
ATOM     54  N   UNL A   1      41.600  31.087  35.307  1.00  0.00    -0.354 N 
ATOM     55  N   UNL A   1      39.410  32.294  33.749  1.00  0.00    -0.248 NA
ATOM     56  C   UNL A   1      37.731  33.905  33.505  1.00  0.00     0.031 C 
ATOM     57  C   UNL A   1      42.071  31.964  37.293  1.00  0.00     0.029 A 
ATOM     58  C   UNL A   1      41.235  32.086  36.195  1.00  0.00     0.049 A 
ATOM     59  H   UNL A   1      41.173  30.923  34.435  1.00  0.00     0.167 HD
ATOM     60  C   UNL A   1      39.403  33.112  34.868  1.00  0.00     0.074 A 
ATOM     61  C   UNL A   1      38.363  34.102  34.656  1.00  0.00     0.031 C 
ATOM     62  C   UNL A   1      40.187  33.049  35.971  1.00  0.00     0.037 A 
BRANCH  49  63
ATOM     63  C   UNL A   1      44.337  28.467  35.926  1.00  0.00     0.058 A 
ATOM     64  C   UNL A   1      44.015  27.379  36.751  1.00  0.00     0.135 A 
ATOM     65  C   UNL A   1      45.699  28.769  35.754  1.00  0.00     0.135 A 
ATOM     66  F   UNL A   1      42.730  27.043  36.953  1.00  0.00    -0.206 F 
ATOM     67  C   UNL A   1      44.999  26.625  37.386  1.00  0.00     0.059 A 
ATOM     68  C   UNL A   1      46.701  28.017  36.363  1.00  0.00     0.059 A 
ATOM     69  F   UNL A   1      46.069  29.794  34.970  1.00  0.00    -0.206 F 
ATOM     70  C   UNL A   1      46.341  26.950  37.186  1.00  0.00     0.060 A 
BRANCH  70  71
ATOM     71  S   UNL A   1      47.612  25.937  37.977  1.00  0.00     0.124 S 
ATOM     72  O   UNL A   1      46.955  25.564  39.225  1.00  0.00    -0.237 OA
ATOM     73  O   UNL A   1      47.803  24.856  37.015  1.00  0.00    -0.237 OA
ATOM     74  O   UNL A   1      48.740  26.854  38.112  1.00  0.00    -0.744 OA
ENDBRANCH  70  71
ENDBRANCH  49  63
BRANCH  50  75
ATOM     75  C   UNL A   1      36.895  32.838  30.889  1.00  0.00     0.058 A 
ATOM     76  C   UNL A   1      35.578  32.503  31.234  1.00  0.00     0.135 A 
ATOM     77  C   UNL A   1      37.094  33.838  29.925  1.00  0.00     0.135 A 
ATOM     78  F   UNL A   1      35.348  31.560  32.161  1.00  0.00    -0.206 F 
ATOM     79  C   UNL A   1      34.493  33.145  30.655  1.00  0.00     0.059 A 
ATOM     80  C   UNL A   1      36.023  34.507  29.343  1.00  0.00     0.059 A 
ATOM     81  F   UNL A   1      38.338  34.214  29.593  1.00  0.00    -0.206 F 
ATOM     82  C   UNL A   1      34.725  34.153  29.717  1.00  0.00     0.060 A 
BRANCH  82  83
ATOM     83  S   UNL A   1      33.314  35.064  29.053  1.00  0.00     0.124 S 
ATOM     84  O   UNL A   1      33.963  36.246  28.498  1.00  0.00    -0.237 OA
ATOM     85  O   UNL A   1      32.762  34.124  28.083  1.00  0.00    -0.237 OA
ATOM     86  O   UNL A   1      32.483  35.291  30.232  1.00  0.00    -0.744 OA
ENDBRANCH  82  83
ENDBRANCH  50  75
BRANCH  62  87
ATOM     87  C   UNL A   1      39.941  34.089  37.023  1.00  0.00     0.058 A 
ATOM     88  C   UNL A   1      39.163  33.807  38.156  1.00  0.00     0.135 A 
ATOM     89  C   UNL A   1      40.475  35.379  36.890  1.00  0.00     0.135 A 
ATOM     90  F   UNL A   1      38.624  32.589  38.320  1.00  0.00    -0.206 F 
ATOM     91  C   UNL A   1      38.896  34.782  39.110  1.00  0.00     0.059 A 
ATOM     92  C   UNL A   1      40.233  36.365  37.840  1.00  0.00     0.059 A 
ATOM     93  F   UNL A   1      41.227  35.694  35.823  1.00  0.00    -0.206 F 
ATOM     94  C   UNL A   1      39.427  36.062  38.937  1.00  0.00     0.060 A 
BRANCH  94  95
ATOM     95  S   UNL A   1      39.068  37.328  40.173  1.00  0.00     0.124 S 
ATOM     96  O   UNL A   1      40.412  37.738  40.568  1.00  0.00    -0.237 OA
ATOM     97  O   UNL A   1      38.306  38.311  39.409  1.00  0.00    -0.237 OA
ATOM     98  O   UNL A   1      38.307  36.604  41.185  1.00  0.00    -0.744 OA
ENDBRANCH  94  95
ENDBRANCH  62  87
ENDBRANCH  36  37
ENDBRANCH  29  31
ENDBRANCH  28  29
ENDBRANCH   1  28
TORSDOF 16
ENDMDL
MODEL 2
REMARK VINA RESULT:     -12.0      6.556     11.951
REMARK SMILES C[NH+]1CCN(C(=O)c2ccc3c(c2)N(CC(=O)OCCOC(=O)c2ccc(-c4c5nc(c(-c6c(F)cc(S(=O)(=O)[O-])cc6F)c6ccc([nH]6)c(-c6c(F)cc(S(=O)(=O)[O-])cc6F)c6nc(c(-c7c(F)cc(S(=O)(=O)[O-])cc7F)c7ccc4[nH]7)C=C6)C=C5)cc2)C(=O)CO3)CC1
REMARK SMILES IDX 20 1 19 2 18 3 16 4 17 5 15 6 14 7 8 8 9 9 13 10 10 11 12 12
REMARK SMILES IDX 11 13 93 14 90 15 92 16 91 17 6 18 1 19 2 20 3 21 95 22 4 24
REMARK SMILES IDX 94 25 5 26 7 27 21 28 22 29 23 30 24 31 25 32 89 33 26 34
REMARK SMILES IDX 88 35 27 36 28 37 29 38 82 39 30 40 87 41 81 42 83 43 31 44
REMARK SMILES IDX 86 45 80 46 79 47 32 49 66 50 45 51 65 52 46 53 49 54 64 55
REMARK SMILES IDX 84 56 47 57 48 58 63 60 85 61 50 62 33 63 34 64 43 65 35 66
REMARK SMILES IDX 36 67 42 68 44 69 37 70 38 71 39 72 40 73 41 74 67 75 68 76
REMARK SMILES IDX 77 77 69 78 70 79 76 80 78 81 71 82 72 83 73 84 74 85 75 86
REMARK SMILES IDX 51 87 52 88 61 89 53 90 54 91 60 92 62 93 55 94 56 95 57 96
REMARK SMILES IDX 58 97 59 98
REMARK H PARENT 2 23 83 48 49 59
REMARK Flexibility Score: inf
ROOT
ATOM      1  C   UNL A   1      34.400  30.846  28.159  1.00  0.00     0.275 C 
ENDROOT
BRANCH   1   2
ATOM      2  C   UNL A   1      33.253  30.156  27.403  1.00  0.00     0.274 C 
BRANCH   2   3
ATOM      3  O   UNL A   1      33.442  30.119  25.973  1.00  0.00    -0.461 OA
BRANCH   3   4
ATOM      4  C   UNL A   1      33.602  28.870  25.453  1.00  0.00     0.326 C 
ATOM      5  O   UNL A   1      34.002  27.905  26.104  1.00  0.00    -0.250 OA
BRANCH   4   6
ATOM      6  C   UNL A   1      33.079  28.707  24.027  1.00  0.00     0.248 C 
BRANCH   6   7
ATOM      7  N   UNL A   1      31.857  27.950  23.815  1.00  0.00    -0.295 N 
ATOM      8  C   UNL A   1      32.866  24.344  23.360  1.00  0.00     0.042 A 
ATOM      9  C   UNL A   1      31.617  23.723  23.350  1.00  0.00     0.018 A 
ATOM     10  C   UNL A   1      32.963  25.747  23.421  1.00  0.00     0.044 A 
ATOM     11  C   UNL A   1      30.469  24.504  23.439  1.00  0.00     0.049 A 
ATOM     12  C   UNL A   1      31.819  26.540  23.584  1.00  0.00     0.087 A 
ATOM     13  C   UNL A   1      30.569  25.895  23.556  1.00  0.00     0.143 A 
ATOM     14  O   UNL A   1      29.372  26.554  23.680  1.00  0.00    -0.482 OA
ATOM     15  C   UNL A   1      30.669  28.671  23.867  1.00  0.00     0.265 C 
ATOM     16  C   UNL A   1      29.468  27.921  23.324  1.00  0.00     0.330 C 
ATOM     17  O   UNL A   1      30.601  29.851  24.211  1.00  0.00    -0.270 OA
BRANCH   8  18
ATOM     18  C   UNL A   1      34.079  23.512  23.179  1.00  0.00     0.254 C 
ATOM     19  C   UNL A   1      38.371  23.636  26.431  1.00  0.00     0.332 C 
ATOM     20  N   UNL A   1      37.089  22.988  26.119  1.00  0.00    -0.334 N 
ATOM     21  C   UNL A   1      37.150  22.396  24.761  1.00  0.00     0.283 C 
ATOM     22  C   UNL A   1      35.989  23.965  26.266  1.00  0.00     0.283 C 
ATOM     23  H   UNL A   1      36.905  22.228  26.774  1.00  0.00     0.347 HD
ATOM     24  C   UNL A   1      35.791  22.011  24.144  1.00  0.00     0.181 C 
ATOM     25  C   UNL A   1      34.630  23.535  25.666  1.00  0.00     0.181 C 
ATOM     26  N   UNL A   1      34.782  23.060  24.292  1.00  0.00    -0.327 N 
ATOM     27  O   UNL A   1      34.374  23.220  22.023  1.00  0.00    -0.269 OA
ENDBRANCH   8  18
ENDBRANCH   6   7
ENDBRANCH   4   6
ENDBRANCH   3   4
ENDBRANCH   2   3
ENDBRANCH   1   2
BRANCH   1  28
ATOM     28  O   UNL A   1      35.290  29.918  28.810  1.00  0.00    -0.458 OA
BRANCH  28  29
ATOM     29  C   UNL A   1      36.214  30.551  29.564  1.00  0.00     0.338 C 
ATOM     30  O   UNL A   1      35.965  31.309  30.488  1.00  0.00    -0.246 OA
BRANCH  29  31
ATOM     31  C   UNL A   1      37.608  30.266  29.194  1.00  0.00     0.060 A 
ATOM     32  C   UNL A   1      37.985  29.905  27.904  1.00  0.00     0.016 A 
ATOM     33  C   UNL A   1      38.507  30.111  30.249  1.00  0.00     0.016 A 
ATOM     34  C   UNL A   1      39.245  29.327  27.694  1.00  0.00     0.010 A 
ATOM     35  C   UNL A   1      39.776  29.588  30.038  1.00  0.00     0.010 A 
ATOM     36  C   UNL A   1      40.157  29.180  28.759  1.00  0.00    -0.014 A 
BRANCH  36  37
ATOM     37  C   UNL A   1      41.579  28.829  28.530  1.00  0.00     0.031 A 
ATOM     38  C   UNL A   1      42.673  29.861  28.470  1.00  0.00     0.074 A 
ATOM     39  C   UNL A   1      41.830  27.552  28.190  1.00  0.00     0.049 A 
ATOM     40  N   UNL A   1      43.937  29.701  28.163  1.00  0.00    -0.248 NA
ATOM     41  C   UNL A   1      42.303  31.252  28.760  1.00  0.00     0.031 C 
ATOM     42  C   UNL A   1      40.815  26.498  28.089  1.00  0.00     0.029 A 
ATOM     43  N   UNL A   1      42.994  26.928  27.831  1.00  0.00    -0.354 N 
ATOM     44  C   UNL A   1      44.508  30.970  28.195  1.00  0.00     0.074 A 
ATOM     45  C   UNL A   1      43.447  31.893  28.539  1.00  0.00     0.031 C 
ATOM     46  C   UNL A   1      41.402  25.356  27.709  1.00  0.00     0.029 A 
ATOM     47  C   UNL A   1      42.824  25.604  27.513  1.00  0.00     0.049 A 
ATOM     48  H   UNL A   1      43.867  27.384  27.805  1.00  0.00     0.167 HD
ATOM     49  C   UNL A   1      45.798  31.322  27.962  1.00  0.00     0.037 A 
ATOM     50  C   UNL A   1      43.711  24.682  27.104  1.00  0.00     0.037 A 
ATOM     51  C   UNL A   1      46.847  30.379  27.650  1.00  0.00     0.049 A 
ATOM     52  C   UNL A   1      45.147  25.071  26.967  1.00  0.00     0.074 A 
ATOM     53  C   UNL A   1      48.204  30.612  27.500  1.00  0.00     0.029 A 
ATOM     54  N   UNL A   1      46.655  29.020  27.437  1.00  0.00    -0.354 N 
ATOM     55  N   UNL A   1      45.687  26.259  27.095  1.00  0.00    -0.248 NA
ATOM     56  C   UNL A   1      46.094  23.997  26.654  1.00  0.00     0.031 C 
ATOM     57  C   UNL A   1      48.828  29.402  27.174  1.00  0.00     0.029 A 
ATOM     58  C   UNL A   1      47.864  28.407  27.150  1.00  0.00     0.049 A 
ATOM     59  H   UNL A   1      45.786  28.561  27.483  1.00  0.00     0.167 HD
ATOM     60  C   UNL A   1      47.045  26.077  26.883  1.00  0.00     0.074 A 
ATOM     61  C   UNL A   1      47.244  24.661  26.637  1.00  0.00     0.031 C 
ATOM     62  C   UNL A   1      48.037  27.000  26.892  1.00  0.00     0.037 A 
BRANCH  49  63
ATOM     63  C   UNL A   1      46.172  32.779  28.048  1.00  0.00     0.058 A 
ATOM     64  C   UNL A   1      46.679  33.341  29.230  1.00  0.00     0.135 A 
ATOM     65  C   UNL A   1      46.116  33.603  26.911  1.00  0.00     0.135 A 
ATOM     66  F   UNL A   1      46.757  32.602  30.349  1.00  0.00    -0.206 F 
ATOM     67  C   UNL A   1      47.106  34.665  29.286  1.00  0.00     0.059 A 
ATOM     68  C   UNL A   1      46.556  34.925  26.938  1.00  0.00     0.059 A 
ATOM     69  F   UNL A   1      45.647  33.119  25.749  1.00  0.00    -0.206 F 
ATOM     70  C   UNL A   1      47.042  35.451  28.134  1.00  0.00     0.060 A 
BRANCH  70  71
ATOM     71  S   UNL A   1      47.642  37.155  28.205  1.00  0.00     0.124 S 
ATOM     72  O   UNL A   1      47.699  37.386  29.645  1.00  0.00    -0.237 OA
ATOM     73  O   UNL A   1      48.932  37.067  27.528  1.00  0.00    -0.237 OA
ATOM     74  O   UNL A   1      46.615  37.906  27.490  1.00  0.00    -0.744 OA
ENDBRANCH  70  71
ENDBRANCH  49  63
BRANCH  50  75
ATOM     75  C   UNL A   1      43.240  23.298  26.876  1.00  0.00     0.058 A 
ATOM     76  C   UNL A   1      43.184  22.776  25.576  1.00  0.00     0.135 A 
ATOM     77  C   UNL A   1      42.972  22.434  27.949  1.00  0.00     0.135 A 
ATOM     78  F   UNL A   1      43.447  23.568  24.525  1.00  0.00    -0.206 F 
ATOM     79  C   UNL A   1      42.884  21.441  25.345  1.00  0.00     0.059 A 
ATOM     80  C   UNL A   1      42.686  21.090  27.743  1.00  0.00     0.059 A 
ATOM     81  F   UNL A   1      43.051  22.885  29.211  1.00  0.00    -0.206 F 
ATOM     82  C   UNL A   1      42.646  20.602  26.436  1.00  0.00     0.060 A 
BRANCH  82  83
ATOM     83  S   UNL A   1      42.371  18.843  26.135  1.00  0.00     0.124 S 
ATOM     84  O   UNL A   1      40.966  18.829  25.743  1.00  0.00    -0.237 OA
ATOM     85  O   UNL A   1      43.332  18.553  25.075  1.00  0.00    -0.237 OA
ATOM     86  O   UNL A   1      42.676  18.234  27.426  1.00  0.00    -0.744 OA
ENDBRANCH  82  83
ENDBRANCH  50  75
BRANCH  62  87
ATOM     87  C   UNL A   1      49.422  26.490  26.630  1.00  0.00     0.058 A 
ATOM     88  C   UNL A   1      50.244  26.046  27.677  1.00  0.00     0.135 A 
ATOM     89  C   UNL A   1      49.936  26.458  25.325  1.00  0.00     0.135 A 
ATOM     90  F   UNL A   1      49.798  26.068  28.942  1.00  0.00    -0.206 F 
ATOM     91  C   UNL A   1      51.545  25.615  27.442  1.00  0.00     0.059 A 
ATOM     92  C   UNL A   1      51.229  26.016  25.065  1.00  0.00     0.059 A 
ATOM     93  F   UNL A   1      49.185  26.872  24.291  1.00  0.00    -0.206 F 
ATOM     94  C   UNL A   1      52.031  25.614  26.133  1.00  0.00     0.060 A 
BRANCH  94  95
ATOM     95  S   UNL A   1      53.725  25.064  25.834  1.00  0.00     0.124 S 
ATOM     96  O   UNL A   1      53.510  23.695  25.378  1.00  0.00    -0.237 OA
ATOM     97  O   UNL A   1      54.189  26.005  24.819  1.00  0.00    -0.237 OA
ATOM     98  O   UNL A   1      54.358  25.200  27.142  1.00  0.00    -0.744 OA
ENDBRANCH  94  95
ENDBRANCH  62  87
ENDBRANCH  36  37
ENDBRANCH  29  31
ENDBRANCH  28  29
ENDBRANCH   1  28
TORSDOF 16
ENDMDL
MODEL 3
REMARK VINA RESULT:     -11.9      1.318      1.985
REMARK SMILES C[NH+]1CCN(C(=O)c2ccc3c(c2)N(CC(=O)OCCOC(=O)c2ccc(-c4c5nc(c(-c6c(F)cc(S(=O)(=O)[O-])cc6F)c6ccc([nH]6)c(-c6c(F)cc(S(=O)(=O)[O-])cc6F)c6nc(c(-c7c(F)cc(S(=O)(=O)[O-])cc7F)c7ccc4[nH]7)C=C6)C=C5)cc2)C(=O)CO3)CC1
REMARK SMILES IDX 20 1 19 2 18 3 16 4 17 5 15 6 14 7 8 8 9 9 13 10 10 11 12 12
REMARK SMILES IDX 11 13 93 14 90 15 92 16 91 17 6 18 1 19 2 20 3 21 95 22 4 24
REMARK SMILES IDX 94 25 5 26 7 27 21 28 22 29 23 30 24 31 25 32 89 33 26 34
REMARK SMILES IDX 88 35 27 36 28 37 29 38 82 39 30 40 87 41 81 42 83 43 31 44
REMARK SMILES IDX 86 45 80 46 79 47 32 49 66 50 45 51 65 52 46 53 49 54 64 55
REMARK SMILES IDX 84 56 47 57 48 58 63 60 85 61 50 62 33 63 34 64 43 65 35 66
REMARK SMILES IDX 36 67 42 68 44 69 37 70 38 71 39 72 40 73 41 74 67 75 68 76
REMARK SMILES IDX 77 77 69 78 70 79 76 80 78 81 71 82 72 83 73 84 74 85 75 86
REMARK SMILES IDX 51 87 52 88 61 89 53 90 54 91 60 92 62 93 55 94 56 95 57 96
REMARK SMILES IDX 58 97 59 98
REMARK H PARENT 2 23 83 48 49 59
REMARK Flexibility Score: inf
ROOT
ATOM      1  C   UNL A   1      39.402  23.176  26.968  1.00  0.00     0.275 C 
ENDROOT
BRANCH   1   2
ATOM      2  C   UNL A   1      38.525  22.951  25.725  1.00  0.00     0.274 C 
BRANCH   2   3
ATOM      3  O   UNL A   1      37.290  22.260  26.007  1.00  0.00    -0.461 OA
BRANCH   3   4
ATOM      4  C   UNL A   1      36.185  23.057  26.027  1.00  0.00     0.326 C 
ATOM      5  O   UNL A   1      36.176  24.220  25.628  1.00  0.00    -0.250 OA
BRANCH   4   6
ATOM      6  C   UNL A   1      34.896  22.341  26.427  1.00  0.00     0.248 C 
BRANCH   6   7
ATOM      7  N   UNL A   1      33.908  22.059  25.400  1.00  0.00    -0.295 N 
ATOM      8  C   UNL A   1      31.588  25.031  25.267  1.00  0.00     0.042 A 
ATOM      9  C   UNL A   1      30.823  24.714  24.144  1.00  0.00     0.018 A 
ATOM     10  C   UNL A   1      32.550  24.125  25.751  1.00  0.00     0.044 A 
ATOM     11  C   UNL A   1      31.048  23.508  23.487  1.00  0.00     0.049 A 
ATOM     12  C   UNL A   1      32.837  22.941  25.058  1.00  0.00     0.087 A 
ATOM     13  C   UNL A   1      32.043  22.633  23.937  1.00  0.00     0.143 A 
ATOM     14  O   UNL A   1      32.201  21.497  23.184  1.00  0.00    -0.482 OA
ATOM     15  C   UNL A   1      34.056  20.858  24.716  1.00  0.00     0.265 C 
ATOM     16  C   UNL A   1      32.841  20.458  23.901  1.00  0.00     0.330 C 
ATOM     17  O   UNL A   1      35.031  20.116  24.840  1.00  0.00    -0.270 OA
BRANCH   8  18
ATOM     18  C   UNL A   1      31.284  26.276  26.010  1.00  0.00     0.254 C 
ATOM     19  C   UNL A   1      34.952  29.974  27.386  1.00  0.00     0.332 C 
ATOM     20  N   UNL A   1      33.951  29.550  26.396  1.00  0.00    -0.334 N 
ATOM     21  C   UNL A   1      32.614  29.495  27.034  1.00  0.00     0.283 C 
ATOM     22  C   UNL A   1      34.354  28.256  25.804  1.00  0.00     0.283 C 
ATOM     23  H   UNL A   1      33.896  30.225  25.633  1.00  0.00     0.347 HD
ATOM     24  C   UNL A   1      31.535  28.725  26.247  1.00  0.00     0.181 C 
ATOM     25  C   UNL A   1      33.259  27.524  24.993  1.00  0.00     0.181 C 
ATOM     26  N   UNL A   1      32.009  27.435  25.747  1.00  0.00    -0.327 N 
ATOM     27  O   UNL A   1      30.349  26.225  26.804  1.00  0.00    -0.269 OA
ENDBRANCH   8  18
ENDBRANCH   6   7
ENDBRANCH   4   6
ENDBRANCH   3   4
ENDBRANCH   2   3
ENDBRANCH   1   2
BRANCH   1  28
ATOM     28  O   UNL A   1      40.723  23.655  26.651  1.00  0.00    -0.458 OA
BRANCH  28  29
ATOM     29  C   UNL A   1      40.731  24.980  26.393  1.00  0.00     0.338 C 
ATOM     30  O   UNL A   1      40.772  25.477  25.280  1.00  0.00    -0.246 OA
BRANCH  29  31
ATOM     31  C   UNL A   1      40.685  25.838  27.587  1.00  0.00     0.060 A 
ATOM     32  C   UNL A   1      39.667  25.758  28.532  1.00  0.00     0.016 A 
ATOM     33  C   UNL A   1      41.563  26.921  27.602  1.00  0.00     0.016 A 
ATOM     34  C   UNL A   1      39.497  26.807  29.448  1.00  0.00     0.010 A 
ATOM     35  C   UNL A   1      41.432  27.937  28.540  1.00  0.00     0.010 A 
ATOM     36  C   UNL A   1      40.390  27.897  29.468  1.00  0.00    -0.014 A 
BRANCH  36  37
ATOM     37  C   UNL A   1      40.407  28.876  30.581  1.00  0.00     0.031 A 
ATOM     38  C   UNL A   1      41.259  28.700  31.809  1.00  0.00     0.074 A 
ATOM     39  C   UNL A   1      39.478  29.849  30.532  1.00  0.00     0.049 A 
ATOM     40  N   UNL A   1      41.280  29.420  32.904  1.00  0.00    -0.248 NA
ATOM     41  C   UNL A   1      42.181  27.557  31.830  1.00  0.00     0.031 C 
ATOM     42  C   UNL A   1      38.511  30.029  29.443  1.00  0.00     0.029 A 
ATOM     43  N   UNL A   1      39.165  30.840  31.421  1.00  0.00    -0.354 N 
ATOM     44  C   UNL A   1      42.194  28.806  33.754  1.00  0.00     0.074 A 
ATOM     45  C   UNL A   1      42.697  27.643  33.052  1.00  0.00     0.031 C 
ATOM     46  C   UNL A   1      37.724  31.075  29.722  1.00  0.00     0.029 A 
ATOM     47  C   UNL A   1      38.110  31.619  31.017  1.00  0.00     0.049 A 
ATOM     48  H   UNL A   1      39.650  30.981  32.267  1.00  0.00     0.167 HD
ATOM     49  C   UNL A   1      42.576  29.184  35.000  1.00  0.00     0.037 A 
ATOM     50  C   UNL A   1      37.510  32.659  31.618  1.00  0.00     0.037 A 
ATOM     51  C   UNL A   1      42.082  30.366  35.670  1.00  0.00     0.049 A 
ATOM     52  C   UNL A   1      38.027  33.127  32.939  1.00  0.00     0.074 A 
ATOM     53  C   UNL A   1      42.478  30.901  36.885  1.00  0.00     0.029 A 
ATOM     54  N   UNL A   1      41.082  31.196  35.181  1.00  0.00    -0.354 N 
ATOM     55  N   UNL A   1      38.960  32.590  33.688  1.00  0.00    -0.248 NA
ATOM     56  C   UNL A   1      37.429  34.349  33.487  1.00  0.00     0.031 C 
ATOM     57  C   UNL A   1      41.702  32.038  37.141  1.00  0.00     0.029 A 
ATOM     58  C   UNL A   1      40.843  32.231  36.072  1.00  0.00     0.049 A 
ATOM     59  H   UNL A   1      40.612  31.067  34.326  1.00  0.00     0.167 HD
ATOM     60  C   UNL A   1      39.068  33.413  34.799  1.00  0.00     0.074 A 
ATOM     61  C   UNL A   1      38.117  34.494  34.612  1.00  0.00     0.031 C 
ATOM     62  C   UNL A   1      39.882  33.285  35.874  1.00  0.00     0.037 A 
BRANCH  49  63
ATOM     63  C   UNL A   1      43.586  28.338  35.732  1.00  0.00     0.058 A 
ATOM     64  C   UNL A   1      44.965  28.561  35.603  1.00  0.00     0.135 A 
ATOM     65  C   UNL A   1      43.171  27.356  36.648  1.00  0.00     0.135 A 
ATOM     66  F   UNL A   1      45.421  29.487  34.744  1.00  0.00    -0.206 F 
ATOM     67  C   UNL A   1      45.896  27.838  36.344  1.00  0.00     0.059 A 
ATOM     68  C   UNL A   1      44.083  26.634  37.414  1.00  0.00     0.059 A 
ATOM     69  F   UNL A   1      41.863  27.103  36.820  1.00  0.00    -0.206 F 
ATOM     70  C   UNL A   1      45.446  26.875  37.250  1.00  0.00     0.060 A 
BRANCH  70  71
ATOM     71  S   UNL A   1      46.660  25.974  38.240  1.00  0.00     0.124 S 
ATOM     72  O   UNL A   1      47.216  25.052  37.256  1.00  0.00    -0.237 OA
ATOM     73  O   UNL A   1      47.556  27.035  38.689  1.00  0.00    -0.237 OA
ATOM     74  O   UNL A   1      45.851  25.359  39.289  1.00  0.00    -0.744 OA
ENDBRANCH  70  71
ENDBRANCH  49  63
BRANCH  50  75
ATOM     75  C   UNL A   1      36.406  33.346  30.911  1.00  0.00     0.058 A 
ATOM     76  C   UNL A   1      35.105  33.312  31.431  1.00  0.00     0.135 A 
ATOM     77  C   UNL A   1      36.651  34.155  29.791  1.00  0.00     0.135 A 
ATOM     78  F   UNL A   1      34.835  32.560  32.509  1.00  0.00    -0.206 F 
ATOM     79  C   UNL A   1      34.082  34.062  30.870  1.00  0.00     0.059 A 
ATOM     80  C   UNL A   1      35.646  34.928  29.222  1.00  0.00     0.059 A 
ATOM     81  F   UNL A   1      37.891  34.244  29.285  1.00  0.00    -0.206 F 
ATOM     82  C   UNL A   1      34.364  34.876  29.770  1.00  0.00     0.060 A 
BRANCH  82  83
ATOM     83  S   UNL A   1      33.057  35.937  29.117  1.00  0.00     0.124 S 
ATOM     84  O   UNL A   1      32.364  36.332  30.339  1.00  0.00    -0.237 OA
ATOM     85  O   UNL A   1      33.814  36.987  28.444  1.00  0.00    -0.237 OA
ATOM     86  O   UNL A   1      32.318  35.045  28.229  1.00  0.00    -0.744 OA
ENDBRANCH  82  83
ENDBRANCH  50  75
BRANCH  62  87
ATOM     87  C   UNL A   1      39.770  34.350  36.923  1.00  0.00     0.058 A 
ATOM     88  C   UNL A   1      38.911  34.201  38.023  1.00  0.00     0.135 A 
ATOM     89  C   UNL A   1      40.517  35.533  36.822  1.00  0.00     0.135 A 
ATOM     90  F   UNL A   1      38.169  33.090  38.155  1.00  0.00    -0.206 F 
ATOM     91  C   UNL A   1      38.771  35.207  38.973  1.00  0.00     0.059 A 
ATOM     92  C   UNL A   1      40.405  36.545  37.769  1.00  0.00     0.059 A 
ATOM     93  F   UNL A   1      41.354  35.719  35.788  1.00  0.00    -0.206 F 
ATOM     94  C   UNL A   1      39.515  36.379  38.832  1.00  0.00     0.060 A 
BRANCH  94  95
ATOM     95  S   UNL A   1      39.323  37.687  40.062  1.00  0.00     0.124 S 
ATOM     96  O   UNL A   1      38.188  38.428  39.523  1.00  0.00    -0.237 OA
ATOM     97  O   UNL A   1      39.065  36.935  41.286  1.00  0.00    -0.237 OA
ATOM     98  O   UNL A   1      40.606  38.380  40.018  1.00  0.00    -0.744 OA
ENDBRANCH  94  95
ENDBRANCH  62  87
ENDBRANCH  36  37
ENDBRANCH  29  31
ENDBRANCH  28  29
ENDBRANCH   1  28
TORSDOF 16
ENDMDL
