MODEL 1
REMARK VINA RESULT:     -11.4      0.000      0.000
REMARK SMILES Cn1cnnc1CCNC(=O)NCc1ccc(C(=O)OCCOC(=O)c2ccc(-c3c4nc(c(-c5c(F)cc(S(=O)(=O)[O-])cc5F)c5ccc([nH]5)c(-c5c(F)cc(S(=O)(=O)[O-])cc5F)c5nc(c(-c6c(F)cc(S(=O)(=O)[O-])cc6F)c6ccc3[nH]6)C=C5)C=C4)cc2)o1
REMARK SMILES IDX 21 1 20 2 18 3 19 4 17 5 14 6 15 7 92 8 16 9 13 10 12 11
REMARK SMILES IDX 9 12 10 13 11 15 8 17 7 18 6 19 1 20 2 21 3 22 4 23 5 24
REMARK SMILES IDX 22 25 23 26 24 27 25 28 26 29 27 30 91 31 28 32 90 33 29 34
REMARK SMILES IDX 30 35 31 36 84 37 32 38 89 39 83 40 85 41 33 42 88 43 82 44
REMARK SMILES IDX 81 45 34 47 68 48 47 49 67 50 48 51 51 52 66 53 86 54 49 55
REMARK SMILES IDX 50 56 65 58 87 59 52 60 35 61 36 62 45 63 37 64 38 65 44 66
REMARK SMILES IDX 46 67 39 68 40 69 41 70 42 71 43 72 69 73 70 74 79 75 71 76
REMARK SMILES IDX 72 77 78 78 80 79 73 80 74 81 75 82 76 83 77 84 53 85 54 86
REMARK SMILES IDX 63 87 55 88 56 89 62 90 64 91 57 92 58 93 59 94 60 95 61 96
REMARK H PARENT 9 14 12 16 85 46 51 57
REMARK Flexibility Score: inf
ROOT
ATOM      1  C   UNL A   1      38.680  21.635  25.902  1.00  0.00     0.275 C 
ENDROOT
BRANCH   1   2
ATOM      2  O   UNL A   1      37.833  22.452  25.073  1.00  0.00    -0.456 OA
BRANCH   2   3
ATOM      3  C   UNL A   1      36.527  22.059  24.985  1.00  0.00     0.374 C 
ATOM      4  O   UNL A   1      36.152  20.893  25.032  1.00  0.00    -0.242 OA
BRANCH   3   5
ATOM      5  C   UNL A   1      35.665  23.217  24.938  1.00  0.00     0.211 A 
ATOM      6  C   UNL A   1      33.842  24.268  24.265  1.00  0.00     0.124 A 
ATOM      7  C   UNL A   1      34.351  25.004  25.316  1.00  0.00     0.048 A 
ATOM      8  O   UNL A   1      34.690  23.241  23.975  1.00  0.00    -0.452 OA
ATOM      9  C   UNL A   1      35.519  24.326  25.751  1.00  0.00     0.058 A 
BRANCH   6  10
ATOM     10  C   UNL A   1      32.568  24.297  23.496  1.00  0.00     0.193 C 
BRANCH  10  11
ATOM     11  N   UNL A   1      32.864  24.690  22.136  1.00  0.00    -0.331 N 
ATOM     12  N   UNL A   1      32.183  26.936  21.878  1.00  0.00    -0.338 N 
ATOM     13  C   UNL A   1      32.712  25.800  21.413  1.00  0.00     0.315 C 
ATOM     14  H   UNL A   1      32.162  27.648  21.199  1.00  0.00     0.165 HD
ATOM     15  O   UNL A   1      33.075  25.771  20.237  1.00  0.00    -0.249 OA
ATOM     16  H   UNL A   1      33.279  23.962  21.619  1.00  0.00     0.165 HD
BRANCH  12  17
ATOM     17  C   UNL A   1      31.631  27.362  23.147  1.00  0.00     0.126 C 
BRANCH  17  18
ATOM     18  C   UNL A   1      30.101  27.332  23.151  1.00  0.00     0.099 C 
BRANCH  18  19
ATOM     19  C   UNL A   1      29.551  28.570  22.521  1.00  0.00     0.134 A 
ATOM     20  C   UNL A   1      27.138  28.459  23.307  1.00  0.00     0.152 C 
ATOM     21  N   UNL A   1      28.258  29.018  22.603  1.00  0.00    -0.321 N 
ATOM     22  C   UNL A   1      28.194  30.136  21.825  1.00  0.00     0.225 A 
ATOM     23  N   UNL A   1      29.368  30.367  21.292  1.00  0.00    -0.139 NA
ATOM     24  N   UNL A   1      30.222  29.386  21.730  1.00  0.00    -0.136 NA
ENDBRANCH  18  19
ENDBRANCH  17  18
ENDBRANCH  12  17
ENDBRANCH  10  11
ENDBRANCH   6  10
ENDBRANCH   3   5
ENDBRANCH   2   3
ENDBRANCH   1   2
BRANCH   1  25
ATOM     25  C   UNL A   1      39.937  22.399  26.337  1.00  0.00     0.275 C 
BRANCH  25  26
ATOM     26  O   UNL A   1      39.630  23.710  26.851  1.00  0.00    -0.458 OA
BRANCH  26  27
ATOM     27  C   UNL A   1      40.569  24.658  26.613  1.00  0.00     0.338 C 
ATOM     28  O   UNL A   1      41.224  24.790  25.592  1.00  0.00    -0.246 OA
BRANCH  27  29
ATOM     29  C   UNL A   1      40.608  25.625  27.727  1.00  0.00     0.060 A 
ATOM     30  C   UNL A   1      39.475  25.720  28.537  1.00  0.00     0.016 A 
ATOM     31  C   UNL A   1      41.699  26.469  27.945  1.00  0.00     0.016 A 
ATOM     32  C   UNL A   1      39.424  26.645  29.576  1.00  0.00     0.010 A 
ATOM     33  C   UNL A   1      41.644  27.409  28.984  1.00  0.00     0.010 A 
ATOM     34  C   UNL A   1      40.504  27.505  29.801  1.00  0.00    -0.014 A 
BRANCH  34  35
ATOM     35  C   UNL A   1      40.403  28.525  30.873  1.00  0.00     0.031 A 
ATOM     36  C   UNL A   1      41.346  28.482  32.042  1.00  0.00     0.074 A 
ATOM     37  C   UNL A   1      39.506  29.524  30.765  1.00  0.00     0.049 A 
ATOM     38  N   UNL A   1      41.402  29.270  33.085  1.00  0.00    -0.248 NA
ATOM     39  C   UNL A   1      42.358  27.415  32.033  1.00  0.00     0.031 C 
ATOM     40  C   UNL A   1      38.570  29.698  29.654  1.00  0.00     0.029 A 
ATOM     41  N   UNL A   1      39.242  30.582  31.596  1.00  0.00    -0.354 N 
ATOM     42  C   UNL A   1      42.446  28.789  33.865  1.00  0.00     0.074 A 
ATOM     43  C   UNL A   1      42.987  27.633  33.180  1.00  0.00     0.031 C 
ATOM     44  C   UNL A   1      37.840  30.806  29.868  1.00  0.00     0.029 A 
ATOM     45  C   UNL A   1      38.233  31.399  31.145  1.00  0.00     0.049 A 
ATOM     46  H   UNL A   1      39.728  30.742  32.437  1.00  0.00     0.167 HD
ATOM     47  C   UNL A   1      42.912  29.268  35.044  1.00  0.00     0.037 A 
ATOM     48  C   UNL A   1      37.679  32.493  31.703  1.00  0.00     0.037 A 
ATOM     49  C   UNL A   1      42.385  30.427  35.717  1.00  0.00     0.049 A 
ATOM     50  C   UNL A   1      38.188  32.984  33.030  1.00  0.00     0.074 A 
ATOM     51  C   UNL A   1      42.789  30.987  36.916  1.00  0.00     0.029 A 
ATOM     52  N   UNL A   1      41.342  31.209  35.243  1.00  0.00    -0.354 N 
ATOM     53  N   UNL A   1      39.161  32.504  33.767  1.00  0.00    -0.248 NA
ATOM     54  C   UNL A   1      37.522  34.162  33.604  1.00  0.00     0.031 C 
ATOM     55  C   UNL A   1      41.974  32.093  37.181  1.00  0.00     0.029 A 
ATOM     56  C   UNL A   1      41.079  32.239  36.133  1.00  0.00     0.049 A 
ATOM     57  H   UNL A   1      40.858  31.055  34.400  1.00  0.00     0.167 HD
ATOM     58  C   UNL A   1      39.229  33.324  34.888  1.00  0.00     0.074 A 
ATOM     59  C   UNL A   1      38.209  34.340  34.724  1.00  0.00     0.031 C 
ATOM     60  C   UNL A   1      40.059  33.241  35.956  1.00  0.00     0.037 A 
BRANCH  47  61
ATOM     61  C   UNL A   1      44.033  28.513  35.698  1.00  0.00     0.058 A 
ATOM     62  C   UNL A   1      45.376  28.870  35.501  1.00  0.00     0.135 A 
ATOM     63  C   UNL A   1      43.758  27.424  36.540  1.00  0.00     0.135 A 
ATOM     64  F   UNL A   1      45.690  29.895  34.694  1.00  0.00    -0.206 F 
ATOM     65  C   UNL A   1      46.411  28.157  36.099  1.00  0.00     0.059 A 
ATOM     66  C   UNL A   1      44.777  26.709  37.162  1.00  0.00     0.059 A 
ATOM     67  F   UNL A   1      42.490  27.042  36.758  1.00  0.00    -0.206 F 
ATOM     68  C   UNL A   1      46.101  27.072  36.922  1.00  0.00     0.060 A 
BRANCH  68  69
ATOM     69  S   UNL A   1      47.447  26.143  37.689  1.00  0.00     0.124 S 
ATOM     70  O   UNL A   1      48.281  27.219  38.214  1.00  0.00    -0.237 OA
ATOM     71  O   UNL A   1      46.750  25.336  38.686  1.00  0.00    -0.237 OA
ATOM     72  O   UNL A   1      48.016  25.394  36.573  1.00  0.00    -0.744 OA
ENDBRANCH  68  69
ENDBRANCH  47  61
BRANCH  48  73
ATOM     73  C   UNL A   1      36.567  33.191  31.010  1.00  0.00     0.058 A 
ATOM     74  C   UNL A   1      35.254  33.121  31.497  1.00  0.00     0.135 A 
ATOM     75  C   UNL A   1      36.799  33.955  29.857  1.00  0.00     0.135 A 
ATOM     76  F   UNL A   1      34.983  32.392  32.591  1.00  0.00    -0.206 F 
ATOM     77  C   UNL A   1      34.208  33.783  30.864  1.00  0.00     0.059 A 
ATOM     78  C   UNL A   1      35.772  34.643  29.218  1.00  0.00     0.059 A 
ATOM     79  F   UNL A   1      38.041  34.058  29.357  1.00  0.00    -0.206 F 
ATOM     80  C   UNL A   1      34.478  34.545  29.726  1.00  0.00     0.060 A 
BRANCH  80  81
ATOM     81  S   UNL A   1      33.129  35.460  28.946  1.00  0.00     0.124 S 
ATOM     82  O   UNL A   1      33.855  36.508  28.241  1.00  0.00    -0.237 OA
ATOM     83  O   UNL A   1      32.504  34.442  28.108  1.00  0.00    -0.237 OA
ATOM     84  O   UNL A   1      32.326  35.899  30.084  1.00  0.00    -0.744 OA
ENDBRANCH  80  81
ENDBRANCH  48  73
BRANCH  60  85
ATOM     85  C   UNL A   1      39.908  34.282  37.026  1.00  0.00     0.058 A 
ATOM     86  C   UNL A   1      40.449  35.568  36.874  1.00  0.00     0.135 A 
ATOM     87  C   UNL A   1      39.181  34.007  38.195  1.00  0.00     0.135 A 
ATOM     88  F   UNL A   1      41.158  35.877  35.777  1.00  0.00    -0.206 F 
ATOM     89  C   UNL A   1      40.287  36.544  37.852  1.00  0.00     0.059 A 
ATOM     90  C   UNL A   1      38.993  34.972  39.179  1.00  0.00     0.059 A 
ATOM     91  F   UNL A   1      38.640  32.793  38.383  1.00  0.00    -0.206 F 
ATOM     92  C   UNL A   1      39.558  36.235  39.003  1.00  0.00     0.060 A 
BRANCH  92  93
ATOM     93  S   UNL A   1      39.326  37.516  40.256  1.00  0.00     0.124 S 
ATOM     94  O   UNL A   1      38.499  38.480  39.540  1.00  0.00    -0.237 OA
ATOM     95  O   UNL A   1      38.662  36.788  41.333  1.00  0.00    -0.237 OA
ATOM     96  O   UNL A   1      40.688  37.950  40.551  1.00  0.00    -0.744 OA
ENDBRANCH  92  93
ENDBRANCH  60  85
ENDBRANCH  34  35
ENDBRANCH  27  29
ENDBRANCH  26  27
ENDBRANCH  25  26
ENDBRANCH   1  25
TORSDOF 19
ENDMDL
MODEL 2
REMARK VINA RESULT:     -11.4      1.995      2.998
REMARK SMILES Cn1cnnc1CCNC(=O)NCc1ccc(C(=O)OCCOC(=O)c2ccc(-c3c4nc(c(-c5c(F)cc(S(=O)(=O)[O-])cc5F)c5ccc([nH]5)c(-c5c(F)cc(S(=O)(=O)[O-])cc5F)c5nc(c(-c6c(F)cc(S(=O)(=O)[O-])cc6F)c6ccc3[nH]6)C=C5)C=C4)cc2)o1
REMARK SMILES IDX 21 1 20 2 18 3 19 4 17 5 14 6 15 7 92 8 16 9 13 10 12 11
REMARK SMILES IDX 9 12 10 13 11 15 8 17 7 18 6 19 1 20 2 21 3 22 4 23 5 24
REMARK SMILES IDX 22 25 23 26 24 27 25 28 26 29 27 30 91 31 28 32 90 33 29 34
REMARK SMILES IDX 30 35 31 36 84 37 32 38 89 39 83 40 85 41 33 42 88 43 82 44
REMARK SMILES IDX 81 45 34 47 68 48 47 49 67 50 48 51 51 52 66 53 86 54 49 55
REMARK SMILES IDX 50 56 65 58 87 59 52 60 35 61 36 62 45 63 37 64 38 65 44 66
REMARK SMILES IDX 46 67 39 68 40 69 41 70 42 71 43 72 69 73 70 74 79 75 71 76
REMARK SMILES IDX 72 77 78 78 80 79 73 80 74 81 75 82 76 83 77 84 53 85 54 86
REMARK SMILES IDX 63 87 55 88 56 89 62 90 64 91 57 92 58 93 59 94 60 95 61 96
REMARK H PARENT 9 14 12 16 85 46 51 57
REMARK Flexibility Score: inf
ROOT
ATOM      1  C   UNL A   1      42.801  21.612  26.069  1.00  0.00     0.275 C 
ENDROOT
BRANCH   1   2
ATOM      2  O   UNL A   1      41.411  21.427  25.744  1.00  0.00    -0.456 OA
BRANCH   2   3
ATOM      3  C   UNL A   1      40.532  21.574  26.780  1.00  0.00     0.374 C 
ATOM      4  O   UNL A   1      40.785  21.291  27.946  1.00  0.00    -0.242 OA
BRANCH   3   5
ATOM      5  C   UNL A   1      39.319  22.204  26.313  1.00  0.00     0.211 A 
ATOM      6  C   UNL A   1      37.213  22.132  25.647  1.00  0.00     0.124 A 
ATOM      7  C   UNL A   1      37.484  23.453  25.946  1.00  0.00     0.048 A 
ATOM      8  O   UNL A   1      38.351  21.394  25.778  1.00  0.00    -0.452 OA
ATOM      9  C   UNL A   1      38.834  23.497  26.377  1.00  0.00     0.058 A 
BRANCH   6  10
ATOM     10  C   UNL A   1      35.974  21.369  25.338  1.00  0.00     0.193 C 
BRANCH  10  11
ATOM     11  N   UNL A   1      35.114  21.403  26.500  1.00  0.00    -0.331 N 
ATOM     12  N   UNL A   1      33.319  22.859  26.016  1.00  0.00    -0.338 N 
ATOM     13  C   UNL A   1      33.981  22.027  26.826  1.00  0.00     0.315 C 
ATOM     14  H   UNL A   1      32.499  23.214  26.429  1.00  0.00     0.165 HD
ATOM     15  O   UNL A   1      33.521  21.828  27.951  1.00  0.00    -0.249 OA
ATOM     16  H   UNL A   1      35.446  20.828  27.227  1.00  0.00     0.165 HD
BRANCH  12  17
ATOM     17  C   UNL A   1      33.527  23.360  24.674  1.00  0.00     0.126 C 
BRANCH  17  18
ATOM     18  C   UNL A   1      34.330  24.663  24.662  1.00  0.00     0.099 C 
BRANCH  18  19
ATOM     19  C   UNL A   1      33.976  25.485  23.466  1.00  0.00     0.134 A 
ATOM     20  C   UNL A   1      33.640  27.759  24.550  1.00  0.00     0.152 C 
ATOM     21  N   UNL A   1      33.672  26.822  23.461  1.00  0.00    -0.321 N 
ATOM     22  C   UNL A   1      33.346  27.132  22.174  1.00  0.00     0.225 A 
ATOM     23  N   UNL A   1      33.438  26.059  21.428  1.00  0.00    -0.139 NA
ATOM     24  N   UNL A   1      33.835  25.025  22.238  1.00  0.00    -0.136 NA
ENDBRANCH  18  19
ENDBRANCH  17  18
ENDBRANCH  12  17
ENDBRANCH  10  11
ENDBRANCH   6  10
ENDBRANCH   3   5
ENDBRANCH   2   3
ENDBRANCH   1   2
BRANCH   1  25
ATOM     25  C   UNL A   1      43.266  23.035  25.733  1.00  0.00     0.275 C 
BRANCH  25  26
ATOM     26  O   UNL A   1      42.844  23.996  26.721  1.00  0.00    -0.458 OA
BRANCH  26  27
ATOM     27  C   UNL A   1      42.250  25.110  26.228  1.00  0.00     0.338 C 
ATOM     28  O   UNL A   1      41.946  25.314  25.064  1.00  0.00    -0.246 OA
BRANCH  27  29
ATOM     29  C   UNL A   1      41.882  26.020  27.330  1.00  0.00     0.060 A 
ATOM     30  C   UNL A   1      42.613  27.203  27.459  1.00  0.00     0.016 A 
ATOM     31  C   UNL A   1      40.889  25.704  28.258  1.00  0.00     0.016 A 
ATOM     32  C   UNL A   1      42.352  28.084  28.505  1.00  0.00     0.010 A 
ATOM     33  C   UNL A   1      40.633  26.584  29.319  1.00  0.00     0.010 A 
ATOM     34  C   UNL A   1      41.367  27.777  29.450  1.00  0.00    -0.014 A 
BRANCH  34  35
ATOM     35  C   UNL A   1      41.148  28.699  30.591  1.00  0.00     0.031 A 
ATOM     36  C   UNL A   1      42.069  28.657  31.777  1.00  0.00     0.074 A 
ATOM     37  C   UNL A   1      40.161  29.613  30.534  1.00  0.00     0.049 A 
ATOM     38  N   UNL A   1      42.030  29.366  32.877  1.00  0.00    -0.248 NA
ATOM     39  C   UNL A   1      43.180  27.695  31.716  1.00  0.00     0.031 C 
ATOM     40  C   UNL A   1      39.233  29.781  29.415  1.00  0.00     0.029 A 
ATOM     41  N   UNL A   1      39.780  30.576  31.433  1.00  0.00    -0.354 N 
ATOM     42  C   UNL A   1      43.101  28.928  33.645  1.00  0.00     0.074 A 
ATOM     43  C   UNL A   1      43.763  27.883  32.891  1.00  0.00     0.031 C 
ATOM     44  C   UNL A   1      38.396  30.795  29.692  1.00  0.00     0.029 A 
ATOM     45  C   UNL A   1      38.706  31.325  31.018  1.00  0.00     0.049 A 
ATOM     46  H   UNL A   1      40.234  30.717  32.296  1.00  0.00     0.167 HD
ATOM     47  C   UNL A   1      43.496  29.358  34.868  1.00  0.00     0.037 A 
ATOM     48  C   UNL A   1      38.039  32.316  31.641  1.00  0.00     0.037 A 
ATOM     49  C   UNL A   1      42.848  30.407  35.610  1.00  0.00     0.049 A 
ATOM     50  C   UNL A   1      38.474  32.751  33.013  1.00  0.00     0.074 A 
ATOM     51  C   UNL A   1      43.174  30.911  36.858  1.00  0.00     0.029 A 
ATOM     52  N   UNL A   1      41.743  31.121  35.170  1.00  0.00    -0.354 N 
ATOM     53  N   UNL A   1      39.475  32.311  33.737  1.00  0.00    -0.248 NA
ATOM     54  C   UNL A   1      37.687  33.813  33.655  1.00  0.00     0.031 C 
ATOM     55  C   UNL A   1      42.251  31.912  37.183  1.00  0.00     0.029 A 
ATOM     56  C   UNL A   1      41.366  32.050  36.125  1.00  0.00     0.049 A 
ATOM     57  H   UNL A   1      41.292  30.986  34.305  1.00  0.00     0.167 HD
ATOM     58  C   UNL A   1      39.443  33.047  34.917  1.00  0.00     0.074 A 
ATOM     59  C   UNL A   1      38.333  33.971  34.803  1.00  0.00     0.031 C 
ATOM     60  C   UNL A   1      40.257  32.962  35.996  1.00  0.00     0.037 A 
BRANCH  47  61
ATOM     61  C   UNL A   1      44.673  28.665  35.493  1.00  0.00     0.058 A 
ATOM     62  C   UNL A   1      44.518  27.516  36.282  1.00  0.00     0.135 A 
ATOM     63  C   UNL A   1      45.974  29.154  35.288  1.00  0.00     0.135 A 
ATOM     64  F   UNL A   1      43.294  27.019  36.518  1.00  0.00    -0.206 F 
ATOM     65  C   UNL A   1      45.612  26.886  36.869  1.00  0.00     0.059 A 
ATOM     66  C   UNL A   1      47.082  28.529  35.851  1.00  0.00     0.059 A 
ATOM     67  F   UNL A   1      46.174  30.252  34.543  1.00  0.00    -0.206 F 
ATOM     68  C   UNL A   1      46.890  27.406  36.654  1.00  0.00     0.060 A 
BRANCH  68  69
ATOM     69  S   UNL A   1      48.307  26.593  37.425  1.00  0.00     0.124 S 
ATOM     70  O   UNL A   1      47.681  25.412  38.011  1.00  0.00    -0.237 OA
ATOM     71  O   UNL A   1      49.190  26.345  36.290  1.00  0.00    -0.237 OA
ATOM     72  O   UNL A   1      48.788  27.587  38.379  1.00  0.00    -0.744 OA
ENDBRANCH  68  69
ENDBRANCH  47  61
BRANCH  48  73
ATOM     73  C   UNL A   1      36.877  32.955  30.973  1.00  0.00     0.058 A 
ATOM     74  C   UNL A   1      35.564  32.642  31.350  1.00  0.00     0.135 A 
ATOM     75  C   UNL A   1      37.060  33.905  29.957  1.00  0.00     0.135 A 
ATOM     76  F   UNL A   1      35.341  31.730  32.309  1.00  0.00    -0.206 F 
ATOM     77  C   UNL A   1      34.469  33.246  30.741  1.00  0.00     0.059 A 
ATOM     78  C   UNL A   1      35.981  34.538  29.347  1.00  0.00     0.059 A 
ATOM     79  F   UNL A   1      38.299  34.244  29.567  1.00  0.00    -0.206 F 
ATOM     80  C   UNL A   1      34.688  34.196  29.742  1.00  0.00     0.060 A 
BRANCH  80  81
ATOM     81  S   UNL A   1      33.267  35.030  29.001  1.00  0.00     0.124 S 
ATOM     82  O   UNL A   1      33.893  36.205  28.409  1.00  0.00    -0.237 OA
ATOM     83  O   UNL A   1      32.771  34.029  28.063  1.00  0.00    -0.237 OA
ATOM     84  O   UNL A   1      32.399  35.284  30.148  1.00  0.00    -0.744 OA
ENDBRANCH  80  81
ENDBRANCH  48  73
BRANCH  60  85
ATOM     85  C   UNL A   1      39.986  33.900  37.136  1.00  0.00     0.058 A 
ATOM     86  C   UNL A   1      40.634  35.141  37.228  1.00  0.00     0.135 A 
ATOM     87  C   UNL A   1      39.041  33.575  38.122  1.00  0.00     0.135 A 
ATOM     88  F   UNL A   1      41.552  35.495  36.314  1.00  0.00    -0.206 F 
ATOM     89  C   UNL A   1      40.365  36.025  38.269  1.00  0.00     0.059 A 
ATOM     90  C   UNL A   1      38.745  34.450  39.162  1.00  0.00     0.059 A 
ATOM     91  F   UNL A   1      38.392  32.401  38.073  1.00  0.00    -0.206 F 
ATOM     92  C   UNL A   1      39.419  35.669  39.233  1.00  0.00     0.060 A 
BRANCH  92  93
ATOM     93  S   UNL A   1      39.052  36.833  40.565  1.00  0.00     0.124 S 
ATOM     94  O   UNL A   1      40.388  37.289  40.933  1.00  0.00    -0.237 OA
ATOM     95  O   UNL A   1      38.207  37.819  39.901  1.00  0.00    -0.237 OA
ATOM     96  O   UNL A   1      38.374  36.005  41.558  1.00  0.00    -0.744 OA
ENDBRANCH  92  93
ENDBRANCH  60  85
ENDBRANCH  34  35
ENDBRANCH  27  29
ENDBRANCH  26  27
ENDBRANCH  25  26
ENDBRANCH   1  25
TORSDOF 19
ENDMDL
MODEL 3
REMARK VINA RESULT:     -11.3      3.491      4.616
REMARK SMILES Cn1cnnc1CCNC(=O)NCc1ccc(C(=O)OCCOC(=O)c2ccc(-c3c4nc(c(-c5c(F)cc(S(=O)(=O)[O-])cc5F)c5ccc([nH]5)c(-c5c(F)cc(S(=O)(=O)[O-])cc5F)c5nc(c(-c6c(F)cc(S(=O)(=O)[O-])cc6F)c6ccc3[nH]6)C=C5)C=C4)cc2)o1
REMARK SMILES IDX 21 1 20 2 18 3 19 4 17 5 14 6 15 7 92 8 16 9 13 10 12 11
REMARK SMILES IDX 9 12 10 13 11 15 8 17 7 18 6 19 1 20 2 21 3 22 4 23 5 24
REMARK SMILES IDX 22 25 23 26 24 27 25 28 26 29 27 30 91 31 28 32 90 33 29 34
REMARK SMILES IDX 30 35 31 36 84 37 32 38 89 39 83 40 85 41 33 42 88 43 82 44
REMARK SMILES IDX 81 45 34 47 68 48 47 49 67 50 48 51 51 52 66 53 86 54 49 55
REMARK SMILES IDX 50 56 65 58 87 59 52 60 35 61 36 62 45 63 37 64 38 65 44 66
REMARK SMILES IDX 46 67 39 68 40 69 41 70 42 71 43 72 69 73 70 74 79 75 71 76
REMARK SMILES IDX 72 77 78 78 80 79 73 80 74 81 75 82 76 83 77 84 53 85 54 86
REMARK SMILES IDX 63 87 55 88 56 89 62 90 64 91 57 92 58 93 59 94 60 95 61 96
REMARK H PARENT 9 14 12 16 85 46 51 57
REMARK Flexibility Score: inf
ROOT
ATOM      1  C   UNL A   1      42.956  21.694  26.210  1.00  0.00     0.275 C 
ENDROOT
BRANCH   1   2
ATOM      2  O   UNL A   1      41.628  21.321  25.801  1.00  0.00    -0.456 OA
BRANCH   2   3
ATOM      3  C   UNL A   1      40.675  21.339  26.781  1.00  0.00     0.374 C 
ATOM      4  O   UNL A   1      40.793  20.786  27.869  1.00  0.00    -0.242 OA
BRANCH   3   5
ATOM      5  C   UNL A   1      39.576  22.188  26.385  1.00  0.00     0.211 A 
ATOM      6  C   UNL A   1      37.485  22.502  25.740  1.00  0.00     0.124 A 
ATOM      7  C   UNL A   1      37.958  23.733  26.147  1.00  0.00     0.048 A 
ATOM      8  O   UNL A   1      38.494  21.587  25.793  1.00  0.00    -0.452 OA
ATOM      9  C   UNL A   1      39.298  23.530  26.565  1.00  0.00     0.058 A 
BRANCH   6  10
ATOM     10  C   UNL A   1      36.143  21.969  25.381  1.00  0.00     0.193 C 
BRANCH  10  11
ATOM     11  N   UNL A   1      35.268  22.130  26.522  1.00  0.00    -0.331 N 
ATOM     12  N   UNL A   1      33.534  20.541  26.321  1.00  0.00    -0.338 N 
ATOM     13  C   UNL A   1      34.150  21.544  26.952  1.00  0.00     0.315 C 
ATOM     14  H   UNL A   1      32.728  20.234  26.796  1.00  0.00     0.165 HD
ATOM     15  O   UNL A   1      33.649  21.964  27.996  1.00  0.00    -0.249 OA
ATOM     16  H   UNL A   1      35.571  22.845  27.127  1.00  0.00     0.165 HD
BRANCH  12  17
ATOM     17  C   UNL A   1      33.773  19.800  25.099  1.00  0.00     0.126 C 
BRANCH  17  18
ATOM     18  C   UNL A   1      32.530  19.041  24.630  1.00  0.00     0.099 C 
BRANCH  18  19
ATOM     19  C   UNL A   1      32.664  17.584  24.929  1.00  0.00     0.134 A 
ATOM     20  C   UNL A   1      34.063  16.831  22.946  1.00  0.00     0.152 C 
ATOM     21  N   UNL A   1      33.327  16.657  24.167  1.00  0.00    -0.321 N 
ATOM     22  C   UNL A   1      33.129  15.453  24.777  1.00  0.00     0.225 A 
ATOM     23  N   UNL A   1      32.390  15.620  25.846  1.00  0.00    -0.139 NA
ATOM     24  N   UNL A   1      32.099  16.957  25.943  1.00  0.00    -0.136 NA
ENDBRANCH  18  19
ENDBRANCH  17  18
ENDBRANCH  12  17
ENDBRANCH  10  11
ENDBRANCH   6  10
ENDBRANCH   3   5
ENDBRANCH   2   3
ENDBRANCH   1   2
BRANCH   1  25
ATOM     25  C   UNL A   1      43.358  23.053  25.621  1.00  0.00     0.275 C 
BRANCH  25  26
ATOM     26  O   UNL A   1      43.189  24.129  26.563  1.00  0.00    -0.458 OA
BRANCH  26  27
ATOM     27  C   UNL A   1      42.497  25.199  26.100  1.00  0.00     0.338 C 
ATOM     28  O   UNL A   1      42.144  25.391  24.948  1.00  0.00    -0.246 OA
BRANCH  27  29
ATOM     29  C   UNL A   1      42.092  26.067  27.222  1.00  0.00     0.060 A 
ATOM     30  C   UNL A   1      42.689  27.326  27.311  1.00  0.00     0.016 A 
ATOM     31  C   UNL A   1      41.197  25.645  28.207  1.00  0.00     0.016 A 
ATOM     32  C   UNL A   1      42.391  28.178  28.371  1.00  0.00     0.010 A 
ATOM     33  C   UNL A   1      40.904  26.497  29.282  1.00  0.00     0.010 A 
ATOM     34  C   UNL A   1      41.504  27.766  29.371  1.00  0.00    -0.014 A 
BRANCH  34  35
ATOM     35  C   UNL A   1      41.248  28.663  30.524  1.00  0.00     0.031 A 
ATOM     36  C   UNL A   1      42.147  28.615  31.727  1.00  0.00     0.074 A 
ATOM     37  C   UNL A   1      40.247  29.562  30.464  1.00  0.00     0.049 A 
ATOM     38  N   UNL A   1      42.075  29.302  32.838  1.00  0.00    -0.248 NA
ATOM     39  C   UNL A   1      43.274  27.671  31.670  1.00  0.00     0.031 C 
ATOM     40  C   UNL A   1      39.338  29.736  29.331  1.00  0.00     0.029 A 
ATOM     41  N   UNL A   1      39.834  30.502  31.373  1.00  0.00    -0.354 N 
ATOM     42  C   UNL A   1      43.138  28.868  33.620  1.00  0.00     0.074 A 
ATOM     43  C   UNL A   1      43.832  27.848  32.860  1.00  0.00     0.031 C 
ATOM     44  C   UNL A   1      38.479  30.731  29.609  1.00  0.00     0.029 A 
ATOM     45  C   UNL A   1      38.755  31.241  30.951  1.00  0.00     0.049 A 
ATOM     46  H   UNL A   1      40.268  30.634  32.247  1.00  0.00     0.167 HD
ATOM     47  C   UNL A   1      43.503  29.282  34.858  1.00  0.00     0.037 A 
ATOM     48  C   UNL A   1      38.060  32.209  31.578  1.00  0.00     0.037 A 
ATOM     49  C   UNL A   1      42.823  30.307  35.606  1.00  0.00     0.049 A 
ATOM     50  C   UNL A   1      38.461  32.626  32.966  1.00  0.00     0.074 A 
ATOM     51  C   UNL A   1      43.117  30.793  36.868  1.00  0.00     0.029 A 
ATOM     52  N   UNL A   1      41.715  31.010  35.156  1.00  0.00    -0.354 N 
ATOM     53  N   UNL A   1      39.455  32.189  33.702  1.00  0.00    -0.248 NA
ATOM     54  C   UNL A   1      37.644  33.663  33.612  1.00  0.00     0.031 C 
ATOM     55  C   UNL A   1      42.171  31.772  37.193  1.00  0.00     0.029 A 
ATOM     56  C   UNL A   1      41.304  31.916  36.121  1.00  0.00     0.049 A 
ATOM     57  H   UNL A   1      41.283  30.884  34.280  1.00  0.00     0.167 HD
ATOM     58  C   UNL A   1      39.388  32.903  34.894  1.00  0.00     0.074 A 
ATOM     59  C   UNL A   1      38.265  33.811  34.774  1.00  0.00     0.031 C 
ATOM     60  C   UNL A   1      40.183  32.811  35.987  1.00  0.00     0.037 A 
BRANCH  47  61
ATOM     61  C   UNL A   1      44.679  28.597  35.492  1.00  0.00     0.058 A 
ATOM     62  C   UNL A   1      45.986  29.083  35.338  1.00  0.00     0.135 A 
ATOM     63  C   UNL A   1      44.491  27.446  36.274  1.00  0.00     0.135 A 
ATOM     64  F   UNL A   1      46.218  30.172  34.589  1.00  0.00    -0.206 F 
ATOM     65  C   UNL A   1      47.073  28.435  35.918  1.00  0.00     0.059 A 
ATOM     66  C   UNL A   1      45.562  26.794  36.878  1.00  0.00     0.059 A 
ATOM     67  F   UNL A   1      43.260  26.942  36.450  1.00  0.00    -0.206 F 
ATOM     68  C   UNL A   1      46.851  27.286  36.680  1.00  0.00     0.060 A 
BRANCH  68  69
ATOM     69  S   UNL A   1      48.265  26.442  37.423  1.00  0.00     0.124 S 
ATOM     70  O   UNL A   1      48.336  25.229  36.616  1.00  0.00    -0.237 OA
ATOM     71  O   UNL A   1      49.349  27.400  37.225  1.00  0.00    -0.237 OA
ATOM     72  O   UNL A   1      47.852  26.252  38.809  1.00  0.00    -0.744 OA
ENDBRANCH  68  69
ENDBRANCH  47  61
BRANCH  48  73
ATOM     73  C   UNL A   1      36.901  32.842  30.899  1.00  0.00     0.058 A 
ATOM     74  C   UNL A   1      35.586  32.531  31.273  1.00  0.00     0.135 A 
ATOM     75  C   UNL A   1      37.087  33.783  29.876  1.00  0.00     0.135 A 
ATOM     76  F   UNL A   1      35.359  31.628  32.240  1.00  0.00    -0.206 F 
ATOM     77  C   UNL A   1      34.493  33.129  30.654  1.00  0.00     0.059 A 
ATOM     78  C   UNL A   1      36.011  34.409  29.256  1.00  0.00     0.059 A 
ATOM     79  F   UNL A   1      38.328  34.118  29.488  1.00  0.00    -0.206 F 
ATOM     80  C   UNL A   1      34.717  34.070  29.647  1.00  0.00     0.060 A 
BRANCH  80  81
ATOM     81  S   UNL A   1      33.298  34.897  28.893  1.00  0.00     0.124 S 
ATOM     82  O   UNL A   1      32.460  35.161  30.057  1.00  0.00    -0.237 OA
ATOM     83  O   UNL A   1      33.912  36.064  28.270  1.00  0.00    -0.237 OA
ATOM     84  O   UNL A   1      32.790  33.895  27.960  1.00  0.00    -0.744 OA
ENDBRANCH  80  81
ENDBRANCH  48  73
BRANCH  60  85
ATOM     85  C   UNL A   1      39.875  33.724  37.138  1.00  0.00     0.058 A 
ATOM     86  C   UNL A   1      39.120  33.285  38.235  1.00  0.00     0.135 A 
ATOM     87  C   UNL A   1      40.374  35.036  37.164  1.00  0.00     0.135 A 
ATOM     88  F   UNL A   1      38.614  32.041  38.253  1.00  0.00    -0.206 F 
ATOM     89  C   UNL A   1      38.856  34.120  39.316  1.00  0.00     0.059 A 
ATOM     90  C   UNL A   1      40.136  35.883  38.242  1.00  0.00     0.059 A 
ATOM     91  F   UNL A   1      41.107  35.500  36.140  1.00  0.00    -0.206 F 
ATOM     92  C   UNL A   1      39.367  35.419  39.309  1.00  0.00     0.060 A 
BRANCH  92  93
ATOM     93  S   UNL A   1      39.047  36.490  40.729  1.00  0.00     0.124 S 
ATOM     94  O   UNL A   1      40.238  36.265  41.541  1.00  0.00    -0.237 OA
ATOM     95  O   UNL A   1      38.940  37.809  40.114  1.00  0.00    -0.237 OA
ATOM     96  O   UNL A   1      37.802  35.960  41.276  1.00  0.00    -0.744 OA
ENDBRANCH  92  93
ENDBRANCH  60  85
ENDBRANCH  34  35
ENDBRANCH  27  29
ENDBRANCH  26  27
ENDBRANCH  25  26
ENDBRANCH   1  25
TORSDOF 19
ENDMDL
