MODEL 1
REMARK VINA RESULT:     -10.9      0.000      0.000
REMARK SMILES CC[C@@](C)([NH3+])C(=O)N1CC[NH+]([C@H](C)C(=O)OCCOC(=O)c2ccc(-c3c4nc(c(-c5c(F)cc(S(=O)(=O)[O-])cc5F)c5ccc([nH]5)c(-c5c(F)cc(S(=O)(=O)[O-])cc5F)c5nc(c(-c6c(F)cc(S(=O)(=O)[O-])cc6F)c6ccc3[nH]6)C=C5)C=C4)cc2)CC1
REMARK SMILES IDX 17 1 16 2 14 3 15 4 12 5 13 6 11 7 6 8 7 9 8 10 9 11 89 12
REMARK SMILES IDX 10 13 88 14 3 16 4 17 2 18 1 19 5 20 18 24 19 25 20 26 21 27
REMARK SMILES IDX 22 28 23 29 87 30 24 31 86 32 25 33 26 34 27 35 80 36 28 37
REMARK SMILES IDX 85 38 79 39 81 40 29 41 84 42 78 43 77 44 30 46 64 47 43 48
REMARK SMILES IDX 63 49 44 50 47 51 62 52 82 53 45 54 46 55 61 57 83 58 48 59
REMARK SMILES IDX 31 60 32 61 41 62 33 63 34 64 40 65 42 66 35 67 36 68 37 69
REMARK SMILES IDX 38 70 39 71 65 72 66 73 75 74 67 75 68 76 74 77 76 78 69 79
REMARK SMILES IDX 70 80 71 81 72 82 73 83 49 84 50 85 59 86 51 87 52 88 58 89
REMARK SMILES IDX 60 90 53 91 54 92 55 93 56 94 57 95
REMARK H PARENT 11 15 5 21 5 22 5 23 81 45 47 56
REMARK Flexibility Score: inf
ROOT
ATOM      1  C   UNL A   1      39.237  21.577  26.270  1.00  0.00     0.274 C 
ENDROOT
BRANCH   1   2
ATOM      2  O   UNL A   1      38.327  21.911  25.206  1.00  0.00    -0.458 OA
BRANCH   2   3
ATOM      3  C   UNL A   1      37.073  21.387  25.311  1.00  0.00     0.364 C 
ATOM      4  O   UNL A   1      36.783  20.229  25.025  1.00  0.00    -0.245 OA
BRANCH   3   5
ATOM      5  C   UNL A   1      36.041  22.412  25.820  1.00  0.00     0.292 C 
ATOM      6  C   UNL A   1      36.494  23.870  25.674  1.00  0.00     0.088 C 
BRANCH   5   7
ATOM      7  N   UNL A   1      34.701  22.092  25.274  1.00  0.00    -0.321 N 
ATOM      8  C   UNL A   1      31.022  23.740  24.440  1.00  0.00     0.283 C 
ATOM      9  O   UNL A   1      30.588  23.950  23.299  1.00  0.00    -0.268 OA
ATOM     10  N   UNL A   1      31.985  22.762  24.612  1.00  0.00    -0.326 N 
ATOM     11  C   UNL A   1      32.937  22.509  23.535  1.00  0.00     0.181 C 
ATOM     12  C   UNL A   1      32.242  21.928  25.783  1.00  0.00     0.181 C 
ATOM     13  C   UNL A   1      34.356  22.838  24.049  1.00  0.00     0.284 C 
ATOM     14  C   UNL A   1      33.659  22.184  26.322  1.00  0.00     0.284 C 
ATOM     15  H   UNL A   1      34.742  21.119  24.970  1.00  0.00     0.348 HD
BRANCH   8  16
ATOM     16  C   UNL A   1      30.687  24.750  25.606  1.00  0.00     0.171 C 
ATOM     17  C   UNL A   1      32.008  25.258  26.206  1.00  0.00     0.090 C 
BRANCH  16  18
ATOM     18  C   UNL A   1      29.834  25.935  25.062  1.00  0.00     0.075 C 
ATOM     19  C   UNL A   1      30.605  27.173  24.610  1.00  0.00     0.011 C 
ENDBRANCH  16  18
BRANCH  16  20
ATOM     20  N   UNL A   1      29.883  24.124  26.683  1.00  0.00    -0.345 N 
ATOM     21  H   UNL A   1      28.904  24.090  26.401  1.00  0.00     0.345 HD
ATOM     22  H   UNL A   1      29.972  24.674  27.538  1.00  0.00     0.345 HD
ATOM     23  H   UNL A   1      30.221  23.176  26.853  1.00  0.00     0.345 HD
ENDBRANCH  16  20
ENDBRANCH   8  16
ENDBRANCH   5   7
ENDBRANCH   3   5
ENDBRANCH   2   3
ENDBRANCH   1   2
BRANCH   1  24
ATOM     24  C   UNL A   1      40.528  22.399  26.192  1.00  0.00     0.275 C 
BRANCH  24  25
ATOM     25  O   UNL A   1      40.595  23.401  27.225  1.00  0.00    -0.458 OA
BRANCH  25  26
ATOM     26  C   UNL A   1      41.178  24.565  26.853  1.00  0.00     0.338 C 
ATOM     27  O   UNL A   1      41.762  24.790  25.807  1.00  0.00    -0.246 OA
BRANCH  26  28
ATOM     28  C   UNL A   1      40.875  25.621  27.834  1.00  0.00     0.060 A 
ATOM     29  C   UNL A   1      41.873  26.563  28.090  1.00  0.00     0.016 A 
ATOM     30  C   UNL A   1      39.681  25.647  28.555  1.00  0.00     0.016 A 
ATOM     31  C   UNL A   1      41.687  27.541  29.059  1.00  0.00     0.010 A 
ATOM     32  C   UNL A   1      39.496  26.626  29.541  1.00  0.00     0.010 A 
ATOM     33  C   UNL A   1      40.502  27.573  29.803  1.00  0.00    -0.014 A 
BRANCH  33  34
ATOM     34  C   UNL A   1      40.373  28.576  30.888  1.00  0.00     0.031 A 
ATOM     35  C   UNL A   1      41.300  28.527  32.068  1.00  0.00     0.074 A 
ATOM     36  C   UNL A   1      39.479  29.575  30.767  1.00  0.00     0.049 A 
ATOM     37  N   UNL A   1      41.354  29.315  33.110  1.00  0.00    -0.248 NA
ATOM     38  C   UNL A   1      42.305  27.452  32.073  1.00  0.00     0.031 C 
ATOM     39  C   UNL A   1      38.559  29.753  29.642  1.00  0.00     0.029 A 
ATOM     40  N   UNL A   1      39.210  30.639  31.590  1.00  0.00    -0.354 N 
ATOM     41  C   UNL A   1      42.384  28.826  33.904  1.00  0.00     0.074 A 
ATOM     42  C   UNL A   1      42.921  27.663  33.228  1.00  0.00     0.031 C 
ATOM     43  C   UNL A   1      37.836  30.868  29.840  1.00  0.00     0.029 A 
ATOM     44  C   UNL A   1      38.215  31.462  31.119  1.00  0.00     0.049 A 
ATOM     45  H   UNL A   1      39.683  30.798  32.438  1.00  0.00     0.167 HD
ATOM     46  C   UNL A   1      42.840  29.305  35.086  1.00  0.00     0.037 A 
ATOM     47  C   UNL A   1      37.661  32.561  31.665  1.00  0.00     0.037 A 
ATOM     48  C   UNL A   1      42.311  30.470  35.747  1.00  0.00     0.049 A 
ATOM     49  C   UNL A   1      38.165  33.053  32.994  1.00  0.00     0.074 A 
ATOM     50  C   UNL A   1      42.703  31.032  36.951  1.00  0.00     0.029 A 
ATOM     51  N   UNL A   1      41.277  31.255  35.261  1.00  0.00    -0.354 N 
ATOM     52  N   UNL A   1      39.125  32.566  33.744  1.00  0.00    -0.248 NA
ATOM     53  C   UNL A   1      37.509  34.244  33.552  1.00  0.00     0.031 C 
ATOM     54  C   UNL A   1      41.885  32.141  37.205  1.00  0.00     0.029 A 
ATOM     55  C   UNL A   1      41.008  32.290  36.142  1.00  0.00     0.049 A 
ATOM     56  H   UNL A   1      40.802  31.101  34.411  1.00  0.00     0.167 HD
ATOM     57  C   UNL A   1      39.191  33.391  34.860  1.00  0.00     0.074 A 
ATOM     58  C   UNL A   1      38.193  34.426  34.673  1.00  0.00     0.031 C 
ATOM     59  C   UNL A   1      40.001  33.302  35.944  1.00  0.00     0.037 A 
BRANCH  46  60
ATOM     60  C   UNL A   1      43.953  28.549  35.755  1.00  0.00     0.058 A 
ATOM     61  C   UNL A   1      45.302  28.844  35.505  1.00  0.00     0.135 A 
ATOM     62  C   UNL A   1      43.664  27.526  36.673  1.00  0.00     0.135 A 
ATOM     63  F   UNL A   1      45.633  29.799  34.621  1.00  0.00    -0.206 F 
ATOM     64  C   UNL A   1      46.327  28.137  36.126  1.00  0.00     0.059 A 
ATOM     65  C   UNL A   1      44.673  26.821  37.321  1.00  0.00     0.059 A 
ATOM     66  F   UNL A   1      42.390  27.201  36.943  1.00  0.00    -0.206 F 
ATOM     67  C   UNL A   1      46.002  27.124  37.030  1.00  0.00     0.060 A 
BRANCH  67  68
ATOM     68  S   UNL A   1      47.341  26.211  37.828  1.00  0.00     0.124 S 
ATOM     69  O   UNL A   1      48.340  26.173  36.764  1.00  0.00    -0.237 OA
ATOM     70  O   UNL A   1      47.665  27.060  38.970  1.00  0.00    -0.237 OA
ATOM     71  O   UNL A   1      46.726  24.929  38.158  1.00  0.00    -0.744 OA
ENDBRANCH  67  68
ENDBRANCH  46  60
BRANCH  47  72
ATOM     72  C   UNL A   1      36.554  33.261  30.963  1.00  0.00     0.058 A 
ATOM     73  C   UNL A   1      35.231  33.172  31.421  1.00  0.00     0.135 A 
ATOM     74  C   UNL A   1      36.802  34.039  29.822  1.00  0.00     0.135 A 
ATOM     75  F   UNL A   1      34.945  32.431  32.503  1.00  0.00    -0.206 F 
ATOM     76  C   UNL A   1      34.190  33.819  30.764  1.00  0.00     0.059 A 
ATOM     77  C   UNL A   1      35.780  34.714  29.161  1.00  0.00     0.059 A 
ATOM     78  F   UNL A   1      38.053  34.163  29.351  1.00  0.00    -0.206 F 
ATOM     79  C   UNL A   1      34.475  34.589  29.635  1.00  0.00     0.060 A 
BRANCH  79  80
ATOM     80  S   UNL A   1      33.128  35.470  28.815  1.00  0.00     0.124 S 
ATOM     81  O   UNL A   1      32.514  34.403  28.034  1.00  0.00    -0.237 OA
ATOM     82  O   UNL A   1      32.347  35.964  29.945  1.00  0.00    -0.237 OA
ATOM     83  O   UNL A   1      33.823  36.498  28.047  1.00  0.00    -0.744 OA
ENDBRANCH  79  80
ENDBRANCH  47  72
BRANCH  59  84
ATOM     84  C   UNL A   1      39.837  34.357  37.000  1.00  0.00     0.058 A 
ATOM     85  C   UNL A   1      40.513  35.586  36.918  1.00  0.00     0.135 A 
ATOM     86  C   UNL A   1      38.998  34.140  38.104  1.00  0.00     0.135 A 
ATOM     87  F   UNL A   1      41.330  35.839  35.884  1.00  0.00    -0.206 F 
ATOM     88  C   UNL A   1      40.392  36.547  37.915  1.00  0.00     0.059 A 
ATOM     89  C   UNL A   1      38.846  35.096  39.103  1.00  0.00     0.059 A 
ATOM     90  F   UNL A   1      38.322  32.986  38.223  1.00  0.00    -0.206 F 
ATOM     91  C   UNL A   1      39.563  36.289  39.009  1.00  0.00     0.060 A 
BRANCH  91  92
ATOM     92  S   UNL A   1      39.417  37.537  40.306  1.00  0.00     0.124 S 
ATOM     93  O   UNL A   1      40.813  37.910  40.510  1.00  0.00    -0.237 OA
ATOM     94  O   UNL A   1      38.575  38.551  39.679  1.00  0.00    -0.237 OA
ATOM     95  O   UNL A   1      38.793  36.808  41.406  1.00  0.00    -0.744 OA
ENDBRANCH  91  92
ENDBRANCH  59  84
ENDBRANCH  33  34
ENDBRANCH  26  28
ENDBRANCH  25  26
ENDBRANCH  24  25
ENDBRANCH   1  24
TORSDOF 18
ENDMDL
MODEL 2
REMARK VINA RESULT:     -10.7      6.917     12.341
REMARK SMILES CC[C@@](C)([NH3+])C(=O)N1CC[NH+]([C@H](C)C(=O)OCCOC(=O)c2ccc(-c3c4nc(c(-c5c(F)cc(S(=O)(=O)[O-])cc5F)c5ccc([nH]5)c(-c5c(F)cc(S(=O)(=O)[O-])cc5F)c5nc(c(-c6c(F)cc(S(=O)(=O)[O-])cc6F)c6ccc3[nH]6)C=C5)C=C4)cc2)CC1
REMARK SMILES IDX 17 1 16 2 14 3 15 4 12 5 13 6 11 7 6 8 7 9 8 10 9 11 89 12
REMARK SMILES IDX 10 13 88 14 3 16 4 17 2 18 1 19 5 20 18 24 19 25 20 26 21 27
REMARK SMILES IDX 22 28 23 29 87 30 24 31 86 32 25 33 26 34 27 35 80 36 28 37
REMARK SMILES IDX 85 38 79 39 81 40 29 41 84 42 78 43 77 44 30 46 64 47 43 48
REMARK SMILES IDX 63 49 44 50 47 51 62 52 82 53 45 54 46 55 61 57 83 58 48 59
REMARK SMILES IDX 31 60 32 61 41 62 33 63 34 64 40 65 42 66 35 67 36 68 37 69
REMARK SMILES IDX 38 70 39 71 65 72 66 73 75 74 67 75 68 76 74 77 76 78 69 79
REMARK SMILES IDX 70 80 71 81 72 82 73 83 49 84 50 85 59 86 51 87 52 88 58 89
REMARK SMILES IDX 60 90 53 91 54 92 55 93 56 94 57 95
REMARK H PARENT 11 15 5 21 5 22 5 23 81 45 47 56
REMARK Flexibility Score: inf
ROOT
ATOM      1  C   UNL A   1      33.203  30.048  27.569  1.00  0.00     0.274 C 
ENDROOT
BRANCH   1   2
ATOM      2  O   UNL A   1      33.092  29.202  26.409  1.00  0.00    -0.458 OA
BRANCH   2   3
ATOM      3  C   UNL A   1      32.059  28.312  26.420  1.00  0.00     0.364 C 
ATOM      4  O   UNL A   1      31.572  27.834  27.439  1.00  0.00    -0.245 OA
BRANCH   3   5
ATOM      5  C   UNL A   1      31.568  27.955  25.003  1.00  0.00     0.292 C 
ATOM      6  C   UNL A   1      30.967  29.142  24.240  1.00  0.00     0.088 C 
BRANCH   5   7
ATOM      7  N   UNL A   1      32.612  27.185  24.287  1.00  0.00    -0.321 N 
ATOM      8  C   UNL A   1      33.351  23.561  22.480  1.00  0.00     0.283 C 
ATOM      9  O   UNL A   1      33.482  23.398  21.259  1.00  0.00    -0.268 OA
ATOM     10  N   UNL A   1      33.613  24.811  23.012  1.00  0.00    -0.326 N 
ATOM     11  C   UNL A   1      33.348  25.995  22.200  1.00  0.00     0.181 C 
ATOM     12  C   UNL A   1      34.095  25.153  24.347  1.00  0.00     0.181 C 
ATOM     13  C   UNL A   1      32.254  26.832  22.899  1.00  0.00     0.284 C 
ATOM     14  C   UNL A   1      33.062  26.021  25.083  1.00  0.00     0.284 C 
ATOM     15  H   UNL A   1      33.410  27.812  24.186  1.00  0.00     0.348 HD
BRANCH   8  16
ATOM     16  C   UNL A   1      32.640  22.451  23.349  1.00  0.00     0.171 C 
ATOM     17  C   UNL A   1      32.073  21.380  22.403  1.00  0.00     0.090 C 
BRANCH  16  18
ATOM     18  C   UNL A   1      33.652  21.824  24.353  1.00  0.00     0.075 C 
ATOM     19  C   UNL A   1      33.428  20.357  24.713  1.00  0.00     0.011 C 
ENDBRANCH  16  18
BRANCH  16  20
ATOM     20  N   UNL A   1      31.532  22.999  24.168  1.00  0.00    -0.345 N 
ATOM     21  H   UNL A   1      31.875  23.781  24.725  1.00  0.00     0.345 HD
ATOM     22  H   UNL A   1      31.175  22.272  24.788  1.00  0.00     0.345 HD
ATOM     23  H   UNL A   1      30.782  23.321  23.555  1.00  0.00     0.345 HD
ENDBRANCH  16  20
ENDBRANCH   8  16
ENDBRANCH   5   7
ENDBRANCH   3   5
ENDBRANCH   2   3
ENDBRANCH   1   2
BRANCH   1  24
ATOM     24  C   UNL A   1      34.615  30.625  27.718  1.00  0.00     0.275 C 
BRANCH  24  25
ATOM     25  O   UNL A   1      35.526  29.680  28.312  1.00  0.00    -0.458 OA
BRANCH  25  26
ATOM     26  C   UNL A   1      36.255  30.164  29.344  1.00  0.00     0.338 C 
ATOM     27  O   UNL A   1      35.830  30.618  30.393  1.00  0.00    -0.246 OA
BRANCH  26  28
ATOM     28  C   UNL A   1      37.690  29.923  29.111  1.00  0.00     0.060 A 
ATOM     29  C   UNL A   1      38.109  29.786  27.786  1.00  0.00     0.016 A 
ATOM     30  C   UNL A   1      38.595  29.745  30.158  1.00  0.00     0.016 A 
ATOM     31  C   UNL A   1      39.432  29.480  27.495  1.00  0.00     0.010 A 
ATOM     32  C   UNL A   1      39.927  29.425  29.865  1.00  0.00     0.010 A 
ATOM     33  C   UNL A   1      40.351  29.283  28.532  1.00  0.00    -0.014 A 
BRANCH  33  34
ATOM     34  C   UNL A   1      41.733  28.872  28.187  1.00  0.00     0.031 A 
ATOM     35  C   UNL A   1      42.849  29.876  28.241  1.00  0.00     0.074 A 
ATOM     36  C   UNL A   1      41.994  27.581  27.908  1.00  0.00     0.049 A 
ATOM     37  N   UNL A   1      44.121  29.712  27.987  1.00  0.00    -0.248 NA
ATOM     38  C   UNL A   1      42.486  31.245  28.643  1.00  0.00     0.031 C 
ATOM     39  C   UNL A   1      40.998  26.508  27.873  1.00  0.00     0.029 A 
ATOM     40  N   UNL A   1      43.176  26.950  27.618  1.00  0.00    -0.354 N 
ATOM     41  C   UNL A   1      44.710  30.955  28.179  1.00  0.00     0.074 A 
ATOM     42  C   UNL A   1      43.654  31.868  28.561  1.00  0.00     0.031 C 
ATOM     43  C   UNL A   1      41.614  25.348  27.592  1.00  0.00     0.029 A 
ATOM     44  C   UNL A   1      43.039  25.601  27.391  1.00  0.00     0.049 A 
ATOM     45  H   UNL A   1      44.041  27.417  27.575  1.00  0.00     0.167 HD
ATOM     46  C   UNL A   1      46.014  31.302  28.051  1.00  0.00     0.037 A 
ATOM     47  C   UNL A   1      43.955  24.677  27.045  1.00  0.00     0.037 A 
ATOM     48  C   UNL A   1      47.064  30.386  27.684  1.00  0.00     0.049 A 
ATOM     49  C   UNL A   1      45.391  25.095  26.879  1.00  0.00     0.074 A 
ATOM     50  C   UNL A   1      48.416  30.642  27.524  1.00  0.00     0.029 A 
ATOM     51  N   UNL A   1      46.882  29.036  27.423  1.00  0.00    -0.354 N 
ATOM     52  N   UNL A   1      45.929  26.281  27.042  1.00  0.00    -0.248 NA
ATOM     53  C   UNL A   1      46.343  24.050  26.479  1.00  0.00     0.031 C 
ATOM     54  C   UNL A   1      49.045  29.452  27.137  1.00  0.00     0.029 A 
ATOM     55  C   UNL A   1      48.091  28.447  27.091  1.00  0.00     0.049 A 
ATOM     56  H   UNL A   1      46.018  28.564  27.467  1.00  0.00     0.167 HD
ATOM     57  C   UNL A   1      47.282  26.123  26.769  1.00  0.00     0.074 A 
ATOM     58  C   UNL A   1      47.485  24.722  26.458  1.00  0.00     0.031 C 
ATOM     59  C   UNL A   1      48.270  27.054  26.772  1.00  0.00     0.037 A 
BRANCH  46  60
ATOM     60  C   UNL A   1      46.372  32.742  28.284  1.00  0.00     0.058 A 
ATOM     61  C   UNL A   1      46.768  33.211  29.546  1.00  0.00     0.135 A 
ATOM     62  C   UNL A   1      46.338  33.662  27.223  1.00  0.00     0.135 A 
ATOM     63  F   UNL A   1      46.798  32.378  30.598  1.00  0.00    -0.206 F 
ATOM     64  C   UNL A   1      47.096  34.547  29.755  1.00  0.00     0.059 A 
ATOM     65  C   UNL A   1      46.682  34.998  27.404  1.00  0.00     0.059 A 
ATOM     66  F   UNL A   1      45.963  33.265  25.997  1.00  0.00    -0.206 F 
ATOM     67  C   UNL A   1      47.045  35.434  28.677  1.00  0.00     0.060 A 
BRANCH  67  68
ATOM     68  S   UNL A   1      47.469  37.166  28.960  1.00  0.00     0.124 S 
ATOM     69  O   UNL A   1      47.611  37.197  30.413  1.00  0.00    -0.237 OA
ATOM     70  O   UNL A   1      48.707  37.316  28.201  1.00  0.00    -0.237 OA
ATOM     71  O   UNL A   1      46.319  37.889  28.426  1.00  0.00    -0.744 OA
ENDBRANCH  67  68
ENDBRANCH  46  60
BRANCH  47  72
ATOM     72  C   UNL A   1      43.540  23.269  26.816  1.00  0.00     0.058 A 
ATOM     73  C   UNL A   1      43.478  22.731  25.522  1.00  0.00     0.135 A 
ATOM     74  C   UNL A   1      43.202  22.433  27.891  1.00  0.00     0.135 A 
ATOM     75  F   UNL A   1      43.782  23.496  24.463  1.00  0.00    -0.206 F 
ATOM     76  C   UNL A   1      43.083  21.416  25.301  1.00  0.00     0.059 A 
ATOM     77  C   UNL A   1      42.827  21.108  27.696  1.00  0.00     0.059 A 
ATOM     78  F   UNL A   1      43.256  22.899  29.148  1.00  0.00    -0.206 F 
ATOM     79  C   UNL A   1      42.760  20.611  26.395  1.00  0.00     0.060 A 
BRANCH  79  80
ATOM     80  S   UNL A   1      42.298  18.889  26.107  1.00  0.00     0.124 S 
ATOM     81  O   UNL A   1      43.243  18.503  25.067  1.00  0.00    -0.237 OA
ATOM     82  O   UNL A   1      42.512  18.286  27.419  1.00  0.00    -0.237 OA
ATOM     83  O   UNL A   1      40.902  18.985  25.692  1.00  0.00    -0.744 OA
ENDBRANCH  79  80
ENDBRANCH  47  72
BRANCH  59  84
ATOM     84  C   UNL A   1      49.652  26.574  26.433  1.00  0.00     0.058 A 
ATOM     85  C   UNL A   1      50.185  26.727  25.143  1.00  0.00     0.135 A 
ATOM     86  C   UNL A   1      50.453  25.956  27.407  1.00  0.00     0.135 A 
ATOM     87  F   UNL A   1      49.457  27.308  24.176  1.00  0.00    -0.206 F 
ATOM     88  C   UNL A   1      51.449  26.248  24.819  1.00  0.00     0.059 A 
ATOM     89  C   UNL A   1      51.729  25.488  27.110  1.00  0.00     0.059 A 
ATOM     90  F   UNL A   1      49.994  25.796  28.658  1.00  0.00    -0.206 F 
ATOM     91  C   UNL A   1      52.210  25.621  25.807  1.00  0.00     0.060 A 
BRANCH  91  92
ATOM     92  S   UNL A   1      53.848  24.992  25.379  1.00  0.00     0.124 S 
ATOM     93  O   UNL A   1      54.037  25.554  24.047  1.00  0.00    -0.237 OA
ATOM     94  O   UNL A   1      54.690  25.554  26.430  1.00  0.00    -0.237 OA
ATOM     95  O   UNL A   1      53.676  23.543  25.433  1.00  0.00    -0.744 OA
ENDBRANCH  91  92
ENDBRANCH  59  84
ENDBRANCH  33  34
ENDBRANCH  26  28
ENDBRANCH  25  26
ENDBRANCH  24  25
ENDBRANCH   1  24
TORSDOF 18
ENDMDL
MODEL 3
REMARK VINA RESULT:     -10.7      6.830     12.254
REMARK SMILES CC[C@@](C)([NH3+])C(=O)N1CC[NH+]([C@H](C)C(=O)OCCOC(=O)c2ccc(-c3c4nc(c(-c5c(F)cc(S(=O)(=O)[O-])cc5F)c5ccc([nH]5)c(-c5c(F)cc(S(=O)(=O)[O-])cc5F)c5nc(c(-c6c(F)cc(S(=O)(=O)[O-])cc6F)c6ccc3[nH]6)C=C5)C=C4)cc2)CC1
REMARK SMILES IDX 17 1 16 2 14 3 15 4 12 5 13 6 11 7 6 8 7 9 8 10 9 11 89 12
REMARK SMILES IDX 10 13 88 14 3 16 4 17 2 18 1 19 5 20 18 24 19 25 20 26 21 27
REMARK SMILES IDX 22 28 23 29 87 30 24 31 86 32 25 33 26 34 27 35 80 36 28 37
REMARK SMILES IDX 85 38 79 39 81 40 29 41 84 42 78 43 77 44 30 46 64 47 43 48
REMARK SMILES IDX 63 49 44 50 47 51 62 52 82 53 45 54 46 55 61 57 83 58 48 59
REMARK SMILES IDX 31 60 32 61 41 62 33 63 34 64 40 65 42 66 35 67 36 68 37 69
REMARK SMILES IDX 38 70 39 71 65 72 66 73 75 74 67 75 68 76 74 77 76 78 69 79
REMARK SMILES IDX 70 80 71 81 72 82 73 83 49 84 50 85 59 86 51 87 52 88 58 89
REMARK SMILES IDX 60 90 53 91 54 92 55 93 56 94 57 95
REMARK H PARENT 11 15 5 21 5 22 5 23 81 45 47 56
REMARK Flexibility Score: inf
ROOT
ATOM      1  C   UNL A   1      33.418  29.943  27.260  1.00  0.00     0.274 C 
ENDROOT
BRANCH   1   2
ATOM      2  O   UNL A   1      33.567  29.768  25.839  1.00  0.00    -0.458 OA
BRANCH   2   3
ATOM      3  C   UNL A   1      32.412  29.585  25.138  1.00  0.00     0.364 C 
ATOM      4  O   UNL A   1      31.368  30.188  25.363  1.00  0.00    -0.245 OA
BRANCH   3   5
ATOM      5  C   UNL A   1      32.550  28.522  24.031  1.00  0.00     0.292 C 
ATOM      6  C   UNL A   1      34.002  28.217  23.645  1.00  0.00     0.088 C 
BRANCH   5   7
ATOM      7  N   UNL A   1      31.704  27.348  24.350  1.00  0.00    -0.321 N 
ATOM      8  C   UNL A   1      31.684  23.783  26.408  1.00  0.00     0.283 C 
ATOM      9  O   UNL A   1      31.027  23.568  27.435  1.00  0.00    -0.268 OA
ATOM     10  N   UNL A   1      31.253  24.771  25.541  1.00  0.00    -0.326 N 
ATOM     11  C   UNL A   1      30.560  25.936  26.085  1.00  0.00     0.181 C 
ATOM     12  C   UNL A   1      31.430  24.860  24.095  1.00  0.00     0.181 C 
ATOM     13  C   UNL A   1      31.409  27.192  25.788  1.00  0.00     0.284 C 
ATOM     14  C   UNL A   1      32.240  26.115  23.731  1.00  0.00     0.284 C 
ATOM     15  H   UNL A   1      30.793  27.531  23.928  1.00  0.00     0.348 HD
BRANCH   8  16
ATOM     16  C   UNL A   1      33.117  23.140  26.242  1.00  0.00     0.171 C 
ATOM     17  C   UNL A   1      33.476  22.407  27.545  1.00  0.00     0.090 C 
BRANCH  16  18
ATOM     18  C   UNL A   1      33.128  22.157  25.034  1.00  0.00     0.075 C 
ATOM     19  C   UNL A   1      32.090  21.037  25.062  1.00  0.00     0.011 C 
ENDBRANCH  16  18
BRANCH  16  20
ATOM     20  N   UNL A   1      34.162  24.152  25.960  1.00  0.00    -0.345 N 
ATOM     21  H   UNL A   1      34.545  23.995  25.028  1.00  0.00     0.345 HD
ATOM     22  H   UNL A   1      34.908  24.073  26.651  1.00  0.00     0.345 HD
ATOM     23  H   UNL A   1      33.753  25.086  26.007  1.00  0.00     0.345 HD
ENDBRANCH  16  20
ENDBRANCH   8  16
ENDBRANCH   5   7
ENDBRANCH   3   5
ENDBRANCH   2   3
ENDBRANCH   1   2
BRANCH   1  24
ATOM     24  C   UNL A   1      34.631  30.650  27.876  1.00  0.00     0.275 C 
BRANCH  24  25
ATOM     25  O   UNL A   1      35.502  29.729  28.560  1.00  0.00    -0.458 OA
BRANCH  25  26
ATOM     26  C   UNL A   1      36.254  30.280  29.542  1.00  0.00     0.338 C 
ATOM     27  O   UNL A   1      35.851  30.796  30.571  1.00  0.00    -0.246 OA
BRANCH  26  28
ATOM     28  C   UNL A   1      37.684  30.032  29.289  1.00  0.00     0.060 A 
ATOM     29  C   UNL A   1      38.084  29.898  27.958  1.00  0.00     0.016 A 
ATOM     30  C   UNL A   1      38.602  29.847  30.323  1.00  0.00     0.016 A 
ATOM     31  C   UNL A   1      39.401  29.586  27.647  1.00  0.00     0.010 A 
ATOM     32  C   UNL A   1      39.929  29.521  30.011  1.00  0.00     0.010 A 
ATOM     33  C   UNL A   1      40.334  29.381  28.672  1.00  0.00    -0.014 A 
BRANCH  33  34
ATOM     34  C   UNL A   1      41.709  28.965  28.306  1.00  0.00     0.031 A 
ATOM     35  C   UNL A   1      42.829  29.965  28.343  1.00  0.00     0.074 A 
ATOM     36  C   UNL A   1      41.960  27.673  28.025  1.00  0.00     0.049 A 
ATOM     37  N   UNL A   1      44.096  29.795  28.069  1.00  0.00    -0.248 NA
ATOM     38  C   UNL A   1      42.477  31.335  28.747  1.00  0.00     0.031 C 
ATOM     39  C   UNL A   1      40.960  26.603  28.007  1.00  0.00     0.029 A 
ATOM     40  N   UNL A   1      43.135  27.036  27.718  1.00  0.00    -0.354 N 
ATOM     41  C   UNL A   1      44.693  31.037  28.251  1.00  0.00     0.074 A 
ATOM     42  C   UNL A   1      43.646  31.954  28.647  1.00  0.00     0.031 C 
ATOM     43  C   UNL A   1      41.568  25.441  27.718  1.00  0.00     0.029 A 
ATOM     44  C   UNL A   1      42.990  25.688  27.495  1.00  0.00     0.049 A 
ATOM     45  H   UNL A   1      44.001  27.501  27.662  1.00  0.00     0.167 HD
ATOM     46  C   UNL A   1      45.996  31.378  28.103  1.00  0.00     0.037 A 
ATOM     47  C   UNL A   1      43.898  24.760  27.137  1.00  0.00     0.037 A 
ATOM     48  C   UNL A   1      47.037  30.458  27.721  1.00  0.00     0.049 A 
ATOM     49  C   UNL A   1      45.332  25.173  26.949  1.00  0.00     0.074 A 
ATOM     50  C   UNL A   1      48.387  30.709  27.540  1.00  0.00     0.029 A 
ATOM     51  N   UNL A   1      46.846  29.109  27.465  1.00  0.00    -0.354 N 
ATOM     52  N   UNL A   1      45.877  26.356  27.102  1.00  0.00    -0.248 NA
ATOM     53  C   UNL A   1      46.274  24.123  26.536  1.00  0.00     0.031 C 
ATOM     54  C   UNL A   1      49.006  29.516  27.145  1.00  0.00     0.029 A 
ATOM     55  C   UNL A   1      48.048  28.515  27.115  1.00  0.00     0.049 A 
ATOM     56  H   UNL A   1      45.981  28.640  27.522  1.00  0.00     0.167 HD
ATOM     57  C   UNL A   1      47.226  26.194  26.809  1.00  0.00     0.074 A 
ATOM     58  C   UNL A   1      47.418  24.791  26.497  1.00  0.00     0.031 C 
ATOM     59  C   UNL A   1      48.217  27.120  26.795  1.00  0.00     0.037 A 
BRANCH  46  60
ATOM     60  C   UNL A   1      46.363  32.817  28.328  1.00  0.00     0.058 A 
ATOM     61  C   UNL A   1      46.316  33.763  27.291  1.00  0.00     0.135 A 
ATOM     62  C   UNL A   1      46.748  33.261  29.603  1.00  0.00     0.135 A 
ATOM     63  F   UNL A   1      45.973  33.388  26.049  1.00  0.00    -0.206 F 
ATOM     64  C   UNL A   1      46.659  35.094  27.507  1.00  0.00     0.059 A 
ATOM     65  C   UNL A   1      47.076  34.591  29.846  1.00  0.00     0.059 A 
ATOM     66  F   UNL A   1      46.814  32.396  30.627  1.00  0.00    -0.206 F 
ATOM     67  C   UNL A   1      47.043  35.498  28.787  1.00  0.00     0.060 A 
BRANCH  67  68
ATOM     68  S   UNL A   1      47.490  37.227  29.054  1.00  0.00     0.124 S 
ATOM     69  O   UNL A   1      48.300  37.133  30.265  1.00  0.00    -0.237 OA
ATOM     70  O   UNL A   1      48.215  37.558  27.832  1.00  0.00    -0.237 OA
ATOM     71  O   UNL A   1      46.199  37.890  29.212  1.00  0.00    -0.744 OA
ENDBRANCH  67  68
ENDBRANCH  46  60
BRANCH  47  72
ATOM     72  C   UNL A   1      43.474  23.353  26.916  1.00  0.00     0.058 A 
ATOM     73  C   UNL A   1      43.153  22.513  27.991  1.00  0.00     0.135 A 
ATOM     74  C   UNL A   1      43.379  22.825  25.619  1.00  0.00     0.135 A 
ATOM     75  F   UNL A   1      43.240  22.972  29.249  1.00  0.00    -0.206 F 
ATOM     76  C   UNL A   1      42.763  21.193  27.791  1.00  0.00     0.059 A 
ATOM     77  C   UNL A   1      42.969  21.515  25.392  1.00  0.00     0.059 A 
ATOM     78  F   UNL A   1      43.666  23.593  24.557  1.00  0.00    -0.206 F 
ATOM     79  C   UNL A   1      42.673  20.703  26.486  1.00  0.00     0.060 A 
BRANCH  79  80
ATOM     80  S   UNL A   1      42.116  19.005  26.227  1.00  0.00     0.124 S 
ATOM     81  O   UNL A   1      42.284  18.436  27.559  1.00  0.00    -0.237 OA
ATOM     82  O   UNL A   1      40.738  19.193  25.783  1.00  0.00    -0.237 OA
ATOM     83  O   UNL A   1      43.032  18.507  25.206  1.00  0.00    -0.744 OA
ENDBRANCH  79  80
ENDBRANCH  47  72
BRANCH  59  84
ATOM     84  C   UNL A   1      49.592  26.635  26.437  1.00  0.00     0.058 A 
ATOM     85  C   UNL A   1      50.079  26.719  25.122  1.00  0.00     0.135 A 
ATOM     86  C   UNL A   1      50.432  26.080  27.415  1.00  0.00     0.135 A 
ATOM     87  F   UNL A   1      49.312  27.238  24.150  1.00  0.00    -0.206 F 
ATOM     88  C   UNL A   1      51.336  26.234  24.782  1.00  0.00     0.059 A 
ATOM     89  C   UNL A   1      51.702  25.608  27.102  1.00  0.00     0.059 A 
ATOM     90  F   UNL A   1      50.018  25.987  28.689  1.00  0.00    -0.206 F 
ATOM     91  C   UNL A   1      52.137  25.671  25.778  1.00  0.00     0.060 A 
BRANCH  91  92
ATOM     92  S   UNL A   1      53.767  25.034  25.329  1.00  0.00     0.124 S 
ATOM     93  O   UNL A   1      53.539  23.594  25.375  1.00  0.00    -0.237 OA
ATOM     94  O   UNL A   1      53.976  25.601  24.000  1.00  0.00    -0.237 OA
ATOM     95  O   UNL A   1      54.636  25.569  26.374  1.00  0.00    -0.744 OA
ENDBRANCH  91  92
ENDBRANCH  59  84
ENDBRANCH  33  34
ENDBRANCH  26  28
ENDBRANCH  25  26
ENDBRANCH  24  25
ENDBRANCH   1  24
TORSDOF 18
ENDMDL
