MODEL 1
REMARK VINA RESULT:     -10.4      0.000      0.000
REMARK SMILES C[C@H](Oc1ccc([N+](=O)[O-])cc1F)C(=O)OCCOC(=O)c1ccc(-c2c3nc(c(-c4c(F)cc(S(=O)(=O)[O-])cc4F)c4ccc([nH]4)c(-c4c(F)cc(S(=O)(=O)[O-])cc4F)c4nc(c(-c5c(F)cc(S(=O)(=O)[O-])cc5F)c5ccc2[nH]5)C=C4)C=C3)cc1
REMARK SMILES IDX 17 1 16 2 14 3 15 4 2 5 1 6 3 7 4 8 5 9 12 10 6 11 11 12
REMARK SMILES IDX 13 13 7 14 8 15 9 16 10 17 18 18 19 19 20 20 21 21 22 22
REMARK SMILES IDX 23 23 87 24 24 25 86 26 25 27 26 28 27 29 80 30 28 31 85 32
REMARK SMILES IDX 79 33 81 34 29 35 84 36 78 37 77 38 30 40 64 41 43 42 63 43
REMARK SMILES IDX 44 44 47 45 62 46 82 47 45 48 46 49 61 51 83 52 48 53 31 54
REMARK SMILES IDX 32 55 41 56 33 57 34 58 40 59 42 60 35 61 36 62 37 63 38 64
REMARK SMILES IDX 39 65 65 66 66 67 75 68 67 69 68 70 74 71 76 72 69 73 70 74
REMARK SMILES IDX 71 75 72 76 73 77 49 78 50 79 59 80 51 81 52 82 58 83 60 84
REMARK SMILES IDX 53 85 54 86 55 87 56 88 57 89
REMARK H PARENT 81 39 47 50
REMARK Flexibility Score: inf
ROOT
ATOM      1  C   UNL A   1      43.694  22.447  25.308  1.00  0.00     0.274 C 
ENDROOT
BRANCH   1   2
ATOM      2  O   UNL A   1      43.269  21.502  26.308  1.00  0.00    -0.459 OA
BRANCH   2   3
ATOM      3  C   UNL A   1      42.092  20.856  26.076  1.00  0.00     0.347 C 
ATOM      4  O   UNL A   1      41.995  19.765  25.523  1.00  0.00    -0.248 OA
BRANCH   3   5
ATOM      5  C   UNL A   1      40.874  21.691  26.484  1.00  0.00     0.279 C 
ATOM      6  C   UNL A   1      40.998  21.924  27.989  1.00  0.00     0.066 C 
BRANCH   5   7
ATOM      7  O   UNL A   1      39.656  21.030  26.143  1.00  0.00    -0.476 OA
BRANCH   7   8
ATOM      8  C   UNL A   1      38.570  21.767  25.757  1.00  0.00     0.156 A 
ATOM      9  C   UNL A   1      38.326  23.103  26.086  1.00  0.00     0.057 A 
ATOM     10  C   UNL A   1      37.611  21.078  25.001  1.00  0.00     0.171 A 
ATOM     11  C   UNL A   1      37.106  23.704  25.749  1.00  0.00     0.089 A 
ATOM     12  C   UNL A   1      36.401  21.663  24.638  1.00  0.00     0.128 A 
ATOM     13  F   UNL A   1      37.826  19.802  24.645  1.00  0.00    -0.203 F 
ATOM     14  C   UNL A   1      36.140  22.973  25.045  1.00  0.00     0.272 A 
BRANCH  14  15
ATOM     15  N   UNL A   1      34.825  23.566  24.784  1.00  0.00     0.062 N 
ATOM     16  O   UNL A   1      34.313  23.359  23.675  1.00  0.00    -0.258 OA
ATOM     17  O   UNL A   1      34.322  24.268  25.671  1.00  0.00    -0.258 OA
ENDBRANCH  14  15
ENDBRANCH   7   8
ENDBRANCH   5   7
ENDBRANCH   3   5
ENDBRANCH   2   3
ENDBRANCH   1   2
BRANCH   1  18
ATOM     18  C   UNL A   1      44.171  23.768  25.918  1.00  0.00     0.275 C 
BRANCH  18  19
ATOM     19  O   UNL A   1      43.167  24.361  26.760  1.00  0.00    -0.458 OA
BRANCH  19  20
ATOM     20  C   UNL A   1      42.438  25.333  26.159  1.00  0.00     0.338 C 
ATOM     21  O   UNL A   1      42.192  25.431  24.969  1.00  0.00    -0.246 OA
BRANCH  20  22
ATOM     22  C   UNL A   1      41.844  26.230  27.165  1.00  0.00     0.060 A 
ATOM     23  C   UNL A   1      42.327  27.542  27.218  1.00  0.00     0.016 A 
ATOM     24  C   UNL A   1      40.910  25.777  28.101  1.00  0.00     0.016 A 
ATOM     25  C   UNL A   1      41.909  28.395  28.234  1.00  0.00     0.010 A 
ATOM     26  C   UNL A   1      40.494  26.635  29.124  1.00  0.00     0.010 A 
ATOM     27  C   UNL A   1      41.018  27.936  29.213  1.00  0.00    -0.014 A 
BRANCH  27  28
ATOM     28  C   UNL A   1      40.750  28.791  30.392  1.00  0.00     0.031 A 
ATOM     29  C   UNL A   1      41.641  28.678  31.598  1.00  0.00     0.074 A 
ATOM     30  C   UNL A   1      39.772  29.714  30.353  1.00  0.00     0.049 A 
ATOM     31  N   UNL A   1      41.612  29.358  32.714  1.00  0.00    -0.248 NA
ATOM     32  C   UNL A   1      42.710  27.668  31.535  1.00  0.00     0.031 C 
ATOM     33  C   UNL A   1      38.874  29.941  29.221  1.00  0.00     0.029 A 
ATOM     34  N   UNL A   1      39.385  30.644  31.284  1.00  0.00    -0.354 N 
ATOM     35  C   UNL A   1      42.656  28.863  33.485  1.00  0.00     0.074 A 
ATOM     36  C   UNL A   1      43.280  27.803  32.724  1.00  0.00     0.031 C 
ATOM     37  C   UNL A   1      38.048  30.958  29.518  1.00  0.00     0.029 A 
ATOM     38  C   UNL A   1      38.344  31.438  30.868  1.00  0.00     0.049 A 
ATOM     39  H   UNL A   1      39.812  30.733  32.166  1.00  0.00     0.167 HD
ATOM     40  C   UNL A   1      43.065  29.264  34.713  1.00  0.00     0.037 A 
ATOM     41  C   UNL A   1      37.703  32.438  31.502  1.00  0.00     0.037 A 
ATOM     42  C   UNL A   1      42.440  30.318  35.468  1.00  0.00     0.049 A 
ATOM     43  C   UNL A   1      38.151  32.845  32.881  1.00  0.00     0.074 A 
ATOM     44  C   UNL A   1      42.760  30.778  36.733  1.00  0.00     0.029 A 
ATOM     45  N   UNL A   1      41.369  31.081  35.024  1.00  0.00    -0.354 N 
ATOM     46  N   UNL A   1      39.128  32.353  33.606  1.00  0.00    -0.248 NA
ATOM     47  C   UNL A   1      37.418  33.944  33.523  1.00  0.00     0.031 C 
ATOM     48  C   UNL A   1      41.866  31.803  37.064  1.00  0.00     0.029 A 
ATOM     49  C   UNL A   1      41.015  32.007  35.990  1.00  0.00     0.049 A 
ATOM     50  H   UNL A   1      40.927  30.978  34.151  1.00  0.00     0.167 HD
ATOM     51  C   UNL A   1      39.141  33.097  34.781  1.00  0.00     0.074 A 
ATOM     52  C   UNL A   1      38.079  34.076  34.666  1.00  0.00     0.031 C 
ATOM     53  C   UNL A   1      39.961  32.981  35.855  1.00  0.00     0.037 A 
BRANCH  40  54
ATOM     54  C   UNL A   1      44.236  28.544  35.319  1.00  0.00     0.058 A 
ATOM     55  C   UNL A   1      44.039  27.402  36.111  1.00  0.00     0.135 A 
ATOM     56  C   UNL A   1      45.552  28.995  35.132  1.00  0.00     0.135 A 
ATOM     57  F   UNL A   1      42.802  26.923  36.313  1.00  0.00    -0.206 F 
ATOM     58  C   UNL A   1      45.108  26.733  36.697  1.00  0.00     0.059 A 
ATOM     59  C   UNL A   1      46.638  28.329  35.693  1.00  0.00     0.059 A 
ATOM     60  F   UNL A   1      45.795  30.068  34.362  1.00  0.00    -0.206 F 
ATOM     61  C   UNL A   1      46.404  27.204  36.483  1.00  0.00     0.060 A 
BRANCH  61  62
ATOM     62  S   UNL A   1      47.787  26.287  37.197  1.00  0.00     0.124 S 
ATOM     63  O   UNL A   1      48.934  27.012  36.663  1.00  0.00    -0.237 OA
ATOM     64  O   UNL A   1      47.550  26.439  38.630  1.00  0.00    -0.237 OA
ATOM     65  O   UNL A   1      47.596  24.934  36.682  1.00  0.00    -0.744 OA
ENDBRANCH  61  62
ENDBRANCH  40  54
BRANCH  41  66
ATOM     66  C   UNL A   1      36.587  33.140  30.820  1.00  0.00     0.058 A 
ATOM     67  C   UNL A   1      36.832  34.049  29.779  1.00  0.00     0.135 A 
ATOM     68  C   UNL A   1      35.258  32.951  31.226  1.00  0.00     0.135 A 
ATOM     69  F   UNL A   1      38.087  34.267  29.358  1.00  0.00    -0.206 F 
ATOM     70  C   UNL A   1      35.802  34.772  29.188  1.00  0.00     0.059 A 
ATOM     71  C   UNL A   1      34.207  33.647  30.635  1.00  0.00     0.059 A 
ATOM     72  F   UNL A   1      34.975  32.081  32.208  1.00  0.00    -0.206 F 
ATOM     73  C   UNL A   1      34.493  34.572  29.630  1.00  0.00     0.060 A 
BRANCH  73  74
ATOM     74  S   UNL A   1      33.173  35.543  28.873  1.00  0.00     0.124 S 
ATOM     75  O   UNL A   1      32.529  34.546  28.026  1.00  0.00    -0.237 OA
ATOM     76  O   UNL A   1      32.407  35.980  30.036  1.00  0.00    -0.237 OA
ATOM     77  O   UNL A   1      33.892  36.598  28.167  1.00  0.00    -0.744 OA
ENDBRANCH  73  74
ENDBRANCH  41  66
BRANCH  53  78
ATOM     78  C   UNL A   1      39.770  33.954  36.983  1.00  0.00     0.058 A 
ATOM     79  C   UNL A   1      38.934  33.630  38.063  1.00  0.00     0.135 A 
ATOM     80  C   UNL A   1      40.358  35.228  36.966  1.00  0.00     0.135 A 
ATOM     81  F   UNL A   1      38.343  32.426  38.124  1.00  0.00    -0.206 F 
ATOM     82  C   UNL A   1      38.677  34.540  39.082  1.00  0.00     0.059 A 
ATOM     83  C   UNL A   1      40.132  36.147  37.986  1.00  0.00     0.059 A 
ATOM     84  F   UNL A   1      41.173  35.582  35.960  1.00  0.00    -0.206 F 
ATOM     85  C   UNL A   1      39.277  35.799  39.034  1.00  0.00     0.060 A 
BRANCH  85  86
ATOM     86  S   UNL A   1      38.956  36.963  40.376  1.00  0.00     0.124 S 
ATOM     87  O   UNL A   1      38.180  36.145  41.300  1.00  0.00    -0.237 OA
ATOM     88  O   UNL A   1      40.305  37.312  40.816  1.00  0.00    -0.237 OA
ATOM     89  O   UNL A   1      38.223  38.041  39.719  1.00  0.00    -0.744 OA
ENDBRANCH  85  86
ENDBRANCH  53  78
ENDBRANCH  27  28
ENDBRANCH  20  22
ENDBRANCH  19  20
ENDBRANCH  18  19
ENDBRANCH   1  18
TORSDOF 17
ENDMDL
MODEL 2
REMARK VINA RESULT:     -10.2      6.510     12.552
REMARK SMILES C[C@H](Oc1ccc([N+](=O)[O-])cc1F)C(=O)OCCOC(=O)c1ccc(-c2c3nc(c(-c4c(F)cc(S(=O)(=O)[O-])cc4F)c4ccc([nH]4)c(-c4c(F)cc(S(=O)(=O)[O-])cc4F)c4nc(c(-c5c(F)cc(S(=O)(=O)[O-])cc5F)c5ccc2[nH]5)C=C4)C=C3)cc1
REMARK SMILES IDX 17 1 16 2 14 3 15 4 2 5 1 6 3 7 4 8 5 9 12 10 6 11 11 12
REMARK SMILES IDX 13 13 7 14 8 15 9 16 10 17 18 18 19 19 20 20 21 21 22 22
REMARK SMILES IDX 23 23 87 24 24 25 86 26 25 27 26 28 27 29 80 30 28 31 85 32
REMARK SMILES IDX 79 33 81 34 29 35 84 36 78 37 77 38 30 40 64 41 43 42 63 43
REMARK SMILES IDX 44 44 47 45 62 46 82 47 45 48 46 49 61 51 83 52 48 53 31 54
REMARK SMILES IDX 32 55 41 56 33 57 34 58 40 59 42 60 35 61 36 62 37 63 38 64
REMARK SMILES IDX 39 65 65 66 66 67 75 68 67 69 68 70 74 71 76 72 69 73 70 74
REMARK SMILES IDX 71 75 72 76 73 77 49 78 50 79 59 80 51 81 52 82 58 83 60 84
REMARK SMILES IDX 53 85 54 86 55 87 56 88 57 89
REMARK H PARENT 81 39 47 50
REMARK Flexibility Score: inf
ROOT
ATOM      1  C   UNL A   1      34.295  32.209  28.277  1.00  0.00     0.274 C 
ENDROOT
BRANCH   1   2
ATOM      2  O   UNL A   1      34.440  31.197  27.263  1.00  0.00    -0.459 OA
BRANCH   2   3
ATOM      3  C   UNL A   1      33.335  30.448  26.987  1.00  0.00     0.347 C 
ATOM      4  O   UNL A   1      32.203  30.901  26.852  1.00  0.00    -0.248 OA
BRANCH   3   5
ATOM      5  C   UNL A   1      33.635  28.946  26.970  1.00  0.00     0.279 C 
ATOM      6  C   UNL A   1      35.148  28.808  27.143  1.00  0.00     0.066 C 
BRANCH   5   7
ATOM      7  O   UNL A   1      33.177  28.341  25.762  1.00  0.00    -0.476 OA
BRANCH   7   8
ATOM      8  C   UNL A   1      32.424  27.199  25.817  1.00  0.00     0.156 A 
ATOM      9  C   UNL A   1      31.034  27.140  25.943  1.00  0.00     0.057 A 
ATOM     10  C   UNL A   1      33.146  25.998  25.787  1.00  0.00     0.171 A 
ATOM     11  C   UNL A   1      30.392  25.908  26.133  1.00  0.00     0.089 A 
ATOM     12  C   UNL A   1      32.526  24.762  25.953  1.00  0.00     0.128 A 
ATOM     13  F   UNL A   1      34.480  26.020  25.640  1.00  0.00    -0.203 F 
ATOM     14  C   UNL A   1      31.146  24.727  26.159  1.00  0.00     0.272 A 
BRANCH  14  15
ATOM     15  N   UNL A   1      30.489  23.452  26.461  1.00  0.00     0.062 N 
ATOM     16  O   UNL A   1      29.760  23.404  27.461  1.00  0.00    -0.258 OA
ATOM     17  O   UNL A   1      30.732  22.488  25.720  1.00  0.00    -0.258 OA
ENDBRANCH  14  15
ENDBRANCH   7   8
ENDBRANCH   5   7
ENDBRANCH   3   5
ENDBRANCH   2   3
ENDBRANCH   1   2
BRANCH   1  18
ATOM     18  C   UNL A   1      34.933  31.799  29.607  1.00  0.00     0.275 C 
BRANCH  18  19
ATOM     19  O   UNL A   1      35.787  30.652  29.458  1.00  0.00    -0.458 OA
BRANCH  19  20
ATOM     20  C   UNL A   1      36.553  30.381  30.542  1.00  0.00     0.338 C 
ATOM     21  O   UNL A   1      36.162  30.173  31.678  1.00  0.00    -0.246 OA
BRANCH  20  22
ATOM     22  C   UNL A   1      37.966  30.235  30.155  1.00  0.00     0.060 A 
ATOM     23  C   UNL A   1      38.267  30.320  28.790  1.00  0.00     0.016 A 
ATOM     24  C   UNL A   1      38.960  29.923  31.085  1.00  0.00     0.016 A 
ATOM     25  C   UNL A   1      39.559  30.052  28.347  1.00  0.00     0.010 A 
ATOM     26  C   UNL A   1      40.257  29.650  30.637  1.00  0.00     0.010 A 
ATOM     27  C   UNL A   1      40.552  29.681  29.263  1.00  0.00    -0.014 A 
BRANCH  27  28
ATOM     28  C   UNL A   1      41.855  29.203  28.748  1.00  0.00     0.031 A 
ATOM     29  C   UNL A   1      43.026  30.146  28.727  1.00  0.00     0.074 A 
ATOM     30  C   UNL A   1      42.010  27.919  28.379  1.00  0.00     0.049 A 
ATOM     31  N   UNL A   1      44.260  29.923  28.359  1.00  0.00    -0.248 NA
ATOM     32  C   UNL A   1      42.773  31.522  29.187  1.00  0.00     0.031 C 
ATOM     33  C   UNL A   1      40.956  26.905  28.398  1.00  0.00     0.029 A 
ATOM     34  N   UNL A   1      43.119  27.245  27.935  1.00  0.00    -0.354 N 
ATOM     35  C   UNL A   1      44.932  31.126  28.544  1.00  0.00     0.074 A 
ATOM     36  C   UNL A   1      43.962  32.085  29.026  1.00  0.00     0.031 C 
ATOM     37  C   UNL A   1      41.473  25.732  27.998  1.00  0.00     0.029 A 
ATOM     38  C   UNL A   1      42.887  25.916  27.674  1.00  0.00     0.049 A 
ATOM     39  H   UNL A   1      43.997  27.673  27.815  1.00  0.00     0.167 HD
ATOM     40  C   UNL A   1      46.243  31.402  28.341  1.00  0.00     0.037 A 
ATOM     41  C   UNL A   1      43.721  24.958  27.225  1.00  0.00     0.037 A 
ATOM     42  C   UNL A   1      47.205  30.446  27.860  1.00  0.00     0.049 A 
ATOM     43  C   UNL A   1      45.166  25.296  26.973  1.00  0.00     0.074 A 
ATOM     44  C   UNL A   1      48.549  30.636  27.593  1.00  0.00     0.029 A 
ATOM     45  N   UNL A   1      46.926  29.116  27.579  1.00  0.00    -0.354 N 
ATOM     46  N   UNL A   1      45.782  26.442  27.133  1.00  0.00    -0.248 NA
ATOM     47  C   UNL A   1      46.029  24.210  26.488  1.00  0.00     0.031 C 
ATOM     48  C   UNL A   1      49.077  29.426  27.126  1.00  0.00     0.029 A 
ATOM     49  C   UNL A   1      48.071  28.473  27.140  1.00  0.00     0.049 A 
ATOM     50  H   UNL A   1      46.043  28.692  27.678  1.00  0.00     0.167 HD
ATOM     51  C   UNL A   1      47.110  26.212  26.790  1.00  0.00     0.074 A 
ATOM     52  C   UNL A   1      47.208  24.814  26.420  1.00  0.00     0.031 C 
ATOM     53  C   UNL A   1      48.153  27.079  26.786  1.00  0.00     0.037 A 
BRANCH  40  54
ATOM     54  C   UNL A   1      46.705  32.803  28.626  1.00  0.00     0.058 A 
ATOM     55  C   UNL A   1      47.097  33.176  29.921  1.00  0.00     0.135 A 
ATOM     56  C   UNL A   1      46.743  33.782  27.620  1.00  0.00     0.135 A 
ATOM     57  F   UNL A   1      47.089  32.276  30.916  1.00  0.00    -0.206 F 
ATOM     58  C   UNL A   1      47.508  34.473  30.209  1.00  0.00     0.059 A 
ATOM     59  C   UNL A   1      47.170  35.081  27.882  1.00  0.00     0.059 A 
ATOM     60  F   UNL A   1      46.402  33.468  26.360  1.00  0.00    -0.206 F 
ATOM     61  C   UNL A   1      47.542  35.418  29.183  1.00  0.00     0.060 A 
BRANCH  61  62
ATOM     62  S   UNL A   1      48.140  37.081  29.559  1.00  0.00     0.124 S 
ATOM     63  O   UNL A   1      48.700  37.494  28.277  1.00  0.00    -0.237 OA
ATOM     64  O   UNL A   1      46.917  37.764  29.968  1.00  0.00    -0.237 OA
ATOM     65  O   UNL A   1      49.108  36.857  30.629  1.00  0.00    -0.744 OA
ENDBRANCH  61  62
ENDBRANCH  40  54
BRANCH  41  66
ATOM     66  C   UNL A   1      43.205  23.582  27.016  1.00  0.00     0.058 A 
ATOM     67  C   UNL A   1      43.049  22.695  28.093  1.00  0.00     0.135 A 
ATOM     68  C   UNL A   1      42.906  23.109  25.730  1.00  0.00     0.135 A 
ATOM     69  F   UNL A   1      43.327  23.099  29.342  1.00  0.00    -0.206 F 
ATOM     70  C   UNL A   1      42.645  21.380  27.899  1.00  0.00     0.059 A 
ATOM     71  C   UNL A   1      42.479  21.802  25.512  1.00  0.00     0.059 A 
ATOM     72  F   UNL A   1      43.028  23.926  24.671  1.00  0.00    -0.206 F 
ATOM     73  C   UNL A   1      42.372  20.939  26.603  1.00  0.00     0.060 A 
BRANCH  73  74
ATOM     74  S   UNL A   1      41.881  19.218  26.366  1.00  0.00     0.124 S 
ATOM     75  O   UNL A   1      42.899  18.752  25.431  1.00  0.00    -0.237 OA
ATOM     76  O   UNL A   1      41.970  18.683  27.721  1.00  0.00    -0.237 OA
ATOM     77  O   UNL A   1      40.530  19.323  25.824  1.00  0.00    -0.744 OA
ENDBRANCH  73  74
ENDBRANCH  41  66
BRANCH  53  78
ATOM     78  C   UNL A   1      49.502  26.542  26.399  1.00  0.00     0.058 A 
ATOM     79  C   UNL A   1      50.338  25.965  27.368  1.00  0.00     0.135 A 
ATOM     80  C   UNL A   1      49.994  26.657  25.090  1.00  0.00     0.135 A 
ATOM     81  F   UNL A   1      49.915  25.835  28.636  1.00  0.00    -0.206 F 
ATOM     82  C   UNL A   1      51.620  25.529  27.055  1.00  0.00     0.059 A 
ATOM     83  C   UNL A   1      51.267  26.209  24.751  1.00  0.00     0.059 A 
ATOM     84  F   UNL A   1      49.229  27.193  24.127  1.00  0.00    -0.206 F 
ATOM     85  C   UNL A   1      52.079  25.660  25.744  1.00  0.00     0.060 A 
BRANCH  85  86
ATOM     86  S   UNL A   1      53.738  25.068  25.344  1.00  0.00     0.124 S 
ATOM     87  O   UNL A   1      53.524  23.629  25.244  1.00  0.00    -0.237 OA
ATOM     88  O   UNL A   1      54.019  25.757  24.088  1.00  0.00    -0.237 OA
ATOM     89  O   UNL A   1      54.536  25.510  26.483  1.00  0.00    -0.744 OA
ENDBRANCH  85  86
ENDBRANCH  53  78
ENDBRANCH  27  28
ENDBRANCH  20  22
ENDBRANCH  19  20
ENDBRANCH  18  19
ENDBRANCH   1  18
TORSDOF 17
ENDMDL
MODEL 3
REMARK VINA RESULT:     -10.2      5.319      7.832
REMARK SMILES C[C@H](Oc1ccc([N+](=O)[O-])cc1F)C(=O)OCCOC(=O)c1ccc(-c2c3nc(c(-c4c(F)cc(S(=O)(=O)[O-])cc4F)c4ccc([nH]4)c(-c4c(F)cc(S(=O)(=O)[O-])cc4F)c4nc(c(-c5c(F)cc(S(=O)(=O)[O-])cc5F)c5ccc2[nH]5)C=C4)C=C3)cc1
REMARK SMILES IDX 17 1 16 2 14 3 15 4 2 5 1 6 3 7 4 8 5 9 12 10 6 11 11 12
REMARK SMILES IDX 13 13 7 14 8 15 9 16 10 17 18 18 19 19 20 20 21 21 22 22
REMARK SMILES IDX 23 23 87 24 24 25 86 26 25 27 26 28 27 29 80 30 28 31 85 32
REMARK SMILES IDX 79 33 81 34 29 35 84 36 78 37 77 38 30 40 64 41 43 42 63 43
REMARK SMILES IDX 44 44 47 45 62 46 82 47 45 48 46 49 61 51 83 52 48 53 31 54
REMARK SMILES IDX 32 55 41 56 33 57 34 58 40 59 42 60 35 61 36 62 37 63 38 64
REMARK SMILES IDX 39 65 65 66 66 67 75 68 67 69 68 70 74 71 76 72 69 73 70 74
REMARK SMILES IDX 71 75 72 76 73 77 49 78 50 79 59 80 51 81 52 82 58 83 60 84
REMARK SMILES IDX 53 85 54 86 55 87 56 88 57 89
REMARK H PARENT 81 39 47 50
REMARK Flexibility Score: inf
ROOT
ATOM      1  C   UNL A   1      41.598  19.369  26.075  1.00  0.00     0.274 C 
ENDROOT
BRANCH   1   2
ATOM      2  O   UNL A   1      42.595  20.241  26.638  1.00  0.00    -0.459 OA
BRANCH   2   3
ATOM      3  C   UNL A   1      43.391  20.908  25.755  1.00  0.00     0.347 C 
ATOM      4  O   UNL A   1      43.949  20.390  24.793  1.00  0.00    -0.248 OA
BRANCH   3   5
ATOM      5  C   UNL A   1      43.611  22.371  26.154  1.00  0.00     0.279 C 
ATOM      6  C   UNL A   1      43.066  23.217  25.004  1.00  0.00     0.066 C 
BRANCH   5   7
ATOM      7  O   UNL A   1      44.991  22.636  26.406  1.00  0.00    -0.476 OA
BRANCH   7   8
ATOM      8  C   UNL A   1      45.352  23.361  27.509  1.00  0.00     0.156 A 
ATOM      9  C   UNL A   1      44.649  23.423  28.715  1.00  0.00     0.057 A 
ATOM     10  C   UNL A   1      46.512  24.135  27.368  1.00  0.00     0.171 A 
ATOM     11  C   UNL A   1      45.047  24.315  29.721  1.00  0.00     0.089 A 
ATOM     12  C   UNL A   1      46.936  25.012  28.364  1.00  0.00     0.128 A 
ATOM     13  F   UNL A   1      47.225  24.078  26.232  1.00  0.00    -0.203 F 
ATOM     14  C   UNL A   1      46.177  25.121  29.529  1.00  0.00     0.272 A 
BRANCH  14  15
ATOM     15  N   UNL A   1      46.532  26.127  30.535  1.00  0.00     0.062 N 
ATOM     16  O   UNL A   1      47.599  25.977  31.145  1.00  0.00    -0.258 OA
ATOM     17  O   UNL A   1      45.727  27.046  30.742  1.00  0.00    -0.258 OA
ENDBRANCH  14  15
ENDBRANCH   7   8
ENDBRANCH   5   7
ENDBRANCH   3   5
ENDBRANCH   2   3
ENDBRANCH   1   2
BRANCH   1  18
ATOM     18  C   UNL A   1      40.193  19.976  26.126  1.00  0.00     0.275 C 
BRANCH  18  19
ATOM     19  O   UNL A   1      40.151  21.153  26.950  1.00  0.00    -0.458 OA
BRANCH  19  20
ATOM     20  C   UNL A   1      39.378  22.152  26.458  1.00  0.00     0.338 C 
ATOM     21  O   UNL A   1      38.434  22.035  25.696  1.00  0.00    -0.246 OA
BRANCH  20  22
ATOM     22  C   UNL A   1      39.744  23.439  27.072  1.00  0.00     0.060 A 
ATOM     23  C   UNL A   1      39.201  24.597  26.502  1.00  0.00     0.016 A 
ATOM     24  C   UNL A   1      40.670  23.525  28.115  1.00  0.00     0.016 A 
ATOM     25  C   UNL A   1      39.617  25.848  26.946  1.00  0.00     0.010 A 
ATOM     26  C   UNL A   1      41.090  24.784  28.556  1.00  0.00     0.010 A 
ATOM     27  C   UNL A   1      40.589  25.950  27.950  1.00  0.00    -0.014 A 
BRANCH  27  28
ATOM     28  C   UNL A   1      41.160  27.281  28.258  1.00  0.00     0.031 A 
ATOM     29  C   UNL A   1      42.590  27.567  27.893  1.00  0.00     0.074 A 
ATOM     30  C   UNL A   1      40.387  28.247  28.785  1.00  0.00     0.049 A 
ATOM     31  N   UNL A   1      43.274  28.672  28.032  1.00  0.00    -0.248 NA
ATOM     32  C   UNL A   1      43.349  26.462  27.284  1.00  0.00     0.031 C 
ATOM     33  C   UNL A   1      38.976  28.094  29.141  1.00  0.00     0.029 A 
ATOM     34  N   UNL A   1      40.674  29.551  29.095  1.00  0.00    -0.354 N 
ATOM     35  C   UNL A   1      44.540  28.400  27.528  1.00  0.00     0.074 A 
ATOM     36  C   UNL A   1      44.541  27.015  27.109  1.00  0.00     0.031 C 
ATOM     37  C   UNL A   1      38.516  29.267  29.607  1.00  0.00     0.029 A 
ATOM     38  C   UNL A   1      39.603  30.245  29.603  1.00  0.00     0.049 A 
ATOM     39  H   UNL A   1      41.564  29.952  28.965  1.00  0.00     0.167 HD
ATOM     40  C   UNL A   1      45.602  29.233  27.414  1.00  0.00     0.037 A 
ATOM     41  C   UNL A   1      39.510  31.523  30.018  1.00  0.00     0.037 A 
ATOM     42  C   UNL A   1      45.597  30.610  27.833  1.00  0.00     0.049 A 
ATOM     43  C   UNL A   1      40.713  32.422  29.914  1.00  0.00     0.074 A 
ATOM     44  C   UNL A   1      46.632  31.528  27.789  1.00  0.00     0.029 A 
ATOM     45  N   UNL A   1      44.501  31.269  28.371  1.00  0.00    -0.354 N 
ATOM     46  N   UNL A   1      41.910  32.144  29.454  1.00  0.00    -0.248 NA
ATOM     47  C   UNL A   1      40.552  33.807  30.378  1.00  0.00     0.031 C 
ATOM     48  C   UNL A   1      46.167  32.736  28.323  1.00  0.00     0.029 A 
ATOM     49  C   UNL A   1      44.833  32.581  28.663  1.00  0.00     0.049 A 
ATOM     50  H   UNL A   1      43.617  30.864  28.522  1.00  0.00     0.167 HD
ATOM     51  C   UNL A   1      42.639  33.325  29.552  1.00  0.00     0.074 A 
ATOM     52  C   UNL A   1      41.745  34.321  30.110  1.00  0.00     0.031 C 
ATOM     53  C   UNL A   1      43.929  33.562  29.208  1.00  0.00     0.037 A 
BRANCH  40  54
ATOM     54  C   UNL A   1      46.863  28.667  26.825  1.00  0.00     0.058 A 
ATOM     55  C   UNL A   1      47.971  28.392  27.640  1.00  0.00     0.135 A 
ATOM     56  C   UNL A   1      46.980  28.413  25.449  1.00  0.00     0.135 A 
ATOM     57  F   UNL A   1      47.907  28.607  28.964  1.00  0.00    -0.206 F 
ATOM     58  C   UNL A   1      49.154  27.886  27.112  1.00  0.00     0.059 A 
ATOM     59  C   UNL A   1      48.148  27.888  24.902  1.00  0.00     0.059 A 
ATOM     60  F   UNL A   1      45.940  28.635  24.630  1.00  0.00    -0.206 F 
ATOM     61  C   UNL A   1      49.233  27.637  25.741  1.00  0.00     0.060 A 
BRANCH  61  62
ATOM     62  S   UNL A   1      50.752  26.920  25.079  1.00  0.00     0.124 S 
ATOM     63  O   UNL A   1      50.882  25.705  25.876  1.00  0.00    -0.237 OA
ATOM     64  O   UNL A   1      50.414  26.724  23.672  1.00  0.00    -0.237 OA
ATOM     65  O   UNL A   1      51.751  27.954  25.333  1.00  0.00    -0.744 OA
ENDBRANCH  61  62
ENDBRANCH  40  54
BRANCH  41  66
ATOM     66  C   UNL A   1      38.216  32.028  30.541  1.00  0.00     0.058 A 
ATOM     67  C   UNL A   1      37.296  32.671  29.699  1.00  0.00     0.135 A 
ATOM     68  C   UNL A   1      37.895  31.922  31.902  1.00  0.00     0.135 A 
ATOM     69  F   UNL A   1      37.559  32.802  28.390  1.00  0.00    -0.206 F 
ATOM     70  C   UNL A   1      36.118  33.220  30.193  1.00  0.00     0.059 A 
ATOM     71  C   UNL A   1      36.712  32.445  32.418  1.00  0.00     0.059 A 
ATOM     72  F   UNL A   1      38.739  31.304  32.743  1.00  0.00    -0.206 F 
ATOM     73  C   UNL A   1      35.840  33.111  31.556  1.00  0.00     0.060 A 
BRANCH  73  74
ATOM     74  S   UNL A   1      34.322  33.859  32.185  1.00  0.00     0.124 S 
ATOM     75  O   UNL A   1      34.853  34.912  33.045  1.00  0.00    -0.237 OA
ATOM     76  O   UNL A   1      33.669  34.308  30.960  1.00  0.00    -0.237 OA
ATOM     77  O   UNL A   1      33.663  32.756  32.877  1.00  0.00    -0.744 OA
ENDBRANCH  73  74
ENDBRANCH  41  66
BRANCH  53  78
ATOM     78  C   UNL A   1      44.451  34.958  29.391  1.00  0.00     0.058 A 
ATOM     79  C   UNL A   1      45.008  35.350  30.619  1.00  0.00     0.135 A 
ATOM     80  C   UNL A   1      44.343  35.925  28.380  1.00  0.00     0.135 A 
ATOM     81  F   UNL A   1      45.130  34.464  31.621  1.00  0.00    -0.206 F 
ATOM     82  C   UNL A   1      45.429  36.656  30.843  1.00  0.00     0.059 A 
ATOM     83  C   UNL A   1      44.777  37.233  28.575  1.00  0.00     0.059 A 
ATOM     84  F   UNL A   1      43.826  35.597  27.185  1.00  0.00    -0.206 F 
ATOM     85  C   UNL A   1      45.305  37.593  29.816  1.00  0.00     0.060 A 
BRANCH  85  86
ATOM     86  S   UNL A   1      45.878  39.280  30.110  1.00  0.00     0.124 S 
ATOM     87  O   UNL A   1      45.914  39.822  28.756  1.00  0.00    -0.237 OA
ATOM     88  O   UNL A   1      44.836  39.816  30.981  1.00  0.00    -0.237 OA
ATOM     89  O   UNL A   1      47.177  39.088  30.747  1.00  0.00    -0.744 OA
ENDBRANCH  85  86
ENDBRANCH  53  78
ENDBRANCH  27  28
ENDBRANCH  20  22
ENDBRANCH  19  20
ENDBRANCH  18  19
ENDBRANCH   1  18
TORSDOF 17
ENDMDL
