MODEL 1
REMARK VINA RESULT:     -10.0      0.000      0.000
REMARK SMILES O=C(OCCOC(=O)c1ccc(Cl)nc1C(F)(F)F)c1ccc(-c2c3nc(c(-c4c(F)cc(S(=O)(=O)[O-])cc4F)c4ccc([nH]4)c(-c4c(F)cc(S(=O)(=O)[O-])cc4F)c4nc(c(-c5c(F)cc(S(=O)(=O)[O-])cc5F)c5ccc2[nH]5)C=C4)C=C3)cc1
REMARK SMILES IDX 4 1 3 2 2 3 1 4 20 5 21 6 85 7 22 8 84 9 23 10 24 11 25 12
REMARK SMILES IDX 78 13 26 14 83 15 77 16 79 17 27 18 82 19 76 20 75 21 28 23
REMARK SMILES IDX 62 24 41 25 61 26 42 27 45 28 60 29 80 30 43 31 44 32 59 34
REMARK SMILES IDX 81 35 46 36 29 37 30 38 39 39 31 40 32 41 38 42 40 43 33 44
REMARK SMILES IDX 34 45 35 46 36 47 37 48 63 49 64 50 73 51 65 52 66 53 72 54
REMARK SMILES IDX 74 55 67 56 68 57 69 58 70 59 71 60 47 61 48 62 57 63 49 64
REMARK SMILES IDX 50 65 56 66 58 67 51 68 52 69 53 70 54 71 55 72 5 73 6 74
REMARK SMILES IDX 7 75 8 76 9 77 10 78 15 79 11 80 14 81 12 82 13 83 16 84
REMARK SMILES IDX 17 85 18 86 19 87
REMARK H PARENT 79 22 45 33
REMARK Flexibility Score: inf
ROOT
ATOM      1  C   UNL A   1      33.381  33.084  27.988  1.00  0.00     0.275 C 
ENDROOT
BRANCH   1   2
ATOM      2  O   UNL A   1      34.287  32.155  27.350  1.00  0.00    -0.458 OA
BRANCH   2   3
ATOM      3  C   UNL A   1      34.459  30.828  27.562  1.00  0.00     0.338 C 
ATOM      4  O   UNL A   1      33.548  30.046  27.310  1.00  0.00    -0.246 OA
BRANCH   3   5
ATOM      5  C   UNL A   1      35.715  30.282  28.138  1.00  0.00     0.060 A 
ATOM      6  C   UNL A   1      35.797  29.734  29.418  1.00  0.00     0.016 A 
ATOM      7  C   UNL A   1      36.895  30.428  27.389  1.00  0.00     0.016 A 
ATOM      8  C   UNL A   1      37.013  29.249  29.905  1.00  0.00     0.010 A 
ATOM      9  C   UNL A   1      38.116  29.944  27.870  1.00  0.00     0.010 A 
ATOM     10  C   UNL A   1      38.180  29.358  29.140  1.00  0.00    -0.014 A 
BRANCH  10  11
ATOM     11  C   UNL A   1      39.479  29.024  29.768  1.00  0.00     0.031 A 
ATOM     12  C   UNL A   1      39.926  29.819  30.960  1.00  0.00     0.074 A 
ATOM     13  C   UNL A   1      40.202  27.971  29.341  1.00  0.00     0.049 A 
ATOM     14  N   UNL A   1      40.930  29.597  31.765  1.00  0.00    -0.248 NA
ATOM     15  C   UNL A   1      39.113  30.994  31.317  1.00  0.00     0.031 C 
ATOM     16  C   UNL A   1      39.829  27.085  28.241  1.00  0.00     0.029 A 
ATOM     17  N   UNL A   1      41.399  27.466  29.778  1.00  0.00    -0.354 N 
ATOM     18  C   UNL A   1      40.833  30.561  32.758  1.00  0.00     0.074 A 
ATOM     19  C   UNL A   1      39.724  31.422  32.411  1.00  0.00     0.031 C 
ATOM     20  C   UNL A   1      40.808  26.187  28.044  1.00  0.00     0.029 A 
ATOM     21  C   UNL A   1      41.859  26.408  29.031  1.00  0.00     0.049 A 
ATOM     22  H   UNL A   1      41.883  27.828  30.556  1.00  0.00     0.167 HD
ATOM     23  C   UNL A   1      41.572  30.688  33.884  1.00  0.00     0.037 A 
ATOM     24  C   UNL A   1      42.993  25.689  29.145  1.00  0.00     0.037 A 
ATOM     25  C   UNL A   1      42.696  29.851  34.198  1.00  0.00     0.049 A 
ATOM     26  C   UNL A   1      43.887  25.939  30.329  1.00  0.00     0.074 A 
ATOM     27  C   UNL A   1      43.519  29.891  35.309  1.00  0.00     0.029 A 
ATOM     28  N   UNL A   1      43.170  28.832  33.383  1.00  0.00    -0.354 N 
ATOM     29  N   UNL A   1      43.731  26.801  31.307  1.00  0.00    -0.248 NA
ATOM     30  C   UNL A   1      45.079  25.091  30.457  1.00  0.00     0.031 C 
ATOM     31  C   UNL A   1      44.519  28.925  35.144  1.00  0.00     0.029 A 
ATOM     32  C   UNL A   1      44.291  28.254  33.951  1.00  0.00     0.049 A 
ATOM     33  H   UNL A   1      42.767  28.562  32.527  1.00  0.00     0.167 HD
ATOM     34  C   UNL A   1      44.775  26.564  32.192  1.00  0.00     0.074 A 
ATOM     35  C   UNL A   1      45.560  25.483  31.629  1.00  0.00     0.031 C 
ATOM     36  C   UNL A   1      45.049  27.171  33.374  1.00  0.00     0.037 A 
BRANCH  23  37
ATOM     37  C   UNL A   1      41.169  31.772  34.841  1.00  0.00     0.058 A 
ATOM     38  C   UNL A   1      40.185  31.551  35.819  1.00  0.00     0.135 A 
ATOM     39  C   UNL A   1      41.749  33.047  34.770  1.00  0.00     0.135 A 
ATOM     40  F   UNL A   1      39.582  30.354  35.913  1.00  0.00    -0.206 F 
ATOM     41  C   UNL A   1      39.764  32.566  36.670  1.00  0.00     0.059 A 
ATOM     42  C   UNL A   1      41.359  34.073  35.627  1.00  0.00     0.059 A 
ATOM     43  F   UNL A   1      42.690  33.312  33.849  1.00  0.00    -0.206 F 
ATOM     44  C   UNL A   1      40.353  33.827  36.561  1.00  0.00     0.060 A 
BRANCH  44  45
ATOM     45  S   UNL A   1      39.777  35.144  37.655  1.00  0.00     0.124 S 
ATOM     46  O   UNL A   1      38.529  34.578  38.158  1.00  0.00    -0.237 OA
ATOM     47  O   UNL A   1      40.863  35.242  38.624  1.00  0.00    -0.237 OA
ATOM     48  O   UNL A   1      39.632  36.288  36.761  1.00  0.00    -0.744 OA
ENDBRANCH  44  45
ENDBRANCH  23  37
BRANCH  24  49
ATOM     49  C   UNL A   1      43.322  24.648  28.135  1.00  0.00     0.058 A 
ATOM     50  C   UNL A   1      44.045  24.952  26.972  1.00  0.00     0.135 A 
ATOM     51  C   UNL A   1      42.913  23.317  28.318  1.00  0.00     0.135 A 
ATOM     52  F   UNL A   1      44.461  26.209  26.752  1.00  0.00    -0.206 F 
ATOM     53  C   UNL A   1      44.333  23.981  26.017  1.00  0.00     0.059 A 
ATOM     54  C   UNL A   1      43.202  22.325  27.386  1.00  0.00     0.059 A 
ATOM     55  F   UNL A   1      42.239  22.968  29.425  1.00  0.00    -0.206 F 
ATOM     56  C   UNL A   1      43.906  22.670  26.233  1.00  0.00     0.060 A 
BRANCH  56  57
ATOM     57  S   UNL A   1      44.319  21.410  25.005  1.00  0.00     0.124 S 
ATOM     58  O   UNL A   1      45.694  21.085  25.368  1.00  0.00    -0.237 OA
ATOM     59  O   UNL A   1      43.323  20.380  25.282  1.00  0.00    -0.237 OA
ATOM     60  O   UNL A   1      44.149  22.112  23.736  1.00  0.00    -0.744 OA
ENDBRANCH  56  57
ENDBRANCH  24  49
BRANCH  36  61
ATOM     61  C   UNL A   1      46.219  26.652  34.159  1.00  0.00     0.058 A 
ATOM     62  C   UNL A   1      46.085  25.592  35.069  1.00  0.00     0.135 A 
ATOM     63  C   UNL A   1      47.501  27.185  33.951  1.00  0.00     0.135 A 
ATOM     64  F   UNL A   1      44.878  25.056  35.308  1.00  0.00    -0.206 F 
ATOM     65  C   UNL A   1      47.182  25.089  35.760  1.00  0.00     0.059 A 
ATOM     66  C   UNL A   1      48.616  26.680  34.613  1.00  0.00     0.059 A 
ATOM     67  F   UNL A   1      47.683  28.194  33.084  1.00  0.00    -0.206 F 
ATOM     68  C   UNL A   1      48.443  25.639  35.523  1.00  0.00     0.060 A 
BRANCH  68  69
ATOM     69  S   UNL A   1      49.867  24.949  36.393  1.00  0.00     0.124 S 
ATOM     70  O   UNL A   1      49.750  23.533  36.068  1.00  0.00    -0.237 OA
ATOM     71  O   UNL A   1      50.985  25.653  35.771  1.00  0.00    -0.237 OA
ATOM     72  O   UNL A   1      49.613  25.298  37.787  1.00  0.00    -0.744 OA
ENDBRANCH  68  69
ENDBRANCH  36  61
ENDBRANCH  10  11
ENDBRANCH   3   5
ENDBRANCH   2   3
ENDBRANCH   1   2
BRANCH   1  73
ATOM     73  C   UNL A   1      34.074  34.286  28.619  1.00  0.00     0.275 C 
BRANCH  73  74
ATOM     74  O   UNL A   1      34.036  34.237  30.054  1.00  0.00    -0.458 OA
BRANCH  74  75
ATOM     75  C   UNL A   1      34.815  33.296  30.639  1.00  0.00     0.340 C 
ATOM     76  O   UNL A   1      34.445  32.280  31.206  1.00  0.00    -0.246 OA
BRANCH  75  77
ATOM     77  C   UNL A   1      36.235  33.661  30.494  1.00  0.00     0.091 A 
ATOM     78  C   UNL A   1      36.878  33.459  29.266  1.00  0.00     0.021 A 
ATOM     79  C   UNL A   1      36.955  34.239  31.543  1.00  0.00     0.160 A 
ATOM     80  C   UNL A   1      38.219  33.808  29.123  1.00  0.00     0.042 A 
ATOM     81  N   UNL A   1      38.284  34.548  31.413  1.00  0.00    -0.231 NA
ATOM     82  C   UNL A   1      38.878  34.314  30.224  1.00  0.00     0.129 A 
ATOM     83  Cl  UNL A   1      40.544  34.693  30.167  1.00  0.00    -0.062 Cl
BRANCH  79  84
ATOM     84  C   UNL A   1      36.292  34.554  32.876  1.00  0.00     0.434 C 
ATOM     85  F   UNL A   1      37.181  34.965  33.829  1.00  0.00    -0.164 F 
ATOM     86  F   UNL A   1      35.372  35.555  32.790  1.00  0.00    -0.164 F 
ATOM     87  F   UNL A   1      35.659  33.485  33.432  1.00  0.00    -0.164 F 
ENDBRANCH  79  84
ENDBRANCH  75  77
ENDBRANCH  74  75
ENDBRANCH  73  74
ENDBRANCH   1  73
TORSDOF 15
ENDMDL
MODEL 2
REMARK VINA RESULT:      -9.9      1.404      2.012
REMARK SMILES O=C(OCCOC(=O)c1ccc(Cl)nc1C(F)(F)F)c1ccc(-c2c3nc(c(-c4c(F)cc(S(=O)(=O)[O-])cc4F)c4ccc([nH]4)c(-c4c(F)cc(S(=O)(=O)[O-])cc4F)c4nc(c(-c5c(F)cc(S(=O)(=O)[O-])cc5F)c5ccc2[nH]5)C=C4)C=C3)cc1
REMARK SMILES IDX 4 1 3 2 2 3 1 4 20 5 21 6 85 7 22 8 84 9 23 10 24 11 25 12
REMARK SMILES IDX 78 13 26 14 83 15 77 16 79 17 27 18 82 19 76 20 75 21 28 23
REMARK SMILES IDX 62 24 41 25 61 26 42 27 45 28 60 29 80 30 43 31 44 32 59 34
REMARK SMILES IDX 81 35 46 36 29 37 30 38 39 39 31 40 32 41 38 42 40 43 33 44
REMARK SMILES IDX 34 45 35 46 36 47 37 48 63 49 64 50 73 51 65 52 66 53 72 54
REMARK SMILES IDX 74 55 67 56 68 57 69 58 70 59 71 60 47 61 48 62 57 63 49 64
REMARK SMILES IDX 50 65 56 66 58 67 51 68 52 69 53 70 54 71 55 72 5 73 6 74
REMARK SMILES IDX 7 75 8 76 9 77 10 78 15 79 11 80 14 81 12 82 13 83 16 84
REMARK SMILES IDX 17 85 18 86 19 87
REMARK H PARENT 79 22 45 33
REMARK Flexibility Score: inf
ROOT
ATOM      1  C   UNL A   1      34.619  33.463  27.819  1.00  0.00     0.275 C 
ENDROOT
BRANCH   1   2
ATOM      2  O   UNL A   1      34.030  32.158  28.017  1.00  0.00    -0.458 OA
BRANCH   2   3
ATOM      3  C   UNL A   1      34.494  30.934  27.667  1.00  0.00     0.338 C 
ATOM      4  O   UNL A   1      33.852  30.237  26.888  1.00  0.00    -0.246 OA
BRANCH   3   5
ATOM      5  C   UNL A   1      35.750  30.380  28.236  1.00  0.00     0.060 A 
ATOM      6  C   UNL A   1      35.826  29.792  29.499  1.00  0.00     0.016 A 
ATOM      7  C   UNL A   1      36.934  30.557  27.501  1.00  0.00     0.016 A 
ATOM      8  C   UNL A   1      37.042  29.300  29.979  1.00  0.00     0.010 A 
ATOM      9  C   UNL A   1      38.155  30.067  27.977  1.00  0.00     0.010 A 
ATOM     10  C   UNL A   1      38.214  29.443  29.228  1.00  0.00    -0.014 A 
BRANCH  10  11
ATOM     11  C   UNL A   1      39.511  29.098  29.855  1.00  0.00     0.031 A 
ATOM     12  C   UNL A   1      39.960  29.884  31.053  1.00  0.00     0.074 A 
ATOM     13  C   UNL A   1      40.229  28.044  29.422  1.00  0.00     0.049 A 
ATOM     14  N   UNL A   1      40.962  29.651  31.858  1.00  0.00    -0.248 NA
ATOM     15  C   UNL A   1      39.152  31.059  31.417  1.00  0.00     0.031 C 
ATOM     16  C   UNL A   1      39.853  27.168  28.317  1.00  0.00     0.029 A 
ATOM     17  N   UNL A   1      41.423  27.531  29.858  1.00  0.00    -0.354 N 
ATOM     18  C   UNL A   1      40.867  30.610  32.857  1.00  0.00     0.074 A 
ATOM     19  C   UNL A   1      39.763  31.478  32.514  1.00  0.00     0.031 C 
ATOM     20  C   UNL A   1      40.829  26.266  28.114  1.00  0.00     0.029 A 
ATOM     21  C   UNL A   1      41.879  26.476  29.104  1.00  0.00     0.049 A 
ATOM     22  H   UNL A   1      41.908  27.886  30.638  1.00  0.00     0.167 HD
ATOM     23  C   UNL A   1      41.606  30.725  33.985  1.00  0.00     0.037 A 
ATOM     24  C   UNL A   1      43.010  25.751  29.214  1.00  0.00     0.037 A 
ATOM     25  C   UNL A   1      42.726  29.881  34.295  1.00  0.00     0.049 A 
ATOM     26  C   UNL A   1      43.903  25.989  30.402  1.00  0.00     0.074 A 
ATOM     27  C   UNL A   1      43.548  29.910  35.407  1.00  0.00     0.029 A 
ATOM     28  N   UNL A   1      43.196  28.865  33.474  1.00  0.00    -0.354 N 
ATOM     29  N   UNL A   1      43.751  26.845  31.385  1.00  0.00    -0.248 NA
ATOM     30  C   UNL A   1      45.091  25.134  30.525  1.00  0.00     0.031 C 
ATOM     31  C   UNL A   1      44.543  28.940  35.237  1.00  0.00     0.029 A 
ATOM     32  C   UNL A   1      44.314  28.278  34.040  1.00  0.00     0.049 A 
ATOM     33  H   UNL A   1      42.793  28.602  32.616  1.00  0.00     0.167 HD
ATOM     34  C   UNL A   1      44.792  26.597  32.270  1.00  0.00     0.074 A 
ATOM     35  C   UNL A   1      45.573  25.517  31.701  1.00  0.00     0.031 C 
ATOM     36  C   UNL A   1      45.067  27.195  33.456  1.00  0.00     0.037 A 
BRANCH  23  37
ATOM     37  C   UNL A   1      41.207  31.805  34.948  1.00  0.00     0.058 A 
ATOM     38  C   UNL A   1      40.158  31.613  35.863  1.00  0.00     0.135 A 
ATOM     39  C   UNL A   1      41.856  33.048  34.946  1.00  0.00     0.135 A 
ATOM     40  F   UNL A   1      39.489  30.448  35.890  1.00  0.00    -0.206 F 
ATOM     41  C   UNL A   1      39.743  32.627  36.719  1.00  0.00     0.059 A 
ATOM     42  C   UNL A   1      41.473  34.071  35.809  1.00  0.00     0.059 A 
ATOM     43  F   UNL A   1      42.861  33.285  34.087  1.00  0.00    -0.206 F 
ATOM     44  C   UNL A   1      40.403  33.856  36.678  1.00  0.00     0.060 A 
BRANCH  44  45
ATOM     45  S   UNL A   1      39.837  35.174  37.775  1.00  0.00     0.124 S 
ATOM     46  O   UNL A   1      39.280  36.128  36.820  1.00  0.00    -0.237 OA
ATOM     47  O   UNL A   1      38.867  34.484  38.618  1.00  0.00    -0.237 OA
ATOM     48  O   UNL A   1      41.058  35.602  38.450  1.00  0.00    -0.744 OA
ENDBRANCH  44  45
ENDBRANCH  23  37
BRANCH  24  49
ATOM     49  C   UNL A   1      43.335  24.715  28.198  1.00  0.00     0.058 A 
ATOM     50  C   UNL A   1      44.041  25.028  27.028  1.00  0.00     0.135 A 
ATOM     51  C   UNL A   1      42.940  23.380  28.384  1.00  0.00     0.135 A 
ATOM     52  F   UNL A   1      44.444  26.288  26.806  1.00  0.00    -0.206 F 
ATOM     53  C   UNL A   1      44.325  24.061  26.067  1.00  0.00     0.059 A 
ATOM     54  C   UNL A   1      43.226  22.392  27.446  1.00  0.00     0.059 A 
ATOM     55  F   UNL A   1      42.283  23.022  29.498  1.00  0.00    -0.206 F 
ATOM     56  C   UNL A   1      43.912  22.746  26.285  1.00  0.00     0.060 A 
BRANCH  56  57
ATOM     57  S   UNL A   1      44.322  21.493  25.049  1.00  0.00     0.124 S 
ATOM     58  O   UNL A   1      43.326  20.465  25.331  1.00  0.00    -0.237 OA
ATOM     59  O   UNL A   1      44.144  22.231  23.802  1.00  0.00    -0.237 OA
ATOM     60  O   UNL A   1      45.702  21.144  25.370  1.00  0.00    -0.744 OA
ENDBRANCH  56  57
ENDBRANCH  24  49
BRANCH  36  61
ATOM     61  C   UNL A   1      46.233  26.666  34.239  1.00  0.00     0.058 A 
ATOM     62  C   UNL A   1      47.520  27.209  34.106  1.00  0.00     0.135 A 
ATOM     63  C   UNL A   1      46.046  25.640  35.180  1.00  0.00     0.135 A 
ATOM     64  F   UNL A   1      47.750  28.185  33.213  1.00  0.00    -0.206 F 
ATOM     65  C   UNL A   1      48.586  26.742  34.865  1.00  0.00     0.059 A 
ATOM     66  C   UNL A   1      47.093  25.175  35.969  1.00  0.00     0.059 A 
ATOM     67  F   UNL A   1      44.832  25.093  35.352  1.00  0.00    -0.206 F 
ATOM     68  C   UNL A   1      48.361  25.726  35.797  1.00  0.00     0.060 A 
BRANCH  68  69
ATOM     69  S   UNL A   1      49.743  25.156  36.809  1.00  0.00     0.124 S 
ATOM     70  O   UNL A   1      50.118  26.381  37.507  1.00  0.00    -0.237 OA
ATOM     71  O   UNL A   1      49.123  24.121  37.632  1.00  0.00    -0.237 OA
ATOM     72  O   UNL A   1      50.706  24.672  35.826  1.00  0.00    -0.744 OA
ENDBRANCH  68  69
ENDBRANCH  36  61
ENDBRANCH  10  11
ENDBRANCH   3   5
ENDBRANCH   2   3
ENDBRANCH   1   2
BRANCH   1  73
ATOM     73  C   UNL A   1      33.715  34.617  28.235  1.00  0.00     0.275 C 
BRANCH  73  74
ATOM     74  O   UNL A   1      34.194  35.276  29.418  1.00  0.00    -0.458 OA
BRANCH  74  75
ATOM     75  C   UNL A   1      33.432  35.132  30.530  1.00  0.00     0.340 C 
ATOM     76  O   UNL A   1      32.219  35.242  30.612  1.00  0.00    -0.246 OA
BRANCH  75  77
ATOM     77  C   UNL A   1      34.287  34.799  31.683  1.00  0.00     0.091 A 
ATOM     78  C   UNL A   1      35.048  33.623  31.663  1.00  0.00     0.021 A 
ATOM     79  C   UNL A   1      34.389  35.649  32.789  1.00  0.00     0.160 A 
ATOM     80  C   UNL A   1      35.861  33.309  32.749  1.00  0.00     0.042 A 
ATOM     81  N   UNL A   1      35.162  35.320  33.872  1.00  0.00    -0.231 NA
ATOM     82  C   UNL A   1      35.858  34.166  33.830  1.00  0.00     0.129 A 
ATOM     83  Cl  UNL A   1      36.761  33.819  35.241  1.00  0.00    -0.062 Cl
BRANCH  79  84
ATOM     84  C   UNL A   1      33.649  36.977  32.836  1.00  0.00     0.434 C 
ATOM     85  F   UNL A   1      33.853  37.741  31.721  1.00  0.00    -0.164 F 
ATOM     86  F   UNL A   1      32.298  36.831  32.926  1.00  0.00    -0.164 F 
ATOM     87  F   UNL A   1      34.027  37.772  33.874  1.00  0.00    -0.164 F 
ENDBRANCH  79  84
ENDBRANCH  75  77
ENDBRANCH  74  75
ENDBRANCH  73  74
ENDBRANCH   1  73
TORSDOF 15
ENDMDL
MODEL 3
REMARK VINA RESULT:      -9.8      1.428      2.015
REMARK SMILES O=C(OCCOC(=O)c1ccc(Cl)nc1C(F)(F)F)c1ccc(-c2c3nc(c(-c4c(F)cc(S(=O)(=O)[O-])cc4F)c4ccc([nH]4)c(-c4c(F)cc(S(=O)(=O)[O-])cc4F)c4nc(c(-c5c(F)cc(S(=O)(=O)[O-])cc5F)c5ccc2[nH]5)C=C4)C=C3)cc1
REMARK SMILES IDX 4 1 3 2 2 3 1 4 20 5 21 6 85 7 22 8 84 9 23 10 24 11 25 12
REMARK SMILES IDX 78 13 26 14 83 15 77 16 79 17 27 18 82 19 76 20 75 21 28 23
REMARK SMILES IDX 62 24 41 25 61 26 42 27 45 28 60 29 80 30 43 31 44 32 59 34
REMARK SMILES IDX 81 35 46 36 29 37 30 38 39 39 31 40 32 41 38 42 40 43 33 44
REMARK SMILES IDX 34 45 35 46 36 47 37 48 63 49 64 50 73 51 65 52 66 53 72 54
REMARK SMILES IDX 74 55 67 56 68 57 69 58 70 59 71 60 47 61 48 62 57 63 49 64
REMARK SMILES IDX 50 65 56 66 58 67 51 68 52 69 53 70 54 71 55 72 5 73 6 74
REMARK SMILES IDX 7 75 8 76 9 77 10 78 15 79 11 80 14 81 12 82 13 83 16 84
REMARK SMILES IDX 17 85 18 86 19 87
REMARK H PARENT 79 22 45 33
REMARK Flexibility Score: inf
ROOT
ATOM      1  C   UNL A   1      32.339  31.539  26.882  1.00  0.00     0.275 C 
ENDROOT
BRANCH   1   2
ATOM      2  O   UNL A   1      33.430  30.953  27.626  1.00  0.00    -0.458 OA
BRANCH   2   3
ATOM      3  C   UNL A   1      34.326  30.009  27.252  1.00  0.00     0.338 C 
ATOM      4  O   UNL A   1      34.028  29.193  26.385  1.00  0.00    -0.246 OA
BRANCH   3   5
ATOM      5  C   UNL A   1      35.661  29.896  27.894  1.00  0.00     0.060 A 
ATOM      6  C   UNL A   1      36.861  30.093  27.211  1.00  0.00     0.016 A 
ATOM      7  C   UNL A   1      35.708  29.464  29.231  1.00  0.00     0.016 A 
ATOM      8  C   UNL A   1      38.084  29.960  27.873  1.00  0.00     0.010 A 
ATOM      9  C   UNL A   1      36.929  29.329  29.899  1.00  0.00     0.010 A 
ATOM     10  C   UNL A   1      38.127  29.569  29.216  1.00  0.00    -0.014 A 
BRANCH  10  11
ATOM     11  C   UNL A   1      39.438  29.239  29.821  1.00  0.00     0.031 A 
ATOM     12  C   UNL A   1      39.906  30.042  31.000  1.00  0.00     0.074 A 
ATOM     13  C   UNL A   1      40.153  28.184  29.387  1.00  0.00     0.049 A 
ATOM     14  N   UNL A   1      40.926  29.825  31.787  1.00  0.00    -0.248 NA
ATOM     15  C   UNL A   1      39.099  31.217  31.366  1.00  0.00     0.031 C 
ATOM     16  C   UNL A   1      39.760  27.292  28.299  1.00  0.00     0.029 A 
ATOM     17  N   UNL A   1      41.359  27.683  29.804  1.00  0.00    -0.354 N 
ATOM     18  C   UNL A   1      40.846  30.795  32.776  1.00  0.00     0.074 A 
ATOM     19  C   UNL A   1      39.730  31.652  32.445  1.00  0.00     0.031 C 
ATOM     20  C   UNL A   1      40.737  26.394  28.088  1.00  0.00     0.029 A 
ATOM     21  C   UNL A   1      41.806  26.622  29.054  1.00  0.00     0.049 A 
ATOM     22  H   UNL A   1      41.858  28.050  30.570  1.00  0.00     0.167 HD
ATOM     23  C   UNL A   1      41.607  30.928  33.888  1.00  0.00     0.037 A 
ATOM     24  C   UNL A   1      42.942  25.905  29.150  1.00  0.00     0.037 A 
ATOM     25  C   UNL A   1      42.738  30.094  34.185  1.00  0.00     0.049 A 
ATOM     26  C   UNL A   1      43.858  26.161  30.315  1.00  0.00     0.074 A 
ATOM     27  C   UNL A   1      43.582  30.141  35.279  1.00  0.00     0.029 A 
ATOM     28  N   UNL A   1      43.197  29.071  33.367  1.00  0.00    -0.354 N 
ATOM     29  N   UNL A   1      43.721  27.029  31.291  1.00  0.00    -0.248 NA
ATOM     30  C   UNL A   1      45.054  25.315  30.425  1.00  0.00     0.031 C 
ATOM     31  C   UNL A   1      44.579  29.175  35.100  1.00  0.00     0.029 A 
ATOM     32  C   UNL A   1      44.330  28.497  33.917  1.00  0.00     0.049 A 
ATOM     33  H   UNL A   1      42.779  28.795  32.520  1.00  0.00     0.167 HD
ATOM     34  C   UNL A   1      44.782  26.797  32.158  1.00  0.00     0.074 A 
ATOM     35  C   UNL A   1      45.557  25.715  31.586  1.00  0.00     0.031 C 
ATOM     36  C   UNL A   1      45.077  27.412  33.331  1.00  0.00     0.037 A 
BRANCH  23  37
ATOM     37  C   UNL A   1      41.221  32.017  34.846  1.00  0.00     0.058 A 
ATOM     38  C   UNL A   1      40.268  31.795  35.854  1.00  0.00     0.135 A 
ATOM     39  C   UNL A   1      41.785  33.297  34.746  1.00  0.00     0.135 A 
ATOM     40  F   UNL A   1      39.681  30.594  35.977  1.00  0.00    -0.206 F 
ATOM     41  C   UNL A   1      39.862  32.814  36.708  1.00  0.00     0.059 A 
ATOM     42  C   UNL A   1      41.410  34.327  35.605  1.00  0.00     0.059 A 
ATOM     43  F   UNL A   1      42.696  33.563  33.796  1.00  0.00    -0.206 F 
ATOM     44  C   UNL A   1      40.435  34.080  36.570  1.00  0.00     0.060 A 
BRANCH  44  45
ATOM     45  S   UNL A   1      39.878  35.401  37.668  1.00  0.00     0.124 S 
ATOM     46  O   UNL A   1      39.702  36.505  36.729  1.00  0.00    -0.237 OA
ATOM     47  O   UNL A   1      38.651  34.845  38.229  1.00  0.00    -0.237 OA
ATOM     48  O   UNL A   1      40.984  35.549  38.609  1.00  0.00    -0.744 OA
ENDBRANCH  44  45
ENDBRANCH  23  37
BRANCH  24  49
ATOM     49  C   UNL A   1      43.254  24.857  28.140  1.00  0.00     0.058 A 
ATOM     50  C   UNL A   1      43.897  25.167  26.933  1.00  0.00     0.135 A 
ATOM     51  C   UNL A   1      42.907  23.516  28.368  1.00  0.00     0.135 A 
ATOM     52  F   UNL A   1      44.252  26.434  26.669  1.00  0.00    -0.206 F 
ATOM     53  C   UNL A   1      44.167  24.190  25.979  1.00  0.00     0.059 A 
ATOM     54  C   UNL A   1      43.181  22.518  27.437  1.00  0.00     0.059 A 
ATOM     55  F   UNL A   1      42.311  23.162  29.517  1.00  0.00    -0.206 F 
ATOM     56  C   UNL A   1      43.804  22.868  26.240  1.00  0.00     0.060 A 
BRANCH  56  57
ATOM     57  S   UNL A   1      44.195  21.603  25.010  1.00  0.00     0.124 S 
ATOM     58  O   UNL A   1      45.551  21.228  25.395  1.00  0.00    -0.237 OA
ATOM     59  O   UNL A   1      43.159  20.607  25.263  1.00  0.00    -0.237 OA
ATOM     60  O   UNL A   1      44.071  22.318  23.744  1.00  0.00    -0.744 OA
ENDBRANCH  56  57
ENDBRANCH  24  49
BRANCH  36  61
ATOM     61  C   UNL A   1      46.262  26.898  34.096  1.00  0.00     0.058 A 
ATOM     62  C   UNL A   1      46.148  25.841  35.012  1.00  0.00     0.135 A 
ATOM     63  C   UNL A   1      47.539  27.434  33.864  1.00  0.00     0.135 A 
ATOM     64  F   UNL A   1      44.947  25.303  35.274  1.00  0.00    -0.206 F 
ATOM     65  C   UNL A   1      47.258  25.343  35.685  1.00  0.00     0.059 A 
ATOM     66  C   UNL A   1      48.667  26.933  34.507  1.00  0.00     0.059 A 
ATOM     67  F   UNL A   1      47.703  28.440  32.991  1.00  0.00    -0.206 F 
ATOM     68  C   UNL A   1      48.514  25.895  35.423  1.00  0.00     0.060 A 
BRANCH  68  69
ATOM     69  S   UNL A   1      49.954  25.212  36.270  1.00  0.00     0.124 S 
ATOM     70  O   UNL A   1      49.337  24.564  37.421  1.00  0.00    -0.237 OA
ATOM     71  O   UNL A   1      50.515  24.315  35.262  1.00  0.00    -0.237 OA
ATOM     72  O   UNL A   1      50.761  26.390  36.568  1.00  0.00    -0.744 OA
ENDBRANCH  68  69
ENDBRANCH  36  61
ENDBRANCH  10  11
ENDBRANCH   3   5
ENDBRANCH   2   3
ENDBRANCH   1   2
BRANCH   1  73
ATOM     73  C   UNL A   1      32.206  33.047  27.067  1.00  0.00     0.275 C 
BRANCH  73  74
ATOM     74  O   UNL A   1      32.607  33.464  28.383  1.00  0.00    -0.458 OA
BRANCH  74  75
ATOM     75  C   UNL A   1      33.680  34.289  28.445  1.00  0.00     0.340 C 
ATOM     76  O   UNL A   1      34.515  34.479  27.575  1.00  0.00    -0.246 OA
BRANCH  75  77
ATOM     77  C   UNL A   1      33.713  34.970  29.751  1.00  0.00     0.091 A 
ATOM     78  C   UNL A   1      32.977  36.147  29.935  1.00  0.00     0.021 A 
ATOM     79  C   UNL A   1      34.435  34.452  30.830  1.00  0.00     0.160 A 
ATOM     80  C   UNL A   1      33.001  36.791  31.170  1.00  0.00     0.042 A 
ATOM     81  N   UNL A   1      34.488  35.106  32.033  1.00  0.00    -0.231 NA
ATOM     82  C   UNL A   1      33.789  36.252  32.166  1.00  0.00     0.129 A 
ATOM     83  Cl  UNL A   1      33.947  37.018  33.687  1.00  0.00    -0.062 Cl
BRANCH  79  84
ATOM     84  C   UNL A   1      35.192  33.137  30.715  1.00  0.00     0.434 C 
ATOM     85  F   UNL A   1      34.387  32.087  30.375  1.00  0.00    -0.164 F 
ATOM     86  F   UNL A   1      36.166  33.163  29.764  1.00  0.00    -0.164 F 
ATOM     87  F   UNL A   1      35.789  32.752  31.877  1.00  0.00    -0.164 F 
ENDBRANCH  79  84
ENDBRANCH  75  77
ENDBRANCH  74  75
ENDBRANCH  73  74
ENDBRANCH   1  73
TORSDOF 15
ENDMDL
