MODEL 1
REMARK VINA RESULT:     -10.8      0.000      0.000
REMARK SMILES C[C@@](NC(=O)CCOC1CC[NH2+]CC1)(C(=O)OCCOC(=O)c1ccc(-c2c3nc(c(-c4c(F)cc(S(=O)(=O)[O-])cc4F)c4ccc([nH]4)c(-c4c(F)cc(S(=O)(=O)[O-])cc4F)c4nc(c(-c5c(F)cc(S(=O)(=O)[O-])cc5F)c5ccc2[nH]5)C=C4)C=C3)cc1)C(F)(F)F
REMARK SMILES IDX 18 1 17 2 15 3 16 4 2 5 1 6 3 7 4 8 5 10 6 11 7 12 8 13 9 14
REMARK SMILES IDX 10 15 14 16 11 17 13 18 12 19 89 22 90 23 91 24 92 25 19 26
REMARK SMILES IDX 20 27 21 28 22 29 23 30 24 31 88 32 25 33 87 34 26 35 27 36
REMARK SMILES IDX 28 37 81 38 29 39 86 40 80 41 82 42 30 43 85 44 79 45 78 46
REMARK SMILES IDX 31 48 65 49 44 50 64 51 45 52 48 53 63 54 83 55 46 56 47 57
REMARK SMILES IDX 62 59 84 60 49 61 32 62 33 63 42 64 34 65 35 66 41 67 43 68
REMARK SMILES IDX 36 69 37 70 38 71 39 72 40 73 66 74 67 75 76 76 68 77 69 78
REMARK SMILES IDX 75 79 77 80 70 81 71 82 72 83 73 84 74 85 50 86 51 87 60 88
REMARK SMILES IDX 52 89 53 90 59 91 61 92 54 93 55 94 56 95 57 96 58 97
REMARK H PARENT 3 9 12 20 12 21 82 47 48 58
REMARK Flexibility Score: inf
ROOT
ATOM      1  C   UNL A   1      32.529  30.907  26.725  1.00  0.00     0.274 C 
ENDROOT
BRANCH   1   2
ATOM      2  O   UNL A   1      32.679  29.564  26.179  1.00  0.00    -0.460 OA
BRANCH   2   3
ATOM      3  C   UNL A   1      31.940  28.581  26.793  1.00  0.00     0.341 C 
ATOM      4  O   UNL A   1      31.325  28.810  27.829  1.00  0.00    -0.249 OA
BRANCH   3   5
ATOM      5  C   UNL A   1      32.167  27.121  26.147  1.00  0.00     0.231 C 
ATOM      6  C   UNL A   1      33.655  26.976  25.737  1.00  0.00     0.058 C 
BRANCH   5   7
ATOM      7  N   UNL A   1      31.587  25.562  26.832  1.00  0.00    -0.333 N 
ATOM      8  C   UNL A   1      30.953  23.813  26.666  1.00  0.00     0.223 C 
ATOM      9  H   UNL A   1      31.620  25.707  27.804  1.00  0.00     0.164 HD
ATOM     10  O   UNL A   1      30.732  23.019  27.622  1.00  0.00    -0.275 OA
BRANCH   8  11
ATOM     11  C   UNL A   1      30.646  22.915  25.299  1.00  0.00     0.128 C 
BRANCH  11  12
ATOM     12  C   UNL A   1      31.645  22.965  24.190  1.00  0.00     0.170 C 
BRANCH  12  13
ATOM     13  O   UNL A   1      32.649  23.827  24.627  1.00  0.00    -0.377 OA
BRANCH  13  14
ATOM     14  C   UNL A   1      33.836  23.059  24.721  1.00  0.00     0.129 C 
ATOM     15  C   UNL A   1      34.875  23.422  26.392  1.00  0.00     0.093 C 
ATOM     16  C   UNL A   1      34.817  22.952  23.040  1.00  0.00     0.093 C 
ATOM     17  C   UNL A   1      36.815  23.605  26.221  1.00  0.00     0.263 C 
ATOM     18  C   UNL A   1      36.730  22.984  23.064  1.00  0.00     0.263 C 
ATOM     19  N   UNL A   1      37.711  23.191  24.636  1.00  0.00    -0.346 N 
ATOM     20  H   UNL A   1      38.207  22.314  24.794  1.00  0.00     0.346 HD
ATOM     21  H   UNL A   1      38.283  24.016  24.457  1.00  0.00     0.346 HD
ENDBRANCH  13  14
ENDBRANCH  12  13
ENDBRANCH  11  12
ENDBRANCH   8  11
ENDBRANCH   5   7
BRANCH   5  22
ATOM     22  C   UNL A   1      31.432  27.316  24.766  1.00  0.00     0.422 C 
ATOM     23  F   UNL A   1      30.530  28.325  24.804  1.00  0.00    -0.168 F 
ATOM     24  F   UNL A   1      32.331  27.645  23.803  1.00  0.00    -0.168 F 
ATOM     25  F   UNL A   1      30.790  26.212  24.337  1.00  0.00    -0.168 F 
ENDBRANCH   5  22
ENDBRANCH   3   5
ENDBRANCH   2   3
ENDBRANCH   1   2
BRANCH   1  26
ATOM     26  C   UNL A   1      33.693  31.342  27.610  1.00  0.00     0.275 C 
BRANCH  26  27
ATOM     27  O   UNL A   1      34.091  32.668  27.264  1.00  0.00    -0.458 OA
BRANCH  27  28
ATOM     28  C   UNL A   1      33.777  33.574  28.224  1.00  0.00     0.338 C 
ATOM     29  O   UNL A   1      32.757  34.206  28.346  1.00  0.00    -0.246 OA
BRANCH  28  30
ATOM     30  C   UNL A   1      34.779  33.417  29.281  1.00  0.00     0.060 A 
ATOM     31  C   UNL A   1      36.047  33.938  29.013  1.00  0.00     0.016 A 
ATOM     32  C   UNL A   1      34.490  32.781  30.484  1.00  0.00     0.016 A 
ATOM     33  C   UNL A   1      37.050  33.846  29.953  1.00  0.00     0.010 A 
ATOM     34  C   UNL A   1      35.519  32.615  31.405  1.00  0.00     0.010 A 
ATOM     35  C   UNL A   1      36.800  33.122  31.117  1.00  0.00    -0.014 A 
BRANCH  35  36
ATOM     36  C   UNL A   1      37.967  32.633  31.861  1.00  0.00     0.031 A 
ATOM     37  C   UNL A   1      38.768  31.543  31.214  1.00  0.00     0.074 A 
ATOM     38  C   UNL A   1      38.334  33.214  33.011  1.00  0.00     0.049 A 
ATOM     39  N   UNL A   1      39.726  30.814  31.707  1.00  0.00    -0.248 NA
ATOM     40  C   UNL A   1      38.430  31.229  29.811  1.00  0.00     0.031 C 
ATOM     41  C   UNL A   1      37.686  34.380  33.613  1.00  0.00     0.029 A 
ATOM     42  N   UNL A   1      39.348  32.905  33.870  1.00  0.00    -0.354 N 
ATOM     43  C   UNL A   1      40.065  29.918  30.700  1.00  0.00     0.074 A 
ATOM     44  C   UNL A   1      39.219  30.197  29.564  1.00  0.00     0.031 C 
ATOM     45  C   UNL A   1      38.317  34.681  34.761  1.00  0.00     0.029 A 
ATOM     46  C   UNL A   1      39.361  33.688  34.997  1.00  0.00     0.049 A 
ATOM     47  H   UNL A   1      40.005  32.192  33.700  1.00  0.00     0.167 HD
ATOM     48  C   UNL A   1      40.997  28.939  30.744  1.00  0.00     0.037 A 
ATOM     49  C   UNL A   1      40.107  33.566  36.109  1.00  0.00     0.037 A 
ATOM     50  C   UNL A   1      41.830  28.724  31.895  1.00  0.00     0.049 A 
ATOM     51  C   UNL A   1      41.088  32.424  36.168  1.00  0.00     0.074 A 
ATOM     52  C   UNL A   1      42.798  27.760  32.096  1.00  0.00     0.029 A 
ATOM     53  N   UNL A   1      41.791  29.506  33.045  1.00  0.00    -0.354 N 
ATOM     54  N   UNL A   1      41.353  31.516  35.255  1.00  0.00    -0.248 NA
ATOM     55  C   UNL A   1      41.858  32.277  37.407  1.00  0.00     0.031 C 
ATOM     56  C   UNL A   1      43.311  27.932  33.388  1.00  0.00     0.029 A 
ATOM     57  C   UNL A   1      42.706  29.038  33.968  1.00  0.00     0.049 A 
ATOM     58  H   UNL A   1      41.198  30.280  33.181  1.00  0.00     0.167 HD
ATOM     59  C   UNL A   1      42.341  30.705  35.798  1.00  0.00     0.074 A 
ATOM     60  C   UNL A   1      42.630  31.240  37.115  1.00  0.00     0.031 C 
ATOM     61  C   UNL A   1      42.958  29.618  35.266  1.00  0.00     0.037 A 
BRANCH  48  62
ATOM     62  C   UNL A   1      41.087  28.012  29.564  1.00  0.00     0.058 A 
ATOM     63  C   UNL A   1      40.177  26.962  29.356  1.00  0.00     0.135 A 
ATOM     64  C   UNL A   1      42.133  28.160  28.637  1.00  0.00     0.135 A 
ATOM     65  F   UNL A   1      39.179  26.749  30.228  1.00  0.00    -0.206 F 
ATOM     66  C   UNL A   1      40.319  26.075  28.292  1.00  0.00     0.059 A 
ATOM     67  C   UNL A   1      42.275  27.304  27.549  1.00  0.00     0.059 A 
ATOM     68  F   UNL A   1      43.042  29.134  28.794  1.00  0.00    -0.206 F 
ATOM     69  C   UNL A   1      41.373  26.254  27.394  1.00  0.00     0.060 A 
BRANCH  69  70
ATOM     70  S   UNL A   1      41.549  25.094  26.021  1.00  0.00     0.124 S 
ATOM     71  O   UNL A   1      40.162  24.707  25.786  1.00  0.00    -0.237 OA
ATOM     72  O   UNL A   1      42.158  25.924  24.987  1.00  0.00    -0.237 OA
ATOM     73  O   UNL A   1      42.407  24.047  26.567  1.00  0.00    -0.744 OA
ENDBRANCH  69  70
ENDBRANCH  48  62
BRANCH  49  74
ATOM     74  C   UNL A   1      39.924  34.509  37.243  1.00  0.00     0.058 A 
ATOM     75  C   UNL A   1      39.082  34.195  38.318  1.00  0.00     0.135 A 
ATOM     76  C   UNL A   1      40.607  35.736  37.289  1.00  0.00     0.135 A 
ATOM     77  F   UNL A   1      38.401  33.038  38.321  1.00  0.00    -0.206 F 
ATOM     78  C   UNL A   1      38.914  35.064  39.393  1.00  0.00     0.059 A 
ATOM     79  C   UNL A   1      40.479  36.609  38.365  1.00  0.00     0.059 A 
ATOM     80  F   UNL A   1      41.436  36.084  36.292  1.00  0.00    -0.206 F 
ATOM     81  C   UNL A   1      39.620  36.268  39.409  1.00  0.00     0.060 A 
BRANCH  81  82
ATOM     82  S   UNL A   1      39.428  37.366  40.829  1.00  0.00     0.124 S 
ATOM     83  O   UNL A   1      40.802  37.808  41.047  1.00  0.00    -0.237 OA
ATOM     84  O   UNL A   1      38.507  38.374  40.316  1.00  0.00    -0.237 OA
ATOM     85  O   UNL A   1      38.877  36.491  41.860  1.00  0.00    -0.744 OA
ENDBRANCH  81  82
ENDBRANCH  49  74
BRANCH  61  86
ATOM     86  C   UNL A   1      44.035  28.983  36.095  1.00  0.00     0.058 A 
ATOM     87  C   UNL A   1      43.784  27.866  36.905  1.00  0.00     0.135 A 
ATOM     88  C   UNL A   1      45.347  29.483  36.043  1.00  0.00     0.135 A 
ATOM     89  F   UNL A   1      42.545  27.356  36.991  1.00  0.00    -0.206 F 
ATOM     90  C   UNL A   1      44.793  27.284  37.664  1.00  0.00     0.059 A 
ATOM     91  C   UNL A   1      46.377  28.897  36.768  1.00  0.00     0.059 A 
ATOM     92  F   UNL A   1      45.638  30.541  35.271  1.00  0.00    -0.206 F 
ATOM     93  C   UNL A   1      46.086  27.808  37.589  1.00  0.00     0.060 A 
BRANCH  93  94
ATOM     94  S   UNL A   1      47.390  27.033  38.564  1.00  0.00     0.124 S 
ATOM     95  O   UNL A   1      47.599  28.025  39.613  1.00  0.00    -0.237 OA
ATOM     96  O   UNL A   1      46.763  25.784  38.987  1.00  0.00    -0.237 OA
ATOM     97  O   UNL A   1      48.485  26.886  37.611  1.00  0.00    -0.744 OA
ENDBRANCH  93  94
ENDBRANCH  61  86
ENDBRANCH  35  36
ENDBRANCH  28  30
ENDBRANCH  27  28
ENDBRANCH  26  27
ENDBRANCH   1  26
TORSDOF 20
ENDMDL
MODEL 2
REMARK VINA RESULT:     -10.7      5.332     11.317
REMARK SMILES C[C@@](NC(=O)CCOC1CC[NH2+]CC1)(C(=O)OCCOC(=O)c1ccc(-c2c3nc(c(-c4c(F)cc(S(=O)(=O)[O-])cc4F)c4ccc([nH]4)c(-c4c(F)cc(S(=O)(=O)[O-])cc4F)c4nc(c(-c5c(F)cc(S(=O)(=O)[O-])cc5F)c5ccc2[nH]5)C=C4)C=C3)cc1)C(F)(F)F
REMARK SMILES IDX 18 1 17 2 15 3 16 4 2 5 1 6 3 7 4 8 5 10 6 11 7 12 8 13 9 14
REMARK SMILES IDX 10 15 14 16 11 17 13 18 12 19 89 22 90 23 91 24 92 25 19 26
REMARK SMILES IDX 20 27 21 28 22 29 23 30 24 31 88 32 25 33 87 34 26 35 27 36
REMARK SMILES IDX 28 37 81 38 29 39 86 40 80 41 82 42 30 43 85 44 79 45 78 46
REMARK SMILES IDX 31 48 65 49 44 50 64 51 45 52 48 53 63 54 83 55 46 56 47 57
REMARK SMILES IDX 62 59 84 60 49 61 32 62 33 63 42 64 34 65 35 66 41 67 43 68
REMARK SMILES IDX 36 69 37 70 38 71 39 72 40 73 66 74 67 75 76 76 68 77 69 78
REMARK SMILES IDX 75 79 77 80 70 81 71 82 72 83 73 84 74 85 50 86 51 87 60 88
REMARK SMILES IDX 52 89 53 90 59 91 61 92 54 93 55 94 56 95 57 96 58 97
REMARK H PARENT 3 9 12 20 12 21 82 47 48 58
REMARK Flexibility Score: inf
ROOT
ATOM      1  C   UNL A   1      36.336  33.963  30.273  1.00  0.00     0.274 C 
ENDROOT
BRANCH   1   2
ATOM      2  O   UNL A   1      37.181  32.940  30.874  1.00  0.00    -0.460 OA
BRANCH   2   3
ATOM      3  C   UNL A   1      37.746  33.264  32.084  1.00  0.00     0.341 C 
ATOM      4  O   UNL A   1      38.730  33.994  32.144  1.00  0.00    -0.249 OA
BRANCH   3   5
ATOM      5  C   UNL A   1      37.135  32.421  33.315  1.00  0.00     0.231 C 
ATOM      6  C   UNL A   1      35.947  31.568  32.803  1.00  0.00     0.058 C 
BRANCH   5   7
ATOM      7  N   UNL A   1      38.080  31.463  34.510  1.00  0.00    -0.333 N 
ATOM      8  C   UNL A   1      39.518  30.375  34.997  1.00  0.00     0.223 C 
ATOM      9  H   UNL A   1      37.572  31.566  35.347  1.00  0.00     0.164 HD
ATOM     10  O   UNL A   1      39.775  29.980  36.167  1.00  0.00    -0.275 OA
BRANCH   8  11
ATOM     11  C   UNL A   1      40.773  29.790  34.074  1.00  0.00     0.128 C 
BRANCH  11  12
ATOM     12  C   UNL A   1      41.728  28.837  34.716  1.00  0.00     0.170 C 
BRANCH  12  13
ATOM     13  O   UNL A   1      41.510  27.610  34.093  1.00  0.00    -0.377 OA
BRANCH  13  14
ATOM     14  C   UNL A   1      42.693  26.849  34.263  1.00  0.00     0.129 C 
ATOM     15  C   UNL A   1      43.800  26.737  32.600  1.00  0.00     0.093 C 
ATOM     16  C   UNL A   1      42.413  25.212  35.285  1.00  0.00     0.093 C 
ATOM     17  C   UNL A   1      44.558  24.994  32.140  1.00  0.00     0.263 C 
ATOM     18  C   UNL A   1      43.362  23.625  34.796  1.00  0.00     0.263 C 
ATOM     19  N   UNL A   1      44.500  23.549  33.321  1.00  0.00    -0.346 N 
ATOM     20  H   UNL A   1      45.445  23.420  33.681  1.00  0.00     0.346 HD
ATOM     21  H   UNL A   1      44.116  22.790  32.757  1.00  0.00     0.346 HD
ENDBRANCH  13  14
ENDBRANCH  12  13
ENDBRANCH  11  12
ENDBRANCH   8  11
ENDBRANCH   5   7
BRANCH   5  22
ATOM     22  C   UNL A   1      36.427  33.580  34.116  1.00  0.00     0.422 C 
ATOM     23  F   UNL A   1      36.561  34.780  33.505  1.00  0.00    -0.168 F 
ATOM     24  F   UNL A   1      35.093  33.340  34.197  1.00  0.00    -0.168 F 
ATOM     25  F   UNL A   1      36.874  33.713  35.379  1.00  0.00    -0.168 F 
ENDBRANCH   5  22
ENDBRANCH   3   5
ENDBRANCH   2   3
ENDBRANCH   1   2
BRANCH   1  26
ATOM     26  C   UNL A   1      35.242  33.402  29.369  1.00  0.00     0.275 C 
BRANCH  26  27
ATOM     27  O   UNL A   1      34.880  32.094  29.806  1.00  0.00    -0.458 OA
BRANCH  27  28
ATOM     28  C   UNL A   1      34.778  31.211  28.781  1.00  0.00     0.338 C 
ATOM     29  O   UNL A   1      33.947  31.177  27.907  1.00  0.00    -0.246 OA
BRANCH  28  30
ATOM     30  C   UNL A   1      36.049  30.484  28.736  1.00  0.00     0.060 A 
ATOM     31  C   UNL A   1      36.445  29.858  29.919  1.00  0.00     0.016 A 
ATOM     32  C   UNL A   1      36.824  30.424  27.582  1.00  0.00     0.016 A 
ATOM     33  C   UNL A   1      37.622  29.143  29.968  1.00  0.00     0.010 A 
ATOM     34  C   UNL A   1      38.050  29.771  27.647  1.00  0.00     0.010 A 
ATOM     35  C   UNL A   1      38.453  29.162  28.850  1.00  0.00    -0.014 A 
BRANCH  35  36
ATOM     36  C   UNL A   1      39.865  28.822  29.063  1.00  0.00     0.031 A 
ATOM     37  C   UNL A   1      40.721  29.876  29.698  1.00  0.00     0.074 A 
ATOM     38  C   UNL A   1      40.319  27.592  28.786  1.00  0.00     0.049 A 
ATOM     39  N   UNL A   1      42.014  29.917  29.845  1.00  0.00    -0.248 NA
ATOM     40  C   UNL A   1      40.014  31.054  30.238  1.00  0.00     0.031 C 
ATOM     41  C   UNL A   1      39.499  26.476  28.311  1.00  0.00     0.029 A 
ATOM     42  N   UNL A   1      41.579  27.077  28.874  1.00  0.00    -0.354 N 
ATOM     43  C   UNL A   1      42.280  31.146  30.437  1.00  0.00     0.074 A 
ATOM     44  C   UNL A   1      41.019  31.820  30.632  1.00  0.00     0.031 C 
ATOM     45  C   UNL A   1      40.289  25.404  28.137  1.00  0.00     0.029 A 
ATOM     46  C   UNL A   1      41.669  25.784  28.423  1.00  0.00     0.049 A 
ATOM     47  H   UNL A   1      42.348  27.582  29.227  1.00  0.00     0.167 HD
ATOM     48  C   UNL A   1      43.487  31.660  30.768  1.00  0.00     0.037 A 
ATOM     49  C   UNL A   1      42.762  25.029  28.220  1.00  0.00     0.037 A 
ATOM     50  C   UNL A   1      44.710  30.931  30.574  1.00  0.00     0.049 A 
ATOM     51  C   UNL A   1      44.103  25.646  28.526  1.00  0.00     0.074 A 
ATOM     52  C   UNL A   1      46.006  31.328  30.836  1.00  0.00     0.029 A 
ATOM     53  N   UNL A   1      44.777  29.636  30.071  1.00  0.00    -0.354 N 
ATOM     54  N   UNL A   1      44.371  26.841  29.003  1.00  0.00    -0.248 NA
ATOM     55  C   UNL A   1      45.286  24.825  28.253  1.00  0.00     0.031 C 
ATOM     56  C   UNL A   1      46.860  30.289  30.447  1.00  0.00     0.029 A 
ATOM     57  C   UNL A   1      46.093  29.222  29.999  1.00  0.00     0.049 A 
ATOM     58  H   UNL A   1      44.000  29.093  29.804  1.00  0.00     0.167 HD
ATOM     59  C   UNL A   1      45.754  26.907  29.113  1.00  0.00     0.074 A 
ATOM     60  C   UNL A   1      46.261  25.624  28.662  1.00  0.00     0.031 C 
ATOM     61  C   UNL A   1      46.541  27.926  29.547  1.00  0.00     0.037 A 
BRANCH  48  62
ATOM     62  C   UNL A   1      43.524  33.072  31.281  1.00  0.00     0.058 A 
ATOM     63  C   UNL A   1      43.606  34.185  30.428  1.00  0.00     0.135 A 
ATOM     64  C   UNL A   1      43.510  33.314  32.665  1.00  0.00     0.135 A 
ATOM     65  F   UNL A   1      43.658  34.014  29.097  1.00  0.00    -0.206 F 
ATOM     66  C   UNL A   1      43.705  35.481  30.928  1.00  0.00     0.059 A 
ATOM     67  C   UNL A   1      43.576  34.602  33.186  1.00  0.00     0.059 A 
ATOM     68  F   UNL A   1      43.450  32.289  33.529  1.00  0.00    -0.206 F 
ATOM     69  C   UNL A   1      43.691  35.679  32.309  1.00  0.00     0.060 A 
BRANCH  69  70
ATOM     70  S   UNL A   1      43.825  37.364  32.945  1.00  0.00     0.124 S 
ATOM     71  O   UNL A   1      43.641  38.150  31.730  1.00  0.00    -0.237 OA
ATOM     72  O   UNL A   1      42.731  37.423  33.909  1.00  0.00    -0.237 OA
ATOM     73  O   UNL A   1      45.166  37.405  33.520  1.00  0.00    -0.744 OA
ENDBRANCH  69  70
ENDBRANCH  48  62
BRANCH  49  74
ATOM     74  C   UNL A   1      42.633  23.652  27.675  1.00  0.00     0.058 A 
ATOM     75  C   UNL A   1      42.479  22.548  28.524  1.00  0.00     0.135 A 
ATOM     76  C   UNL A   1      42.634  23.412  26.290  1.00  0.00     0.135 A 
ATOM     77  F   UNL A   1      42.477  22.721  29.855  1.00  0.00    -0.206 F 
ATOM     78  C   UNL A   1      42.342  21.255  28.025  1.00  0.00     0.059 A 
ATOM     79  C   UNL A   1      42.471  22.134  25.766  1.00  0.00     0.059 A 
ATOM     80  F   UNL A   1      42.767  24.433  25.430  1.00  0.00    -0.206 F 
ATOM     81  C   UNL A   1      42.335  21.059  26.643  1.00  0.00     0.060 A 
BRANCH  81  82
ATOM     82  S   UNL A   1      42.112  19.384  26.007  1.00  0.00     0.124 S 
ATOM     83  O   UNL A   1      42.936  19.415  24.802  1.00  0.00    -0.237 OA
ATOM     84  O   UNL A   1      42.617  18.568  27.105  1.00  0.00    -0.237 OA
ATOM     85  O   UNL A   1      40.671  19.298  25.783  1.00  0.00    -0.744 OA
ENDBRANCH  81  82
ENDBRANCH  49  74
BRANCH  61  86
ATOM     86  C   UNL A   1      48.016  27.662  29.597  1.00  0.00     0.058 A 
ATOM     87  C   UNL A   1      48.607  26.961  30.658  1.00  0.00     0.135 A 
ATOM     88  C   UNL A   1      48.841  28.086  28.542  1.00  0.00     0.135 A 
ATOM     89  F   UNL A   1      47.860  26.540  31.691  1.00  0.00    -0.206 F 
ATOM     90  C   UNL A   1      49.975  26.717  30.689  1.00  0.00     0.059 A 
ATOM     91  C   UNL A   1      50.205  27.825  28.536  1.00  0.00     0.059 A 
ATOM     92  F   UNL A   1      48.319  28.748  27.497  1.00  0.00    -0.206 F 
ATOM     93  C   UNL A   1      50.766  27.154  29.623  1.00  0.00     0.060 A 
BRANCH  93  94
ATOM     94  S   UNL A   1      52.536  26.817  29.666  1.00  0.00     0.124 S 
ATOM     95  O   UNL A   1      52.679  26.170  30.966  1.00  0.00    -0.237 OA
ATOM     96  O   UNL A   1      52.718  25.953  28.504  1.00  0.00    -0.237 OA
ATOM     97  O   UNL A   1      53.137  28.142  29.554  1.00  0.00    -0.744 OA
ENDBRANCH  93  94
ENDBRANCH  61  86
ENDBRANCH  35  36
ENDBRANCH  28  30
ENDBRANCH  27  28
ENDBRANCH  26  27
ENDBRANCH   1  26
TORSDOF 20
ENDMDL
MODEL 3
REMARK VINA RESULT:     -10.6      5.491      8.500
REMARK SMILES C[C@@](NC(=O)CCOC1CC[NH2+]CC1)(C(=O)OCCOC(=O)c1ccc(-c2c3nc(c(-c4c(F)cc(S(=O)(=O)[O-])cc4F)c4ccc([nH]4)c(-c4c(F)cc(S(=O)(=O)[O-])cc4F)c4nc(c(-c5c(F)cc(S(=O)(=O)[O-])cc5F)c5ccc2[nH]5)C=C4)C=C3)cc1)C(F)(F)F
REMARK SMILES IDX 18 1 17 2 15 3 16 4 2 5 1 6 3 7 4 8 5 10 6 11 7 12 8 13 9 14
REMARK SMILES IDX 10 15 14 16 11 17 13 18 12 19 89 22 90 23 91 24 92 25 19 26
REMARK SMILES IDX 20 27 21 28 22 29 23 30 24 31 88 32 25 33 87 34 26 35 27 36
REMARK SMILES IDX 28 37 81 38 29 39 86 40 80 41 82 42 30 43 85 44 79 45 78 46
REMARK SMILES IDX 31 48 65 49 44 50 64 51 45 52 48 53 63 54 83 55 46 56 47 57
REMARK SMILES IDX 62 59 84 60 49 61 32 62 33 63 42 64 34 65 35 66 41 67 43 68
REMARK SMILES IDX 36 69 37 70 38 71 39 72 40 73 66 74 67 75 76 76 68 77 69 78
REMARK SMILES IDX 75 79 77 80 70 81 71 82 72 83 73 84 74 85 50 86 51 87 60 88
REMARK SMILES IDX 52 89 53 90 59 91 61 92 54 93 55 94 56 95 57 96 58 97
REMARK H PARENT 3 9 12 20 12 21 82 47 48 58
REMARK Flexibility Score: inf
ROOT
ATOM      1  C   UNL A   1      36.430  21.142  25.406  1.00  0.00     0.274 C 
ENDROOT
BRANCH   1   2
ATOM      2  O   UNL A   1      35.601  22.229  24.902  1.00  0.00    -0.460 OA
BRANCH   2   3
ATOM      3  C   UNL A   1      34.685  22.744  25.788  1.00  0.00     0.341 C 
ATOM      4  O   UNL A   1      34.792  22.542  26.993  1.00  0.00    -0.249 OA
BRANCH   3   5
ATOM      5  C   UNL A   1      33.402  23.399  25.063  1.00  0.00     0.231 C 
ATOM      6  C   UNL A   1      32.521  24.098  26.129  1.00  0.00     0.058 C 
BRANCH   5   7
ATOM      7  N   UNL A   1      33.433  24.402  23.569  1.00  0.00    -0.333 N 
ATOM      8  C   UNL A   1      33.536  26.038  22.673  1.00  0.00     0.223 C 
ATOM      9  H   UNL A   1      33.351  23.744  22.843  1.00  0.00     0.164 HD
ATOM     10  O   UNL A   1      33.586  26.186  21.421  1.00  0.00    -0.275 OA
BRANCH   8  11
ATOM     11  C   UNL A   1      33.679  27.581  23.282  1.00  0.00     0.128 C 
BRANCH  11  12
ATOM     12  C   UNL A   1      32.985  28.686  22.555  1.00  0.00     0.170 C 
BRANCH  12  13
ATOM     13  O   UNL A   1      31.929  29.072  23.377  1.00  0.00    -0.377 OA
BRANCH  13  14
ATOM     14  C   UNL A   1      30.740  28.613  22.759  1.00  0.00     0.129 C 
ATOM     15  C   UNL A   1      29.540  30.098  22.162  1.00  0.00     0.093 C 
ATOM     16  C   UNL A   1      29.929  27.100  23.685  1.00  0.00     0.093 C 
ATOM     17  C   UNL A   1      27.626  29.906  22.517  1.00  0.00     0.263 C 
ATOM     18  C   UNL A   1      28.023  26.982  23.803  1.00  0.00     0.263 C 
ATOM     19  N   UNL A   1      26.892  28.303  23.131  1.00  0.00    -0.346 N 
ATOM     20  H   UNL A   1      26.383  27.889  22.350  1.00  0.00     0.346 HD
ATOM     21  H   UNL A   1      26.339  28.584  23.941  1.00  0.00     0.346 HD
ENDBRANCH  13  14
ENDBRANCH  12  13
ENDBRANCH  11  12
ENDBRANCH   8  11
ENDBRANCH   5   7
BRANCH   5  22
ATOM     22  C   UNL A   1      32.585  22.095  24.721  1.00  0.00     0.422 C 
ATOM     23  F   UNL A   1      33.035  21.488  23.598  1.00  0.00    -0.168 F 
ATOM     24  F   UNL A   1      32.717  21.188  25.723  1.00  0.00    -0.168 F 
ATOM     25  F   UNL A   1      31.264  22.312  24.566  1.00  0.00    -0.168 F 
ENDBRANCH   5  22
ENDBRANCH   3   5
ENDBRANCH   2   3
ENDBRANCH   1   2
BRANCH   1  26
ATOM     26  C   UNL A   1      37.913  21.304  25.087  1.00  0.00     0.275 C 
BRANCH  26  27
ATOM     27  O   UNL A   1      38.420  22.469  25.734  1.00  0.00    -0.458 OA
BRANCH  27  28
ATOM     28  C   UNL A   1      39.575  22.232  26.407  1.00  0.00     0.338 C 
ATOM     29  O   UNL A   1      40.325  21.294  26.291  1.00  0.00    -0.246 OA
BRANCH  28  30
ATOM     30  C   UNL A   1      39.921  23.484  27.085  1.00  0.00     0.060 A 
ATOM     31  C   UNL A   1      39.237  24.625  26.662  1.00  0.00     0.016 A 
ATOM     32  C   UNL A   1      40.882  23.538  28.089  1.00  0.00     0.016 A 
ATOM     33  C   UNL A   1      39.490  25.845  27.249  1.00  0.00     0.010 A 
ATOM     34  C   UNL A   1      41.198  24.779  28.631  1.00  0.00     0.010 A 
ATOM     35  C   UNL A   1      40.520  25.928  28.183  1.00  0.00    -0.014 A 
BRANCH  35  36
ATOM     36  C   UNL A   1      41.086  27.259  28.434  1.00  0.00     0.031 A 
ATOM     37  C   UNL A   1      42.541  27.440  28.122  1.00  0.00     0.074 A 
ATOM     38  C   UNL A   1      40.300  28.270  28.830  1.00  0.00     0.049 A 
ATOM     39  N   UNL A   1      43.332  28.435  28.402  1.00  0.00    -0.248 NA
ATOM     40  C   UNL A   1      43.196  26.334  27.396  1.00  0.00     0.031 C 
ATOM     41  C   UNL A   1      38.849  28.194  29.002  1.00  0.00     0.029 A 
ATOM     42  N   UNL A   1      40.616  29.558  29.149  1.00  0.00    -0.354 N 
ATOM     43  C   UNL A   1      44.587  28.052  27.942  1.00  0.00     0.074 A 
ATOM     44  C   UNL A   1      44.454  26.739  27.356  1.00  0.00     0.031 C 
ATOM     45  C   UNL A   1      38.400  29.393  29.411  1.00  0.00     0.029 A 
ATOM     46  C   UNL A   1      39.539  30.286  29.591  1.00  0.00     0.049 A 
ATOM     47  H   UNL A   1      41.524  29.929  29.070  1.00  0.00     0.167 HD
ATOM     48  C   UNL A   1      45.744  28.745  28.025  1.00  0.00     0.037 A 
ATOM     49  C   UNL A   1      39.509  31.518  30.129  1.00  0.00     0.037 A 
ATOM     50  C   UNL A   1      45.811  30.062  28.597  1.00  0.00     0.049 A 
ATOM     51  C   UNL A   1      40.820  32.245  30.280  1.00  0.00     0.074 A 
ATOM     52  C   UNL A   1      46.912  30.876  28.773  1.00  0.00     0.029 A 
ATOM     53  N   UNL A   1      44.709  30.760  29.081  1.00  0.00    -0.354 N 
ATOM     54  N   UNL A   1      42.026  31.854  29.929  1.00  0.00    -0.248 NA
ATOM     55  C   UNL A   1      40.774  33.566  30.913  1.00  0.00     0.031 C 
ATOM     56  C   UNL A   1      46.482  32.048  29.406  1.00  0.00     0.029 A 
ATOM     57  C   UNL A   1      45.105  31.990  29.570  1.00  0.00     0.049 A 
ATOM     58  H   UNL A   1      43.783  30.427  29.076  1.00  0.00     0.167 HD
ATOM     59  C   UNL A   1      42.880  32.894  30.273  1.00  0.00     0.074 A 
ATOM     60  C   UNL A   1      42.046  33.932  30.850  1.00  0.00     0.031 C 
ATOM     61  C   UNL A   1      44.227  32.991  30.129  1.00  0.00     0.037 A 
BRANCH  48  62
ATOM     62  C   UNL A   1      47.000  28.058  27.567  1.00  0.00     0.058 A 
ATOM     63  C   UNL A   1      47.783  27.265  28.422  1.00  0.00     0.135 A 
ATOM     64  C   UNL A   1      47.448  28.227  26.245  1.00  0.00     0.135 A 
ATOM     65  F   UNL A   1      47.425  27.096  29.705  1.00  0.00    -0.206 F 
ATOM     66  C   UNL A   1      48.977  26.691  27.993  1.00  0.00     0.059 A 
ATOM     67  C   UNL A   1      48.622  27.637  25.787  1.00  0.00     0.059 A 
ATOM     68  F   UNL A   1      46.750  28.988  25.388  1.00  0.00    -0.206 F 
ATOM     69  C   UNL A   1      49.389  26.885  26.674  1.00  0.00     0.060 A 
BRANCH  69  70
ATOM     70  S   UNL A   1      50.942  26.140  26.132  1.00  0.00     0.124 S 
ATOM     71  O   UNL A   1      51.919  27.100  26.637  1.00  0.00    -0.237 OA
ATOM     72  O   UNL A   1      50.920  24.845  26.805  1.00  0.00    -0.237 OA
ATOM     73  O   UNL A   1      50.808  26.090  24.679  1.00  0.00    -0.744 OA
ENDBRANCH  69  70
ENDBRANCH  48  62
BRANCH  49  74
ATOM     74  C   UNL A   1      38.224  32.105  30.588  1.00  0.00     0.058 A 
ATOM     75  C   UNL A   1      37.807  31.985  31.921  1.00  0.00     0.135 A 
ATOM     76  C   UNL A   1      37.393  32.821  29.709  1.00  0.00     0.135 A 
ATOM     77  F   UNL A   1      38.560  31.305  32.800  1.00  0.00    -0.206 F 
ATOM     78  C   UNL A   1      36.612  32.543  32.366  1.00  0.00     0.059 A 
ATOM     79  C   UNL A   1      36.208  33.413  30.136  1.00  0.00     0.059 A 
ATOM     80  F   UNL A   1      37.747  32.978  28.424  1.00  0.00    -0.206 F 
ATOM     81  C   UNL A   1      35.821  33.259  31.466  1.00  0.00     0.060 A 
BRANCH  81  82
ATOM     82  S   UNL A   1      34.295  34.016  32.066  1.00  0.00     0.124 S 
ATOM     83  O   UNL A   1      33.681  34.466  30.820  1.00  0.00    -0.237 OA
ATOM     84  O   UNL A   1      33.638  32.897  32.733  1.00  0.00    -0.237 OA
ATOM     85  O   UNL A   1      34.770  35.074  32.953  1.00  0.00    -0.744 OA
ENDBRANCH  81  82
ENDBRANCH  49  74
BRANCH  61  86
ATOM     86  C   UNL A   1      44.857  34.284  30.556  1.00  0.00     0.058 A 
ATOM     87  C   UNL A   1      45.349  34.473  31.856  1.00  0.00     0.135 A 
ATOM     88  C   UNL A   1      45.003  35.332  29.634  1.00  0.00     0.135 A 
ATOM     89  F   UNL A   1      45.227  33.502  32.775  1.00  0.00    -0.206 F 
ATOM     90  C   UNL A   1      45.936  35.674  32.237  1.00  0.00     0.059 A 
ATOM     91  C   UNL A   1      45.616  36.528  29.984  1.00  0.00     0.059 A 
ATOM     92  F   UNL A   1      44.562  35.192  28.374  1.00  0.00    -0.206 F 
ATOM     93  C   UNL A   1      46.064  36.696  31.294  1.00  0.00     0.060 A 
BRANCH  93  94
ATOM     94  S   UNL A   1      46.844  38.242  31.795  1.00  0.00     0.124 S 
ATOM     95  O   UNL A   1      48.209  38.050  31.318  1.00  0.00    -0.237 OA
ATOM     96  O   UNL A   1      46.054  39.237  31.077  1.00  0.00    -0.237 OA
ATOM     97  O   UNL A   1      46.681  38.250  33.245  1.00  0.00    -0.744 OA
ENDBRANCH  93  94
ENDBRANCH  61  86
ENDBRANCH  35  36
ENDBRANCH  28  30
ENDBRANCH  27  28
ENDBRANCH  26  27
ENDBRANCH   1  26
TORSDOF 20
ENDMDL
