MODEL 1
REMARK VINA RESULT:     -12.8      0.000      0.000
REMARK SMILES O=C(OCCOC(=O)c1c(S(=O)(=O)N2CCCCC2)sc2c1CC[NH2+]C2)c1ccc(-c2c3nc(c(-c4c(F)cc(S(=O)(=O)[O-])cc4F)c4ccc([nH]4)c(-c4c(F)cc(S(=O)(=O)[O-])cc4F)c4nc(c(-c5c(F)cc(S(=O)(=O)[O-])cc5F)c5ccc2[nH]5)C=C4)C=C3)cc1
REMARK SMILES IDX 4 1 3 2 2 3 1 4 27 5 28 6 92 7 29 8 91 9 30 10 31 11 32 12
REMARK SMILES IDX 85 13 33 14 90 15 84 16 86 17 34 18 89 19 83 20 82 21 35 23
REMARK SMILES IDX 69 24 48 25 68 26 49 27 52 28 67 29 87 30 50 31 51 32 66 34
REMARK SMILES IDX 88 35 53 36 36 37 37 38 46 39 38 40 39 41 45 42 47 43 40 44
REMARK SMILES IDX 41 45 42 46 43 47 44 48 70 49 71 50 80 51 72 52 73 53 79 54
REMARK SMILES IDX 81 55 74 56 75 57 76 58 77 59 78 60 54 61 55 62 64 63 56 64
REMARK SMILES IDX 57 65 63 66 65 67 58 68 59 69 60 70 61 71 62 72 5 73 6 74
REMARK SMILES IDX 7 75 8 76 9 77 10 78 22 79 20 80 21 81 23 82 26 83 24 84
REMARK SMILES IDX 25 85 11 88 12 89 13 90 14 91 15 92 19 93 16 94 18 95 17 96
REMARK H PARENT 86 22 52 33 25 86 25 87
REMARK Flexibility Score: inf
ROOT
ATOM      1  C   UNL A   1      38.746  21.336  25.553  1.00  0.00     0.275 C 
ENDROOT
BRANCH   1   2
ATOM      2  O   UNL A   1      39.934  22.086  25.853  1.00  0.00    -0.458 OA
BRANCH   2   3
ATOM      3  C   UNL A   1      40.242  22.295  27.145  1.00  0.00     0.338 C 
ATOM      4  O   UNL A   1      40.572  21.418  27.929  1.00  0.00    -0.246 OA
BRANCH   3   5
ATOM      5  C   UNL A   1      40.374  23.728  27.468  1.00  0.00     0.060 A 
ATOM      6  C   UNL A   1      39.393  24.680  27.178  1.00  0.00     0.016 A 
ATOM      7  C   UNL A   1      41.491  24.077  28.229  1.00  0.00     0.016 A 
ATOM      8  C   UNL A   1      39.555  25.988  27.634  1.00  0.00     0.010 A 
ATOM      9  C   UNL A   1      41.597  25.350  28.759  1.00  0.00     0.010 A 
ATOM     10  C   UNL A   1      40.661  26.328  28.432  1.00  0.00    -0.014 A 
BRANCH  10  11
ATOM     11  C   UNL A   1      40.759  27.676  29.010  1.00  0.00     0.031 A 
ATOM     12  C   UNL A   1      41.825  28.541  28.410  1.00  0.00     0.074 A 
ATOM     13  C   UNL A   1      39.896  28.175  29.928  1.00  0.00     0.049 A 
ATOM     14  N   UNL A   1      42.928  28.926  28.958  1.00  0.00    -0.248 NA
ATOM     15  C   UNL A   1      41.745  28.900  26.989  1.00  0.00     0.031 C 
ATOM     16  C   UNL A   1      38.664  27.580  30.461  1.00  0.00     0.029 A 
ATOM     17  N   UNL A   1      39.915  29.389  30.554  1.00  0.00    -0.354 N 
ATOM     18  C   UNL A   1      43.558  29.774  28.046  1.00  0.00     0.074 A 
ATOM     19  C   UNL A   1      42.860  29.609  26.802  1.00  0.00     0.031 C 
ATOM     20  C   UNL A   1      37.948  28.512  31.132  1.00  0.00     0.029 A 
ATOM     21  C   UNL A   1      38.749  29.715  31.250  1.00  0.00     0.049 A 
ATOM     22  H   UNL A   1      40.694  29.990  30.516  1.00  0.00     0.167 HD
ATOM     23  C   UNL A   1      44.477  30.688  28.463  1.00  0.00     0.037 A 
ATOM     24  C   UNL A   1      38.471  30.868  31.919  1.00  0.00     0.037 A 
ATOM     25  C   UNL A   1      44.948  30.358  29.784  1.00  0.00     0.049 A 
ATOM     26  C   UNL A   1      39.778  31.496  32.237  1.00  0.00     0.074 A 
ATOM     27  C   UNL A   1      45.568  29.250  30.330  1.00  0.00     0.029 A 
ATOM     28  N   UNL A   1      44.402  31.045  30.840  1.00  0.00    -0.354 N 
ATOM     29  N   UNL A   1      40.641  30.975  33.065  1.00  0.00    -0.248 NA
ATOM     30  C   UNL A   1      40.323  32.431  31.266  1.00  0.00     0.031 C 
ATOM     31  C   UNL A   1      44.912  29.055  31.579  1.00  0.00     0.029 A 
ATOM     32  C   UNL A   1      44.026  30.116  31.775  1.00  0.00     0.049 A 
ATOM     33  H   UNL A   1      44.299  32.022  30.912  1.00  0.00     0.167 HD
ATOM     34  C   UNL A   1      41.867  31.148  32.443  1.00  0.00     0.074 A 
ATOM     35  C   UNL A   1      41.616  32.115  31.373  1.00  0.00     0.031 C 
ATOM     36  C   UNL A   1      42.902  30.286  32.667  1.00  0.00     0.037 A 
BRANCH  23  37
ATOM     37  C   UNL A   1      44.676  32.063  27.870  1.00  0.00     0.058 A 
ATOM     38  C   UNL A   1      45.870  32.334  27.165  1.00  0.00     0.135 A 
ATOM     39  C   UNL A   1      43.907  33.192  28.223  1.00  0.00     0.135 A 
ATOM     40  F   UNL A   1      46.676  31.334  26.772  1.00  0.00    -0.206 F 
ATOM     41  C   UNL A   1      46.312  33.631  26.913  1.00  0.00     0.059 A 
ATOM     42  C   UNL A   1      44.310  34.496  27.941  1.00  0.00     0.059 A 
ATOM     43  F   UNL A   1      42.777  33.089  28.932  1.00  0.00    -0.206 F 
ATOM     44  C   UNL A   1      45.531  34.707  27.319  1.00  0.00     0.060 A 
BRANCH  44  45
ATOM     45  S   UNL A   1      46.141  36.380  27.047  1.00  0.00     0.124 S 
ATOM     46  O   UNL A   1      44.897  37.128  26.915  1.00  0.00    -0.237 OA
ATOM     47  O   UNL A   1      46.906  36.620  28.266  1.00  0.00    -0.237 OA
ATOM     48  O   UNL A   1      46.938  36.252  25.831  1.00  0.00    -0.744 OA
ENDBRANCH  44  45
ENDBRANCH  23  37
BRANCH  24  49
ATOM     49  C   UNL A   1      37.186  31.615  32.036  1.00  0.00     0.058 A 
ATOM     50  C   UNL A   1      36.709  32.063  33.284  1.00  0.00     0.135 A 
ATOM     51  C   UNL A   1      36.568  32.181  30.903  1.00  0.00     0.135 A 
ATOM     52  F   UNL A   1      37.243  31.589  34.420  1.00  0.00    -0.206 F 
ATOM     53  C   UNL A   1      35.731  33.061  33.402  1.00  0.00     0.059 A 
ATOM     54  C   UNL A   1      35.590  33.174  30.997  1.00  0.00     0.059 A 
ATOM     55  F   UNL A   1      36.970  31.853  29.666  1.00  0.00    -0.206 F 
ATOM     56  C   UNL A   1      35.197  33.632  32.250  1.00  0.00     0.060 A 
BRANCH  56  57
ATOM     57  S   UNL A   1      34.088  35.058  32.391  1.00  0.00     0.124 S 
ATOM     58  O   UNL A   1      34.048  35.549  31.019  1.00  0.00    -0.237 OA
ATOM     59  O   UNL A   1      32.859  34.448  32.887  1.00  0.00    -0.237 OA
ATOM     60  O   UNL A   1      34.774  35.927  33.344  1.00  0.00    -0.744 OA
ENDBRANCH  56  57
ENDBRANCH  24  49
BRANCH  36  61
ATOM     61  C   UNL A   1      42.807  29.317  33.818  1.00  0.00     0.058 A 
ATOM     62  C   UNL A   1      43.108  29.609  35.160  1.00  0.00     0.135 A 
ATOM     63  C   UNL A   1      42.231  28.066  33.552  1.00  0.00     0.135 A 
ATOM     64  F   UNL A   1      43.563  30.817  35.523  1.00  0.00    -0.206 F 
ATOM     65  C   UNL A   1      42.888  28.680  36.182  1.00  0.00     0.059 A 
ATOM     66  C   UNL A   1      41.968  27.140  34.555  1.00  0.00     0.059 A 
ATOM     67  F   UNL A   1      41.864  27.746  32.300  1.00  0.00    -0.206 F 
ATOM     68  C   UNL A   1      42.317  27.446  35.867  1.00  0.00     0.060 A 
BRANCH  68  69
ATOM     69  S   UNL A   1      41.990  26.255  37.184  1.00  0.00     0.124 S 
ATOM     70  O   UNL A   1      42.127  24.982  36.485  1.00  0.00    -0.237 OA
ATOM     71  O   UNL A   1      43.034  26.562  38.157  1.00  0.00    -0.237 OA
ATOM     72  O   UNL A   1      40.633  26.586  37.614  1.00  0.00    -0.744 OA
ENDBRANCH  68  69
ENDBRANCH  36  61
ENDBRANCH  10  11
ENDBRANCH   3   5
ENDBRANCH   2   3
ENDBRANCH   1   2
BRANCH   1  73
ATOM     73  C   UNL A   1      37.408  22.087  25.569  1.00  0.00     0.275 C 
BRANCH  73  74
ATOM     74  O   UNL A   1      36.354  21.292  24.990  1.00  0.00    -0.458 OA
BRANCH  74  75
ATOM     75  C   UNL A   1      35.085  21.484  25.463  1.00  0.00     0.340 C 
ATOM     76  O   UNL A   1      34.794  21.983  26.543  1.00  0.00    -0.246 OA
BRANCH  75  77
ATOM     77  C   UNL A   1      34.090  21.011  24.508  1.00  0.00     0.095 A 
ATOM     78  C   UNL A   1      33.429  21.902  23.672  1.00  0.00     0.150 A 
ATOM     79  C   UNL A   1      33.713  19.649  24.196  1.00  0.00    -0.007 A 
ATOM     80  S   UNL A   1      32.159  21.134  22.829  1.00  0.00    -0.120 S 
ATOM     81  C   UNL A   1      32.696  19.600  23.265  1.00  0.00     0.064 A 
ATOM     82  C   UNL A   1      34.245  18.372  24.764  1.00  0.00     0.099 C 
ATOM     83  C   UNL A   1      32.119  18.360  22.660  1.00  0.00     0.308 C 
ATOM     84  C   UNL A   1      33.741  17.119  24.005  1.00  0.00     0.265 C 
ATOM     85  N   UNL A   1      32.363  17.181  23.497  1.00  0.00    -0.342 N 
ATOM     86  H   UNL A   1      31.723  17.207  24.291  1.00  0.00     0.346 HD
ATOM     87  H   UNL A   1      32.212  16.356  22.917  1.00  0.00     0.346 HD
BRANCH  78  88
ATOM     88  S   UNL A   1      33.725  23.638  23.351  1.00  0.00     0.253 S 
ATOM     89  O   UNL A   1      35.132  23.720  23.011  1.00  0.00    -0.206 OA
ATOM     90  O   UNL A   1      32.707  23.983  22.385  1.00  0.00    -0.206 OA
BRANCH  88  91
ATOM     91  N   UNL A   1      33.437  24.593  24.757  1.00  0.00    -0.197 NA
ATOM     92  C   UNL A   1      33.934  25.993  24.648  1.00  0.00     0.102 C 
ATOM     93  C   UNL A   1      32.110  24.365  25.389  1.00  0.00     0.102 C 
ATOM     94  C   UNL A   1      33.623  26.833  25.878  1.00  0.00     0.017 C 
ATOM     95  C   UNL A   1      31.838  25.278  26.575  1.00  0.00     0.017 C 
ATOM     96  C   UNL A   1      32.155  26.728  26.255  1.00  0.00     0.003 C 
ENDBRANCH  88  91
ENDBRANCH  78  88
ENDBRANCH  75  77
ENDBRANCH  74  75
ENDBRANCH  73  74
ENDBRANCH   1  73
TORSDOF 16
ENDMDL
MODEL 2
REMARK VINA RESULT:     -12.4      1.069      3.038
REMARK SMILES O=C(OCCOC(=O)c1c(S(=O)(=O)N2CCCCC2)sc2c1CC[NH2+]C2)c1ccc(-c2c3nc(c(-c4c(F)cc(S(=O)(=O)[O-])cc4F)c4ccc([nH]4)c(-c4c(F)cc(S(=O)(=O)[O-])cc4F)c4nc(c(-c5c(F)cc(S(=O)(=O)[O-])cc5F)c5ccc2[nH]5)C=C4)C=C3)cc1
REMARK SMILES IDX 4 1 3 2 2 3 1 4 27 5 28 6 92 7 29 8 91 9 30 10 31 11 32 12
REMARK SMILES IDX 85 13 33 14 90 15 84 16 86 17 34 18 89 19 83 20 82 21 35 23
REMARK SMILES IDX 69 24 48 25 68 26 49 27 52 28 67 29 87 30 50 31 51 32 66 34
REMARK SMILES IDX 88 35 53 36 36 37 37 38 46 39 38 40 39 41 45 42 47 43 40 44
REMARK SMILES IDX 41 45 42 46 43 47 44 48 70 49 71 50 80 51 72 52 73 53 79 54
REMARK SMILES IDX 81 55 74 56 75 57 76 58 77 59 78 60 54 61 55 62 64 63 56 64
REMARK SMILES IDX 57 65 63 66 65 67 58 68 59 69 60 70 61 71 62 72 5 73 6 74
REMARK SMILES IDX 7 75 8 76 9 77 10 78 22 79 20 80 21 81 23 82 26 83 24 84
REMARK SMILES IDX 25 85 11 88 12 89 13 90 14 91 15 92 19 93 16 94 18 95 17 96
REMARK H PARENT 86 22 52 33 25 86 25 87
REMARK Flexibility Score: inf
ROOT
ATOM      1  C   UNL A   1      38.181  21.753  25.627  1.00  0.00     0.275 C 
ENDROOT
BRANCH   1   2
ATOM      2  O   UNL A   1      39.570  22.073  25.809  1.00  0.00    -0.458 OA
BRANCH   2   3
ATOM      3  C   UNL A   1      40.015  22.277  27.061  1.00  0.00     0.338 C 
ATOM      4  O   UNL A   1      40.442  21.399  27.796  1.00  0.00    -0.246 OA
BRANCH   3   5
ATOM      5  C   UNL A   1      40.161  23.709  27.382  1.00  0.00     0.060 A 
ATOM      6  C   UNL A   1      39.161  24.659  27.155  1.00  0.00     0.016 A 
ATOM      7  C   UNL A   1      41.320  24.059  28.076  1.00  0.00     0.016 A 
ATOM      8  C   UNL A   1      39.345  25.965  27.605  1.00  0.00     0.010 A 
ATOM      9  C   UNL A   1      41.452  25.330  28.604  1.00  0.00     0.010 A 
ATOM     10  C   UNL A   1      40.495  26.307  28.337  1.00  0.00    -0.014 A 
BRANCH  10  11
ATOM     11  C   UNL A   1      40.623  27.653  28.913  1.00  0.00     0.031 A 
ATOM     12  C   UNL A   1      41.711  28.491  28.316  1.00  0.00     0.074 A 
ATOM     13  C   UNL A   1      39.768  28.173  29.828  1.00  0.00     0.049 A 
ATOM     14  N   UNL A   1      42.820  28.852  28.868  1.00  0.00    -0.248 NA
ATOM     15  C   UNL A   1      41.644  28.851  26.894  1.00  0.00     0.031 C 
ATOM     16  C   UNL A   1      38.521  27.608  30.358  1.00  0.00     0.029 A 
ATOM     17  N   UNL A   1      39.814  29.388  30.452  1.00  0.00    -0.354 N 
ATOM     18  C   UNL A   1      43.473  29.683  27.956  1.00  0.00     0.074 A 
ATOM     19  C   UNL A   1      42.776  29.533  26.710  1.00  0.00     0.031 C 
ATOM     20  C   UNL A   1      37.824  28.557  31.024  1.00  0.00     0.029 A 
ATOM     21  C   UNL A   1      38.654  29.741  31.143  1.00  0.00     0.049 A 
ATOM     22  H   UNL A   1      40.607  29.970  30.416  1.00  0.00     0.167 HD
ATOM     23  C   UNL A   1      44.412  30.576  28.375  1.00  0.00     0.037 A 
ATOM     24  C   UNL A   1      38.400  30.901  31.809  1.00  0.00     0.037 A 
ATOM     25  C   UNL A   1      44.871  30.237  29.698  1.00  0.00     0.049 A 
ATOM     26  C   UNL A   1      39.720  31.499  32.131  1.00  0.00     0.074 A 
ATOM     27  C   UNL A   1      45.463  29.116  30.247  1.00  0.00     0.029 A 
ATOM     28  N   UNL A   1      44.337  30.939  30.751  1.00  0.00    -0.354 N 
ATOM     29  N   UNL A   1      40.567  30.960  32.963  1.00  0.00    -0.248 NA
ATOM     30  C   UNL A   1      40.290  32.420  31.161  1.00  0.00     0.031 C 
ATOM     31  C   UNL A   1      44.798  28.938  31.495  1.00  0.00     0.029 A 
ATOM     32  C   UNL A   1      43.937  30.020  31.687  1.00  0.00     0.049 A 
ATOM     33  H   UNL A   1      44.257  31.918  30.821  1.00  0.00     0.167 HD
ATOM     34  C   UNL A   1      41.800  31.103  32.345  1.00  0.00     0.074 A 
ATOM     35  C   UNL A   1      41.575  32.074  31.272  1.00  0.00     0.031 C 
ATOM     36  C   UNL A   1      42.813  30.218  32.574  1.00  0.00     0.037 A 
BRANCH  23  37
ATOM     37  C   UNL A   1      44.646  31.945  27.780  1.00  0.00     0.058 A 
ATOM     38  C   UNL A   1      45.834  32.178  27.053  1.00  0.00     0.135 A 
ATOM     39  C   UNL A   1      43.921  33.098  28.151  1.00  0.00     0.135 A 
ATOM     40  F   UNL A   1      46.599  31.154  26.644  1.00  0.00    -0.206 F 
ATOM     41  C   UNL A   1      46.314  33.461  26.795  1.00  0.00     0.059 A 
ATOM     42  C   UNL A   1      44.361  34.389  27.863  1.00  0.00     0.059 A 
ATOM     43  F   UNL A   1      42.802  33.031  28.880  1.00  0.00    -0.206 F 
ATOM     44  C   UNL A   1      45.577  34.561  27.218  1.00  0.00     0.060 A 
BRANCH  44  45
ATOM     45  S   UNL A   1      46.236  36.214  26.938  1.00  0.00     0.124 S 
ATOM     46  O   UNL A   1      47.055  36.408  28.128  1.00  0.00    -0.237 OA
ATOM     47  O   UNL A   1      46.960  36.037  25.683  1.00  0.00    -0.237 OA
ATOM     48  O   UNL A   1      45.037  37.042  26.850  1.00  0.00    -0.744 OA
ENDBRANCH  44  45
ENDBRANCH  23  37
BRANCH  24  49
ATOM     49  C   UNL A   1      37.133  31.679  31.921  1.00  0.00     0.058 A 
ATOM     50  C   UNL A   1      36.639  32.102  33.172  1.00  0.00     0.135 A 
ATOM     51  C   UNL A   1      36.555  32.294  30.793  1.00  0.00     0.135 A 
ATOM     52  F   UNL A   1      37.135  31.581  34.304  1.00  0.00    -0.206 F 
ATOM     53  C   UNL A   1      35.685  33.122  33.298  1.00  0.00     0.059 A 
ATOM     54  C   UNL A   1      35.601  33.309  30.894  1.00  0.00     0.059 A 
ATOM     55  F   UNL A   1      36.976  31.991  29.556  1.00  0.00    -0.206 F 
ATOM     56  C   UNL A   1      35.192  33.741  32.152  1.00  0.00     0.060 A 
BRANCH  56  57
ATOM     57  S   UNL A   1      34.118  35.191  32.312  1.00  0.00     0.124 S 
ATOM     58  O   UNL A   1      34.027  35.656  30.933  1.00  0.00    -0.237 OA
ATOM     59  O   UNL A   1      32.899  34.615  32.872  1.00  0.00    -0.237 OA
ATOM     60  O   UNL A   1      34.860  36.064  33.217  1.00  0.00    -0.744 OA
ENDBRANCH  56  57
ENDBRANCH  24  49
BRANCH  36  61
ATOM     61  C   UNL A   1      42.692  29.253  33.726  1.00  0.00     0.058 A 
ATOM     62  C   UNL A   1      42.943  29.555  35.076  1.00  0.00     0.135 A 
ATOM     63  C   UNL A   1      42.141  27.993  33.447  1.00  0.00     0.135 A 
ATOM     64  F   UNL A   1      43.369  30.771  35.448  1.00  0.00    -0.206 F 
ATOM     65  C   UNL A   1      42.700  28.628  36.095  1.00  0.00     0.059 A 
ATOM     66  C   UNL A   1      41.857  27.068  34.446  1.00  0.00     0.059 A 
ATOM     67  F   UNL A   1      41.821  27.662  32.185  1.00  0.00    -0.206 F 
ATOM     68  C   UNL A   1      42.157  27.385  35.766  1.00  0.00     0.060 A 
BRANCH  68  69
ATOM     69  S   UNL A   1      41.800  26.196  37.078  1.00  0.00     0.124 S 
ATOM     70  O   UNL A   1      42.934  26.385  37.977  1.00  0.00    -0.237 OA
ATOM     71  O   UNL A   1      40.508  26.655  37.580  1.00  0.00    -0.237 OA
ATOM     72  O   UNL A   1      41.768  24.915  36.377  1.00  0.00    -0.744 OA
ENDBRANCH  68  69
ENDBRANCH  36  61
ENDBRANCH  10  11
ENDBRANCH   3   5
ENDBRANCH   2   3
ENDBRANCH   1   2
BRANCH   1  73
ATOM     73  C   UNL A   1      37.427  22.474  24.502  1.00  0.00     0.275 C 
BRANCH  73  74
ATOM     74  O   UNL A   1      36.007  22.237  24.587  1.00  0.00    -0.458 OA
BRANCH  74  75
ATOM     75  C   UNL A   1      35.236  23.213  25.155  1.00  0.00     0.340 C 
ATOM     76  O   UNL A   1      35.510  23.835  26.174  1.00  0.00    -0.246 OA
BRANCH  75  77
ATOM     77  C   UNL A   1      34.016  23.433  24.389  1.00  0.00     0.095 A 
ATOM     78  C   UNL A   1      33.043  22.444  24.304  1.00  0.00     0.150 A 
ATOM     79  C   UNL A   1      33.570  24.640  23.727  1.00  0.00    -0.007 A 
ATOM     80  S   UNL A   1      31.839  22.857  23.166  1.00  0.00    -0.120 S 
ATOM     81  C   UNL A   1      32.377  24.448  23.062  1.00  0.00     0.064 A 
ATOM     82  C   UNL A   1      34.238  25.976  23.658  1.00  0.00     0.099 C 
ATOM     83  C   UNL A   1      31.595  25.500  22.341  1.00  0.00     0.308 C 
ATOM     84  C   UNL A   1      33.331  27.072  23.045  1.00  0.00     0.265 C 
ATOM     85  N   UNL A   1      32.436  26.639  21.962  1.00  0.00    -0.342 N 
ATOM     86  H   UNL A   1      33.003  26.372  21.157  1.00  0.00     0.346 HD
ATOM     87  H   UNL A   1      31.815  27.420  21.745  1.00  0.00     0.346 HD
BRANCH  78  88
ATOM     88  S   UNL A   1      32.871  20.898  25.191  1.00  0.00     0.253 S 
ATOM     89  O   UNL A   1      33.736  21.034  26.346  1.00  0.00    -0.206 OA
ATOM     90  O   UNL A   1      31.441  20.755  25.345  1.00  0.00    -0.206 OA
BRANCH  88  91
ATOM     91  N   UNL A   1      33.416  19.567  24.241  1.00  0.00    -0.197 NA
ATOM     92  C   UNL A   1      34.394  18.687  24.940  1.00  0.00     0.102 C 
ATOM     93  C   UNL A   1      32.354  18.925  23.421  1.00  0.00     0.102 C 
ATOM     94  C   UNL A   1      34.822  17.491  24.104  1.00  0.00     0.017 C 
ATOM     95  C   UNL A   1      32.833  17.700  22.659  1.00  0.00     0.017 C 
ATOM     96  C   UNL A   1      33.617  16.752  23.549  1.00  0.00     0.003 C 
ENDBRANCH  88  91
ENDBRANCH  78  88
ENDBRANCH  75  77
ENDBRANCH  74  75
ENDBRANCH  73  74
ENDBRANCH   1  73
TORSDOF 16
ENDMDL
MODEL 3
REMARK VINA RESULT:     -12.4      3.468      9.914
REMARK SMILES O=C(OCCOC(=O)c1c(S(=O)(=O)N2CCCCC2)sc2c1CC[NH2+]C2)c1ccc(-c2c3nc(c(-c4c(F)cc(S(=O)(=O)[O-])cc4F)c4ccc([nH]4)c(-c4c(F)cc(S(=O)(=O)[O-])cc4F)c4nc(c(-c5c(F)cc(S(=O)(=O)[O-])cc5F)c5ccc2[nH]5)C=C4)C=C3)cc1
REMARK SMILES IDX 4 1 3 2 2 3 1 4 27 5 28 6 92 7 29 8 91 9 30 10 31 11 32 12
REMARK SMILES IDX 85 13 33 14 90 15 84 16 86 17 34 18 89 19 83 20 82 21 35 23
REMARK SMILES IDX 69 24 48 25 68 26 49 27 52 28 67 29 87 30 50 31 51 32 66 34
REMARK SMILES IDX 88 35 53 36 36 37 37 38 46 39 38 40 39 41 45 42 47 43 40 44
REMARK SMILES IDX 41 45 42 46 43 47 44 48 70 49 71 50 80 51 72 52 73 53 79 54
REMARK SMILES IDX 81 55 74 56 75 57 76 58 77 59 78 60 54 61 55 62 64 63 56 64
REMARK SMILES IDX 57 65 63 66 65 67 58 68 59 69 60 70 61 71 62 72 5 73 6 74
REMARK SMILES IDX 7 75 8 76 9 77 10 78 22 79 20 80 21 81 23 82 26 83 24 84
REMARK SMILES IDX 25 85 11 88 12 89 13 90 14 91 15 92 19 93 16 94 18 95 17 96
REMARK H PARENT 86 22 52 33 25 86 25 87
REMARK Flexibility Score: inf
ROOT
ATOM      1  C   UNL A   1      33.350  31.170  27.246  1.00  0.00     0.275 C 
ENDROOT
BRANCH   1   2
ATOM      2  O   UNL A   1      34.669  31.728  27.363  1.00  0.00    -0.458 OA
BRANCH   2   3
ATOM      3  C   UNL A   1      35.132  32.007  28.594  1.00  0.00     0.338 C 
ATOM      4  O   UNL A   1      34.549  32.704  29.411  1.00  0.00    -0.246 OA
BRANCH   3   5
ATOM      5  C   UNL A   1      36.307  31.192  28.953  1.00  0.00     0.060 A 
ATOM      6  C   UNL A   1      36.345  29.799  28.843  1.00  0.00     0.016 A 
ATOM      7  C   UNL A   1      37.462  31.904  29.279  1.00  0.00     0.016 A 
ATOM      8  C   UNL A   1      37.542  29.128  29.088  1.00  0.00     0.010 A 
ATOM      9  C   UNL A   1      38.666  31.240  29.425  1.00  0.00     0.010 A 
ATOM     10  C   UNL A   1      38.713  29.849  29.379  1.00  0.00    -0.014 A 
BRANCH  10  11
ATOM     11  C   UNL A   1      39.994  29.141  29.514  1.00  0.00     0.031 A 
ATOM     12  C   UNL A   1      40.458  28.946  30.924  1.00  0.00     0.074 A 
ATOM     13  C   UNL A   1      40.671  28.589  28.477  1.00  0.00     0.049 A 
ATOM     14  N   UNL A   1      41.451  29.521  31.514  1.00  0.00    -0.248 NA
ATOM     15  C   UNL A   1      39.646  28.138  31.844  1.00  0.00     0.031 C 
ATOM     16  C   UNL A   1      40.272  28.468  27.069  1.00  0.00     0.029 A 
ATOM     17  N   UNL A   1      41.877  27.947  28.484  1.00  0.00    -0.354 N 
ATOM     18  C   UNL A   1      41.539  28.967  32.791  1.00  0.00     0.074 A 
ATOM     19  C   UNL A   1      40.323  28.229  32.990  1.00  0.00     0.031 C 
ATOM     20  C   UNL A   1      41.091  27.605  26.425  1.00  0.00     0.029 A 
ATOM     21  C   UNL A   1      42.188  27.260  27.309  1.00  0.00     0.049 A 
ATOM     22  H   UNL A   1      42.481  27.968  29.260  1.00  0.00     0.167 HD
ATOM     23  C   UNL A   1      42.708  29.005  33.490  1.00  0.00     0.037 A 
ATOM     24  C   UNL A   1      43.288  26.500  27.053  1.00  0.00     0.037 A 
ATOM     25  C   UNL A   1      43.595  29.990  32.926  1.00  0.00     0.049 A 
ATOM     26  C   UNL A   1      44.336  26.942  28.006  1.00  0.00     0.074 A 
ATOM     27  C   UNL A   1      43.498  31.350  32.704  1.00  0.00     0.029 A 
ATOM     28  N   UNL A   1      44.592  29.541  32.095  1.00  0.00    -0.354 N 
ATOM     29  N   UNL A   1      44.885  28.124  27.971  1.00  0.00    -0.248 NA
ATOM     30  C   UNL A   1      44.409  26.253  29.284  1.00  0.00     0.031 C 
ATOM     31  C   UNL A   1      44.048  31.539  31.403  1.00  0.00     0.029 A 
ATOM     32  C   UNL A   1      44.554  30.314  30.964  1.00  0.00     0.049 A 
ATOM     33  H   UNL A   1      45.217  28.801  32.277  1.00  0.00     0.167 HD
ATOM     34  C   UNL A   1      44.957  28.515  29.299  1.00  0.00     0.074 A 
ATOM     35  C   UNL A   1      44.715  27.292  30.067  1.00  0.00     0.031 C 
ATOM     36  C   UNL A   1      44.921  29.833  29.652  1.00  0.00     0.037 A 
BRANCH  23  37
ATOM     37  C   UNL A   1      43.207  27.926  34.421  1.00  0.00     0.058 A 
ATOM     38  C   UNL A   1      43.506  28.266  35.759  1.00  0.00     0.135 A 
ATOM     39  C   UNL A   1      43.693  26.674  33.987  1.00  0.00     0.135 A 
ATOM     40  F   UNL A   1      43.088  29.430  36.280  1.00  0.00    -0.206 F 
ATOM     41  C   UNL A   1      44.306  27.466  36.573  1.00  0.00     0.059 A 
ATOM     42  C   UNL A   1      44.457  25.839  34.800  1.00  0.00     0.059 A 
ATOM     43  F   UNL A   1      43.524  26.242  32.732  1.00  0.00    -0.206 F 
ATOM     44  C   UNL A   1      44.789  26.260  36.079  1.00  0.00     0.060 A 
BRANCH  44  45
ATOM     45  S   UNL A   1      45.875  25.264  37.116  1.00  0.00     0.124 S 
ATOM     46  O   UNL A   1      45.394  25.599  38.450  1.00  0.00    -0.237 OA
ATOM     47  O   UNL A   1      45.578  23.914  36.647  1.00  0.00    -0.237 OA
ATOM     48  O   UNL A   1      47.206  25.759  36.778  1.00  0.00    -0.744 OA
ENDBRANCH  44  45
ENDBRANCH  23  37
BRANCH  24  49
ATOM     49  C   UNL A   1      43.412  25.234  26.274  1.00  0.00     0.058 A 
ATOM     50  C   UNL A   1      44.413  25.070  25.296  1.00  0.00     0.135 A 
ATOM     51  C   UNL A   1      42.763  24.056  26.693  1.00  0.00     0.135 A 
ATOM     52  F   UNL A   1      45.094  26.133  24.841  1.00  0.00    -0.206 F 
ATOM     53  C   UNL A   1      44.797  23.809  24.816  1.00  0.00     0.059 A 
ATOM     54  C   UNL A   1      43.125  22.790  26.227  1.00  0.00     0.059 A 
ATOM     55  F   UNL A   1      41.819  24.094  27.646  1.00  0.00    -0.206 F 
ATOM     56  C   UNL A   1      44.165  22.670  25.310  1.00  0.00     0.060 A 
BRANCH  56  57
ATOM     57  S   UNL A   1      44.790  21.033  24.851  1.00  0.00     0.124 S 
ATOM     58  O   UNL A   1      43.903  20.148  25.598  1.00  0.00    -0.237 OA
ATOM     59  O   UNL A   1      44.620  21.030  23.402  1.00  0.00    -0.237 OA
ATOM     60  O   UNL A   1      46.176  21.058  25.311  1.00  0.00    -0.744 OA
ENDBRANCH  56  57
ENDBRANCH  24  49
BRANCH  36  61
ATOM     61  C   UNL A   1      45.104  30.879  28.582  1.00  0.00     0.058 A 
ATOM     62  C   UNL A   1      44.100  31.347  27.715  1.00  0.00     0.135 A 
ATOM     63  C   UNL A   1      46.338  31.547  28.548  1.00  0.00     0.135 A 
ATOM     64  F   UNL A   1      42.859  30.840  27.751  1.00  0.00    -0.206 F 
ATOM     65  C   UNL A   1      44.331  32.400  26.823  1.00  0.00     0.059 A 
ATOM     66  C   UNL A   1      46.579  32.620  27.697  1.00  0.00     0.059 A 
ATOM     67  F   UNL A   1      47.320  31.191  29.392  1.00  0.00    -0.206 F 
ATOM     68  C   UNL A   1      45.577  33.029  26.823  1.00  0.00     0.060 A 
BRANCH  68  69
ATOM     69  S   UNL A   1      45.871  34.416  25.706  1.00  0.00     0.124 S 
ATOM     70  O   UNL A   1      47.303  34.301  25.446  1.00  0.00    -0.237 OA
ATOM     71  O   UNL A   1      44.995  34.109  24.579  1.00  0.00    -0.237 OA
ATOM     72  O   UNL A   1      45.473  35.580  26.494  1.00  0.00    -0.744 OA
ENDBRANCH  68  69
ENDBRANCH  36  61
ENDBRANCH  10  11
ENDBRANCH   3   5
ENDBRANCH   2   3
ENDBRANCH   1   2
BRANCH   1  73
ATOM     73  C   UNL A   1      33.221  29.778  26.613  1.00  0.00     0.275 C 
BRANCH  73  74
ATOM     74  O   UNL A   1      32.061  29.696  25.760  1.00  0.00    -0.458 OA
BRANCH  74  75
ATOM     75  C   UNL A   1      32.153  28.916  24.640  1.00  0.00     0.340 C 
ATOM     76  O   UNL A   1      33.181  28.682  24.017  1.00  0.00    -0.246 OA
BRANCH  75  77
ATOM     77  C   UNL A   1      30.851  28.383  24.261  1.00  0.00     0.095 A 
ATOM     78  C   UNL A   1      30.509  27.069  24.557  1.00  0.00     0.150 A 
ATOM     79  C   UNL A   1      29.730  29.075  23.663  1.00  0.00    -0.007 A 
ATOM     80  S   UNL A   1      29.042  26.627  23.804  1.00  0.00    -0.120 S 
ATOM     81  C   UNL A   1      28.678  28.222  23.406  1.00  0.00     0.064 A 
ATOM     82  C   UNL A   1      29.610  30.516  23.281  1.00  0.00     0.099 C 
ATOM     83  C   UNL A   1      27.340  28.614  22.866  1.00  0.00     0.308 C 
ATOM     84  C   UNL A   1      28.169  30.915  22.877  1.00  0.00     0.265 C 
ATOM     85  N   UNL A   1      27.394  29.895  22.155  1.00  0.00    -0.342 N 
ATOM     86  H   UNL A   1      27.825  29.743  21.243  1.00  0.00     0.346 HD
ATOM     87  H   UNL A   1      26.438  30.239  22.069  1.00  0.00     0.346 HD
BRANCH  78  88
ATOM     88  S   UNL A   1      31.329  25.854  25.585  1.00  0.00     0.253 S 
ATOM     89  O   UNL A   1      31.539  26.521  26.855  1.00  0.00    -0.206 OA
ATOM     90  O   UNL A   1      30.471  24.694  25.488  1.00  0.00    -0.206 OA
BRANCH  88  91
ATOM     91  N   UNL A   1      32.860  25.411  24.929  1.00  0.00    -0.197 NA
ATOM     92  C   UNL A   1      33.817  24.876  25.938  1.00  0.00     0.102 C 
ATOM     93  C   UNL A   1      32.786  24.737  23.604  1.00  0.00     0.102 C 
ATOM     94  C   UNL A   1      35.143  24.442  25.330  1.00  0.00     0.017 C 
ATOM     95  C   UNL A   1      34.138  24.276  23.083  1.00  0.00     0.017 C 
ATOM     96  C   UNL A   1      34.924  23.523  24.141  1.00  0.00     0.003 C 
ENDBRANCH  88  91
ENDBRANCH  78  88
ENDBRANCH  75  77
ENDBRANCH  74  75
ENDBRANCH  73  74
ENDBRANCH   1  73
TORSDOF 16
ENDMDL
