MODEL 1
REMARK VINA RESULT:     -11.1      0.000      0.000
REMARK SMILES CNc1nccc(-c2cc(C(=O)OCCOC(=O)c3ccc(-c4c5nc(c(-c6c(F)cc(S(=O)(=O)[O-])cc6F)c6ccc([nH]6)c(-c6c(F)cc(S(=O)(=O)[O-])cc6F)c6nc(c(-c7c(F)cc(S(=O)(=O)[O-])cc7F)c7ccc4[nH]7)C=C6)C=C5)cc3)ccn2)n1
REMARK SMILES IDX 15 1 14 2 13 3 11 4 12 5 10 6 8 7 9 8 87 9 86 10 85 11 7 12
REMARK SMILES IDX 3 13 4 14 88 15 5 16 6 17 2 18 1 19 16 21 17 22 18 23 19 24
REMARK SMILES IDX 20 25 84 26 21 27 83 28 22 29 23 30 24 31 77 32 25 33 82 34
REMARK SMILES IDX 76 35 78 36 26 37 81 38 75 39 74 40 27 42 61 43 40 44 60 45
REMARK SMILES IDX 41 46 44 47 59 48 79 49 42 50 43 51 58 53 80 54 45 55 28 56
REMARK SMILES IDX 29 57 38 58 30 59 31 60 37 61 39 62 32 63 33 64 34 65 35 66
REMARK SMILES IDX 36 67 62 68 63 69 72 70 64 71 65 72 71 73 73 74 66 75 67 76
REMARK SMILES IDX 68 77 69 78 70 79 46 80 47 81 56 82 48 83 49 84 55 85 57 86
REMARK SMILES IDX 50 87 51 88 52 89 53 90 54 91
REMARK H PARENT 2 20 78 41 44 52
REMARK Flexibility Score: inf
ROOT
ATOM      1  C   UNL A   1      34.691  33.108  28.268  1.00  0.00     0.275 C 
ENDROOT
BRANCH   1   2
ATOM      2  C   UNL A   1      33.385  33.875  28.045  1.00  0.00     0.275 C 
BRANCH   2   3
ATOM      3  O   UNL A   1      32.792  34.286  29.295  1.00  0.00    -0.458 OA
BRANCH   3   4
ATOM      4  C   UNL A   1      32.836  35.614  29.569  1.00  0.00     0.338 C 
ATOM      5  O   UNL A   1      32.416  36.516  28.869  1.00  0.00    -0.246 OA
BRANCH   4   6
ATOM      6  C   UNL A   1      33.425  35.848  30.909  1.00  0.00     0.063 A 
ATOM      7  C   UNL A   1      34.824  35.202  32.729  1.00  0.00     0.090 A 
ATOM      8  C   UNL A   1      34.219  34.883  31.517  1.00  0.00     0.046 A 
ATOM      9  N   UNL A   1      34.597  36.377  33.373  1.00  0.00    -0.255 NA
ATOM     10  C   UNL A   1      33.807  37.284  32.774  1.00  0.00     0.112 A 
ATOM     11  C   UNL A   1      33.254  37.086  31.528  1.00  0.00     0.036 A 
BRANCH   7  12
ATOM     12  C   UNL A   1      35.891  34.374  33.297  1.00  0.00     0.094 A 
ATOM     13  C   UNL A   1      38.049  34.239  34.061  1.00  0.00     0.222 A 
ATOM     14  N   UNL A   1      37.995  32.902  34.158  1.00  0.00    -0.222 NA
ATOM     15  N   UNL A   1      37.035  35.000  33.644  1.00  0.00    -0.211 NA
ATOM     16  C   UNL A   1      36.832  32.314  33.830  1.00  0.00     0.117 A 
ATOM     17  C   UNL A   1      35.735  33.006  33.397  1.00  0.00     0.051 A 
BRANCH  13  18
ATOM     18  N   UNL A   1      39.215  34.814  34.481  1.00  0.00    -0.357 N 
ATOM     19  C   UNL A   1      39.448  35.118  35.862  1.00  0.00     0.143 C 
ATOM     20  H   UNL A   1      39.912  35.024  33.819  1.00  0.00     0.163 HD
ENDBRANCH  13  18
ENDBRANCH   7  12
ENDBRANCH   4   6
ENDBRANCH   3   4
ENDBRANCH   2   3
ENDBRANCH   1   2
BRANCH   1  21
ATOM     21  O   UNL A   1      34.464  31.919  29.046  1.00  0.00    -0.458 OA
BRANCH  21  22
ATOM     22  C   UNL A   1      34.481  30.767  28.339  1.00  0.00     0.338 C 
ATOM     23  O   UNL A   1      33.591  30.318  27.636  1.00  0.00    -0.246 OA
BRANCH  22  24
ATOM     24  C   UNL A   1      35.809  30.144  28.413  1.00  0.00     0.060 A 
ATOM     25  C   UNL A   1      36.261  29.765  29.669  1.00  0.00     0.016 A 
ATOM     26  C   UNL A   1      36.674  30.116  27.325  1.00  0.00     0.016 A 
ATOM     27  C   UNL A   1      37.607  29.497  29.886  1.00  0.00     0.010 A 
ATOM     28  C   UNL A   1      38.002  29.707  27.519  1.00  0.00     0.010 A 
ATOM     29  C   UNL A   1      38.498  29.436  28.811  1.00  0.00    -0.014 A 
BRANCH  29  30
ATOM     30  C   UNL A   1      39.934  29.103  29.049  1.00  0.00     0.031 A 
ATOM     31  C   UNL A   1      40.884  30.154  29.570  1.00  0.00     0.074 A 
ATOM     32  C   UNL A   1      40.392  27.855  28.806  1.00  0.00     0.049 A 
ATOM     33  N   UNL A   1      42.189  30.116  29.659  1.00  0.00    -0.248 NA
ATOM     34  C   UNL A   1      40.293  31.421  30.035  1.00  0.00     0.031 C 
ATOM     35  C   UNL A   1      39.578  26.727  28.338  1.00  0.00     0.029 A 
ATOM     36  N   UNL A   1      41.653  27.318  28.913  1.00  0.00    -0.354 N 
ATOM     37  C   UNL A   1      42.579  31.368  30.126  1.00  0.00     0.074 A 
ATOM     38  C   UNL A   1      41.372  32.145  30.303  1.00  0.00     0.031 C 
ATOM     39  C   UNL A   1      40.350  25.636  28.226  1.00  0.00     0.029 A 
ATOM     40  C   UNL A   1      41.730  26.006  28.503  1.00  0.00     0.049 A 
ATOM     41  H   UNL A   1      42.427  27.825  29.250  1.00  0.00     0.167 HD
ATOM     42  C   UNL A   1      43.830  31.823  30.376  1.00  0.00     0.037 A 
ATOM     43  C   UNL A   1      42.793  25.202  28.303  1.00  0.00     0.037 A 
ATOM     44  C   UNL A   1      45.018  31.017  30.257  1.00  0.00     0.049 A 
ATOM     45  C   UNL A   1      44.171  25.742  28.562  1.00  0.00     0.074 A 
ATOM     46  C   UNL A   1      46.328  31.373  30.536  1.00  0.00     0.029 A 
ATOM     47  N   UNL A   1      45.047  29.697  29.833  1.00  0.00    -0.354 N 
ATOM     48  N   UNL A   1      44.521  26.933  28.984  1.00  0.00    -0.248 NA
ATOM     49  C   UNL A   1      45.300  24.839  28.305  1.00  0.00     0.031 C 
ATOM     50  C   UNL A   1      47.152  30.289  30.223  1.00  0.00     0.029 A 
ATOM     51  C   UNL A   1      46.353  29.234  29.814  1.00  0.00     0.049 A 
ATOM     52  H   UNL A   1      44.256  29.167  29.584  1.00  0.00     0.167 HD
ATOM     53  C   UNL A   1      45.909  26.914  29.066  1.00  0.00     0.074 A 
ATOM     54  C   UNL A   1      46.331  25.587  28.669  1.00  0.00     0.031 C 
ATOM     55  C   UNL A   1      46.756  27.905  29.432  1.00  0.00     0.037 A 
BRANCH  42  56
ATOM     56  C   UNL A   1      44.003  33.266  30.771  1.00  0.00     0.058 A 
ATOM     57  C   UNL A   1      43.994  33.688  32.110  1.00  0.00     0.135 A 
ATOM     58  C   UNL A   1      44.280  34.231  29.786  1.00  0.00     0.135 A 
ATOM     59  F   UNL A   1      43.719  32.814  33.091  1.00  0.00    -0.206 F 
ATOM     60  C   UNL A   1      44.246  35.012  32.456  1.00  0.00     0.059 A 
ATOM     61  C   UNL A   1      44.562  35.553  30.111  1.00  0.00     0.059 A 
ATOM     62  F   UNL A   1      44.299  33.884  28.489  1.00  0.00    -0.206 F 
ATOM     63  C   UNL A   1      44.539  35.936  31.450  1.00  0.00     0.060 A 
BRANCH  63  64
ATOM     64  S   UNL A   1      44.914  37.639  31.921  1.00  0.00     0.124 S 
ATOM     65  O   UNL A   1      44.995  37.529  33.375  1.00  0.00    -0.237 OA
ATOM     66  O   UNL A   1      46.179  37.880  31.232  1.00  0.00    -0.237 OA
ATOM     67  O   UNL A   1      43.773  38.393  31.414  1.00  0.00    -0.744 OA
ENDBRANCH  63  64
ENDBRANCH  42  56
BRANCH  43  68
ATOM     68  C   UNL A   1      42.600  23.828  27.761  1.00  0.00     0.058 A 
ATOM     69  C   UNL A   1      42.533  22.710  28.605  1.00  0.00     0.135 A 
ATOM     70  C   UNL A   1      42.495  23.603  26.377  1.00  0.00     0.135 A 
ATOM     71  F   UNL A   1      42.635  22.866  29.934  1.00  0.00    -0.206 F 
ATOM     72  C   UNL A   1      42.398  21.420  28.099  1.00  0.00     0.059 A 
ATOM     73  C   UNL A   1      42.321  22.329  25.850  1.00  0.00     0.059 A 
ATOM     74  F   UNL A   1      42.538  24.637  25.522  1.00  0.00    -0.206 F 
ATOM     75  C   UNL A   1      42.294  21.241  26.718  1.00  0.00     0.060 A 
BRANCH  75  76
ATOM     76  S   UNL A   1      42.103  19.566  26.071  1.00  0.00     0.124 S 
ATOM     77  O   UNL A   1      40.674  19.527  25.781  1.00  0.00    -0.237 OA
ATOM     78  O   UNL A   1      42.990  19.582  24.913  1.00  0.00    -0.237 OA
ATOM     79  O   UNL A   1      42.545  18.725  27.180  1.00  0.00    -0.744 OA
ENDBRANCH  75  76
ENDBRANCH  43  68
BRANCH  55  80
ATOM     80  C   UNL A   1      48.225  27.580  29.471  1.00  0.00     0.058 A 
ATOM     81  C   UNL A   1      49.054  27.759  28.353  1.00  0.00     0.135 A 
ATOM     82  C   UNL A   1      48.815  27.129  30.662  1.00  0.00     0.135 A 
ATOM     83  F   UNL A   1      48.537  28.180  27.188  1.00  0.00    -0.206 F 
ATOM     84  C   UNL A   1      50.415  27.477  28.408  1.00  0.00     0.059 A 
ATOM     85  C   UNL A   1      50.179  26.871  30.749  1.00  0.00     0.059 A 
ATOM     86  F   UNL A   1      48.068  26.949  31.763  1.00  0.00    -0.206 F 
ATOM     87  C   UNL A   1      50.969  27.037  29.611  1.00  0.00     0.060 A 
BRANCH  87  88
ATOM     88  S   UNL A   1      52.742  26.708  29.678  1.00  0.00     0.124 S 
ATOM     89  O   UNL A   1      53.280  28.045  29.912  1.00  0.00    -0.237 OA
ATOM     90  O   UNL A   1      52.844  25.779  30.799  1.00  0.00    -0.237 OA
ATOM     91  O   UNL A   1      53.032  26.136  28.367  1.00  0.00    -0.744 OA
ENDBRANCH  87  88
ENDBRANCH  55  80
ENDBRANCH  29  30
ENDBRANCH  22  24
ENDBRANCH  21  22
ENDBRANCH   1  21
TORSDOF 16
ENDMDL
MODEL 2
REMARK VINA RESULT:     -10.7      4.401      6.626
REMARK SMILES CNc1nccc(-c2cc(C(=O)OCCOC(=O)c3ccc(-c4c5nc(c(-c6c(F)cc(S(=O)(=O)[O-])cc6F)c6ccc([nH]6)c(-c6c(F)cc(S(=O)(=O)[O-])cc6F)c6nc(c(-c7c(F)cc(S(=O)(=O)[O-])cc7F)c7ccc4[nH]7)C=C6)C=C5)cc3)ccn2)n1
REMARK SMILES IDX 15 1 14 2 13 3 11 4 12 5 10 6 8 7 9 8 87 9 86 10 85 11 7 12
REMARK SMILES IDX 3 13 4 14 88 15 5 16 6 17 2 18 1 19 16 21 17 22 18 23 19 24
REMARK SMILES IDX 20 25 84 26 21 27 83 28 22 29 23 30 24 31 77 32 25 33 82 34
REMARK SMILES IDX 76 35 78 36 26 37 81 38 75 39 74 40 27 42 61 43 40 44 60 45
REMARK SMILES IDX 41 46 44 47 59 48 79 49 42 50 43 51 58 53 80 54 45 55 28 56
REMARK SMILES IDX 29 57 38 58 30 59 31 60 37 61 39 62 32 63 33 64 34 65 35 66
REMARK SMILES IDX 36 67 62 68 63 69 72 70 64 71 65 72 71 73 73 74 66 75 67 76
REMARK SMILES IDX 68 77 69 78 70 79 46 80 47 81 56 82 48 83 49 84 55 85 57 86
REMARK SMILES IDX 50 87 51 88 52 89 53 90 54 91
REMARK H PARENT 2 20 78 41 44 52
REMARK Flexibility Score: inf
ROOT
ATOM      1  C   UNL A   1      34.315  29.783  27.474  1.00  0.00     0.275 C 
ENDROOT
BRANCH   1   2
ATOM      2  C   UNL A   1      34.089  28.938  26.218  1.00  0.00     0.275 C 
BRANCH   2   3
ATOM      3  O   UNL A   1      33.072  27.937  26.430  1.00  0.00    -0.458 OA
BRANCH   3   4
ATOM      4  C   UNL A   1      33.199  26.793  25.710  1.00  0.00     0.338 C 
ATOM      5  O   UNL A   1      33.785  25.782  26.049  1.00  0.00    -0.246 OA
BRANCH   4   6
ATOM      6  C   UNL A   1      32.457  26.899  24.432  1.00  0.00     0.063 A 
ATOM      7  C   UNL A   1      30.665  27.749  23.109  1.00  0.00     0.090 A 
ATOM      8  C   UNL A   1      31.261  27.602  24.358  1.00  0.00     0.046 A 
ATOM      9  N   UNL A   1      31.160  27.163  21.988  1.00  0.00    -0.255 NA
ATOM     10  C   UNL A   1      32.306  26.469  22.091  1.00  0.00     0.112 A 
ATOM     11  C   UNL A   1      33.011  26.363  23.269  1.00  0.00     0.036 A 
BRANCH   7  12
ATOM     12  C   UNL A   1      29.573  28.701  22.887  1.00  0.00     0.094 A 
ATOM     13  C   UNL A   1      28.934  30.861  22.450  1.00  0.00     0.222 A 
ATOM     14  N   UNL A   1      27.639  30.583  22.659  1.00  0.00    -0.222 NA
ATOM     15  N   UNL A   1      29.916  29.961  22.550  1.00  0.00    -0.211 NA
ATOM     16  C   UNL A   1      27.330  29.312  22.966  1.00  0.00     0.117 A 
ATOM     17  C   UNL A   1      28.262  28.319  23.087  1.00  0.00     0.051 A 
BRANCH  13  18
ATOM     18  N   UNL A   1      29.208  32.140  22.058  1.00  0.00    -0.357 N 
ATOM     19  C   UNL A   1      28.841  33.268  22.863  1.00  0.00     0.143 C 
ATOM     20  H   UNL A   1      29.670  32.291  21.203  1.00  0.00     0.163 HD
ENDBRANCH  13  18
ENDBRANCH   7  12
ENDBRANCH   4   6
ENDBRANCH   3   4
ENDBRANCH   2   3
ENDBRANCH   1   2
BRANCH   1  21
ATOM     21  O   UNL A   1      35.467  29.323  28.204  1.00  0.00    -0.458 OA
BRANCH  21  22
ATOM     22  C   UNL A   1      36.064  30.262  28.972  1.00  0.00     0.338 C 
ATOM     23  O   UNL A   1      35.525  31.038  29.743  1.00  0.00    -0.246 OA
BRANCH  22  24
ATOM     24  C   UNL A   1      37.525  30.153  28.865  1.00  0.00     0.060 A 
ATOM     25  C   UNL A   1      38.049  29.874  27.611  1.00  0.00     0.016 A 
ATOM     26  C   UNL A   1      38.347  30.118  29.985  1.00  0.00     0.016 A 
ATOM     27  C   UNL A   1      39.353  29.417  27.474  1.00  0.00     0.010 A 
ATOM     28  C   UNL A   1      39.703  29.793  29.827  1.00  0.00     0.010 A 
ATOM     29  C   UNL A   1      40.214  29.395  28.575  1.00  0.00    -0.014 A 
BRANCH  29  30
ATOM     30  C   UNL A   1      41.628  28.944  28.409  1.00  0.00     0.031 A 
ATOM     31  C   UNL A   1      42.759  29.941  28.484  1.00  0.00     0.074 A 
ATOM     32  C   UNL A   1      41.905  27.639  28.198  1.00  0.00     0.049 A 
ATOM     33  N   UNL A   1      44.022  29.780  28.180  1.00  0.00    -0.248 NA
ATOM     34  C   UNL A   1      42.426  31.300  28.944  1.00  0.00     0.031 C 
ATOM     35  C   UNL A   1      40.914  26.557  28.141  1.00  0.00     0.029 A 
ATOM     36  N   UNL A   1      43.099  26.991  27.986  1.00  0.00    -0.354 N 
ATOM     37  C   UNL A   1      44.618  31.027  28.347  1.00  0.00     0.074 A 
ATOM     38  C   UNL A   1      43.580  31.935  28.782  1.00  0.00     0.031 C 
ATOM     39  C   UNL A   1      41.540  25.389  27.939  1.00  0.00     0.029 A 
ATOM     40  C   UNL A   1      42.959  25.644  27.738  1.00  0.00     0.049 A 
ATOM     41  H   UNL A   1      43.971  27.448  28.008  1.00  0.00     0.167 HD
ATOM     42  C   UNL A   1      45.912  31.376  28.151  1.00  0.00     0.037 A 
ATOM     43  C   UNL A   1      43.852  24.721  27.330  1.00  0.00     0.037 A 
ATOM     44  C   UNL A   1      46.949  30.447  27.781  1.00  0.00     0.049 A 
ATOM     45  C   UNL A   1      45.274  25.143  27.091  1.00  0.00     0.074 A 
ATOM     46  C   UNL A   1      48.301  30.696  27.605  1.00  0.00     0.029 A 
ATOM     47  N   UNL A   1      46.759  29.096  27.536  1.00  0.00    -0.354 N 
ATOM     48  N   UNL A   1      45.816  26.329  27.236  1.00  0.00    -0.248 NA
ATOM     49  C   UNL A   1      46.206  24.110  26.621  1.00  0.00     0.031 C 
ATOM     50  C   UNL A   1      48.914  29.509  27.196  1.00  0.00     0.029 A 
ATOM     51  C   UNL A   1      47.961  28.505  27.182  1.00  0.00     0.049 A 
ATOM     52  H   UNL A   1      45.896  28.625  27.604  1.00  0.00     0.167 HD
ATOM     53  C   UNL A   1      47.155  26.178  26.898  1.00  0.00     0.074 A 
ATOM     54  C   UNL A   1      47.346  24.783  26.561  1.00  0.00     0.031 C 
ATOM     55  C   UNL A   1      48.138  27.111  26.865  1.00  0.00     0.037 A 
BRANCH  42  56
ATOM     56  C   UNL A   1      46.294  32.826  28.292  1.00  0.00     0.058 A 
ATOM     57  C   UNL A   1      46.792  33.362  29.489  1.00  0.00     0.135 A 
ATOM     58  C   UNL A   1      46.244  33.673  27.170  1.00  0.00     0.135 A 
ATOM     59  F   UNL A   1      46.846  32.606  30.597  1.00  0.00    -0.206 F 
ATOM     60  C   UNL A   1      47.224  34.683  29.570  1.00  0.00     0.059 A 
ATOM     61  C   UNL A   1      46.696  34.988  27.221  1.00  0.00     0.059 A 
ATOM     62  F   UNL A   1      45.773  33.215  25.998  1.00  0.00    -0.206 F 
ATOM     63  C   UNL A   1      47.180  35.486  28.428  1.00  0.00     0.060 A 
BRANCH  63  64
ATOM     64  S   UNL A   1      47.790  37.182  28.539  1.00  0.00     0.124 S 
ATOM     65  O   UNL A   1      47.055  37.683  29.696  1.00  0.00    -0.237 OA
ATOM     66  O   UNL A   1      49.224  36.984  28.737  1.00  0.00    -0.237 OA
ATOM     67  O   UNL A   1      47.412  37.766  27.257  1.00  0.00    -0.744 OA
ENDBRANCH  63  64
ENDBRANCH  42  56
BRANCH  43  68
ATOM     68  C   UNL A   1      43.411  23.326  27.046  1.00  0.00     0.058 A 
ATOM     69  C   UNL A   1      43.209  22.398  28.078  1.00  0.00     0.135 A 
ATOM     70  C   UNL A   1      43.197  22.888  25.728  1.00  0.00     0.135 A 
ATOM     71  F   UNL A   1      43.405  22.762  29.355  1.00  0.00    -0.206 F 
ATOM     72  C   UNL A   1      42.840  21.082  27.814  1.00  0.00     0.059 A 
ATOM     73  C   UNL A   1      42.792  21.589  25.441  1.00  0.00     0.059 A 
ATOM     74  F   UNL A   1      43.362  23.736  24.701  1.00  0.00    -0.206 F 
ATOM     75  C   UNL A   1      42.635  20.688  26.491  1.00  0.00     0.060 A 
BRANCH  75  76
ATOM     76  S   UNL A   1      42.142  18.983  26.158  1.00  0.00     0.124 S 
ATOM     77  O   UNL A   1      43.050  18.623  25.075  1.00  0.00    -0.237 OA
ATOM     78  O   UNL A   1      42.390  18.335  27.442  1.00  0.00    -0.237 OA
ATOM     79  O   UNL A   1      40.735  19.107  25.788  1.00  0.00    -0.744 OA
ENDBRANCH  75  76
ENDBRANCH  43  68
BRANCH  55  80
ATOM     80  C   UNL A   1      49.521  26.645  26.500  1.00  0.00     0.058 A 
ATOM     81  C   UNL A   1      50.367  26.030  27.435  1.00  0.00     0.135 A 
ATOM     82  C   UNL A   1      49.984  26.777  25.181  1.00  0.00     0.135 A 
ATOM     83  F   UNL A   1      49.975  25.888  28.711  1.00  0.00    -0.206 F 
ATOM     84  C   UNL A   1      51.635  25.582  27.080  1.00  0.00     0.059 A 
ATOM     85  C   UNL A   1      51.236  26.307  24.797  1.00  0.00     0.059 A 
ATOM     86  F   UNL A   1      49.211  27.351  24.246  1.00  0.00    -0.206 F 
ATOM     87  C   UNL A   1      52.059  25.722  25.758  1.00  0.00     0.060 A 
BRANCH  87  88
ATOM     88  S   UNL A   1      53.693  25.105  25.303  1.00  0.00     0.124 S 
ATOM     89  O   UNL A   1      53.845  25.642  23.955  1.00  0.00    -0.237 OA
ATOM     90  O   UNL A   1      54.547  25.706  26.324  1.00  0.00    -0.237 OA
ATOM     91  O   UNL A   1      53.547  23.656  25.389  1.00  0.00    -0.744 OA
ENDBRANCH  87  88
ENDBRANCH  55  80
ENDBRANCH  29  30
ENDBRANCH  22  24
ENDBRANCH  21  22
ENDBRANCH   1  21
TORSDOF 16
ENDMDL
MODEL 3
REMARK VINA RESULT:     -10.7      2.071      2.770
REMARK SMILES CNc1nccc(-c2cc(C(=O)OCCOC(=O)c3ccc(-c4c5nc(c(-c6c(F)cc(S(=O)(=O)[O-])cc6F)c6ccc([nH]6)c(-c6c(F)cc(S(=O)(=O)[O-])cc6F)c6nc(c(-c7c(F)cc(S(=O)(=O)[O-])cc7F)c7ccc4[nH]7)C=C6)C=C5)cc3)ccn2)n1
REMARK SMILES IDX 15 1 14 2 13 3 11 4 12 5 10 6 8 7 9 8 87 9 86 10 85 11 7 12
REMARK SMILES IDX 3 13 4 14 88 15 5 16 6 17 2 18 1 19 16 21 17 22 18 23 19 24
REMARK SMILES IDX 20 25 84 26 21 27 83 28 22 29 23 30 24 31 77 32 25 33 82 34
REMARK SMILES IDX 76 35 78 36 26 37 81 38 75 39 74 40 27 42 61 43 40 44 60 45
REMARK SMILES IDX 41 46 44 47 59 48 79 49 42 50 43 51 58 53 80 54 45 55 28 56
REMARK SMILES IDX 29 57 38 58 30 59 31 60 37 61 39 62 32 63 33 64 34 65 35 66
REMARK SMILES IDX 36 67 62 68 63 69 72 70 64 71 65 72 71 73 73 74 66 75 67 76
REMARK SMILES IDX 68 77 69 78 70 79 46 80 47 81 56 82 48 83 49 84 55 85 57 86
REMARK SMILES IDX 50 87 51 88 52 89 53 90 54 91
REMARK H PARENT 2 20 78 41 44 52
REMARK Flexibility Score: inf
ROOT
ATOM      1  C   UNL A   1      34.519  32.246  28.533  1.00  0.00     0.275 C 
ENDROOT
BRANCH   1   2
ATOM      2  C   UNL A   1      33.952  33.631  28.209  1.00  0.00     0.275 C 
BRANCH   2   3
ATOM      3  O   UNL A   1      32.980  34.047  29.191  1.00  0.00    -0.458 OA
BRANCH   3   4
ATOM      4  C   UNL A   1      32.974  35.369  29.504  1.00  0.00     0.338 C 
ATOM      5  O   UNL A   1      32.493  36.269  28.843  1.00  0.00    -0.246 OA
BRANCH   4   6
ATOM      6  C   UNL A   1      33.594  35.591  30.831  1.00  0.00     0.063 A 
ATOM      7  C   UNL A   1      35.174  35.039  32.528  1.00  0.00     0.090 A 
ATOM      8  C   UNL A   1      34.560  34.720  31.322  1.00  0.00     0.046 A 
ATOM      9  N   UNL A   1      34.806  36.111  33.277  1.00  0.00    -0.255 NA
ATOM     10  C   UNL A   1      33.854  36.924  32.791  1.00  0.00     0.112 A 
ATOM     11  C   UNL A   1      33.269  36.736  31.558  1.00  0.00     0.036 A 
BRANCH   7  12
ATOM     12  C   UNL A   1      36.387  34.349  32.978  1.00  0.00     0.094 A 
ATOM     13  C   UNL A   1      37.511  33.303  34.682  1.00  0.00     0.222 A 
ATOM     14  N   UNL A   1      38.648  33.242  33.975  1.00  0.00    -0.222 NA
ATOM     15  N   UNL A   1      36.375  33.838  34.226  1.00  0.00    -0.211 NA
ATOM     16  C   UNL A   1      38.617  33.735  32.726  1.00  0.00     0.117 A 
ATOM     17  C   UNL A   1      37.503  34.298  32.167  1.00  0.00     0.051 A 
BRANCH  13  18
ATOM     18  N   UNL A   1      37.550  32.719  35.916  1.00  0.00    -0.357 N 
ATOM     19  C   UNL A   1      37.299  33.469  37.111  1.00  0.00     0.143 C 
ATOM     20  H   UNL A   1      37.756  31.759  35.986  1.00  0.00     0.163 HD
ENDBRANCH  13  18
ENDBRANCH   7  12
ENDBRANCH   4   6
ENDBRANCH   3   4
ENDBRANCH   2   3
ENDBRANCH   1   2
BRANCH   1  21
ATOM     21  O   UNL A   1      35.893  32.336  28.950  1.00  0.00    -0.458 OA
BRANCH  21  22
ATOM     22  C   UNL A   1      36.220  31.547  29.999  1.00  0.00     0.338 C 
ATOM     23  O   UNL A   1      35.577  31.371  31.020  1.00  0.00    -0.246 OA
BRANCH  22  24
ATOM     24  C   UNL A   1      37.440  30.786  29.701  1.00  0.00     0.060 A 
ATOM     25  C   UNL A   1      38.347  30.611  30.737  1.00  0.00     0.016 A 
ATOM     26  C   UNL A   1      37.790  30.429  28.403  1.00  0.00     0.016 A 
ATOM     27  C   UNL A   1      39.654  30.221  30.476  1.00  0.00     0.010 A 
ATOM     28  C   UNL A   1      39.067  29.900  28.162  1.00  0.00     0.010 A 
ATOM     29  C   UNL A   1      40.031  29.831  29.187  1.00  0.00    -0.014 A 
BRANCH  29  30
ATOM     30  C   UNL A   1      41.428  29.370  28.926  1.00  0.00     0.031 A 
ATOM     31  C   UNL A   1      42.574  30.351  28.964  1.00  0.00     0.074 A 
ATOM     32  C   UNL A   1      41.675  28.068  28.660  1.00  0.00     0.049 A 
ATOM     33  N   UNL A   1      43.815  30.186  28.583  1.00  0.00    -0.248 NA
ATOM     34  C   UNL A   1      42.286  31.699  29.483  1.00  0.00     0.031 C 
ATOM     35  C   UNL A   1      40.669  27.001  28.629  1.00  0.00     0.029 A 
ATOM     36  N   UNL A   1      42.847  27.414  28.359  1.00  0.00    -0.354 N 
ATOM     37  C   UNL A   1      44.436  31.420  28.752  1.00  0.00     0.074 A 
ATOM     38  C   UNL A   1      43.437  32.326  29.274  1.00  0.00     0.031 C 
ATOM     39  C   UNL A   1      41.267  25.832  28.355  1.00  0.00     0.029 A 
ATOM     40  C   UNL A   1      42.675  26.077  28.080  1.00  0.00     0.049 A 
ATOM     41  H   UNL A   1      43.724  27.860  28.344  1.00  0.00     0.167 HD
ATOM     42  C   UNL A   1      45.721  31.761  28.491  1.00  0.00     0.037 A 
ATOM     43  C   UNL A   1      43.531  25.157  27.593  1.00  0.00     0.037 A 
ATOM     44  C   UNL A   1      46.723  30.832  28.033  1.00  0.00     0.049 A 
ATOM     45  C   UNL A   1      44.942  25.570  27.285  1.00  0.00     0.074 A 
ATOM     46  C   UNL A   1      48.065  31.071  27.787  1.00  0.00     0.029 A 
ATOM     47  N   UNL A   1      46.501  29.490  27.760  1.00  0.00    -0.354 N 
ATOM     48  N   UNL A   1      45.506  26.745  27.433  1.00  0.00    -0.248 NA
ATOM     49  C   UNL A   1      45.831  24.541  26.730  1.00  0.00     0.031 C 
ATOM     50  C   UNL A   1      48.638  29.890  27.307  1.00  0.00     0.029 A 
ATOM     51  C   UNL A   1      47.673  28.897  27.319  1.00  0.00     0.049 A 
ATOM     52  H   UNL A   1      45.638  29.028  27.864  1.00  0.00     0.167 HD
ATOM     53  C   UNL A   1      46.822  26.589  27.013  1.00  0.00     0.074 A 
ATOM     54  C   UNL A   1      46.975  25.203  26.624  1.00  0.00     0.031 C 
ATOM     55  C   UNL A   1      47.813  27.512  26.951  1.00  0.00     0.037 A 
BRANCH  42  56
ATOM     56  C   UNL A   1      46.129  33.201  28.653  1.00  0.00     0.058 A 
ATOM     57  C   UNL A   1      46.675  33.701  29.845  1.00  0.00     0.135 A 
ATOM     58  C   UNL A   1      46.056  34.075  27.553  1.00  0.00     0.135 A 
ATOM     59  F   UNL A   1      46.753  32.918  30.932  1.00  0.00    -0.206 F 
ATOM     60  C   UNL A   1      47.128  35.014  29.942  1.00  0.00     0.059 A 
ATOM     61  C   UNL A   1      46.528  35.382  27.619  1.00  0.00     0.059 A 
ATOM     62  F   UNL A   1      45.540  33.652  26.387  1.00  0.00    -0.206 F 
ATOM     63  C   UNL A   1      47.060  35.844  28.821  1.00  0.00     0.060 A 
BRANCH  63  64
ATOM     64  S   UNL A   1      47.699  37.528  28.951  1.00  0.00     0.124 S 
ATOM     65  O   UNL A   1      49.105  37.334  28.612  1.00  0.00    -0.237 OA
ATOM     66  O   UNL A   1      46.900  38.240  27.957  1.00  0.00    -0.237 OA
ATOM     67  O   UNL A   1      47.434  37.889  30.339  1.00  0.00    -0.744 OA
ENDBRANCH  63  64
ENDBRANCH  42  56
BRANCH  43  68
ATOM     68  C   UNL A   1      43.056  23.777  27.294  1.00  0.00     0.058 A 
ATOM     69  C   UNL A   1      42.933  22.810  28.303  1.00  0.00     0.135 A 
ATOM     70  C   UNL A   1      42.729  23.391  25.982  1.00  0.00     0.135 A 
ATOM     71  F   UNL A   1      43.239  23.123  29.572  1.00  0.00    -0.206 F 
ATOM     72  C   UNL A   1      42.533  21.507  28.021  1.00  0.00     0.059 A 
ATOM     73  C   UNL A   1      42.290  22.107  25.682  1.00  0.00     0.059 A 
ATOM     74  F   UNL A   1      42.814  24.278  24.978  1.00  0.00    -0.206 F 
ATOM     75  C   UNL A   1      42.214  21.166  26.705  1.00  0.00     0.060 A 
BRANCH  75  76
ATOM     76  S   UNL A   1      41.681  19.478  26.350  1.00  0.00     0.124 S 
ATOM     77  O   UNL A   1      42.126  18.773  27.547  1.00  0.00    -0.237 OA
ATOM     78  O   UNL A   1      40.238  19.637  26.201  1.00  0.00    -0.237 OA
ATOM     79  O   UNL A   1      42.399  19.151  25.121  1.00  0.00    -0.744 OA
ENDBRANCH  75  76
ENDBRANCH  43  68
BRANCH  55  80
ATOM     80  C   UNL A   1      49.167  27.042  26.492  1.00  0.00     0.058 A 
ATOM     81  C   UNL A   1      50.100  26.488  27.382  1.00  0.00     0.135 A 
ATOM     82  C   UNL A   1      49.512  27.106  25.133  1.00  0.00     0.135 A 
ATOM     83  F   UNL A   1      49.822  26.412  28.693  1.00  0.00    -0.206 F 
ATOM     84  C   UNL A   1      51.340  26.035  26.942  1.00  0.00     0.059 A 
ATOM     85  C   UNL A   1      50.733  26.630  24.666  1.00  0.00     0.059 A 
ATOM     86  F   UNL A   1      48.652  27.620  24.239  1.00  0.00    -0.206 F 
ATOM     87  C   UNL A   1      51.645  26.107  25.582  1.00  0.00     0.060 A 
BRANCH  87  88
ATOM     88  S   UNL A   1      53.243  25.485  25.021  1.00  0.00     0.124 S 
ATOM     89  O   UNL A   1      53.169  24.083  25.421  1.00  0.00    -0.237 OA
ATOM     90  O   UNL A   1      53.188  25.737  23.584  1.00  0.00    -0.237 OA
ATOM     91  O   UNL A   1      54.205  26.298  25.759  1.00  0.00    -0.744 OA
ENDBRANCH  87  88
ENDBRANCH  55  80
ENDBRANCH  29  30
ENDBRANCH  22  24
ENDBRANCH  21  22
ENDBRANCH   1  21
TORSDOF 16
ENDMDL
