MODEL 1
REMARK VINA RESULT:     -11.5      0.000      0.000
REMARK SMILES CC(C)c1ccc(NC(=O)C[C@H]2SC[C@@H](C(=O)OCCOC(=O)c3ccc(-c4c5nc(c(-c6c(F)cc(S(=O)(=O)[O-])cc6F)c6ccc([nH]6)c(-c6c(F)cc(S(=O)(=O)[O-])cc6F)c6nc(c(-c7c(F)cc(S(=O)(=O)[O-])cc7F)c7ccc4[nH]7)C=C6)C=C5)cc3)NC2=O)cc1
REMARK SMILES IDX 19 1 18 2 16 3 17 4 15 5 12 6 13 7 91 8 14 9 90 10 92 11
REMARK SMILES IDX 11 13 9 14 8 15 10 17 7 18 4 19 5 20 94 21 6 22 93 23 2 24
REMARK SMILES IDX 1 25 3 26 20 27 21 28 22 29 23 30 24 31 25 32 89 33 26 34
REMARK SMILES IDX 88 35 27 36 28 37 29 38 82 39 30 40 87 41 81 42 83 43 31 44
REMARK SMILES IDX 86 45 80 46 79 47 32 49 66 50 45 51 65 52 46 53 49 54 64 55
REMARK SMILES IDX 84 56 47 57 48 58 63 60 85 61 50 62 33 63 34 64 43 65 35 66
REMARK SMILES IDX 36 67 42 68 44 69 37 70 38 71 39 72 40 73 41 74 67 75 68 76
REMARK SMILES IDX 77 77 69 78 70 79 76 80 78 81 71 82 72 83 73 84 74 85 75 86
REMARK SMILES IDX 51 87 52 88 61 89 53 90 54 91 60 92 62 93 55 94 56 95 57 96
REMARK SMILES IDX 58 97 59 98
REMARK H PARENT 90 12 8 16 83 48 49 59
REMARK Flexibility Score: inf
ROOT
ATOM      1  C   UNL A   1      33.552  30.273  27.345  1.00  0.00     0.274 C 
ENDROOT
BRANCH   1   2
ATOM      2  O   UNL A   1      33.588  28.839  27.198  1.00  0.00    -0.461 OA
BRANCH   2   3
ATOM      3  C   UNL A   1      32.393  28.273  26.873  1.00  0.00     0.329 C 
ATOM      4  O   UNL A   1      31.587  27.852  27.684  1.00  0.00    -0.250 OA
BRANCH   3   5
ATOM      5  C   UNL A   1      32.252  28.096  25.360  1.00  0.00     0.202 C 
ATOM      6  C   UNL A   1      31.957  25.085  25.351  1.00  0.00     0.145 C 
ATOM      7  S   UNL A   1      30.452  25.948  24.715  1.00  0.00    -0.145 SA
ATOM      8  C   UNL A   1      33.269  25.832  25.130  1.00  0.00     0.234 C 
ATOM      9  C   UNL A   1      30.849  27.716  24.929  1.00  0.00     0.107 C 
ATOM     10  N   UNL A   1      33.289  27.178  24.936  1.00  0.00    -0.341 N 
ATOM     11  O   UNL A   1      34.362  25.267  25.080  1.00  0.00    -0.274 OA
ATOM     12  H   UNL A   1      34.068  27.558  24.469  1.00  0.00     0.164 HD
BRANCH   6  13
ATOM     13  C   UNL A   1      31.687  24.472  26.727  1.00  0.00     0.124 C 
BRANCH  13  14
ATOM     14  C   UNL A   1      30.906  23.172  26.851  1.00  0.00     0.226 C 
ATOM     15  N   UNL A   1      31.331  21.989  26.322  1.00  0.00    -0.326 N 
ATOM     16  H   UNL A   1      30.667  21.263  26.296  1.00  0.00     0.169 HD
ATOM     17  O   UNL A   1      29.809  23.169  27.425  1.00  0.00    -0.275 OA
BRANCH  15  18
ATOM     18  C   UNL A   1      32.593  21.683  25.814  1.00  0.00     0.041 A 
ATOM     19  C   UNL A   1      35.264  21.893  25.007  1.00  0.00    -0.045 A 
ATOM     20  C   UNL A   1      34.232  21.784  24.059  1.00  0.00     0.006 A 
ATOM     21  C   UNL A   1      34.937  21.646  26.348  1.00  0.00     0.006 A 
ATOM     22  C   UNL A   1      32.896  21.694  24.459  1.00  0.00     0.026 A 
ATOM     23  C   UNL A   1      33.608  21.512  26.748  1.00  0.00     0.026 A 
BRANCH  19  24
ATOM     24  C   UNL A   1      36.668  22.309  24.579  1.00  0.00     0.013 C 
ATOM     25  C   UNL A   1      36.674  22.896  23.155  1.00  0.00     0.012 C 
ATOM     26  C   UNL A   1      37.324  23.355  25.498  1.00  0.00     0.012 C 
ENDBRANCH  19  24
ENDBRANCH  15  18
ENDBRANCH  13  14
ENDBRANCH   6  13
ENDBRANCH   3   5
ENDBRANCH   2   3
ENDBRANCH   1   2
BRANCH   1  27
ATOM     27  C   UNL A   1      34.847  30.862  27.915  1.00  0.00     0.275 C 
BRANCH  27  28
ATOM     28  O   UNL A   1      35.707  29.859  28.490  1.00  0.00    -0.458 OA
BRANCH  28  29
ATOM     29  C   UNL A   1      36.408  30.259  29.576  1.00  0.00     0.338 C 
ATOM     30  O   UNL A   1      35.929  30.698  30.616  1.00  0.00    -0.246 OA
BRANCH  29  31
ATOM     31  C   UNL A   1      37.843  29.918  29.442  1.00  0.00     0.060 A 
ATOM     32  C   UNL A   1      38.303  29.692  28.143  1.00  0.00     0.016 A 
ATOM     33  C   UNL A   1      38.736  29.829  30.514  1.00  0.00     0.016 A 
ATOM     34  C   UNL A   1      39.652  29.461  27.894  1.00  0.00     0.010 A 
ATOM     35  C   UNL A   1      40.091  29.537  30.270  1.00  0.00     0.010 A 
ATOM     36  C   UNL A   1      40.559  29.373  28.955  1.00  0.00    -0.014 A 
BRANCH  36  37
ATOM     37  C   UNL A   1      41.969  29.049  28.629  1.00  0.00     0.031 A 
ATOM     38  C   UNL A   1      42.321  27.653  28.197  1.00  0.00     0.074 A 
ATOM     39  C   UNL A   1      42.896  30.023  28.552  1.00  0.00     0.049 A 
ATOM     40  N   UNL A   1      43.475  27.170  27.819  1.00  0.00    -0.248 NA
ATOM     41  C   UNL A   1      41.217  26.680  28.158  1.00  0.00     0.031 C 
ATOM     42  C   UNL A   1      42.651  31.439  28.808  1.00  0.00     0.029 A 
ATOM     43  N   UNL A   1      44.223  29.973  28.194  1.00  0.00    -0.354 N 
ATOM     44  C   UNL A   1      43.239  25.842  27.491  1.00  0.00     0.074 A 
ATOM     45  C   UNL A   1      41.827  25.599  27.697  1.00  0.00     0.031 C 
ATOM     46  C   UNL A   1      43.781  32.130  28.571  1.00  0.00     0.029 A 
ATOM     47  C   UNL A   1      44.847  31.199  28.205  1.00  0.00     0.049 A 
ATOM     48  H   UNL A   1      44.683  29.136  27.954  1.00  0.00     0.167 HD
ATOM     49  C   UNL A   1      44.121  24.900  27.084  1.00  0.00     0.037 A 
ATOM     50  C   UNL A   1      46.136  31.526  27.975  1.00  0.00     0.037 A 
ATOM     51  C   UNL A   1      45.536  25.122  26.946  1.00  0.00     0.049 A 
ATOM     52  C   UNL A   1      47.127  30.433  27.653  1.00  0.00     0.074 A 
ATOM     53  C   UNL A   1      46.531  24.198  26.676  1.00  0.00     0.029 A 
ATOM     54  N   UNL A   1      46.159  26.353  27.079  1.00  0.00    -0.354 N 
ATOM     55  N   UNL A   1      46.911  29.155  27.448  1.00  0.00    -0.248 NA
ATOM     56  C   UNL A   1      48.543  30.821  27.564  1.00  0.00     0.031 C 
ATOM     57  C   UNL A   1      47.760  24.865  26.687  1.00  0.00     0.029 A 
ATOM     58  C   UNL A   1      47.526  26.212  26.910  1.00  0.00     0.049 A 
ATOM     59  H   UNL A   1      45.697  27.203  27.265  1.00  0.00     0.167 HD
ATOM     60  C   UNL A   1      48.160  28.591  27.204  1.00  0.00     0.074 A 
ATOM     61  C   UNL A   1      49.125  29.669  27.260  1.00  0.00     0.031 C 
ATOM     62  C   UNL A   1      48.479  27.293  26.968  1.00  0.00     0.037 A 
BRANCH  49  63
ATOM     63  C   UNL A   1      43.582  23.519  26.859  1.00  0.00     0.058 A 
ATOM     64  C   UNL A   1      43.332  22.640  27.924  1.00  0.00     0.135 A 
ATOM     65  C   UNL A   1      43.337  23.063  25.555  1.00  0.00     0.135 A 
ATOM     66  F   UNL A   1      43.579  23.019  29.187  1.00  0.00    -0.206 F 
ATOM     67  C   UNL A   1      42.880  21.343  27.699  1.00  0.00     0.059 A 
ATOM     68  C   UNL A   1      42.866  21.779  25.308  1.00  0.00     0.059 A 
ATOM     69  F   UNL A   1      43.574  23.865  24.504  1.00  0.00    -0.206 F 
ATOM     70  C   UNL A   1      42.657  20.921  26.386  1.00  0.00     0.060 A 
BRANCH  70  71
ATOM     71  S   UNL A   1      42.099  19.227  26.104  1.00  0.00     0.124 S 
ATOM     72  O   UNL A   1      40.669  19.425  25.888  1.00  0.00    -0.237 OA
ATOM     73  O   UNL A   1      42.869  18.836  24.926  1.00  0.00    -0.237 OA
ATOM     74  O   UNL A   1      42.459  18.540  27.340  1.00  0.00    -0.744 OA
ENDBRANCH  70  71
ENDBRANCH  49  63
BRANCH  50  75
ATOM     75  C   UNL A   1      46.591  32.939  28.100  1.00  0.00     0.058 A 
ATOM     76  C   UNL A   1      47.148  33.426  29.292  1.00  0.00     0.135 A 
ATOM     77  C   UNL A   1      46.440  33.845  27.036  1.00  0.00     0.135 A 
ATOM     78  F   UNL A   1      47.291  32.610  30.347  1.00  0.00    -0.206 F 
ATOM     79  C   UNL A   1      47.527  34.759  29.431  1.00  0.00     0.059 A 
ATOM     80  C   UNL A   1      46.839  35.173  27.140  1.00  0.00     0.059 A 
ATOM     81  F   UNL A   1      45.906  33.436  25.875  1.00  0.00    -0.206 F 
ATOM     82  C   UNL A   1      47.370  35.625  28.347  1.00  0.00     0.060 A 
BRANCH  82  83
ATOM     83  S   UNL A   1      47.894  37.346  28.518  1.00  0.00     0.124 S 
ATOM     84  O   UNL A   1      48.376  37.371  29.894  1.00  0.00    -0.237 OA
ATOM     85  O   UNL A   1      48.915  37.465  27.482  1.00  0.00    -0.237 OA
ATOM     86  O   UNL A   1      46.667  38.096  28.266  1.00  0.00    -0.744 OA
ENDBRANCH  82  83
ENDBRANCH  50  75
BRANCH  62  87
ATOM     87  C   UNL A   1      49.928  26.955  26.739  1.00  0.00     0.058 A 
ATOM     88  C   UNL A   1      50.786  26.639  27.805  1.00  0.00     0.135 A 
ATOM     89  C   UNL A   1      50.442  26.865  25.435  1.00  0.00     0.135 A 
ATOM     90  F   UNL A   1      50.346  26.711  29.070  1.00  0.00    -0.206 F 
ATOM     91  C   UNL A   1      52.107  26.258  27.585  1.00  0.00     0.059 A 
ATOM     92  C   UNL A   1      51.752  26.463  25.193  1.00  0.00     0.059 A 
ATOM     93  F   UNL A   1      49.660  27.146  24.381  1.00  0.00    -0.206 F 
ATOM     94  C   UNL A   1      52.580  26.168  26.275  1.00  0.00     0.060 A 
BRANCH  94  95
ATOM     95  S   UNL A   1      54.279  25.621  26.001  1.00  0.00     0.124 S 
ATOM     96  O   UNL A   1      54.926  26.861  25.585  1.00  0.00    -0.237 OA
ATOM     97  O   UNL A   1      54.662  25.117  27.317  1.00  0.00    -0.237 OA
ATOM     98  O   UNL A   1      54.146  24.603  24.963  1.00  0.00    -0.744 OA
ENDBRANCH  94  95
ENDBRANCH  62  87
ENDBRANCH  36  37
ENDBRANCH  29  31
ENDBRANCH  28  29
ENDBRANCH  27  28
ENDBRANCH   1  27
TORSDOF 18
ENDMDL
MODEL 2
REMARK VINA RESULT:     -11.3      2.597      8.585
REMARK SMILES CC(C)c1ccc(NC(=O)C[C@H]2SC[C@@H](C(=O)OCCOC(=O)c3ccc(-c4c5nc(c(-c6c(F)cc(S(=O)(=O)[O-])cc6F)c6ccc([nH]6)c(-c6c(F)cc(S(=O)(=O)[O-])cc6F)c6nc(c(-c7c(F)cc(S(=O)(=O)[O-])cc7F)c7ccc4[nH]7)C=C6)C=C5)cc3)NC2=O)cc1
REMARK SMILES IDX 19 1 18 2 16 3 17 4 15 5 12 6 13 7 91 8 14 9 90 10 92 11
REMARK SMILES IDX 11 13 9 14 8 15 10 17 7 18 4 19 5 20 94 21 6 22 93 23 2 24
REMARK SMILES IDX 1 25 3 26 20 27 21 28 22 29 23 30 24 31 25 32 89 33 26 34
REMARK SMILES IDX 88 35 27 36 28 37 29 38 82 39 30 40 87 41 81 42 83 43 31 44
REMARK SMILES IDX 86 45 80 46 79 47 32 49 66 50 45 51 65 52 46 53 49 54 64 55
REMARK SMILES IDX 84 56 47 57 48 58 63 60 85 61 50 62 33 63 34 64 43 65 35 66
REMARK SMILES IDX 36 67 42 68 44 69 37 70 38 71 39 72 40 73 41 74 67 75 68 76
REMARK SMILES IDX 77 77 69 78 70 79 76 80 78 81 71 82 72 83 73 84 74 85 75 86
REMARK SMILES IDX 51 87 52 88 61 89 53 90 54 91 60 92 62 93 55 94 56 95 57 96
REMARK SMILES IDX 58 97 59 98
REMARK H PARENT 90 12 8 16 83 48 49 59
REMARK Flexibility Score: inf
ROOT
ATOM      1  C   UNL A   1      31.871  28.748  25.964  1.00  0.00     0.274 C 
ENDROOT
BRANCH   1   2
ATOM      2  O   UNL A   1      31.298  29.210  24.725  1.00  0.00    -0.461 OA
BRANCH   2   3
ATOM      3  C   UNL A   1      31.925  28.752  23.606  1.00  0.00     0.329 C 
ATOM      4  O   UNL A   1      33.118  28.870  23.387  1.00  0.00    -0.250 OA
BRANCH   3   5
ATOM      5  C   UNL A   1      30.921  28.203  22.590  1.00  0.00     0.202 C 
ATOM      6  C   UNL A   1      30.655  25.431  23.773  1.00  0.00     0.145 C 
ATOM      7  S   UNL A   1      29.070  26.380  23.822  1.00  0.00    -0.145 SA
ATOM      8  C   UNL A   1      31.592  25.803  22.628  1.00  0.00     0.234 C 
ATOM      9  C   UNL A   1      29.530  28.018  23.163  1.00  0.00     0.107 C 
ATOM     10  N   UNL A   1      31.504  27.012  22.010  1.00  0.00    -0.341 N 
ATOM     11  O   UNL A   1      32.443  25.033  22.181  1.00  0.00    -0.274 OA
ATOM     12  H   UNL A   1      31.863  27.081  21.095  1.00  0.00     0.164 HD
BRANCH   6  13
ATOM     13  C   UNL A   1      31.240  25.285  25.180  1.00  0.00     0.124 C 
BRANCH  13  14
ATOM     14  C   UNL A   1      30.549  24.410  26.214  1.00  0.00     0.226 C 
ATOM     15  N   UNL A   1      30.916  23.121  26.471  1.00  0.00    -0.326 N 
ATOM     16  H   UNL A   1      30.289  22.593  27.015  1.00  0.00     0.169 HD
ATOM     17  O   UNL A   1      29.579  24.853  26.842  1.00  0.00    -0.275 OA
BRANCH  15  18
ATOM     18  C   UNL A   1      32.074  22.462  26.057  1.00  0.00     0.041 A 
ATOM     19  C   UNL A   1      34.622  21.947  25.025  1.00  0.00    -0.045 A 
ATOM     20  C   UNL A   1      33.469  21.557  24.322  1.00  0.00     0.006 A 
ATOM     21  C   UNL A   1      34.458  22.371  26.351  1.00  0.00     0.006 A 
ATOM     22  C   UNL A   1      32.194  21.827  24.829  1.00  0.00     0.026 A 
ATOM     23  C   UNL A   1      33.188  22.601  26.877  1.00  0.00     0.026 A 
BRANCH  19  24
ATOM     24  C   UNL A   1      35.984  21.945  24.337  1.00  0.00     0.013 C 
ATOM     25  C   UNL A   1      36.604  23.354  24.304  1.00  0.00     0.012 C 
ATOM     26  C   UNL A   1      37.021  21.015  24.994  1.00  0.00     0.012 C 
ENDBRANCH  19  24
ENDBRANCH  15  18
ENDBRANCH  13  14
ENDBRANCH   6  13
ENDBRANCH   3   5
ENDBRANCH   2   3
ENDBRANCH   1   2
BRANCH   1  27
ATOM     27  C   UNL A   1      32.511  29.865  26.796  1.00  0.00     0.275 C 
BRANCH  27  28
ATOM     28  O   UNL A   1      33.763  29.469  27.388  1.00  0.00    -0.458 OA
BRANCH  28  29
ATOM     29  C   UNL A   1      34.433  30.456  28.028  1.00  0.00     0.338 C 
ATOM     30  O   UNL A   1      33.942  31.496  28.452  1.00  0.00    -0.246 OA
BRANCH  29  31
ATOM     31  C   UNL A   1      35.822  30.046  28.339  1.00  0.00     0.060 A 
ATOM     32  C   UNL A   1      36.742  30.146  27.293  1.00  0.00     0.016 A 
ATOM     33  C   UNL A   1      36.247  29.591  29.591  1.00  0.00     0.016 A 
ATOM     34  C   UNL A   1      38.091  29.879  27.504  1.00  0.00     0.010 A 
ATOM     35  C   UNL A   1      37.602  29.264  29.789  1.00  0.00     0.010 A 
ATOM     36  C   UNL A   1      38.534  29.427  28.751  1.00  0.00    -0.014 A 
BRANCH  36  37
ATOM     37  C   UNL A   1      39.972  29.088  28.888  1.00  0.00     0.031 A 
ATOM     38  C   UNL A   1      40.896  30.067  29.556  1.00  0.00     0.074 A 
ATOM     39  C   UNL A   1      40.419  27.857  28.577  1.00  0.00     0.049 A 
ATOM     40  N   UNL A   1      42.170  29.951  29.824  1.00  0.00    -0.248 NA
ATOM     41  C   UNL A   1      40.296  31.333  30.010  1.00  0.00     0.031 C 
ATOM     42  C   UNL A   1      39.596  26.771  28.053  1.00  0.00     0.029 A 
ATOM     43  N   UNL A   1      41.671  27.300  28.696  1.00  0.00    -0.354 N 
ATOM     44  C   UNL A   1      42.525  31.122  30.481  1.00  0.00     0.074 A 
ATOM     45  C   UNL A   1      41.327  31.928  30.589  1.00  0.00     0.031 C 
ATOM     46  C   UNL A   1      40.354  25.668  27.923  1.00  0.00     0.029 A 
ATOM     47  C   UNL A   1      41.732  25.984  28.297  1.00  0.00     0.049 A 
ATOM     48  H   UNL A   1      42.450  27.797  29.035  1.00  0.00     0.167 HD
ATOM     49  C   UNL A   1      43.743  31.506  30.929  1.00  0.00     0.037 A 
ATOM     50  C   UNL A   1      42.785  25.144  28.215  1.00  0.00     0.037 A 
ATOM     51  C   UNL A   1      44.946  30.737  30.761  1.00  0.00     0.049 A 
ATOM     52  C   UNL A   1      44.158  25.645  28.596  1.00  0.00     0.074 A 
ATOM     53  C   UNL A   1      46.250  31.101  31.053  1.00  0.00     0.029 A 
ATOM     54  N   UNL A   1      44.997  29.452  30.244  1.00  0.00    -0.354 N 
ATOM     55  N   UNL A   1      44.502  26.797  29.121  1.00  0.00    -0.248 NA
ATOM     56  C   UNL A   1      45.291  24.741  28.343  1.00  0.00     0.031 C 
ATOM     57  C   UNL A   1      47.091  30.051  30.674  1.00  0.00     0.029 A 
ATOM     58  C   UNL A   1      46.309  29.012  30.195  1.00  0.00     0.049 A 
ATOM     59  H   UNL A   1      44.215  28.928  29.954  1.00  0.00     0.167 HD
ATOM     60  C   UNL A   1      45.887  26.755  29.262  1.00  0.00     0.074 A 
ATOM     61  C   UNL A   1      46.316  25.454  28.793  1.00  0.00     0.031 C 
ATOM     62  C   UNL A   1      46.727  27.714  29.726  1.00  0.00     0.037 A 
BRANCH  49  63
ATOM     63  C   UNL A   1      43.836  32.867  31.553  1.00  0.00     0.058 A 
ATOM     64  C   UNL A   1      44.035  34.022  30.783  1.00  0.00     0.135 A 
ATOM     65  C   UNL A   1      43.752  33.008  32.947  1.00  0.00     0.135 A 
ATOM     66  F   UNL A   1      44.153  33.935  29.449  1.00  0.00    -0.206 F 
ATOM     67  C   UNL A   1      44.172  35.272  31.378  1.00  0.00     0.059 A 
ATOM     68  C   UNL A   1      43.865  34.250  33.561  1.00  0.00     0.059 A 
ATOM     69  F   UNL A   1      43.574  31.929  33.726  1.00  0.00    -0.206 F 
ATOM     70  C   UNL A   1      44.091  35.374  32.769  1.00  0.00     0.060 A 
BRANCH  70  71
ATOM     71  S   UNL A   1      44.300  36.996  33.533  1.00  0.00     0.124 S 
ATOM     72  O   UNL A   1      44.599  37.828  32.372  1.00  0.00    -0.237 OA
ATOM     73  O   UNL A   1      42.996  37.220  34.153  1.00  0.00    -0.237 OA
ATOM     74  O   UNL A   1      45.407  36.794  34.463  1.00  0.00    -0.744 OA
ENDBRANCH  70  71
ENDBRANCH  49  63
BRANCH  50  75
ATOM     75  C   UNL A   1      42.608  23.760  27.694  1.00  0.00     0.058 A 
ATOM     76  C   UNL A   1      42.548  23.498  26.317  1.00  0.00     0.135 A 
ATOM     77  C   UNL A   1      42.457  22.671  28.569  1.00  0.00     0.135 A 
ATOM     78  F   UNL A   1      42.662  24.505  25.438  1.00  0.00    -0.206 F 
ATOM     79  C   UNL A   1      42.332  22.213  25.826  1.00  0.00     0.059 A 
ATOM     80  C   UNL A   1      42.269  21.374  28.102  1.00  0.00     0.059 A 
ATOM     81  F   UNL A   1      42.498  22.863  29.896  1.00  0.00    -0.206 F 
ATOM     82  C   UNL A   1      42.195  21.156  26.728  1.00  0.00     0.060 A 
BRANCH  82  83
ATOM     83  S   UNL A   1      41.948  19.484  26.087  1.00  0.00     0.124 S 
ATOM     84  O   UNL A   1      42.854  19.470  24.946  1.00  0.00    -0.237 OA
ATOM     85  O   UNL A   1      42.338  18.656  27.224  1.00  0.00    -0.237 OA
ATOM     86  O   UNL A   1      40.524  19.458  25.764  1.00  0.00    -0.744 OA
ENDBRANCH  82  83
ENDBRANCH  50  75
BRANCH  62  87
ATOM     87  C   UNL A   1      48.198  27.401  29.766  1.00  0.00     0.058 A 
ATOM     88  C   UNL A   1      49.051  27.743  28.705  1.00  0.00     0.135 A 
ATOM     89  C   UNL A   1      48.775  26.829  30.912  1.00  0.00     0.135 A 
ATOM     90  F   UNL A   1      48.552  28.290  27.586  1.00  0.00    -0.206 F 
ATOM     91  C   UNL A   1      50.423  27.516  28.773  1.00  0.00     0.059 A 
ATOM     92  C   UNL A   1      50.147  26.616  31.010  1.00  0.00     0.059 A 
ATOM     93  F   UNL A   1      48.006  26.494  31.959  1.00  0.00    -0.206 F 
ATOM     94  C   UNL A   1      50.962  26.956  29.933  1.00  0.00     0.060 A 
BRANCH  94  95
ATOM     95  S   UNL A   1      52.750  26.717  30.030  1.00  0.00     0.124 S 
ATOM     96  O   UNL A   1      53.208  28.053  30.397  1.00  0.00    -0.237 OA
ATOM     97  O   UNL A   1      52.874  25.697  31.068  1.00  0.00    -0.237 OA
ATOM     98  O   UNL A   1      53.109  26.278  28.685  1.00  0.00    -0.744 OA
ENDBRANCH  94  95
ENDBRANCH  62  87
ENDBRANCH  36  37
ENDBRANCH  29  31
ENDBRANCH  28  29
ENDBRANCH  27  28
ENDBRANCH   1  27
TORSDOF 18
ENDMDL
MODEL 3
REMARK VINA RESULT:     -11.2      6.629     11.615
REMARK SMILES CC(C)c1ccc(NC(=O)C[C@H]2SC[C@@H](C(=O)OCCOC(=O)c3ccc(-c4c5nc(c(-c6c(F)cc(S(=O)(=O)[O-])cc6F)c6ccc([nH]6)c(-c6c(F)cc(S(=O)(=O)[O-])cc6F)c6nc(c(-c7c(F)cc(S(=O)(=O)[O-])cc7F)c7ccc4[nH]7)C=C6)C=C5)cc3)NC2=O)cc1
REMARK SMILES IDX 19 1 18 2 16 3 17 4 15 5 12 6 13 7 91 8 14 9 90 10 92 11
REMARK SMILES IDX 11 13 9 14 8 15 10 17 7 18 4 19 5 20 94 21 6 22 93 23 2 24
REMARK SMILES IDX 1 25 3 26 20 27 21 28 22 29 23 30 24 31 25 32 89 33 26 34
REMARK SMILES IDX 88 35 27 36 28 37 29 38 82 39 30 40 87 41 81 42 83 43 31 44
REMARK SMILES IDX 86 45 80 46 79 47 32 49 66 50 45 51 65 52 46 53 49 54 64 55
REMARK SMILES IDX 84 56 47 57 48 58 63 60 85 61 50 62 33 63 34 64 43 65 35 66
REMARK SMILES IDX 36 67 42 68 44 69 37 70 38 71 39 72 40 73 41 74 67 75 68 76
REMARK SMILES IDX 77 77 69 78 70 79 76 80 78 81 71 82 72 83 73 84 74 85 75 86
REMARK SMILES IDX 51 87 52 88 61 89 53 90 54 91 60 92 62 93 55 94 56 95 57 96
REMARK SMILES IDX 58 97 59 98
REMARK H PARENT 90 12 8 16 83 48 49 59
REMARK Flexibility Score: inf
ROOT
ATOM      1  C   UNL A   1      38.216  22.194  25.674  1.00  0.00     0.274 C 
ENDROOT
BRANCH   1   2
ATOM      2  O   UNL A   1      37.264  23.222  25.335  1.00  0.00    -0.461 OA
BRANCH   2   3
ATOM      3  C   UNL A   1      36.341  22.854  24.403  1.00  0.00     0.329 C 
ATOM      4  O   UNL A   1      36.486  22.984  23.200  1.00  0.00    -0.250 OA
BRANCH   3   5
ATOM      5  C   UNL A   1      35.038  22.395  25.060  1.00  0.00     0.202 C 
ATOM      6  C   UNL A   1      33.213  24.425  23.756  1.00  0.00     0.145 C 
ATOM      7  S   UNL A   1      32.801  22.688  23.277  1.00  0.00    -0.145 SA
ATOM      8  C   UNL A   1      33.841  24.579  25.137  1.00  0.00     0.234 C 
ATOM      9  C   UNL A   1      34.096  21.699  24.098  1.00  0.00     0.107 C 
ATOM     10  N   UNL A   1      34.474  23.539  25.744  1.00  0.00    -0.341 N 
ATOM     11  O   UNL A   1      33.783  25.624  25.787  1.00  0.00    -0.274 OA
ATOM     12  H   UNL A   1      34.552  23.566  26.726  1.00  0.00     0.164 HD
BRANCH   6  13
ATOM     13  C   UNL A   1      33.840  25.175  22.578  1.00  0.00     0.124 C 
BRANCH  13  14
ATOM     14  C   UNL A   1      32.965  25.733  21.467  1.00  0.00     0.226 C 
ATOM     15  N   UNL A   1      32.013  26.689  21.670  1.00  0.00    -0.326 N 
ATOM     16  H   UNL A   1      31.384  26.838  20.929  1.00  0.00     0.169 HD
ATOM     17  O   UNL A   1      33.077  25.289  20.317  1.00  0.00    -0.275 OA
BRANCH  15  18
ATOM     18  C   UNL A   1      31.825  27.481  22.803  1.00  0.00     0.041 A 
ATOM     19  C   UNL A   1      32.146  28.636  25.330  1.00  0.00    -0.045 A 
ATOM     20  C   UNL A   1      31.076  27.763  25.069  1.00  0.00     0.006 A 
ATOM     21  C   UNL A   1      32.889  29.095  24.233  1.00  0.00     0.006 A 
ATOM     22  C   UNL A   1      30.922  27.174  23.811  1.00  0.00     0.026 A 
ATOM     23  C   UNL A   1      32.710  28.541  22.966  1.00  0.00     0.026 A 
BRANCH  19  24
ATOM     24  C   UNL A   1      32.497  29.021  26.764  1.00  0.00     0.013 C 
ATOM     25  C   UNL A   1      31.637  28.251  27.783  1.00  0.00     0.012 C 
ATOM     26  C   UNL A   1      33.969  28.775  27.142  1.00  0.00     0.012 C 
ENDBRANCH  19  24
ENDBRANCH  15  18
ENDBRANCH  13  14
ENDBRANCH   6  13
ENDBRANCH   3   5
ENDBRANCH   2   3
ENDBRANCH   1   2
BRANCH   1  27
ATOM     27  C   UNL A   1      39.418  22.713  26.471  1.00  0.00     0.275 C 
BRANCH  27  28
ATOM     28  O   UNL A   1      39.563  24.144  26.389  1.00  0.00    -0.458 OA
BRANCH  28  29
ATOM     29  C   UNL A   1      40.725  24.633  26.881  1.00  0.00     0.338 C 
ATOM     30  O   UNL A   1      41.836  24.463  26.394  1.00  0.00    -0.246 OA
BRANCH  29  31
ATOM     31  C   UNL A   1      40.478  25.579  27.993  1.00  0.00     0.060 A 
ATOM     32  C   UNL A   1      41.503  26.488  28.267  1.00  0.00     0.016 A 
ATOM     33  C   UNL A   1      39.302  25.618  28.749  1.00  0.00     0.016 A 
ATOM     34  C   UNL A   1      41.336  27.482  29.225  1.00  0.00     0.010 A 
ATOM     35  C   UNL A   1      39.156  26.587  29.759  1.00  0.00     0.010 A 
ATOM     36  C   UNL A   1      40.165  27.538  29.987  1.00  0.00    -0.014 A 
BRANCH  36  37
ATOM     37  C   UNL A   1      40.081  28.576  31.044  1.00  0.00     0.031 A 
ATOM     38  C   UNL A   1      41.099  28.582  32.149  1.00  0.00     0.074 A 
ATOM     39  C   UNL A   1      39.215  29.601  30.931  1.00  0.00     0.049 A 
ATOM     40  N   UNL A   1      41.241  29.423  33.139  1.00  0.00    -0.248 NA
ATOM     41  C   UNL A   1      42.111  27.513  32.115  1.00  0.00     0.031 C 
ATOM     42  C   UNL A   1      38.270  29.787  29.834  1.00  0.00     0.029 A 
ATOM     43  N   UNL A   1      39.020  30.702  31.731  1.00  0.00    -0.354 N 
ATOM     44  C   UNL A   1      42.358  28.993  33.843  1.00  0.00     0.074 A 
ATOM     45  C   UNL A   1      42.869  27.826  33.156  1.00  0.00     0.031 C 
ATOM     46  C   UNL A   1      37.615  30.948  30.010  1.00  0.00     0.029 A 
ATOM     47  C   UNL A   1      38.049  31.560  31.266  1.00  0.00     0.049 A 
ATOM     48  H   UNL A   1      39.526  30.861  32.560  1.00  0.00     0.167 HD
ATOM     49  C   UNL A   1      42.894  29.504  34.975  1.00  0.00     0.037 A 
ATOM     50  C   UNL A   1      37.550  32.691  31.807  1.00  0.00     0.037 A 
ATOM     51  C   UNL A   1      42.347  30.620  35.698  1.00  0.00     0.049 A 
ATOM     52  C   UNL A   1      38.076  33.164  33.141  1.00  0.00     0.074 A 
ATOM     53  C   UNL A   1      42.733  31.124  36.928  1.00  0.00     0.029 A 
ATOM     54  N   UNL A   1      41.287  31.400  35.262  1.00  0.00    -0.354 N 
ATOM     55  N   UNL A   1      39.069  32.687  33.855  1.00  0.00    -0.248 NA
ATOM     56  C   UNL A   1      37.394  34.312  33.759  1.00  0.00     0.031 C 
ATOM     57  C   UNL A   1      41.880  32.184  37.253  1.00  0.00     0.029 A 
ATOM     58  C   UNL A   1      40.996  32.373  36.203  1.00  0.00     0.049 A 
ATOM     59  H   UNL A   1      40.811  31.281  34.407  1.00  0.00     0.167 HD
ATOM     60  C   UNL A   1      39.129  33.475  35.001  1.00  0.00     0.074 A 
ATOM     61  C   UNL A   1      38.092  34.478  34.874  1.00  0.00     0.031 C 
ATOM     62  C   UNL A   1      39.961  33.368  36.068  1.00  0.00     0.037 A 
BRANCH  49  63
ATOM     63  C   UNL A   1      44.079  28.784  35.548  1.00  0.00     0.058 A 
ATOM     64  C   UNL A   1      43.934  27.734  36.466  1.00  0.00     0.135 A 
ATOM     65  C   UNL A   1      45.379  29.174  35.189  1.00  0.00     0.135 A 
ATOM     66  F   UNL A   1      42.713  27.345  36.864  1.00  0.00    -0.206 F 
ATOM     67  C   UNL A   1      45.043  27.109  37.029  1.00  0.00     0.059 A 
ATOM     68  C   UNL A   1      46.499  28.549  35.723  1.00  0.00     0.059 A 
ATOM     69  F   UNL A   1      45.566  30.182  34.323  1.00  0.00    -0.206 F 
ATOM     70  C   UNL A   1      46.322  27.529  36.655  1.00  0.00     0.060 A 
BRANCH  70  71
ATOM     71  S   UNL A   1      47.752  26.732  37.414  1.00  0.00     0.124 S 
ATOM     72  O   UNL A   1      48.849  27.528  36.872  1.00  0.00    -0.237 OA
ATOM     73  O   UNL A   1      47.488  26.904  38.839  1.00  0.00    -0.237 OA
ATOM     74  O   UNL A   1      47.674  25.358  36.926  1.00  0.00    -0.744 OA
ENDBRANCH  70  71
ENDBRANCH  49  63
BRANCH  50  75
ATOM     75  C   UNL A   1      36.448  33.430  31.130  1.00  0.00     0.058 A 
ATOM     76  C   UNL A   1      35.125  33.356  31.593  1.00  0.00     0.135 A 
ATOM     77  C   UNL A   1      36.691  34.196  29.978  1.00  0.00     0.135 A 
ATOM     78  F   UNL A   1      34.834  32.618  32.674  1.00  0.00    -0.206 F 
ATOM     79  C   UNL A   1      34.083  34.004  30.933  1.00  0.00     0.059 A 
ATOM     80  C   UNL A   1      35.671  34.876  29.319  1.00  0.00     0.059 A 
ATOM     81  F   UNL A   1      37.935  34.296  29.485  1.00  0.00    -0.206 F 
ATOM     82  C   UNL A   1      34.367  34.763  29.797  1.00  0.00     0.060 A 
BRANCH  82  83
ATOM     83  S   UNL A   1      33.018  35.629  28.963  1.00  0.00     0.124 S 
ATOM     84  O   UNL A   1      32.412  34.553  28.189  1.00  0.00    -0.237 OA
ATOM     85  O   UNL A   1      32.230  36.131  30.084  1.00  0.00    -0.237 OA
ATOM     86  O   UNL A   1      33.709  36.654  28.186  1.00  0.00    -0.744 OA
ENDBRANCH  82  83
ENDBRANCH  50  75
BRANCH  62  87
ATOM     87  C   UNL A   1      39.802  34.363  37.186  1.00  0.00     0.058 A 
ATOM     88  C   UNL A   1      39.055  34.062  38.336  1.00  0.00     0.135 A 
ATOM     89  C   UNL A   1      40.473  35.596  37.144  1.00  0.00     0.135 A 
ATOM     90  F   UNL A   1      38.393  32.899  38.427  1.00  0.00    -0.206 F 
ATOM     91  C   UNL A   1      38.968  34.956  39.400  1.00  0.00     0.059 A 
ATOM     92  C   UNL A   1      40.418  36.494  38.206  1.00  0.00     0.059 A 
ATOM     93  F   UNL A   1      41.209  35.928  36.072  1.00  0.00    -0.206 F 
ATOM     94  C   UNL A   1      39.657  36.168  39.327  1.00  0.00     0.060 A 
BRANCH  94  95
ATOM     95  S   UNL A   1      39.579  37.296  40.736  1.00  0.00     0.124 S 
ATOM     96  O   UNL A   1      38.870  38.435  40.164  1.00  0.00    -0.237 OA
ATOM     97  O   UNL A   1      38.836  36.516  41.722  1.00  0.00    -0.237 OA
ATOM     98  O   UNL A   1      40.983  37.530  41.062  1.00  0.00    -0.744 OA
ENDBRANCH  94  95
ENDBRANCH  62  87
ENDBRANCH  36  37
ENDBRANCH  29  31
ENDBRANCH  28  29
ENDBRANCH  27  28
ENDBRANCH   1  27
TORSDOF 18
ENDMDL
