MODEL 1
REMARK VINA RESULT:     -11.2      0.000      0.000
REMARK SMILES CC(C)CSc1cc2c(cc1Cl)C=C(C(=O)OCCOC(=O)c1ccc(-c3c4nc(c(-c5c(F)cc(S(=O)(=O)[O-])cc5F)c5ccc([nH]5)c(-c5c(F)cc(S(=O)(=O)[O-])cc5F)c5nc(c(-c6c(F)cc(S(=O)(=O)[O-])cc6F)c6ccc3[nH]6)C=C5)C=C4)cc1)[C@@H](C(F)(F)F)O2
REMARK SMILES IDX 18 1 17 2 15 3 16 4 14 5 6 6 7 7 11 8 8 9 10 10 12 11 9 12
REMARK SMILES IDX 94 13 13 14 89 15 5 16 4 17 2 18 1 19 3 20 90 21 91 22 92 23
REMARK SMILES IDX 93 24 19 25 20 26 21 27 22 28 23 29 24 30 88 31 25 32 87 33
REMARK SMILES IDX 26 34 27 35 28 36 81 37 29 38 86 39 80 40 82 41 30 42 85 43
REMARK SMILES IDX 79 44 78 45 31 47 65 48 44 49 64 50 45 51 48 52 63 53 83 54
REMARK SMILES IDX 46 55 47 56 62 58 84 59 49 60 32 61 33 62 42 63 34 64 35 65
REMARK SMILES IDX 41 66 43 67 36 68 37 69 38 70 39 71 40 72 66 73 67 74 76 75
REMARK SMILES IDX 68 76 69 77 75 78 77 79 70 80 71 81 72 82 73 83 74 84 50 85
REMARK SMILES IDX 51 86 60 87 52 88 53 89 59 90 61 91 54 92 55 93 56 94 57 95
REMARK SMILES IDX 58 96
REMARK H PARENT 82 46 48 57
REMARK Flexibility Score: inf
ROOT
ATOM      1  C   UNL A   1      31.726  30.096  25.371  1.00  0.00     0.275 C 
ENDROOT
BRANCH   1   2
ATOM      2  O   UNL A   1      31.422  28.684  25.360  1.00  0.00    -0.459 OA
BRANCH   2   3
ATOM      3  C   UNL A   1      32.236  27.936  24.586  1.00  0.00     0.338 C 
ATOM      4  O   UNL A   1      32.909  28.328  23.642  1.00  0.00    -0.246 OA
BRANCH   3   5
ATOM      5  C   UNL A   1      32.319  26.552  25.068  1.00  0.00     0.087 C 
ATOM      6  C   UNL A   1      34.455  21.997  25.312  1.00  0.00     0.030 A 
ATOM      7  C   UNL A   1      33.114  22.468  25.254  1.00  0.00     0.063 A 
ATOM      8  C   UNL A   1      35.466  22.957  25.482  1.00  0.00     0.055 A 
ATOM      9  C   UNL A   1      32.798  23.829  25.312  1.00  0.00     0.129 A 
ATOM     10  C   UNL A   1      35.144  24.316  25.547  1.00  0.00     0.033 A 
ATOM     11  Cl  UNL A   1      37.157  22.662  25.599  1.00  0.00    -0.083 Cl
ATOM     12  C   UNL A   1      33.823  24.747  25.458  1.00  0.00     0.019 A 
ATOM     13  O   UNL A   1      31.484  24.194  25.192  1.00  0.00    -0.475 OA
ATOM     14  C   UNL A   1      33.551  26.160  25.398  1.00  0.00     0.027 C 
ATOM     15  C   UNL A   1      31.158  25.610  24.984  1.00  0.00     0.316 C 
BRANCH   6  16
ATOM     16  S   UNL A   1      34.577  20.226  25.001  1.00  0.00    -0.124 SA
BRANCH  16  17
ATOM     17  C   UNL A   1      32.933  19.609  24.488  1.00  0.00     0.078 C 
BRANCH  17  18
ATOM     18  C   UNL A   1      32.957  18.189  23.878  1.00  0.00    -0.007 C 
ATOM     19  C   UNL A   1      32.528  18.078  22.413  1.00  0.00     0.008 C 
ATOM     20  C   UNL A   1      34.362  17.595  24.031  1.00  0.00     0.008 C 
ENDBRANCH  17  18
ENDBRANCH  16  17
ENDBRANCH   6  16
BRANCH  15  21
ATOM     21  C   UNL A   1      30.330  25.743  23.699  1.00  0.00     0.430 C 
ATOM     22  F   UNL A   1      29.355  26.674  23.853  1.00  0.00    -0.167 F 
ATOM     23  F   UNL A   1      31.090  26.163  22.659  1.00  0.00    -0.167 F 
ATOM     24  F   UNL A   1      29.737  24.586  23.341  1.00  0.00    -0.167 F 
ENDBRANCH  15  21
ENDBRANCH   3   5
ENDBRANCH   2   3
ENDBRANCH   1   2
BRANCH   1  25
ATOM     25  C   UNL A   1      32.116  30.572  26.773  1.00  0.00     0.275 C 
BRANCH  25  26
ATOM     26  O   UNL A   1      33.500  30.290  27.060  1.00  0.00    -0.458 OA
BRANCH  26  27
ATOM     27  C   UNL A   1      34.186  31.312  27.617  1.00  0.00     0.338 C 
ATOM     28  O   UNL A   1      33.779  32.440  27.834  1.00  0.00    -0.246 OA
BRANCH  27  29
ATOM     29  C   UNL A   1      35.537  30.882  28.011  1.00  0.00     0.060 A 
ATOM     30  C   UNL A   1      36.553  31.823  28.158  1.00  0.00     0.016 A 
ATOM     31  C   UNL A   1      35.724  29.575  28.458  1.00  0.00     0.016 A 
ATOM     32  C   UNL A   1      37.762  31.436  28.746  1.00  0.00     0.010 A 
ATOM     33  C   UNL A   1      36.858  29.250  29.197  1.00  0.00     0.010 A 
ATOM     34  C   UNL A   1      37.918  30.156  29.314  1.00  0.00    -0.014 A 
BRANCH  34  35
ATOM     35  C   UNL A   1      39.190  29.751  29.989  1.00  0.00     0.031 A 
ATOM     36  C   UNL A   1      39.589  30.366  31.315  1.00  0.00     0.074 A 
ATOM     37  C   UNL A   1      40.002  28.838  29.415  1.00  0.00     0.049 A 
ATOM     38  N   UNL A   1      40.640  30.120  32.057  1.00  0.00    -0.248 NA
ATOM     39  C   UNL A   1      38.724  31.427  31.859  1.00  0.00     0.031 C 
ATOM     40  C   UNL A   1      39.797  28.230  28.097  1.00  0.00     0.029 A 
ATOM     41  N   UNL A   1      41.152  28.238  29.873  1.00  0.00    -0.354 N 
ATOM     42  C   UNL A   1      40.566  31.005  33.130  1.00  0.00     0.074 A 
ATOM     43  C   UNL A   1      39.426  31.859  32.893  1.00  0.00     0.031 C 
ATOM     44  C   UNL A   1      40.731  27.287  27.894  1.00  0.00     0.029 A 
ATOM     45  C   UNL A   1      41.630  27.250  29.043  1.00  0.00     0.049 A 
ATOM     46  H   UNL A   1      41.591  28.493  30.716  1.00  0.00     0.167 HD
ATOM     47  C   UNL A   1      41.336  31.071  34.241  1.00  0.00     0.037 A 
ATOM     48  C   UNL A   1      42.661  26.393  29.196  1.00  0.00     0.037 A 
ATOM     49  C   UNL A   1      42.431  30.181  34.510  1.00  0.00     0.049 A 
ATOM     50  C   UNL A   1      43.484  26.454  30.454  1.00  0.00     0.074 A 
ATOM     51  C   UNL A   1      43.231  30.116  35.637  1.00  0.00     0.029 A 
ATOM     52  N   UNL A   1      42.873  29.189  33.646  1.00  0.00    -0.354 N 
ATOM     53  N   UNL A   1      43.350  27.251  31.488  1.00  0.00    -0.248 NA
ATOM     54  C   UNL A   1      44.595  25.499  30.572  1.00  0.00     0.031 C 
ATOM     55  C   UNL A   1      44.180  29.108  35.440  1.00  0.00     0.029 A 
ATOM     56  C   UNL A   1      43.941  28.516  34.210  1.00  0.00     0.049 A 
ATOM     57  H   UNL A   1      42.483  28.995  32.763  1.00  0.00     0.167 HD
ATOM     58  C   UNL A   1      44.347  26.884  32.384  1.00  0.00     0.074 A 
ATOM     59  C   UNL A   1      45.065  25.781  31.779  1.00  0.00     0.031 C 
ATOM     60  C   UNL A   1      44.642  27.415  33.596  1.00  0.00     0.037 A 
BRANCH  47  61
ATOM     61  C   UNL A   1      40.987  32.114  35.273  1.00  0.00     0.058 A 
ATOM     62  C   UNL A   1      40.000  31.880  36.246  1.00  0.00     0.135 A 
ATOM     63  C   UNL A   1      41.660  33.346  35.311  1.00  0.00     0.135 A 
ATOM     64  F   UNL A   1      39.314  30.726  36.251  1.00  0.00    -0.206 F 
ATOM     65  C   UNL A   1      39.666  32.843  37.193  1.00  0.00     0.059 A 
ATOM     66  C   UNL A   1      41.365  34.311  36.270  1.00  0.00     0.059 A 
ATOM     67  F   UNL A   1      42.614  33.622  34.409  1.00  0.00    -0.206 F 
ATOM     68  C   UNL A   1      40.355  34.055  37.197  1.00  0.00     0.060 A 
BRANCH  68  69
ATOM     69  S   UNL A   1      39.909  35.287  38.439  1.00  0.00     0.124 S 
ATOM     70  O   UNL A   1      39.651  36.459  37.608  1.00  0.00    -0.237 OA
ATOM     71  O   UNL A   1      38.738  34.686  39.067  1.00  0.00    -0.237 OA
ATOM     72  O   UNL A   1      41.098  35.367  39.283  1.00  0.00    -0.744 OA
ENDBRANCH  68  69
ENDBRANCH  47  61
BRANCH  48  73
ATOM     73  C   UNL A   1      42.921  25.358  28.157  1.00  0.00     0.058 A 
ATOM     74  C   UNL A   1      43.877  25.576  27.153  1.00  0.00     0.135 A 
ATOM     75  C   UNL A   1      42.263  24.119  28.171  1.00  0.00     0.135 A 
ATOM     76  F   UNL A   1      44.529  26.748  27.090  1.00  0.00    -0.206 F 
ATOM     77  C   UNL A   1      44.173  24.604  26.203  1.00  0.00     0.059 A 
ATOM     78  C   UNL A   1      42.559  23.121  27.246  1.00  0.00     0.059 A 
ATOM     79  F   UNL A   1      41.349  23.854  29.118  1.00  0.00    -0.206 F 
ATOM     80  C   UNL A   1      43.516  23.375  26.264  1.00  0.00     0.060 A 
BRANCH  80  81
ATOM     81  S   UNL A   1      43.969  22.094  25.072  1.00  0.00     0.124 S 
ATOM     82  O   UNL A   1      45.354  21.822  25.443  1.00  0.00    -0.237 OA
ATOM     83  O   UNL A   1      43.007  21.041  25.377  1.00  0.00    -0.237 OA
ATOM     84  O   UNL A   1      43.779  22.751  23.782  1.00  0.00    -0.744 OA
ENDBRANCH  80  81
ENDBRANCH  48  73
BRANCH  60  85
ATOM     85  C   UNL A   1      45.781  26.809  34.368  1.00  0.00     0.058 A 
ATOM     86  C   UNL A   1      45.580  25.733  35.244  1.00  0.00     0.135 A 
ATOM     87  C   UNL A   1      47.098  27.247  34.154  1.00  0.00     0.135 A 
ATOM     88  F   UNL A   1      44.339  25.281  35.486  1.00  0.00    -0.206 F 
ATOM     89  C   UNL A   1      46.646  25.117  35.891  1.00  0.00     0.059 A 
ATOM     90  C   UNL A   1      48.181  26.628  34.769  1.00  0.00     0.059 A 
ATOM     91  F   UNL A   1      47.344  28.266  33.315  1.00  0.00    -0.206 F 
ATOM     92  C   UNL A   1      47.944  25.566  35.640  1.00  0.00     0.060 A 
BRANCH  92  93
ATOM     93  S   UNL A   1      49.319  24.716  36.443  1.00  0.00     0.124 S 
ATOM     94  O   UNL A   1      48.923  24.775  37.846  1.00  0.00    -0.237 OA
ATOM     95  O   UNL A   1      49.271  23.395  35.825  1.00  0.00    -0.237 OA
ATOM     96  O   UNL A   1      50.478  25.528  36.084  1.00  0.00    -0.744 OA
ENDBRANCH  92  93
ENDBRANCH  60  85
ENDBRANCH  34  35
ENDBRANCH  27  29
ENDBRANCH  26  27
ENDBRANCH  25  26
ENDBRANCH   1  25
TORSDOF 18
ENDMDL
MODEL 2
REMARK VINA RESULT:     -11.0      4.426      8.908
REMARK SMILES CC(C)CSc1cc2c(cc1Cl)C=C(C(=O)OCCOC(=O)c1ccc(-c3c4nc(c(-c5c(F)cc(S(=O)(=O)[O-])cc5F)c5ccc([nH]5)c(-c5c(F)cc(S(=O)(=O)[O-])cc5F)c5nc(c(-c6c(F)cc(S(=O)(=O)[O-])cc6F)c6ccc3[nH]6)C=C5)C=C4)cc1)[C@@H](C(F)(F)F)O2
REMARK SMILES IDX 18 1 17 2 15 3 16 4 14 5 6 6 7 7 11 8 8 9 10 10 12 11 9 12
REMARK SMILES IDX 94 13 13 14 89 15 5 16 4 17 2 18 1 19 3 20 90 21 91 22 92 23
REMARK SMILES IDX 93 24 19 25 20 26 21 27 22 28 23 29 24 30 88 31 25 32 87 33
REMARK SMILES IDX 26 34 27 35 28 36 81 37 29 38 86 39 80 40 82 41 30 42 85 43
REMARK SMILES IDX 79 44 78 45 31 47 65 48 44 49 64 50 45 51 48 52 63 53 83 54
REMARK SMILES IDX 46 55 47 56 62 58 84 59 49 60 32 61 33 62 42 63 34 64 35 65
REMARK SMILES IDX 41 66 43 67 36 68 37 69 38 70 39 71 40 72 66 73 67 74 76 75
REMARK SMILES IDX 68 76 69 77 75 78 77 79 70 80 71 81 72 82 73 83 74 84 50 85
REMARK SMILES IDX 51 86 60 87 52 88 53 89 59 90 61 91 54 92 55 93 56 94 57 95
REMARK SMILES IDX 58 96
REMARK H PARENT 82 46 48 57
REMARK Flexibility Score: inf
ROOT
ATOM      1  C   UNL A   1      33.022  29.948  25.923  1.00  0.00     0.275 C 
ENDROOT
BRANCH   1   2
ATOM      2  O   UNL A   1      31.945  28.991  26.028  1.00  0.00    -0.459 OA
BRANCH   2   3
ATOM      3  C   UNL A   1      31.382  28.643  24.852  1.00  0.00     0.338 C 
ATOM      4  O   UNL A   1      30.661  29.341  24.152  1.00  0.00    -0.246 OA
BRANCH   3   5
ATOM      5  C   UNL A   1      31.817  27.309  24.419  1.00  0.00     0.087 C 
ATOM      6  C   UNL A   1      34.315  22.978  25.028  1.00  0.00     0.030 A 
ATOM      7  C   UNL A   1      34.092  23.854  23.931  1.00  0.00     0.063 A 
ATOM      8  C   UNL A   1      33.598  23.232  26.210  1.00  0.00     0.055 A 
ATOM      9  C   UNL A   1      33.238  24.959  24.019  1.00  0.00     0.129 A 
ATOM     10  C   UNL A   1      32.740  24.333  26.290  1.00  0.00     0.033 A 
ATOM     11  Cl  UNL A   1      33.665  22.327  27.671  1.00  0.00    -0.083 Cl
ATOM     12  C   UNL A   1      32.565  25.189  25.206  1.00  0.00     0.019 A 
ATOM     13  O   UNL A   1      33.128  25.781  22.930  1.00  0.00    -0.475 OA
ATOM     14  C   UNL A   1      31.776  26.382  25.376  1.00  0.00     0.027 C 
ATOM     15  C   UNL A   1      32.456  27.076  23.084  1.00  0.00     0.316 C 
BRANCH   6  16
ATOM     16  S   UNL A   1      35.617  21.777  24.698  1.00  0.00    -0.124 SA
BRANCH  16  17
ATOM     17  C   UNL A   1      35.037  20.127  25.234  1.00  0.00     0.078 C 
BRANCH  17  18
ATOM     18  C   UNL A   1      33.880  19.560  24.379  1.00  0.00    -0.007 C 
ATOM     19  C   UNL A   1      33.952  18.066  24.054  1.00  0.00     0.008 C 
ATOM     20  C   UNL A   1      32.545  19.854  25.073  1.00  0.00     0.008 C 
ENDBRANCH  17  18
ENDBRANCH  16  17
ENDBRANCH   6  16
BRANCH  15  21
ATOM     21  C   UNL A   1      33.416  28.188  22.641  1.00  0.00     0.430 C 
ATOM     22  F   UNL A   1      34.334  28.439  23.608  1.00  0.00    -0.167 F 
ATOM     23  F   UNL A   1      34.119  27.828  21.539  1.00  0.00    -0.167 F 
ATOM     24  F   UNL A   1      32.780  29.346  22.371  1.00  0.00    -0.167 F 
ENDBRANCH  15  21
ENDBRANCH   3   5
ENDBRANCH   2   3
ENDBRANCH   1   2
BRANCH   1  25
ATOM     25  C   UNL A   1      33.480  30.429  27.302  1.00  0.00     0.275 C 
BRANCH  25  26
ATOM     26  O   UNL A   1      34.636  29.699  27.758  1.00  0.00    -0.458 OA
BRANCH  26  27
ATOM     27  C   UNL A   1      35.456  30.388  28.582  1.00  0.00     0.338 C 
ATOM     28  O   UNL A   1      35.158  31.325  29.303  1.00  0.00    -0.246 OA
BRANCH  27  29
ATOM     29  C   UNL A   1      36.813  29.820  28.565  1.00  0.00     0.060 A 
ATOM     30  C   UNL A   1      37.603  29.936  27.424  1.00  0.00     0.016 A 
ATOM     31  C   UNL A   1      37.375  29.381  29.762  1.00  0.00     0.016 A 
ATOM     32  C   UNL A   1      38.958  29.595  27.493  1.00  0.00     0.010 A 
ATOM     33  C   UNL A   1      38.754  29.216  29.863  1.00  0.00     0.010 A 
ATOM     34  C   UNL A   1      39.565  29.273  28.723  1.00  0.00    -0.014 A 
BRANCH  34  35
ATOM     35  C   UNL A   1      41.024  28.957  28.815  1.00  0.00     0.031 A 
ATOM     36  C   UNL A   1      41.542  27.588  28.424  1.00  0.00     0.074 A 
ATOM     37  C   UNL A   1      41.894  29.889  29.258  1.00  0.00     0.049 A 
ATOM     38  N   UNL A   1      42.774  27.143  28.415  1.00  0.00    -0.248 NA
ATOM     39  C   UNL A   1      40.549  26.571  28.038  1.00  0.00     0.031 C 
ATOM     40  C   UNL A   1      41.530  31.219  29.758  1.00  0.00     0.029 A 
ATOM     41  N   UNL A   1      43.266  29.876  29.339  1.00  0.00    -0.354 N 
ATOM     42  C   UNL A   1      42.693  25.802  28.046  1.00  0.00     0.074 A 
ATOM     43  C   UNL A   1      41.290  25.480  27.936  1.00  0.00     0.031 C 
ATOM     44  C   UNL A   1      42.648  31.919  30.008  1.00  0.00     0.029 A 
ATOM     45  C   UNL A   1      43.810  31.079  29.730  1.00  0.00     0.049 A 
ATOM     46  H   UNL A   1      43.809  29.081  29.137  1.00  0.00     0.167 HD
ATOM     47  C   UNL A   1      43.688  24.928  27.766  1.00  0.00     0.037 A 
ATOM     48  C   UNL A   1      45.096  31.473  29.833  1.00  0.00     0.037 A 
ATOM     49  C   UNL A   1      45.085  25.264  27.812  1.00  0.00     0.049 A 
ATOM     50  C   UNL A   1      46.190  30.502  29.481  1.00  0.00     0.074 A 
ATOM     51  C   UNL A   1      46.171  24.475  27.479  1.00  0.00     0.029 A 
ATOM     52  N   UNL A   1      45.587  26.497  28.204  1.00  0.00    -0.354 N 
ATOM     53  N   UNL A   1      46.088  29.262  29.065  1.00  0.00    -0.248 NA
ATOM     54  C   UNL A   1      47.574  30.981  29.610  1.00  0.00     0.031 C 
ATOM     55  C   UNL A   1      47.334  25.219  27.704  1.00  0.00     0.029 A 
ATOM     56  C   UNL A   1      46.968  26.485  28.132  1.00  0.00     0.049 A 
ATOM     57  H   UNL A   1      45.042  27.265  28.490  1.00  0.00     0.167 HD
ATOM     58  C   UNL A   1      47.390  28.819  28.865  1.00  0.00     0.074 A 
ATOM     59  C   UNL A   1      48.263  29.929  29.190  1.00  0.00     0.031 C 
ATOM     60  C   UNL A   1      47.823  27.602  28.454  1.00  0.00     0.037 A 
BRANCH  47  61
ATOM     61  C   UNL A   1      43.298  23.537  27.338  1.00  0.00     0.058 A 
ATOM     62  C   UNL A   1      42.903  22.566  28.275  1.00  0.00     0.135 A 
ATOM     63  C   UNL A   1      43.290  23.173  25.982  1.00  0.00     0.135 A 
ATOM     64  F   UNL A   1      42.905  22.851  29.587  1.00  0.00    -0.206 F 
ATOM     65  C   UNL A   1      42.553  21.277  27.887  1.00  0.00     0.059 A 
ATOM     66  C   UNL A   1      42.911  21.898  25.568  1.00  0.00     0.059 A 
ATOM     67  F   UNL A   1      43.653  24.060  25.042  1.00  0.00    -0.206 F 
ATOM     68  C   UNL A   1      42.560  20.953  26.531  1.00  0.00     0.060 A 
BRANCH  68  69
ATOM     69  S   UNL A   1      42.095  19.276  26.050  1.00  0.00     0.124 S 
ATOM     70  O   UNL A   1      42.930  19.069  24.870  1.00  0.00    -0.237 OA
ATOM     71  O   UNL A   1      42.465  18.501  27.229  1.00  0.00    -0.237 OA
ATOM     72  O   UNL A   1      40.661  19.378  25.794  1.00  0.00    -0.744 OA
ENDBRANCH  68  69
ENDBRANCH  47  61
BRANCH  48  73
ATOM     73  C   UNL A   1      45.409  32.878  30.218  1.00  0.00     0.058 A 
ATOM     74  C   UNL A   1      45.495  33.886  29.245  1.00  0.00     0.135 A 
ATOM     75  C   UNL A   1      45.581  33.252  31.560  1.00  0.00     0.135 A 
ATOM     76  F   UNL A   1      45.347  33.579  27.947  1.00  0.00    -0.206 F 
ATOM     77  C   UNL A   1      45.736  35.212  29.586  1.00  0.00     0.059 A 
ATOM     78  C   UNL A   1      45.799  34.577  31.928  1.00  0.00     0.059 A 
ATOM     79  F   UNL A   1      45.496  32.330  32.531  1.00  0.00    -0.206 F 
ATOM     80  C   UNL A   1      45.877  35.551  30.933  1.00  0.00     0.060 A 
BRANCH  80  81
ATOM     81  S   UNL A   1      46.109  37.290  31.366  1.00  0.00     0.124 S 
ATOM     82  O   UNL A   1      46.187  37.914  30.050  1.00  0.00    -0.237 OA
ATOM     83  O   UNL A   1      44.905  37.574  32.138  1.00  0.00    -0.237 OA
ATOM     84  O   UNL A   1      47.350  37.282  32.135  1.00  0.00    -0.744 OA
ENDBRANCH  80  81
ENDBRANCH  48  73
BRANCH  60  85
ATOM     85  C   UNL A   1      49.305  27.396  28.313  1.00  0.00     0.058 A 
ATOM     86  C   UNL A   1      50.075  26.882  29.366  1.00  0.00     0.135 A 
ATOM     87  C   UNL A   1      49.941  27.623  27.081  1.00  0.00     0.135 A 
ATOM     88  F   UNL A   1      49.515  26.653  30.564  1.00  0.00    -0.206 F 
ATOM     89  C   UNL A   1      51.430  26.609  29.206  1.00  0.00     0.059 A 
ATOM     90  C   UNL A   1      51.288  27.331  26.892  1.00  0.00     0.059 A 
ATOM     91  F   UNL A   1      49.245  28.103  26.039  1.00  0.00    -0.206 F 
ATOM     92  C   UNL A   1      52.025  26.830  27.963  1.00  0.00     0.060 A 
BRANCH  92  93
ATOM     93  S   UNL A   1      53.770  26.415  27.758  1.00  0.00     0.124 S 
ATOM     94  O   UNL A   1      53.692  25.207  26.942  1.00  0.00    -0.237 OA
ATOM     95  O   UNL A   1      54.295  27.600  27.088  1.00  0.00    -0.237 OA
ATOM     96  O   UNL A   1      54.237  26.217  29.126  1.00  0.00    -0.744 OA
ENDBRANCH  92  93
ENDBRANCH  60  85
ENDBRANCH  34  35
ENDBRANCH  27  29
ENDBRANCH  26  27
ENDBRANCH  25  26
ENDBRANCH   1  25
TORSDOF 18
ENDMDL
MODEL 3
REMARK VINA RESULT:     -10.8      5.237      6.636
REMARK SMILES CC(C)CSc1cc2c(cc1Cl)C=C(C(=O)OCCOC(=O)c1ccc(-c3c4nc(c(-c5c(F)cc(S(=O)(=O)[O-])cc5F)c5ccc([nH]5)c(-c5c(F)cc(S(=O)(=O)[O-])cc5F)c5nc(c(-c6c(F)cc(S(=O)(=O)[O-])cc6F)c6ccc3[nH]6)C=C5)C=C4)cc1)[C@@H](C(F)(F)F)O2
REMARK SMILES IDX 18 1 17 2 15 3 16 4 14 5 6 6 7 7 11 8 8 9 10 10 12 11 9 12
REMARK SMILES IDX 94 13 13 14 89 15 5 16 4 17 2 18 1 19 3 20 90 21 91 22 92 23
REMARK SMILES IDX 93 24 19 25 20 26 21 27 22 28 23 29 24 30 88 31 25 32 87 33
REMARK SMILES IDX 26 34 27 35 28 36 81 37 29 38 86 39 80 40 82 41 30 42 85 43
REMARK SMILES IDX 79 44 78 45 31 47 65 48 44 49 64 50 45 51 48 52 63 53 83 54
REMARK SMILES IDX 46 55 47 56 62 58 84 59 49 60 32 61 33 62 42 63 34 64 35 65
REMARK SMILES IDX 41 66 43 67 36 68 37 69 38 70 39 71 40 72 66 73 67 74 76 75
REMARK SMILES IDX 68 76 69 77 75 78 77 79 70 80 71 81 72 82 73 83 74 84 50 85
REMARK SMILES IDX 51 86 60 87 52 88 53 89 59 90 61 91 54 92 55 93 56 94 57 95
REMARK SMILES IDX 58 96
REMARK H PARENT 82 46 48 57
REMARK Flexibility Score: inf
ROOT
ATOM      1  C   UNL A   1      33.828  29.732  27.257  1.00  0.00     0.275 C 
ENDROOT
BRANCH   1   2
ATOM      2  O   UNL A   1      33.457  28.874  26.156  1.00  0.00    -0.459 OA
BRANCH   2   3
ATOM      3  C   UNL A   1      32.149  28.911  25.826  1.00  0.00     0.338 C 
ATOM      4  O   UNL A   1      31.457  29.910  25.695  1.00  0.00    -0.246 OA
BRANCH   3   5
ATOM      5  C   UNL A   1      31.629  27.570  25.529  1.00  0.00     0.087 C 
ATOM      6  C   UNL A   1      32.067  22.570  25.109  1.00  0.00     0.030 A 
ATOM      7  C   UNL A   1      31.416  23.581  24.351  1.00  0.00     0.063 A 
ATOM      8  C   UNL A   1      32.620  22.949  26.343  1.00  0.00     0.055 A 
ATOM      9  C   UNL A   1      31.360  24.913  24.774  1.00  0.00     0.129 A 
ATOM     10  C   UNL A   1      32.556  24.281  26.765  1.00  0.00     0.033 A 
ATOM     11  Cl  UNL A   1      33.444  21.932  27.459  1.00  0.00    -0.083 Cl
ATOM     12  C   UNL A   1      31.935  25.253  25.986  1.00  0.00     0.019 A 
ATOM     13  O   UNL A   1      30.761  25.830  23.952  1.00  0.00    -0.475 OA
ATOM     14  C   UNL A   1      32.008  26.631  26.397  1.00  0.00     0.027 C 
ATOM     15  C   UNL A   1      30.923  27.258  24.245  1.00  0.00     0.316 C 
BRANCH   6  16
ATOM     16  S   UNL A   1      32.168  21.003  24.226  1.00  0.00    -0.124 SA
BRANCH  16  17
ATOM     17  C   UNL A   1      33.742  20.183  24.672  1.00  0.00     0.078 C 
BRANCH  17  18
ATOM     18  C   UNL A   1      33.744  18.656  24.435  1.00  0.00    -0.007 C 
ATOM     19  C   UNL A   1      35.102  17.958  24.547  1.00  0.00     0.008 C 
ATOM     20  C   UNL A   1      32.761  17.990  25.404  1.00  0.00     0.008 C 
ENDBRANCH  17  18
ENDBRANCH  16  17
ENDBRANCH   6  16
BRANCH  15  21
ATOM     21  C   UNL A   1      31.520  27.951  23.013  1.00  0.00     0.430 C 
ATOM     22  F   UNL A   1      31.233  27.252  21.886  1.00  0.00    -0.167 F 
ATOM     23  F   UNL A   1      30.992  29.187  22.833  1.00  0.00    -0.167 F 
ATOM     24  F   UNL A   1      32.860  28.077  23.086  1.00  0.00    -0.167 F 
ENDBRANCH  15  21
ENDBRANCH   3   5
ENDBRANCH   2   3
ENDBRANCH   1   2
BRANCH   1  25
ATOM     25  C   UNL A   1      35.199  29.355  27.823  1.00  0.00     0.275 C 
BRANCH  25  26
ATOM     26  O   UNL A   1      35.694  30.366  28.725  1.00  0.00    -0.458 OA
BRANCH  26  27
ATOM     27  C   UNL A   1      36.434  29.898  29.754  1.00  0.00     0.338 C 
ATOM     28  O   UNL A   1      36.029  29.525  30.842  1.00  0.00    -0.246 OA
BRANCH  27  29
ATOM     29  C   UNL A   1      37.856  29.823  29.385  1.00  0.00     0.060 A 
ATOM     30  C   UNL A   1      38.801  29.426  30.327  1.00  0.00     0.016 A 
ATOM     31  C   UNL A   1      38.209  29.926  28.041  1.00  0.00     0.016 A 
ATOM     32  C   UNL A   1      40.107  29.145  29.910  1.00  0.00     0.010 A 
ATOM     33  C   UNL A   1      39.455  29.475  27.614  1.00  0.00     0.010 A 
ATOM     34  C   UNL A   1      40.443  29.122  28.542  1.00  0.00    -0.014 A 
BRANCH  34  35
ATOM     35  C   UNL A   1      41.823  28.773  28.083  1.00  0.00     0.031 A 
ATOM     36  C   UNL A   1      42.921  29.816  28.078  1.00  0.00     0.074 A 
ATOM     37  C   UNL A   1      42.101  27.522  27.656  1.00  0.00     0.049 A 
ATOM     38  N   UNL A   1      44.180  29.689  27.739  1.00  0.00    -0.248 NA
ATOM     39  C   UNL A   1      42.553  31.190  28.460  1.00  0.00     0.031 C 
ATOM     40  C   UNL A   1      41.124  26.438  27.515  1.00  0.00     0.029 A 
ATOM     41  N   UNL A   1      43.289  26.938  27.286  1.00  0.00    -0.354 N 
ATOM     42  C   UNL A   1      44.734  30.962  27.847  1.00  0.00     0.074 A 
ATOM     43  C   UNL A   1      43.659  31.863  28.186  1.00  0.00     0.031 C 
ATOM     44  C   UNL A   1      41.763  25.306  27.177  1.00  0.00     0.029 A 
ATOM     45  C   UNL A   1      43.188  25.589  27.032  1.00  0.00     0.049 A 
ATOM     46  H   UNL A   1      44.133  27.438  27.209  1.00  0.00     0.167 HD
ATOM     47  C   UNL A   1      46.028  31.346  27.733  1.00  0.00     0.037 A 
ATOM     48  C   UNL A   1      44.135  24.674  26.739  1.00  0.00     0.037 A 
ATOM     49  C   UNL A   1      47.110  30.442  27.459  1.00  0.00     0.049 A 
ATOM     50  C   UNL A   1      45.573  25.110  26.653  1.00  0.00     0.074 A 
ATOM     51  C   UNL A   1      48.464  30.715  27.393  1.00  0.00     0.029 A 
ATOM     52  N   UNL A   1      46.962  29.083  27.219  1.00  0.00    -0.354 N 
ATOM     53  N   UNL A   1      46.083  26.306  26.831  1.00  0.00    -0.248 NA
ATOM     54  C   UNL A   1      46.566  24.074  26.330  1.00  0.00     0.031 C 
ATOM     55  C   UNL A   1      49.133  29.529  27.077  1.00  0.00     0.029 A 
ATOM     56  C   UNL A   1      48.199  28.508  26.993  1.00  0.00     0.049 A 
ATOM     57  H   UNL A   1      46.103  28.601  27.211  1.00  0.00     0.167 HD
ATOM     58  C   UNL A   1      47.455  26.164  26.658  1.00  0.00     0.074 A 
ATOM     59  C   UNL A   1      47.698  24.763  26.381  1.00  0.00     0.031 C 
ATOM     60  C   UNL A   1      48.424  27.109  26.723  1.00  0.00     0.037 A 
BRANCH  47  61
ATOM     61  C   UNL A   1      46.347  32.803  27.953  1.00  0.00     0.058 A 
ATOM     62  C   UNL A   1      46.749  33.283  29.211  1.00  0.00     0.135 A 
ATOM     63  C   UNL A   1      46.278  33.725  26.896  1.00  0.00     0.135 A 
ATOM     64  F   UNL A   1      46.819  32.451  30.262  1.00  0.00    -0.206 F 
ATOM     65  C   UNL A   1      47.033  34.628  29.423  1.00  0.00     0.059 A 
ATOM     66  C   UNL A   1      46.590  35.071  27.077  1.00  0.00     0.059 A 
ATOM     67  F   UNL A   1      45.903  33.324  25.672  1.00  0.00    -0.206 F 
ATOM     68  C   UNL A   1      46.951  35.514  28.349  1.00  0.00     0.060 A 
BRANCH  68  69
ATOM     69  S   UNL A   1      47.331  37.254  28.645  1.00  0.00     0.124 S 
ATOM     70  O   UNL A   1      48.738  37.315  28.260  1.00  0.00    -0.237 OA
ATOM     71  O   UNL A   1      46.401  37.932  27.749  1.00  0.00    -0.237 OA
ATOM     72  O   UNL A   1      47.063  37.425  30.070  1.00  0.00    -0.744 OA
ENDBRANCH  68  69
ENDBRANCH  47  61
BRANCH  48  73
ATOM     73  C   UNL A   1      43.755  23.242  26.578  1.00  0.00     0.058 A 
ATOM     74  C   UNL A   1      43.350  22.481  27.685  1.00  0.00     0.135 A 
ATOM     75  C   UNL A   1      43.741  22.621  25.320  1.00  0.00     0.135 A 
ATOM     76  F   UNL A   1      43.354  23.025  28.912  1.00  0.00    -0.206 F 
ATOM     77  C   UNL A   1      42.942  21.158  27.552  1.00  0.00     0.059 A 
ATOM     78  C   UNL A   1      43.314  21.306  25.157  1.00  0.00     0.059 A 
ATOM     79  F   UNL A   1      44.106  23.308  24.227  1.00  0.00    -0.206 F 
ATOM     80  C   UNL A   1      42.918  20.581  26.281  1.00  0.00     0.060 A 
BRANCH  80  81
ATOM     81  S   UNL A   1      42.309  18.888  26.114  1.00  0.00     0.124 S 
ATOM     82  O   UNL A   1      43.192  18.357  25.082  1.00  0.00    -0.237 OA
ATOM     83  O   UNL A   1      42.508  18.359  27.459  1.00  0.00    -0.237 OA
ATOM     84  O   UNL A   1      40.915  19.069  25.720  1.00  0.00    -0.744 OA
ENDBRANCH  80  81
ENDBRANCH  48  73
BRANCH  60  85
ATOM     85  C   UNL A   1      49.846  26.672  26.503  1.00  0.00     0.058 A 
ATOM     86  C   UNL A   1      50.650  26.241  27.568  1.00  0.00     0.135 A 
ATOM     87  C   UNL A   1      50.373  26.592  25.205  1.00  0.00     0.135 A 
ATOM     88  F   UNL A   1      50.193  26.302  28.829  1.00  0.00    -0.206 F 
ATOM     89  C   UNL A   1      51.935  25.754  27.353  1.00  0.00     0.059 A 
ATOM     90  C   UNL A   1      51.645  26.082  24.964  1.00  0.00     0.059 A 
ATOM     91  F   UNL A   1      49.638  26.982  24.151  1.00  0.00    -0.206 F 
ATOM     92  C   UNL A   1      52.420  25.671  26.047  1.00  0.00     0.060 A 
BRANCH  92  93
ATOM     93  S   UNL A   1      54.068  24.981  25.783  1.00  0.00     0.124 S 
ATOM     94  O   UNL A   1      54.523  25.742  24.623  1.00  0.00    -0.237 OA
ATOM     95  O   UNL A   1      54.737  25.285  27.044  1.00  0.00    -0.237 OA
ATOM     96  O   UNL A   1      53.810  23.565  25.541  1.00  0.00    -0.744 OA
ENDBRANCH  92  93
ENDBRANCH  60  85
ENDBRANCH  34  35
ENDBRANCH  27  29
ENDBRANCH  26  27
ENDBRANCH  25  26
ENDBRANCH   1  25
TORSDOF 18
ENDMDL
