MODEL 1
REMARK VINA RESULT:     -10.4      0.000      0.000
REMARK SMILES O=C(OCCOC(=O)C1([C@H]2CS(=O)(=O)C[C@H]2O)CCCC1)c1ccc(-c2c3nc(c(-c4c(F)cc(S(=O)(=O)[O-])cc4F)c4ccc([nH]4)c(-c4c(F)cc(S(=O)(=O)[O-])cc4F)c4nc(c(-c5c(F)cc(S(=O)(=O)[O-])cc5F)c5ccc2[nH]5)C=C4)C=C3)cc1
REMARK SMILES IDX 4 1 3 2 2 3 1 4 22 5 23 6 87 7 24 8 86 9 25 10 26 11 27 12
REMARK SMILES IDX 80 13 28 14 85 15 79 16 81 17 29 18 84 19 78 20 77 21 30 23
REMARK SMILES IDX 64 24 43 25 63 26 44 27 47 28 62 29 82 30 45 31 46 32 61 34
REMARK SMILES IDX 83 35 48 36 31 37 32 38 41 39 33 40 34 41 40 42 42 43 35 44
REMARK SMILES IDX 36 45 37 46 38 47 39 48 65 49 66 50 75 51 67 52 68 53 74 54
REMARK SMILES IDX 76 55 69 56 70 57 71 58 72 59 73 60 49 61 50 62 59 63 51 64
REMARK SMILES IDX 52 65 58 66 60 67 53 68 54 69 55 70 56 71 57 72 5 73 6 74
REMARK SMILES IDX 7 75 8 76 9 77 18 78 21 79 19 80 20 81 10 82 11 83 16 84
REMARK SMILES IDX 12 85 15 86 13 87 14 88 17 89
REMARK H PARENT 81 22 47 33 17 90
REMARK Flexibility Score: inf
ROOT
ATOM      1  C   UNL A   1      34.601  33.154  27.988  1.00  0.00     0.275 C 
ENDROOT
BRANCH   1   2
ATOM      2  O   UNL A   1      34.063  31.828  28.056  1.00  0.00    -0.458 OA
BRANCH   2   3
ATOM      3  C   UNL A   1      34.566  30.682  27.539  1.00  0.00     0.338 C 
ATOM      4  O   UNL A   1      33.851  30.015  26.795  1.00  0.00    -0.246 OA
BRANCH   3   5
ATOM      5  C   UNL A   1      35.874  30.097  27.980  1.00  0.00     0.060 A 
ATOM      6  C   UNL A   1      37.069  30.071  27.251  1.00  0.00     0.016 A 
ATOM      7  C   UNL A   1      35.890  29.568  29.275  1.00  0.00     0.016 A 
ATOM      8  C   UNL A   1      38.280  29.683  27.845  1.00  0.00     0.010 A 
ATOM      9  C   UNL A   1      37.095  29.197  29.876  1.00  0.00     0.010 A 
ATOM     10  C   UNL A   1      38.314  29.284  29.178  1.00  0.00    -0.014 A 
BRANCH  10  11
ATOM     11  C   UNL A   1      39.572  28.845  29.838  1.00  0.00     0.031 A 
ATOM     12  C   UNL A   1      40.111  29.732  30.924  1.00  0.00     0.074 A 
ATOM     13  C   UNL A   1      40.262  27.748  29.451  1.00  0.00     0.049 A 
ATOM     14  N   UNL A   1      41.233  29.644  31.582  1.00  0.00    -0.248 NA
ATOM     15  C   UNL A   1      39.276  30.887  31.307  1.00  0.00     0.031 C 
ATOM     16  C   UNL A   1      39.857  26.789  28.420  1.00  0.00     0.029 A 
ATOM     17  N   UNL A   1      41.502  27.288  29.838  1.00  0.00    -0.354 N 
ATOM     18  C   UNL A   1      41.201  30.696  32.485  1.00  0.00     0.074 A 
ATOM     19  C   UNL A   1      40.060  31.516  32.161  1.00  0.00     0.031 C 
ATOM     20  C   UNL A   1      40.867  25.929  28.184  1.00  0.00     0.029 A 
ATOM     21  C   UNL A   1      41.979  26.246  29.069  1.00  0.00     0.049 A 
ATOM     22  H   UNL A   1      42.002  27.668  30.596  1.00  0.00     0.167 HD
ATOM     23  C   UNL A   1      41.975  30.893  33.575  1.00  0.00     0.037 A 
ATOM     24  C   UNL A   1      43.178  25.625  29.079  1.00  0.00     0.037 A 
ATOM     25  C   UNL A   1      43.090  30.061  33.907  1.00  0.00     0.049 A 
ATOM     26  C   UNL A   1      44.142  25.969  30.187  1.00  0.00     0.074 A 
ATOM     27  C   UNL A   1      43.913  30.121  35.012  1.00  0.00     0.029 A 
ATOM     28  N   UNL A   1      43.543  29.015  33.115  1.00  0.00    -0.354 N 
ATOM     29  N   UNL A   1      44.022  26.879  31.125  1.00  0.00    -0.248 NA
ATOM     30  C   UNL A   1      45.365  25.161  30.289  1.00  0.00     0.031 C 
ATOM     31  C   UNL A   1      44.900  29.142  34.863  1.00  0.00     0.029 A 
ATOM     32  C   UNL A   1      44.658  28.440  33.691  1.00  0.00     0.049 A 
ATOM     33  H   UNL A   1      43.131  28.727  32.269  1.00  0.00     0.167 HD
ATOM     34  C   UNL A   1      45.103  26.691  31.978  1.00  0.00     0.074 A 
ATOM     35  C   UNL A   1      45.886  25.607  31.424  1.00  0.00     0.031 C 
ATOM     36  C   UNL A   1      45.399  27.334  33.135  1.00  0.00     0.037 A 
BRANCH  23  37
ATOM     37  C   UNL A   1      41.564  32.009  34.487  1.00  0.00     0.058 A 
ATOM     38  C   UNL A   1      40.727  31.763  35.593  1.00  0.00     0.135 A 
ATOM     39  C   UNL A   1      41.938  33.333  34.227  1.00  0.00     0.135 A 
ATOM     40  F   UNL A   1      40.313  30.515  35.867  1.00  0.00    -0.206 F 
ATOM     41  C   UNL A   1      40.233  32.799  36.375  1.00  0.00     0.059 A 
ATOM     42  C   UNL A   1      41.482  34.382  35.018  1.00  0.00     0.059 A 
ATOM     43  F   UNL A   1      42.725  33.619  33.178  1.00  0.00    -0.206 F 
ATOM     44  C   UNL A   1      40.613  34.107  36.076  1.00  0.00     0.060 A 
BRANCH  44  45
ATOM     45  S   UNL A   1      39.948  35.441  37.090  1.00  0.00     0.124 S 
ATOM     46  O   UNL A   1      39.652  36.453  36.081  1.00  0.00    -0.237 OA
ATOM     47  O   UNL A   1      38.789  34.809  37.711  1.00  0.00    -0.237 OA
ATOM     48  O   UNL A   1      41.047  35.759  37.996  1.00  0.00    -0.744 OA
ENDBRANCH  44  45
ENDBRANCH  23  37
BRANCH  24  49
ATOM     49  C   UNL A   1      43.525  24.574  28.076  1.00  0.00     0.058 A 
ATOM     50  C   UNL A   1      44.309  24.872  26.951  1.00  0.00     0.135 A 
ATOM     51  C   UNL A   1      43.026  23.266  28.188  1.00  0.00     0.135 A 
ATOM     52  F   UNL A   1      44.801  26.109  26.788  1.00  0.00    -0.206 F 
ATOM     53  C   UNL A   1      44.561  23.926  25.958  1.00  0.00     0.059 A 
ATOM     54  C   UNL A   1      43.278  22.295  27.215  1.00  0.00     0.059 A 
ATOM     55  F   UNL A   1      42.275  22.920  29.245  1.00  0.00    -0.206 F 
ATOM     56  C   UNL A   1      44.039  22.639  26.098  1.00  0.00     0.060 A 
BRANCH  56  57
ATOM     57  S   UNL A   1      44.383  21.425  24.801  1.00  0.00     0.124 S 
ATOM     58  O   UNL A   1      43.387  20.397  25.084  1.00  0.00    -0.237 OA
ATOM     59  O   UNL A   1      44.162  22.209  23.590  1.00  0.00    -0.237 OA
ATOM     60  O   UNL A   1      45.769  21.046  25.053  1.00  0.00    -0.744 OA
ENDBRANCH  56  57
ENDBRANCH  24  49
BRANCH  36  61
ATOM     61  C   UNL A   1      46.570  26.840  33.931  1.00  0.00     0.058 A 
ATOM     62  C   UNL A   1      47.844  27.413  33.810  1.00  0.00     0.135 A 
ATOM     63  C   UNL A   1      46.379  25.850  34.910  1.00  0.00     0.135 A 
ATOM     64  F   UNL A   1      48.077  28.354  32.882  1.00  0.00    -0.206 F 
ATOM     65  C   UNL A   1      48.891  27.018  34.634  1.00  0.00     0.059 A 
ATOM     66  C   UNL A   1      47.403  25.466  35.766  1.00  0.00     0.059 A 
ATOM     67  F   UNL A   1      45.174  25.279  35.068  1.00  0.00    -0.206 F 
ATOM     68  C   UNL A   1      48.657  26.054  35.617  1.00  0.00     0.060 A 
BRANCH  68  69
ATOM     69  S   UNL A   1      50.004  25.616  36.734  1.00  0.00     0.124 S 
ATOM     70  O   UNL A   1      50.499  24.385  36.127  1.00  0.00    -0.237 OA
ATOM     71  O   UNL A   1      50.885  26.775  36.626  1.00  0.00    -0.237 OA
ATOM     72  O   UNL A   1      49.339  25.459  38.024  1.00  0.00    -0.744 OA
ENDBRANCH  68  69
ENDBRANCH  36  61
ENDBRANCH  10  11
ENDBRANCH   3   5
ENDBRANCH   2   3
ENDBRANCH   1   2
BRANCH   1  73
ATOM     73  C   UNL A   1      34.245  34.058  29.171  1.00  0.00     0.274 C 
BRANCH  73  74
ATOM     74  O   UNL A   1      35.262  34.154  30.192  1.00  0.00    -0.462 OA
BRANCH  74  75
ATOM     75  C   UNL A   1      35.071  33.383  31.298  1.00  0.00     0.312 C 
ATOM     76  O   UNL A   1      34.403  32.353  31.291  1.00  0.00    -0.252 OA
BRANCH  75  77
ATOM     77  C   UNL A   1      35.730  33.928  32.601  1.00  0.00     0.074 C 
ATOM     78  C   UNL A   1      36.233  32.866  33.567  1.00  0.00     0.019 C 
ATOM     79  C   UNL A   1      37.064  34.577  32.163  1.00  0.00     0.019 C 
ATOM     80  C   UNL A   1      37.447  33.432  34.282  1.00  0.00     0.001 C 
ATOM     81  C   UNL A   1      38.099  34.351  33.269  1.00  0.00     0.001 C 
BRANCH  77  82
ATOM     82  C   UNL A   1      34.668  34.892  33.261  1.00  0.00     0.051 C 
ATOM     83  C   UNL A   1      34.788  36.350  32.730  1.00  0.00     0.144 C 
ATOM     84  C   UNL A   1      33.152  34.582  33.255  1.00  0.00     0.134 C 
ATOM     85  S   UNL A   1      33.276  36.759  31.868  1.00  0.00     0.153 S 
ATOM     86  C   UNL A   1      32.513  35.173  32.009  1.00  0.00     0.169 C 
ATOM     87  O   UNL A   1      32.519  37.692  32.676  1.00  0.00    -0.229 OA
ATOM     88  O   UNL A   1      33.560  37.005  30.468  1.00  0.00    -0.229 OA
BRANCH  84  89
ATOM     89  O   UNL A   1      32.871  33.214  33.449  1.00  0.00    -0.392 OA
ATOM     90  H   UNL A   1      32.185  32.933  32.823  1.00  0.00     0.211 HD
ENDBRANCH  84  89
ENDBRANCH  77  82
ENDBRANCH  75  77
ENDBRANCH  74  75
ENDBRANCH  73  74
ENDBRANCH   1  73
TORSDOF 16
ENDMDL
MODEL 2
REMARK VINA RESULT:     -10.1      5.136     11.256
REMARK SMILES O=C(OCCOC(=O)C1([C@H]2CS(=O)(=O)C[C@H]2O)CCCC1)c1ccc(-c2c3nc(c(-c4c(F)cc(S(=O)(=O)[O-])cc4F)c4ccc([nH]4)c(-c4c(F)cc(S(=O)(=O)[O-])cc4F)c4nc(c(-c5c(F)cc(S(=O)(=O)[O-])cc5F)c5ccc2[nH]5)C=C4)C=C3)cc1
REMARK SMILES IDX 4 1 3 2 2 3 1 4 22 5 23 6 87 7 24 8 86 9 25 10 26 11 27 12
REMARK SMILES IDX 80 13 28 14 85 15 79 16 81 17 29 18 84 19 78 20 77 21 30 23
REMARK SMILES IDX 64 24 43 25 63 26 44 27 47 28 62 29 82 30 45 31 46 32 61 34
REMARK SMILES IDX 83 35 48 36 31 37 32 38 41 39 33 40 34 41 40 42 42 43 35 44
REMARK SMILES IDX 36 45 37 46 38 47 39 48 65 49 66 50 75 51 67 52 68 53 74 54
REMARK SMILES IDX 76 55 69 56 70 57 71 58 72 59 73 60 49 61 50 62 59 63 51 64
REMARK SMILES IDX 52 65 58 66 60 67 53 68 54 69 55 70 56 71 57 72 5 73 6 74
REMARK SMILES IDX 7 75 8 76 9 77 18 78 21 79 19 80 20 81 10 82 11 83 16 84
REMARK SMILES IDX 12 85 15 86 13 87 14 88 17 89
REMARK H PARENT 81 22 47 33 17 90
REMARK Flexibility Score: inf
ROOT
ATOM      1  C   UNL A   1      36.097  21.848  26.090  1.00  0.00     0.275 C 
ENDROOT
BRANCH   1   2
ATOM      2  O   UNL A   1      37.057  22.906  25.987  1.00  0.00    -0.458 OA
BRANCH   2   3
ATOM      3  C   UNL A   1      38.398  22.855  26.166  1.00  0.00     0.338 C 
ATOM      4  O   UNL A   1      38.951  21.759  26.114  1.00  0.00    -0.246 OA
BRANCH   3   5
ATOM      5  C   UNL A   1      39.203  24.037  26.610  1.00  0.00     0.060 A 
ATOM      6  C   UNL A   1      40.036  24.832  25.814  1.00  0.00     0.016 A 
ATOM      7  C   UNL A   1      39.058  24.393  27.956  1.00  0.00     0.016 A 
ATOM      8  C   UNL A   1      40.578  26.035  26.294  1.00  0.00     0.010 A 
ATOM      9  C   UNL A   1      39.580  25.597  28.433  1.00  0.00     0.010 A 
ATOM     10  C   UNL A   1      40.319  26.453  27.596  1.00  0.00    -0.014 A 
BRANCH  10  11
ATOM     11  C   UNL A   1      40.891  27.709  28.149  1.00  0.00     0.031 A 
ATOM     12  C   UNL A   1      42.376  27.734  28.375  1.00  0.00     0.074 A 
ATOM     13  C   UNL A   1      40.130  28.767  28.511  1.00  0.00     0.049 A 
ATOM     14  N   UNL A   1      43.111  28.652  28.940  1.00  0.00    -0.248 NA
ATOM     15  C   UNL A   1      43.132  26.553  27.917  1.00  0.00     0.031 C 
ATOM     16  C   UNL A   1      38.680  28.890  28.342  1.00  0.00     0.029 A 
ATOM     17  N   UNL A   1      40.468  29.929  29.170  1.00  0.00    -0.354 N 
ATOM     18  C   UNL A   1      44.410  28.175  28.848  1.00  0.00     0.074 A 
ATOM     19  C   UNL A   1      44.345  26.819  28.363  1.00  0.00     0.031 C 
ATOM     20  C   UNL A   1      38.246  29.998  28.974  1.00  0.00     0.029 A 
ATOM     21  C   UNL A   1      39.384  30.689  29.561  1.00  0.00     0.049 A 
ATOM     22  H   UNL A   1      41.400  30.194  29.347  1.00  0.00     0.167 HD
ATOM     23  C   UNL A   1      45.567  28.849  29.024  1.00  0.00     0.037 A 
ATOM     24  C   UNL A   1      39.323  31.810  30.312  1.00  0.00     0.037 A 
ATOM     25  C   UNL A   1      45.625  30.204  29.480  1.00  0.00     0.049 A 
ATOM     26  C   UNL A   1      40.621  32.482  30.684  1.00  0.00     0.074 A 
ATOM     27  C   UNL A   1      46.730  31.014  29.641  1.00  0.00     0.029 A 
ATOM     28  N   UNL A   1      44.516  30.945  29.860  1.00  0.00    -0.354 N 
ATOM     29  N   UNL A   1      41.848  32.078  30.456  1.00  0.00    -0.248 NA
ATOM     30  C   UNL A   1      40.534  33.792  31.345  1.00  0.00     0.031 C 
ATOM     31  C   UNL A   1      46.294  32.231  30.171  1.00  0.00     0.029 A 
ATOM     32  C   UNL A   1      44.912  32.195  30.289  1.00  0.00     0.049 A 
ATOM     33  H   UNL A   1      43.585  30.625  29.830  1.00  0.00     0.167 HD
ATOM     34  C   UNL A   1      42.674  33.121  30.859  1.00  0.00     0.074 A 
ATOM     35  C   UNL A   1      41.808  34.158  31.381  1.00  0.00     0.031 C 
ATOM     36  C   UNL A   1      44.023  33.224  30.771  1.00  0.00     0.037 A 
BRANCH  23  37
ATOM     37  C   UNL A   1      46.822  28.122  28.643  1.00  0.00     0.058 A 
ATOM     38  C   UNL A   1      47.311  28.173  27.323  1.00  0.00     0.135 A 
ATOM     39  C   UNL A   1      47.501  27.318  29.566  1.00  0.00     0.135 A 
ATOM     40  F   UNL A   1      46.677  28.905  26.392  1.00  0.00    -0.206 F 
ATOM     41  C   UNL A   1      48.397  27.408  26.921  1.00  0.00     0.059 A 
ATOM     42  C   UNL A   1      48.613  26.569  29.192  1.00  0.00     0.059 A 
ATOM     43  F   UNL A   1      47.067  27.228  30.832  1.00  0.00    -0.206 F 
ATOM     44  C   UNL A   1      49.039  26.605  27.864  1.00  0.00     0.060 A 
BRANCH  44  45
ATOM     45  S   UNL A   1      50.436  25.604  27.320  1.00  0.00     0.124 S 
ATOM     46  O   UNL A   1      51.543  26.239  28.030  1.00  0.00    -0.237 OA
ATOM     47  O   UNL A   1      50.065  24.273  27.789  1.00  0.00    -0.237 OA
ATOM     48  O   UNL A   1      50.436  25.778  25.871  1.00  0.00    -0.744 OA
ENDBRANCH  44  45
ENDBRANCH  23  37
BRANCH  24  49
ATOM     49  C   UNL A   1      38.017  32.419  30.706  1.00  0.00     0.058 A 
ATOM     50  C   UNL A   1      37.387  33.377  29.897  1.00  0.00     0.135 A 
ATOM     51  C   UNL A   1      37.405  32.103  31.930  1.00  0.00     0.135 A 
ATOM     52  F   UNL A   1      37.935  33.724  28.723  1.00  0.00    -0.206 F 
ATOM     53  C   UNL A   1      36.218  34.024  30.296  1.00  0.00     0.059 A 
ATOM     54  C   UNL A   1      36.225  32.725  32.345  1.00  0.00     0.059 A 
ATOM     55  F   UNL A   1      37.958  31.190  32.743  1.00  0.00    -0.206 F 
ATOM     56  C   UNL A   1      35.645  33.693  31.525  1.00  0.00     0.060 A 
BRANCH  56  57
ATOM     57  S   UNL A   1      34.125  34.539  32.022  1.00  0.00     0.124 S 
ATOM     58  O   UNL A   1      34.643  35.798  32.547  1.00  0.00    -0.237 OA
ATOM     59  O   UNL A   1      33.402  34.625  30.757  1.00  0.00    -0.237 OA
ATOM     60  O   UNL A   1      33.544  33.636  33.010  1.00  0.00    -0.744 OA
ENDBRANCH  56  57
ENDBRANCH  24  49
BRANCH  36  61
ATOM     61  C   UNL A   1      44.653  34.527  31.168  1.00  0.00     0.058 A 
ATOM     62  C   UNL A   1      44.775  35.596  30.270  1.00  0.00     0.135 A 
ATOM     63  C   UNL A   1      45.038  34.736  32.503  1.00  0.00     0.135 A 
ATOM     64  F   UNL A   1      44.431  35.440  28.982  1.00  0.00    -0.206 F 
ATOM     65  C   UNL A   1      45.259  36.831  30.683  1.00  0.00     0.059 A 
ATOM     66  C   UNL A   1      45.491  35.972  32.945  1.00  0.00     0.059 A 
ATOM     67  F   UNL A   1      44.931  33.744  33.402  1.00  0.00    -0.206 F 
ATOM     68  C   UNL A   1      45.602  37.013  32.025  1.00  0.00     0.060 A 
BRANCH  68  69
ATOM     69  S   UNL A   1      46.146  38.647  32.563  1.00  0.00     0.124 S 
ATOM     70  O   UNL A   1      45.164  39.510  31.914  1.00  0.00    -0.237 OA
ATOM     71  O   UNL A   1      46.040  38.546  34.015  1.00  0.00    -0.237 OA
ATOM     72  O   UNL A   1      47.506  38.741  32.043  1.00  0.00    -0.744 OA
ENDBRANCH  68  69
ENDBRANCH  36  61
ENDBRANCH  10  11
ENDBRANCH   3   5
ENDBRANCH   2   3
ENDBRANCH   1   2
BRANCH   1  73
ATOM     73  C   UNL A   1      35.733  21.173  24.765  1.00  0.00     0.274 C 
BRANCH  73  74
ATOM     74  O   UNL A   1      34.642  21.787  24.047  1.00  0.00    -0.462 OA
BRANCH  74  75
ATOM     75  C   UNL A   1      34.895  23.014  23.512  1.00  0.00     0.312 C 
ATOM     76  O   UNL A   1      35.852  23.240  22.776  1.00  0.00    -0.252 OA
BRANCH  75  77
ATOM     77  C   UNL A   1      33.902  24.136  23.940  1.00  0.00     0.074 C 
ATOM     78  C   UNL A   1      34.494  25.225  24.822  1.00  0.00     0.019 C 
ATOM     79  C   UNL A   1      33.592  24.940  22.656  1.00  0.00     0.019 C 
ATOM     80  C   UNL A   1      33.767  26.520  24.506  1.00  0.00     0.001 C 
ATOM     81  C   UNL A   1      33.405  26.412  23.038  1.00  0.00     0.001 C 
BRANCH  77  82
ATOM     82  C   UNL A   1      32.678  23.405  24.619  1.00  0.00     0.051 C 
ATOM     83  C   UNL A   1      32.600  23.685  26.147  1.00  0.00     0.144 C 
ATOM     84  C   UNL A   1      31.228  23.565  24.102  1.00  0.00     0.134 C 
ATOM     85  S   UNL A   1      31.083  24.572  26.478  1.00  0.00     0.153 S 
ATOM     86  C   UNL A   1      30.563  24.741  24.799  1.00  0.00     0.169 C 
ATOM     87  O   UNL A   1      30.159  23.678  27.144  1.00  0.00    -0.229 OA
ATOM     88  O   UNL A   1      31.388  25.891  26.994  1.00  0.00    -0.229 OA
BRANCH  84  89
ATOM     89  O   UNL A   1      31.149  23.613  22.696  1.00  0.00    -0.392 OA
ATOM     90  H   UNL A   1      30.219  23.682  22.427  1.00  0.00     0.211 HD
ENDBRANCH  84  89
ENDBRANCH  77  82
ENDBRANCH  75  77
ENDBRANCH  74  75
ENDBRANCH  73  74
ENDBRANCH   1  73
TORSDOF 16
ENDMDL
MODEL 3
REMARK VINA RESULT:     -10.0      3.162      5.946
REMARK SMILES O=C(OCCOC(=O)C1([C@H]2CS(=O)(=O)C[C@H]2O)CCCC1)c1ccc(-c2c3nc(c(-c4c(F)cc(S(=O)(=O)[O-])cc4F)c4ccc([nH]4)c(-c4c(F)cc(S(=O)(=O)[O-])cc4F)c4nc(c(-c5c(F)cc(S(=O)(=O)[O-])cc5F)c5ccc2[nH]5)C=C4)C=C3)cc1
REMARK SMILES IDX 4 1 3 2 2 3 1 4 22 5 23 6 87 7 24 8 86 9 25 10 26 11 27 12
REMARK SMILES IDX 80 13 28 14 85 15 79 16 81 17 29 18 84 19 78 20 77 21 30 23
REMARK SMILES IDX 64 24 43 25 63 26 44 27 47 28 62 29 82 30 45 31 46 32 61 34
REMARK SMILES IDX 83 35 48 36 31 37 32 38 41 39 33 40 34 41 40 42 42 43 35 44
REMARK SMILES IDX 36 45 37 46 38 47 39 48 65 49 66 50 75 51 67 52 68 53 74 54
REMARK SMILES IDX 76 55 69 56 70 57 71 58 72 59 73 60 49 61 50 62 59 63 51 64
REMARK SMILES IDX 52 65 58 66 60 67 53 68 54 69 55 70 56 71 57 72 5 73 6 74
REMARK SMILES IDX 7 75 8 76 9 77 18 78 21 79 19 80 20 81 10 82 11 83 16 84
REMARK SMILES IDX 12 85 15 86 13 87 14 88 17 89
REMARK H PARENT 81 22 47 33 17 90
REMARK Flexibility Score: inf
ROOT
ATOM      1  C   UNL A   1      32.996  29.661  25.320  1.00  0.00     0.275 C 
ENDROOT
BRANCH   1   2
ATOM      2  O   UNL A   1      33.872  29.411  26.426  1.00  0.00    -0.458 OA
BRANCH   2   3
ATOM      3  C   UNL A   1      34.342  30.283  27.349  1.00  0.00     0.338 C 
ATOM      4  O   UNL A   1      33.802  31.384  27.439  1.00  0.00    -0.246 OA
BRANCH   3   5
ATOM      5  C   UNL A   1      35.599  30.043  28.127  1.00  0.00     0.060 A 
ATOM      6  C   UNL A   1      35.694  29.640  29.465  1.00  0.00     0.016 A 
ATOM      7  C   UNL A   1      36.790  30.200  27.410  1.00  0.00     0.016 A 
ATOM      8  C   UNL A   1      36.919  29.247  30.026  1.00  0.00     0.010 A 
ATOM      9  C   UNL A   1      38.009  29.795  27.958  1.00  0.00     0.010 A 
ATOM     10  C   UNL A   1      38.084  29.278  29.264  1.00  0.00    -0.014 A 
BRANCH  10  11
ATOM     11  C   UNL A   1      39.405  28.890  29.828  1.00  0.00     0.031 A 
ATOM     12  C   UNL A   1      40.006  29.820  30.842  1.00  0.00     0.074 A 
ATOM     13  C   UNL A   1      40.090  27.800  29.413  1.00  0.00     0.049 A 
ATOM     14  N   UNL A   1      41.181  29.780  31.406  1.00  0.00    -0.248 NA
ATOM     15  C   UNL A   1      39.174  30.964  31.263  1.00  0.00     0.031 C 
ATOM     16  C   UNL A   1      39.628  26.802  28.445  1.00  0.00     0.029 A 
ATOM     17  N   UNL A   1      41.370  27.383  29.708  1.00  0.00    -0.354 N 
ATOM     18  C   UNL A   1      41.195  30.855  32.281  1.00  0.00     0.074 A 
ATOM     19  C   UNL A   1      40.009  31.637  32.032  1.00  0.00     0.031 C 
ATOM     20  C   UNL A   1      40.638  25.962  28.148  1.00  0.00     0.029 A 
ATOM     21  C   UNL A   1      41.810  26.331  28.929  1.00  0.00     0.049 A 
ATOM     22  H   UNL A   1      41.920  27.797  30.411  1.00  0.00     0.167 HD
ATOM     23  C   UNL A   1      42.050  31.103  33.297  1.00  0.00     0.037 A 
ATOM     24  C   UNL A   1      43.023  25.742  28.855  1.00  0.00     0.037 A 
ATOM     25  C   UNL A   1      43.211  30.308  33.557  1.00  0.00     0.049 A 
ATOM     26  C   UNL A   1      44.065  26.142  29.870  1.00  0.00     0.074 A 
ATOM     27  C   UNL A   1      44.121  30.420  34.588  1.00  0.00     0.029 A 
ATOM     28  N   UNL A   1      43.625  29.252  32.758  1.00  0.00    -0.354 N 
ATOM     29  N   UNL A   1      43.998  27.075  30.790  1.00  0.00    -0.248 NA
ATOM     30  C   UNL A   1      45.314  25.368  29.891  1.00  0.00     0.031 C 
ATOM     31  C   UNL A   1      45.119  29.463  34.383  1.00  0.00     0.029 A 
ATOM     32  C   UNL A   1      44.800  28.722  33.254  1.00  0.00     0.049 A 
ATOM     33  H   UNL A   1      43.153  28.930  31.956  1.00  0.00     0.167 HD
ATOM     34  C   UNL A   1      45.150  26.938  31.556  1.00  0.00     0.074 A 
ATOM     35  C   UNL A   1      45.915  25.858  30.967  1.00  0.00     0.031 C 
ATOM     36  C   UNL A   1      45.523  27.621  32.667  1.00  0.00     0.037 A 
BRANCH  23  37
ATOM     37  C   UNL A   1      41.685  32.233  34.212  1.00  0.00     0.058 A 
ATOM     38  C   UNL A   1      40.809  32.028  35.296  1.00  0.00     0.135 A 
ATOM     39  C   UNL A   1      42.143  33.534  33.973  1.00  0.00     0.135 A 
ATOM     40  F   UNL A   1      40.316  30.804  35.547  1.00  0.00    -0.206 F 
ATOM     41  C   UNL A   1      40.360  33.084  36.076  1.00  0.00     0.059 A 
ATOM     42  C   UNL A   1      41.732  34.602  34.765  1.00  0.00     0.059 A 
ATOM     43  F   UNL A   1      42.969  33.782  32.946  1.00  0.00    -0.206 F 
ATOM     44  C   UNL A   1      40.824  34.369  35.799  1.00  0.00     0.060 A 
BRANCH  44  45
ATOM     45  S   UNL A   1      40.216  35.732  36.812  1.00  0.00     0.124 S 
ATOM     46  O   UNL A   1      41.434  36.147  37.502  1.00  0.00    -0.237 OA
ATOM     47  O   UNL A   1      39.710  36.662  35.808  1.00  0.00    -0.237 OA
ATOM     48  O   UNL A   1      39.201  35.104  37.652  1.00  0.00    -0.744 OA
ENDBRANCH  44  45
ENDBRANCH  23  37
BRANCH  24  49
ATOM     49  C   UNL A   1      43.315  24.672  27.855  1.00  0.00     0.058 A 
ATOM     50  C   UNL A   1      43.012  23.327  28.117  1.00  0.00     0.135 A 
ATOM     51  C   UNL A   1      43.961  24.964  26.642  1.00  0.00     0.135 A 
ATOM     52  F   UNL A   1      42.407  22.990  29.266  1.00  0.00    -0.206 F 
ATOM     53  C   UNL A   1      43.366  22.307  27.235  1.00  0.00     0.059 A 
ATOM     54  C   UNL A   1      44.310  23.963  25.734  1.00  0.00     0.059 A 
ATOM     55  F   UNL A   1      44.269  26.233  26.333  1.00  0.00    -0.206 F 
ATOM     56  C   UNL A   1      44.017  22.635  26.045  1.00  0.00     0.060 A 
BRANCH  56  57
ATOM     57  S   UNL A   1      44.462  21.297  24.910  1.00  0.00     0.124 S 
ATOM     58  O   UNL A   1      43.411  20.320  25.175  1.00  0.00    -0.237 OA
ATOM     59  O   UNL A   1      44.397  21.968  23.616  1.00  0.00    -0.237 OA
ATOM     60  O   UNL A   1      45.801  20.916  25.346  1.00  0.00    -0.744 OA
ENDBRANCH  56  57
ENDBRANCH  24  49
BRANCH  36  61
ATOM     61  C   UNL A   1      46.769  27.179  33.376  1.00  0.00     0.058 A 
ATOM     62  C   UNL A   1      46.754  26.152  34.330  1.00  0.00     0.135 A 
ATOM     63  C   UNL A   1      48.011  27.722  33.006  1.00  0.00     0.135 A 
ATOM     64  F   UNL A   1      45.591  25.610  34.723  1.00  0.00    -0.206 F 
ATOM     65  C   UNL A   1      47.932  25.679  34.896  1.00  0.00     0.059 A 
ATOM     66  C   UNL A   1      49.201  27.240  33.534  1.00  0.00     0.059 A 
ATOM     67  F   UNL A   1      48.075  28.702  32.090  1.00  0.00    -0.206 F 
ATOM     68  C   UNL A   1      49.151  26.221  34.482  1.00  0.00     0.060 A 
BRANCH  68  69
ATOM     69  S   UNL A   1      50.675  25.536  35.162  1.00  0.00     0.124 S 
ATOM     70  O   UNL A   1      50.386  24.105  35.143  1.00  0.00    -0.237 OA
ATOM     71  O   UNL A   1      51.675  25.993  34.202  1.00  0.00    -0.237 OA
ATOM     72  O   UNL A   1      50.760  26.143  36.486  1.00  0.00    -0.744 OA
ENDBRANCH  68  69
ENDBRANCH  36  61
ENDBRANCH  10  11
ENDBRANCH   3   5
ENDBRANCH   2   3
ENDBRANCH   1   2
BRANCH   1  73
ATOM     73  C   UNL A   1      31.547  29.210  25.528  1.00  0.00     0.274 C 
BRANCH  73  74
ATOM     74  O   UNL A   1      31.261  27.862  25.098  1.00  0.00    -0.462 OA
BRANCH  74  75
ATOM     75  C   UNL A   1      31.452  26.886  26.028  1.00  0.00     0.312 C 
ATOM     76  O   UNL A   1      31.046  26.972  27.184  1.00  0.00    -0.252 OA
BRANCH  75  77
ATOM     77  C   UNL A   1      32.270  25.655  25.532  1.00  0.00     0.074 C 
ATOM     78  C   UNL A   1      33.762  25.706  25.826  1.00  0.00     0.019 C 
ATOM     79  C   UNL A   1      31.839  24.471  26.428  1.00  0.00     0.019 C 
ATOM     80  C   UNL A   1      34.238  24.280  26.037  1.00  0.00     0.001 C 
ATOM     81  C   UNL A   1      33.052  23.562  26.648  1.00  0.00     0.001 C 
BRANCH  77  82
ATOM     82  C   UNL A   1      31.960  25.514  23.990  1.00  0.00     0.051 C 
ATOM     83  C   UNL A   1      33.237  25.681  23.116  1.00  0.00     0.144 C 
ATOM     84  C   UNL A   1      31.224  24.285  23.403  1.00  0.00     0.134 C 
ATOM     85  S   UNL A   1      33.542  24.138  22.268  1.00  0.00     0.153 S 
ATOM     86  C   UNL A   1      32.236  23.218  23.020  1.00  0.00     0.169 C 
ATOM     87  O   UNL A   1      33.219  24.307  20.867  1.00  0.00    -0.229 OA
ATOM     88  O   UNL A   1      34.804  23.577  22.706  1.00  0.00    -0.229 OA
BRANCH  84  89
ATOM     89  O   UNL A   1      30.185  23.820  24.233  1.00  0.00    -0.392 OA
ATOM     90  H   UNL A   1      29.781  23.033  23.834  1.00  0.00     0.211 HD
ENDBRANCH  84  89
ENDBRANCH  77  82
ENDBRANCH  75  77
ENDBRANCH  74  75
ENDBRANCH  73  74
ENDBRANCH   1  73
TORSDOF 16
ENDMDL
