MODEL 1
REMARK VINA RESULT:     -12.0      0.000      0.000
REMARK SMILES Cc1noc(-c2ccc(CCl)cc2)c1C(=O)OCCOC(=O)c1ccc(-c2c3nc(c(-c4c(F)cc(S(=O)(=O)[O-])cc4F)c4ccc([nH]4)c(-c4c(F)cc(S(=O)(=O)[O-])cc4F)c4nc(c(-c5c(F)cc(S(=O)(=O)[O-])cc5F)c5ccc2[nH]5)C=C4)C=C3)cc1
REMARK SMILES IDX 19 1 18 2 17 3 15 4 16 5 14 6 1 7 2 8 3 9 4 10 5 11 6 12
REMARK SMILES IDX 7 13 13 14 8 15 12 16 9 17 10 18 11 19 20 20 21 21 22 22
REMARK SMILES IDX 23 23 24 24 88 25 25 26 87 27 26 28 27 29 28 30 81 31 29 32
REMARK SMILES IDX 86 33 80 34 82 35 30 36 85 37 79 38 78 39 31 41 65 42 44 43
REMARK SMILES IDX 64 44 45 45 48 46 63 47 83 48 46 49 47 50 62 52 84 53 49 54
REMARK SMILES IDX 32 55 33 56 42 57 34 58 35 59 41 60 43 61 36 62 37 63 38 64
REMARK SMILES IDX 39 65 40 66 66 67 67 68 76 69 68 70 69 71 75 72 77 73 70 74
REMARK SMILES IDX 71 75 72 76 73 77 74 78 50 79 51 80 60 81 52 82 53 83 59 84
REMARK SMILES IDX 61 85 54 86 55 87 56 88 57 89 58 90
REMARK H PARENT 82 40 48 51
REMARK Flexibility Score: inf
ROOT
ATOM      1  C   UNL A   1      38.293  22.151  25.828  1.00  0.00     0.275 C 
ENDROOT
BRANCH   1   2
ATOM      2  C   UNL A   1      37.331  21.900  24.659  1.00  0.00     0.275 C 
BRANCH   2   3
ATOM      3  O   UNL A   1      35.965  21.714  25.125  1.00  0.00    -0.458 OA
BRANCH   3   4
ATOM      4  C   UNL A   1      34.943  21.988  24.253  1.00  0.00     0.344 C 
ATOM      5  O   UNL A   1      35.055  22.762  23.309  1.00  0.00    -0.246 OA
BRANCH   4   6
ATOM      6  C   UNL A   1      33.683  21.314  24.586  1.00  0.00     0.130 A 
ATOM      7  C   UNL A   1      34.616  18.893  24.592  1.00  0.00     0.071 C 
ATOM      8  C   UNL A   1      33.568  19.924  24.804  1.00  0.00     0.096 A 
ATOM      9  N   UNL A   1      32.363  19.597  25.287  1.00  0.00    -0.084 NA
ATOM     10  O   UNL A   1      31.629  20.779  25.323  1.00  0.00    -0.355 OA
ATOM     11  C   UNL A   1      32.393  21.805  24.861  1.00  0.00     0.181 A 
BRANCH  11  12
ATOM     12  C   UNL A   1      31.769  23.192  24.912  1.00  0.00     0.021 A 
ATOM     13  C   UNL A   1      32.758  24.103  26.021  1.00  0.00     0.012 A 
ATOM     14  C   UNL A   1      31.189  23.857  23.375  1.00  0.00     0.012 A 
ATOM     15  C   UNL A   1      33.468  25.612  25.633  1.00  0.00     0.006 A 
ATOM     16  C   UNL A   1      31.786  25.491  22.829  1.00  0.00     0.006 A 
ATOM     17  C   UNL A   1      33.075  26.469  24.063  1.00  0.00    -0.033 A 
BRANCH  17  18
ATOM     18  C   UNL A   1      33.765  27.812  24.343  1.00  0.00     0.145 C 
ATOM     19  Cl  UNL A   1      34.169  28.657  22.727  1.00  0.00    -0.122 Cl
ENDBRANCH  17  18
ENDBRANCH  11  12
ENDBRANCH   4   6
ENDBRANCH   3   4
ENDBRANCH   2   3
ENDBRANCH   1   2
BRANCH   1  20
ATOM     20  O   UNL A   1      38.836  23.477  25.715  1.00  0.00    -0.458 OA
BRANCH  20  21
ATOM     21  C   UNL A   1      39.802  23.722  26.619  1.00  0.00     0.338 C 
ATOM     22  O   UNL A   1      40.830  23.084  26.790  1.00  0.00    -0.246 OA
BRANCH  21  23
ATOM     23  C   UNL A   1      39.597  25.045  27.216  1.00  0.00     0.060 A 
ATOM     24  C   UNL A   1      40.894  26.177  26.805  1.00  0.00     0.016 A 
ATOM     25  C   UNL A   1      38.785  25.236  28.714  1.00  0.00     0.016 A 
ATOM     26  C   UNL A   1      41.432  27.644  28.102  1.00  0.00     0.010 A 
ATOM     27  C   UNL A   1      39.170  26.500  29.876  1.00  0.00     0.010 A 
ATOM     28  C   UNL A   1      40.430  27.732  29.657  1.00  0.00    -0.014 A 
BRANCH  28  29
ATOM     29  C   UNL A   1      40.383  28.730  30.817  1.00  0.00     0.031 A 
ATOM     30  C   UNL A   1      41.360  28.588  31.964  1.00  0.00     0.074 A 
ATOM     31  C   UNL A   1      39.270  29.433  31.191  1.00  0.00     0.049 A 
ATOM     32  N   UNL A   1      41.510  29.358  33.011  1.00  0.00    -0.248 NA
ATOM     33  C   UNL A   1      42.181  27.367  32.008  1.00  0.00     0.031 C 
ATOM     34  C   UNL A   1      37.912  29.256  30.734  1.00  0.00     0.029 A 
ATOM     35  N   UNL A   1      39.124  30.609  31.902  1.00  0.00    -0.354 N 
ATOM     36  C   UNL A   1      42.436  28.728  33.831  1.00  0.00     0.074 A 
ATOM     37  C   UNL A   1      42.797  27.489  33.180  1.00  0.00     0.031 C 
ATOM     38  C   UNL A   1      37.284  30.432  30.662  1.00  0.00     0.029 A 
ATOM     39  C   UNL A   1      38.015  31.351  31.484  1.00  0.00     0.049 A 
ATOM     40  H   UNL A   1      39.732  30.894  32.622  1.00  0.00     0.167 HD
ATOM     41  C   UNL A   1      42.908  29.160  35.027  1.00  0.00     0.037 A 
ATOM     42  C   UNL A   1      37.551  32.582  31.778  1.00  0.00     0.037 A 
ATOM     43  C   UNL A   1      42.423  30.368  35.657  1.00  0.00     0.049 A 
ATOM     44  C   UNL A   1      38.206  33.170  32.974  1.00  0.00     0.074 A 
ATOM     45  C   UNL A   1      42.832  30.954  36.840  1.00  0.00     0.029 A 
ATOM     46  N   UNL A   1      41.388  31.159  35.159  1.00  0.00    -0.354 N 
ATOM     47  N   UNL A   1      39.203  32.658  33.655  1.00  0.00    -0.248 NA
ATOM     48  C   UNL A   1      37.637  34.395  33.530  1.00  0.00     0.031 C 
ATOM     49  C   UNL A   1      42.004  32.055  37.089  1.00  0.00     0.029 A 
ATOM     50  C   UNL A   1      41.134  32.215  36.019  1.00  0.00     0.049 A 
ATOM     51  H   UNL A   1      40.907  30.993  34.316  1.00  0.00     0.167 HD
ATOM     52  C   UNL A   1      39.352  33.459  34.758  1.00  0.00     0.074 A 
ATOM     53  C   UNL A   1      38.399  34.551  34.605  1.00  0.00     0.031 C 
ATOM     54  C   UNL A   1      40.169  33.272  35.821  1.00  0.00     0.037 A 
BRANCH  41  55
ATOM     55  C   UNL A   1      43.961  28.329  35.724  1.00  0.00     0.058 A 
ATOM     56  C   UNL A   1      43.621  27.302  36.624  1.00  0.00     0.135 A 
ATOM     57  C   UNL A   1      45.329  28.524  35.465  1.00  0.00     0.135 A 
ATOM     58  F   UNL A   1      42.334  27.066  36.925  1.00  0.00    -0.206 F 
ATOM     59  C   UNL A   1      44.590  26.524  37.256  1.00  0.00     0.059 A 
ATOM     60  C   UNL A   1      46.316  27.739  36.062  1.00  0.00     0.059 A 
ATOM     61  F   UNL A   1      45.726  29.490  34.622  1.00  0.00    -0.206 F 
ATOM     62  C   UNL A   1      45.937  26.746  36.965  1.00  0.00     0.060 A 
BRANCH  62  63
ATOM     63  S   UNL A   1      47.179  25.714  37.778  1.00  0.00     0.124 S 
ATOM     64  O   UNL A   1      47.277  26.348  39.089  1.00  0.00    -0.237 OA
ATOM     65  O   UNL A   1      46.549  24.398  37.756  1.00  0.00    -0.237 OA
ATOM     66  O   UNL A   1      48.354  25.859  36.925  1.00  0.00    -0.744 OA
ENDBRANCH  62  63
ENDBRANCH  41  55
BRANCH  42  67
ATOM     67  C   UNL A   1      36.416  33.243  31.037  1.00  0.00     0.058 A 
ATOM     68  C   UNL A   1      35.157  33.396  31.646  1.00  0.00     0.135 A 
ATOM     69  C   UNL A   1      36.557  33.824  29.760  1.00  0.00     0.135 A 
ATOM     70  F   UNL A   1      34.922  32.836  32.843  1.00  0.00    -0.206 F 
ATOM     71  C   UNL A   1      34.117  34.117  31.048  1.00  0.00     0.059 A 
ATOM     72  C   UNL A   1      35.559  34.605  29.174  1.00  0.00     0.059 A 
ATOM     73  F   UNL A   1      37.699  33.678  29.071  1.00  0.00    -0.206 F 
ATOM     74  C   UNL A   1      34.335  34.739  29.819  1.00  0.00     0.060 A 
BRANCH  74  75
ATOM     75  S   UNL A   1      33.015  35.728  29.076  1.00  0.00     0.124 S 
ATOM     76  O   UNL A   1      32.402  34.765  28.168  1.00  0.00    -0.237 OA
ATOM     77  O   UNL A   1      32.216  36.110  30.235  1.00  0.00    -0.237 OA
ATOM     78  O   UNL A   1      33.734  36.825  28.434  1.00  0.00    -0.744 OA
ENDBRANCH  74  75
ENDBRANCH  42  67
BRANCH  54  79
ATOM     79  C   UNL A   1      40.075  34.331  36.862  1.00  0.00     0.058 A 
ATOM     80  C   UNL A   1      39.144  34.254  37.908  1.00  0.00     0.135 A 
ATOM     81  C   UNL A   1      40.910  35.450  36.774  1.00  0.00     0.135 A 
ATOM     82  F   UNL A   1      38.307  33.208  38.000  1.00  0.00    -0.206 F 
ATOM     83  C   UNL A   1      39.020  35.287  38.821  1.00  0.00     0.059 A 
ATOM     84  C   UNL A   1      40.833  36.472  37.702  1.00  0.00     0.059 A 
ATOM     85  F   UNL A   1      41.806  35.554  35.778  1.00  0.00    -0.206 F 
ATOM     86  C   UNL A   1      39.874  36.386  38.711  1.00  0.00     0.060 A 
BRANCH  86  87
ATOM     87  S   UNL A   1      39.723  37.706  39.923  1.00  0.00     0.124 S 
ATOM     88  O   UNL A   1      40.995  38.402  39.756  1.00  0.00    -0.237 OA
ATOM     89  O   UNL A   1      38.539  38.418  39.454  1.00  0.00    -0.237 OA
ATOM     90  O   UNL A   1      39.559  36.990  41.185  1.00  0.00    -0.744 OA
ENDBRANCH  86  87
ENDBRANCH  54  79
ENDBRANCH  28  29
ENDBRANCH  21  23
ENDBRANCH  20  21
ENDBRANCH   1  20
TORSDOF 16
ENDMDL
MODEL 2
REMARK VINA RESULT:     -11.7      7.071     12.488
REMARK SMILES Cc1noc(-c2ccc(CCl)cc2)c1C(=O)OCCOC(=O)c1ccc(-c2c3nc(c(-c4c(F)cc(S(=O)(=O)[O-])cc4F)c4ccc([nH]4)c(-c4c(F)cc(S(=O)(=O)[O-])cc4F)c4nc(c(-c5c(F)cc(S(=O)(=O)[O-])cc5F)c5ccc2[nH]5)C=C4)C=C3)cc1
REMARK SMILES IDX 19 1 18 2 17 3 15 4 16 5 14 6 1 7 2 8 3 9 4 10 5 11 6 12
REMARK SMILES IDX 7 13 13 14 8 15 12 16 9 17 10 18 11 19 20 20 21 21 22 22
REMARK SMILES IDX 23 23 24 24 88 25 25 26 87 27 26 28 27 29 28 30 81 31 29 32
REMARK SMILES IDX 86 33 80 34 82 35 30 36 85 37 79 38 78 39 31 41 65 42 44 43
REMARK SMILES IDX 64 44 45 45 48 46 63 47 83 48 46 49 47 50 62 52 84 53 49 54
REMARK SMILES IDX 32 55 33 56 42 57 34 58 35 59 41 60 43 61 36 62 37 63 38 64
REMARK SMILES IDX 39 65 40 66 66 67 67 68 76 69 68 70 69 71 75 72 77 73 70 74
REMARK SMILES IDX 71 75 72 76 73 77 74 78 50 79 51 80 60 81 52 82 53 83 59 84
REMARK SMILES IDX 61 85 54 86 55 87 56 88 57 89 58 90
REMARK H PARENT 82 40 48 51
REMARK Flexibility Score: inf
ROOT
ATOM      1  C   UNL A   1      34.141  29.842  27.025  1.00  0.00     0.275 C 
ENDROOT
BRANCH   1   2
ATOM      2  C   UNL A   1      33.240  28.609  26.869  1.00  0.00     0.275 C 
BRANCH   2   3
ATOM      3  O   UNL A   1      33.734  27.717  25.830  1.00  0.00    -0.458 OA
BRANCH   3   4
ATOM      4  C   UNL A   1      32.834  26.896  25.203  1.00  0.00     0.344 C 
ATOM      5  O   UNL A   1      31.811  26.485  25.740  1.00  0.00    -0.246 OA
BRANCH   4   6
ATOM      6  C   UNL A   1      33.232  26.507  23.846  1.00  0.00     0.130 A 
ATOM      7  C   UNL A   1      32.864  28.823  22.736  1.00  0.00     0.071 C 
ATOM      8  C   UNL A   1      33.307  27.406  22.759  1.00  0.00     0.096 A 
ATOM      9  N   UNL A   1      33.886  26.844  21.691  1.00  0.00    -0.084 NA
ATOM     10  O   UNL A   1      34.136  25.520  22.040  1.00  0.00    -0.355 OA
ATOM     11  C   UNL A   1      33.705  25.294  23.311  1.00  0.00     0.181 A 
BRANCH  11  12
ATOM     12  C   UNL A   1      33.980  23.913  23.885  1.00  0.00     0.021 A 
ATOM     13  C   UNL A   1      35.375  23.322  23.022  1.00  0.00     0.012 A 
ATOM     14  C   UNL A   1      33.786  23.729  25.637  1.00  0.00     0.012 A 
ATOM     15  C   UNL A   1      36.788  22.744  23.796  1.00  0.00     0.006 A 
ATOM     16  C   UNL A   1      35.169  23.062  26.621  1.00  0.00     0.006 A 
ATOM     17  C   UNL A   1      36.856  22.533  25.614  1.00  0.00    -0.033 A 
BRANCH  17  18
ATOM     18  C   UNL A   1      38.200  21.797  25.720  1.00  0.00     0.145 C 
ATOM     19  Cl  UNL A   1      39.456  22.906  26.546  1.00  0.00    -0.122 Cl
ENDBRANCH  17  18
ENDBRANCH  11  12
ENDBRANCH   4   6
ENDBRANCH   3   4
ENDBRANCH   2   3
ENDBRANCH   1   2
BRANCH   1  20
ATOM     20  O   UNL A   1      34.532  29.970  28.402  1.00  0.00    -0.458 OA
BRANCH  20  21
ATOM     21  C   UNL A   1      35.654  30.695  28.559  1.00  0.00     0.338 C 
ATOM     22  O   UNL A   1      35.732  31.868  28.893  1.00  0.00    -0.246 OA
BRANCH  21  23
ATOM     23  C   UNL A   1      36.821  29.809  28.542  1.00  0.00     0.060 A 
ATOM     24  C   UNL A   1      37.595  29.684  30.129  1.00  0.00     0.016 A 
ATOM     25  C   UNL A   1      37.793  29.635  27.140  1.00  0.00     0.016 A 
ATOM     26  C   UNL A   1      39.597  29.381  30.280  1.00  0.00     0.010 A 
ATOM     27  C   UNL A   1      39.526  29.338  27.187  1.00  0.00     0.010 A 
ATOM     28  C   UNL A   1      40.490  29.178  28.671  1.00  0.00    -0.014 A 
BRANCH  28  29
ATOM     29  C   UNL A   1      41.930  28.801  28.312  1.00  0.00     0.031 A 
ATOM     30  C   UNL A   1      43.011  29.858  28.351  1.00  0.00     0.074 A 
ATOM     31  C   UNL A   1      42.278  27.758  27.497  1.00  0.00     0.049 A 
ATOM     32  N   UNL A   1      44.293  29.726  28.130  1.00  0.00    -0.248 NA
ATOM     33  C   UNL A   1      42.586  31.256  28.537  1.00  0.00     0.031 C 
ATOM     34  C   UNL A   1      41.413  26.947  26.673  1.00  0.00     0.029 A 
ATOM     35  N   UNL A   1      43.453  27.040  27.378  1.00  0.00    -0.354 N 
ATOM     36  C   UNL A   1      44.829  31.007  28.152  1.00  0.00     0.074 A 
ATOM     37  C   UNL A   1      43.729  31.917  28.378  1.00  0.00     0.031 C 
ATOM     38  C   UNL A   1      41.851  25.686  26.634  1.00  0.00     0.029 A 
ATOM     39  C   UNL A   1      43.229  25.705  27.027  1.00  0.00     0.049 A 
ATOM     40  H   UNL A   1      44.348  27.424  27.524  1.00  0.00     0.167 HD
ATOM     41  C   UNL A   1      46.126  31.362  27.975  1.00  0.00     0.037 A 
ATOM     42  C   UNL A   1      44.024  24.621  26.923  1.00  0.00     0.037 A 
ATOM     43  C   UNL A   1      47.155  30.396  27.658  1.00  0.00     0.049 A 
ATOM     44  C   UNL A   1      45.468  24.967  26.936  1.00  0.00     0.074 A 
ATOM     45  C   UNL A   1      48.512  30.596  27.492  1.00  0.00     0.029 A 
ATOM     46  N   UNL A   1      46.922  29.041  27.425  1.00  0.00    -0.354 N 
ATOM     47  N   UNL A   1      45.989  26.155  27.131  1.00  0.00    -0.248 NA
ATOM     48  C   UNL A   1      46.424  23.915  26.602  1.00  0.00     0.031 C 
ATOM     49  C   UNL A   1      49.085  29.382  27.096  1.00  0.00     0.029 A 
ATOM     50  C   UNL A   1      48.105  28.399  27.100  1.00  0.00     0.049 A 
ATOM     51  H   UNL A   1      46.042  28.602  27.483  1.00  0.00     0.167 HD
ATOM     52  C   UNL A   1      47.332  26.018  26.886  1.00  0.00     0.074 A 
ATOM     53  C   UNL A   1      47.559  24.603  26.621  1.00  0.00     0.031 C 
ATOM     54  C   UNL A   1      48.275  26.988  26.838  1.00  0.00     0.037 A 
BRANCH  41  55
ATOM     55  C   UNL A   1      46.491  32.824  28.096  1.00  0.00     0.058 A 
ATOM     56  C   UNL A   1      46.353  33.716  27.017  1.00  0.00     0.135 A 
ATOM     57  C   UNL A   1      46.946  33.361  29.314  1.00  0.00     0.135 A 
ATOM     58  F   UNL A   1      45.933  33.270  25.822  1.00  0.00    -0.206 F 
ATOM     59  C   UNL A   1      46.674  35.067  27.131  1.00  0.00     0.059 A 
ATOM     60  C   UNL A   1      47.246  34.715  29.460  1.00  0.00     0.059 A 
ATOM     61  F   UNL A   1      47.108  32.567  30.384  1.00  0.00    -0.206 F 
ATOM     62  C   UNL A   1      47.116  35.561  28.359  1.00  0.00     0.060 A 
BRANCH  62  63
ATOM     63  S   UNL A   1      47.508  37.320  28.494  1.00  0.00     0.124 S 
ATOM     64  O   UNL A   1      46.912  37.658  29.784  1.00  0.00    -0.237 OA
ATOM     65  O   UNL A   1      48.967  37.315  28.452  1.00  0.00    -0.237 OA
ATOM     66  O   UNL A   1      46.852  37.906  27.330  1.00  0.00    -0.744 OA
ENDBRANCH  62  63
ENDBRANCH  41  55
BRANCH  42  67
ATOM     67  C   UNL A   1      43.501  23.223  26.708  1.00  0.00     0.058 A 
ATOM     68  C   UNL A   1      43.653  22.586  25.463  1.00  0.00     0.135 A 
ATOM     69  C   UNL A   1      42.931  22.441  27.733  1.00  0.00     0.135 A 
ATOM     70  F   UNL A   1      44.146  23.271  24.418  1.00  0.00    -0.206 F 
ATOM     71  C   UNL A   1      43.302  21.247  25.257  1.00  0.00     0.059 A 
ATOM     72  C   UNL A   1      42.638  21.086  27.573  1.00  0.00     0.059 A 
ATOM     73  F   UNL A   1      42.688  22.978  28.940  1.00  0.00    -0.206 F 
ATOM     74  C   UNL A   1      42.815  20.496  26.326  1.00  0.00     0.060 A 
BRANCH  74  75
ATOM     75  S   UNL A   1      42.426  18.746  26.081  1.00  0.00     0.124 S 
ATOM     76  O   UNL A   1      41.025  18.811  25.679  1.00  0.00    -0.237 OA
ATOM     77  O   UNL A   1      43.371  18.356  25.041  1.00  0.00    -0.237 OA
ATOM     78  O   UNL A   1      42.675  18.157  27.394  1.00  0.00    -0.744 OA
ENDBRANCH  74  75
ENDBRANCH  42  67
BRANCH  54  79
ATOM     79  C   UNL A   1      49.645  26.497  26.532  1.00  0.00     0.058 A 
ATOM     80  C   UNL A   1      50.506  26.040  27.541  1.00  0.00     0.135 A 
ATOM     81  C   UNL A   1      50.102  26.525  25.209  1.00  0.00     0.135 A 
ATOM     82  F   UNL A   1      50.108  26.031  28.824  1.00  0.00    -0.206 F 
ATOM     83  C   UNL A   1      51.803  25.661  27.246  1.00  0.00     0.059 A 
ATOM     84  C   UNL A   1      51.379  26.109  24.886  1.00  0.00     0.059 A 
ATOM     85  F   UNL A   1      49.301  26.965  24.224  1.00  0.00    -0.206 F 
ATOM     86  C   UNL A   1      52.226  25.694  25.915  1.00  0.00     0.060 A 
BRANCH  86  87
ATOM     87  S   UNL A   1      53.904  25.167  25.541  1.00  0.00     0.124 S 
ATOM     88  O   UNL A   1      54.658  25.819  26.608  1.00  0.00    -0.237 OA
ATOM     89  O   UNL A   1      53.795  23.715  25.632  1.00  0.00    -0.237 OA
ATOM     90  O   UNL A   1      54.133  25.692  24.198  1.00  0.00    -0.744 OA
ENDBRANCH  86  87
ENDBRANCH  54  79
ENDBRANCH  28  29
ENDBRANCH  21  23
ENDBRANCH  20  21
ENDBRANCH   1  20
TORSDOF 16
ENDMDL
MODEL 3
REMARK VINA RESULT:     -11.5      6.927     11.572
REMARK SMILES Cc1noc(-c2ccc(CCl)cc2)c1C(=O)OCCOC(=O)c1ccc(-c2c3nc(c(-c4c(F)cc(S(=O)(=O)[O-])cc4F)c4ccc([nH]4)c(-c4c(F)cc(S(=O)(=O)[O-])cc4F)c4nc(c(-c5c(F)cc(S(=O)(=O)[O-])cc5F)c5ccc2[nH]5)C=C4)C=C3)cc1
REMARK SMILES IDX 19 1 18 2 17 3 15 4 16 5 14 6 1 7 2 8 3 9 4 10 5 11 6 12
REMARK SMILES IDX 7 13 13 14 8 15 12 16 9 17 10 18 11 19 20 20 21 21 22 22
REMARK SMILES IDX 23 23 24 24 88 25 25 26 87 27 26 28 27 29 28 30 81 31 29 32
REMARK SMILES IDX 86 33 80 34 82 35 30 36 85 37 79 38 78 39 31 41 65 42 44 43
REMARK SMILES IDX 64 44 45 45 48 46 63 47 83 48 46 49 47 50 62 52 84 53 49 54
REMARK SMILES IDX 32 55 33 56 42 57 34 58 35 59 41 60 43 61 36 62 37 63 38 64
REMARK SMILES IDX 39 65 40 66 66 67 67 68 76 69 68 70 69 71 75 72 77 73 70 74
REMARK SMILES IDX 71 75 72 76 73 77 74 78 50 79 51 80 60 81 52 82 53 83 59 84
REMARK SMILES IDX 61 85 54 86 55 87 56 88 57 89 58 90
REMARK H PARENT 82 40 48 51
REMARK Flexibility Score: inf
ROOT
ATOM      1  C   UNL A   1      33.246  30.916  27.162  1.00  0.00     0.275 C 
ENDROOT
BRANCH   1   2
ATOM      2  C   UNL A   1      31.993  30.101  26.811  1.00  0.00     0.275 C 
BRANCH   2   3
ATOM      3  O   UNL A   1      32.193  29.312  25.605  1.00  0.00    -0.458 OA
BRANCH   3   4
ATOM      4  C   UNL A   1      31.356  28.249  25.384  1.00  0.00     0.344 C 
ATOM      5  O   UNL A   1      31.051  27.441  26.254  1.00  0.00    -0.246 OA
BRANCH   4   6
ATOM      6  C   UNL A   1      30.901  28.132  23.994  1.00  0.00     0.130 A 
ATOM      7  C   UNL A   1      29.768  30.460  23.839  1.00  0.00     0.071 C 
ATOM      8  C   UNL A   1      30.247  29.166  23.290  1.00  0.00     0.096 A 
ATOM      9  N   UNL A   1      30.122  28.877  21.989  1.00  0.00    -0.084 NA
ATOM     10  O   UNL A   1      30.632  27.592  21.829  1.00  0.00    -0.355 OA
ATOM     11  C   UNL A   1      31.058  27.117  23.031  1.00  0.00     0.181 A 
BRANCH  11  12
ATOM     12  C   UNL A   1      31.725  25.750  23.023  1.00  0.00     0.021 A 
ATOM     13  C   UNL A   1      33.371  26.037  23.523  1.00  0.00     0.012 A 
ATOM     14  C   UNL A   1      30.761  24.392  23.629  1.00  0.00     0.012 A 
ATOM     15  C   UNL A   1      34.122  25.204  24.817  1.00  0.00     0.006 A 
ATOM     16  C   UNL A   1      31.432  23.347  24.963  1.00  0.00     0.006 A 
ATOM     17  C   UNL A   1      33.292  23.802  25.653  1.00  0.00    -0.033 A 
BRANCH  17  18
ATOM     18  C   UNL A   1      34.462  23.311  26.518  1.00  0.00     0.145 C 
ATOM     19  Cl  UNL A   1      33.891  21.896  27.597  1.00  0.00    -0.122 Cl
ENDBRANCH  17  18
ENDBRANCH  11  12
ENDBRANCH   4   6
ENDBRANCH   3   4
ENDBRANCH   2   3
ENDBRANCH   1   2
BRANCH   1  20
ATOM     20  O   UNL A   1      33.932  30.280  28.253  1.00  0.00    -0.458 OA
BRANCH  20  21
ATOM     21  C   UNL A   1      35.004  30.977  28.671  1.00  0.00     0.338 C 
ATOM     22  O   UNL A   1      35.005  32.075  29.207  1.00  0.00    -0.246 OA
BRANCH  21  23
ATOM     23  C   UNL A   1      36.192  30.119  28.649  1.00  0.00     0.060 A 
ATOM     24  C   UNL A   1      36.989  30.033  30.227  1.00  0.00     0.016 A 
ATOM     25  C   UNL A   1      37.148  29.949  27.236  1.00  0.00     0.016 A 
ATOM     26  C   UNL A   1      39.000  29.779  30.354  1.00  0.00     0.010 A 
ATOM     27  C   UNL A   1      38.888  29.693  27.263  1.00  0.00     0.010 A 
ATOM     28  C   UNL A   1      39.876  29.576  28.735  1.00  0.00    -0.014 A 
BRANCH  28  29
ATOM     29  C   UNL A   1      41.319  29.227  28.362  1.00  0.00     0.031 A 
ATOM     30  C   UNL A   1      41.661  27.813  27.947  1.00  0.00     0.074 A 
ATOM     31  C   UNL A   1      42.422  29.897  28.818  1.00  0.00     0.049 A 
ATOM     32  N   UNL A   1      42.811  27.333  27.549  1.00  0.00    -0.248 NA
ATOM     33  C   UNL A   1      40.622  26.784  28.119  1.00  0.00     0.031 C 
ATOM     34  C   UNL A   1      42.486  30.899  29.855  1.00  0.00     0.029 A 
ATOM     35  N   UNL A   1      43.706  29.998  28.316  1.00  0.00    -0.354 N 
ATOM     36  C   UNL A   1      42.640  25.962  27.418  1.00  0.00     0.074 A 
ATOM     37  C   UNL A   1      41.280  25.671  27.811  1.00  0.00     0.031 C 
ATOM     38  C   UNL A   1      43.409  31.819  29.561  1.00  0.00     0.029 A 
ATOM     39  C   UNL A   1      44.289  31.238  28.591  1.00  0.00     0.049 A 
ATOM     40  H   UNL A   1      44.160  29.277  27.822  1.00  0.00     0.167 HD
ATOM     41  C   UNL A   1      43.563  25.048  27.025  1.00  0.00     0.037 A 
ATOM     42  C   UNL A   1      45.437  31.834  28.211  1.00  0.00     0.037 A 
ATOM     43  C   UNL A   1      44.934  25.410  26.739  1.00  0.00     0.049 A 
ATOM     44  C   UNL A   1      46.393  30.887  27.581  1.00  0.00     0.074 A 
ATOM     45  C   UNL A   1      45.967  24.609  26.293  1.00  0.00     0.029 A 
ATOM     46  N   UNL A   1      45.467  26.687  26.912  1.00  0.00    -0.354 N 
ATOM     47  N   UNL A   1      46.174  29.626  27.296  1.00  0.00    -0.248 NA
ATOM     48  C   UNL A   1      47.754  31.355  27.335  1.00  0.00     0.031 C 
ATOM     49  C   UNL A   1      47.133  25.382  26.258  1.00  0.00     0.029 A 
ATOM     50  C   UNL A   1      46.816  26.690  26.597  1.00  0.00     0.049 A 
ATOM     51  H   UNL A   1      44.958  27.474  27.213  1.00  0.00     0.167 HD
ATOM     52  C   UNL A   1      47.384  29.120  26.889  1.00  0.00     0.074 A 
ATOM     53  C   UNL A   1      48.314  30.242  26.876  1.00  0.00     0.031 C 
ATOM     54  C   UNL A   1      47.698  27.835  26.606  1.00  0.00     0.037 A 
BRANCH  41  55
ATOM     55  C   UNL A   1      43.134  23.604  26.903  1.00  0.00     0.058 A 
ATOM     56  C   UNL A   1      42.974  22.979  25.653  1.00  0.00     0.135 A 
ATOM     57  C   UNL A   1      42.917  22.812  28.045  1.00  0.00     0.135 A 
ATOM     58  F   UNL A   1      43.155  23.678  24.521  1.00  0.00    -0.206 F 
ATOM     59  C   UNL A   1      42.593  21.643  25.539  1.00  0.00     0.059 A 
ATOM     60  C   UNL A   1      42.565  21.465  27.956  1.00  0.00     0.059 A 
ATOM     61  F   UNL A   1      43.045  23.344  29.270  1.00  0.00    -0.206 F 
ATOM     62  C   UNL A   1      42.396  20.891  26.697  1.00  0.00     0.060 A 
BRANCH  62  63
ATOM     63  S   UNL A   1      41.923  19.154  26.531  1.00  0.00     0.124 S 
ATOM     64  O   UNL A   1      42.638  18.768  25.318  1.00  0.00    -0.237 OA
ATOM     65  O   UNL A   1      42.424  18.576  27.773  1.00  0.00    -0.237 OA
ATOM     66  O   UNL A   1      40.469  19.206  26.408  1.00  0.00    -0.744 OA
ENDBRANCH  62  63
ENDBRANCH  41  55
BRANCH  42  67
ATOM     67  C   UNL A   1      45.758  33.280  28.493  1.00  0.00     0.058 A 
ATOM     68  C   UNL A   1      46.489  33.640  29.640  1.00  0.00     0.135 A 
ATOM     69  C   UNL A   1      45.446  34.331  27.607  1.00  0.00     0.135 A 
ATOM     70  F   UNL A   1      46.791  32.709  30.559  1.00  0.00    -0.206 F 
ATOM     71  C   UNL A   1      46.921  34.951  29.874  1.00  0.00     0.059 A 
ATOM     72  C   UNL A   1      45.923  35.632  27.783  1.00  0.00     0.059 A 
ATOM     73  F   UNL A   1      44.698  34.100  26.517  1.00  0.00    -0.206 F 
ATOM     74  C   UNL A   1      46.652  35.938  28.927  1.00  0.00     0.060 A 
BRANCH  74  75
ATOM     75  S   UNL A   1      47.267  37.619  29.193  1.00  0.00     0.124 S 
ATOM     76  O   UNL A   1      48.157  37.428  30.334  1.00  0.00    -0.237 OA
ATOM     77  O   UNL A   1      47.916  37.922  27.922  1.00  0.00    -0.237 OA
ATOM     78  O   UNL A   1      46.054  38.385  29.465  1.00  0.00    -0.744 OA
ENDBRANCH  74  75
ENDBRANCH  42  67
BRANCH  54  79
ATOM     79  C   UNL A   1      49.115  27.624  26.205  1.00  0.00     0.058 A 
ATOM     80  C   UNL A   1      49.502  27.591  24.857  1.00  0.00     0.135 A 
ATOM     81  C   UNL A   1      50.081  27.416  27.196  1.00  0.00     0.135 A 
ATOM     82  F   UNL A   1      48.592  27.755  23.883  1.00  0.00    -0.206 F 
ATOM     83  C   UNL A   1      50.811  27.316  24.504  1.00  0.00     0.059 A 
ATOM     84  C   UNL A   1      51.403  27.185  26.866  1.00  0.00     0.059 A 
ATOM     85  F   UNL A   1      49.738  27.435  28.494  1.00  0.00    -0.206 F 
ATOM     86  C   UNL A   1      51.753  27.121  25.517  1.00  0.00     0.060 A 
BRANCH  86  87
ATOM     87  S   UNL A   1      53.457  26.797  25.043  1.00  0.00     0.124 S 
ATOM     88  O   UNL A   1      53.367  25.426  24.551  1.00  0.00    -0.237 OA
ATOM     89  O   UNL A   1      53.693  27.823  24.033  1.00  0.00    -0.237 OA
ATOM     90  O   UNL A   1      54.194  26.971  26.291  1.00  0.00    -0.744 OA
ENDBRANCH  86  87
ENDBRANCH  54  79
ENDBRANCH  28  29
ENDBRANCH  21  23
ENDBRANCH  20  21
ENDBRANCH   1  20
TORSDOF 16
ENDMDL
