MODEL 1
REMARK VINA RESULT:     -11.8      0.000      0.000
REMARK SMILES Cc1ccc2oc(C(=O)N[C@@H]3C=C[C@H](C(=O)OCCOC(=O)c4ccc(-c5c6nc(c(-c7c(F)cc(S(=O)(=O)[O-])cc7F)c7ccc([nH]7)c(-c7c(F)cc(S(=O)(=O)[O-])cc7F)c7nc(c(-c8c(F)cc(S(=O)(=O)[O-])cc8F)c8ccc5[nH]8)C=C7)C=C6)cc4)C3)cc2c1
REMARK SMILES IDX 19 1 18 2 17 3 15 4 16 5 14 6 11 7 12 8 89 9 13 10 10 11
REMARK SMILES IDX 8 12 9 13 7 15 1 16 2 17 3 18 92 19 4 20 91 21 5 22 90 23
REMARK SMILES IDX 6 24 20 25 21 26 22 27 23 28 24 29 88 30 25 31 87 32 26 33
REMARK SMILES IDX 27 34 28 35 81 36 29 37 86 38 80 39 82 40 30 41 85 42 79 43
REMARK SMILES IDX 78 44 31 46 65 47 44 48 64 49 45 50 48 51 63 52 83 53 46 54
REMARK SMILES IDX 47 55 62 57 84 58 49 59 32 60 33 61 42 62 34 63 35 64 41 65
REMARK SMILES IDX 43 66 36 67 37 68 38 69 39 70 40 71 66 72 67 73 76 74 68 75
REMARK SMILES IDX 69 76 75 77 77 78 70 79 71 80 72 81 73 82 74 83 50 84 51 85
REMARK SMILES IDX 60 86 52 87 53 88 59 89 61 90 54 91 55 92 56 93 57 94 58 95
REMARK H PARENT 10 14 82 45 48 56
REMARK Flexibility Score: inf
ROOT
ATOM      1  C   UNL A   1      32.505  28.278  27.384  1.00  0.00     0.275 C 
ENDROOT
BRANCH   1   2
ATOM      2  C   UNL A   1      32.201  27.013  26.569  1.00  0.00     0.274 C 
BRANCH   2   3
ATOM      3  O   UNL A   1      31.749  27.301  25.220  1.00  0.00    -0.462 OA
BRANCH   3   4
ATOM      4  C   UNL A   1      32.583  26.826  24.254  1.00  0.00     0.312 C 
ATOM      5  O   UNL A   1      33.803  26.850  24.373  1.00  0.00    -0.252 OA
BRANCH   4   6
ATOM      6  C   UNL A   1      31.875  26.323  22.979  1.00  0.00     0.124 C 
ATOM      7  C   UNL A   1      30.432  24.457  23.732  1.00  0.00     0.106 C 
ATOM      8  C   UNL A   1      31.563  23.964  22.906  1.00  0.00    -0.006 C 
ATOM      9  C   UNL A   1      30.425  25.946  23.337  1.00  0.00     0.048 C 
ATOM     10  C   UNL A   1      32.319  24.980  22.439  1.00  0.00    -0.014 C 
BRANCH   7  11
ATOM     11  N   UNL A   1      30.430  24.143  25.176  1.00  0.00    -0.343 N 
ATOM     12  C   UNL A   1      31.200  23.598  26.194  1.00  0.00     0.287 C 
ATOM     13  O   UNL A   1      30.633  23.548  27.293  1.00  0.00    -0.266 OA
ATOM     14  H   UNL A   1      29.564  24.423  25.554  1.00  0.00     0.164 HD
BRANCH  12  15
ATOM     15  C   UNL A   1      32.553  23.105  26.011  1.00  0.00     0.192 A 
ATOM     16  C   UNL A   1      37.570  20.075  24.795  1.00  0.00     0.044 C 
ATOM     17  C   UNL A   1      36.644  21.190  25.173  1.00  0.00    -0.050 A 
ATOM     18  C   UNL A   1      37.060  22.457  25.620  1.00  0.00     0.007 A 
ATOM     19  C   UNL A   1      35.287  20.914  25.091  1.00  0.00     0.015 A 
ATOM     20  C   UNL A   1      36.142  23.467  26.010  1.00  0.00     0.048 A 
ATOM     21  C   UNL A   1      34.389  21.897  25.489  1.00  0.00     0.021 A 
ATOM     22  C   UNL A   1      34.792  23.135  25.940  1.00  0.00     0.135 A 
ATOM     23  C   UNL A   1      33.014  21.922  25.519  1.00  0.00     0.065 A 
ATOM     24  O   UNL A   1      33.680  23.893  26.265  1.00  0.00    -0.451 OA
ENDBRANCH  12  15
ENDBRANCH   7  11
ENDBRANCH   4   6
ENDBRANCH   3   4
ENDBRANCH   2   3
ENDBRANCH   1   2
BRANCH   1  25
ATOM     25  O   UNL A   1      33.921  28.510  27.507  1.00  0.00    -0.458 OA
BRANCH  25  26
ATOM     26  C   UNL A   1      34.272  29.800  27.723  1.00  0.00     0.338 C 
ATOM     27  O   UNL A   1      33.541  30.775  27.644  1.00  0.00    -0.246 OA
BRANCH  26  28
ATOM     28  C   UNL A   1      35.669  29.919  28.188  1.00  0.00     0.060 A 
ATOM     29  C   UNL A   1      36.639  30.391  27.317  1.00  0.00     0.016 A 
ATOM     30  C   UNL A   1      36.062  29.319  29.382  1.00  0.00     0.016 A 
ATOM     31  C   UNL A   1      37.975  30.056  27.516  1.00  0.00     0.010 A 
ATOM     32  C   UNL A   1      37.426  29.156  29.665  1.00  0.00     0.010 A 
ATOM     33  C   UNL A   1      38.405  29.453  28.701  1.00  0.00    -0.014 A 
BRANCH  33  34
ATOM     34  C   UNL A   1      39.848  29.103  28.899  1.00  0.00     0.031 A 
ATOM     35  C   UNL A   1      40.815  30.134  29.438  1.00  0.00     0.074 A 
ATOM     36  C   UNL A   1      40.305  27.860  28.627  1.00  0.00     0.049 A 
ATOM     37  N   UNL A   1      42.124  30.126  29.430  1.00  0.00    -0.248 NA
ATOM     38  C   UNL A   1      40.235  31.343  30.048  1.00  0.00     0.031 C 
ATOM     39  C   UNL A   1      39.493  26.730  28.166  1.00  0.00     0.029 A 
ATOM     40  N   UNL A   1      41.571  27.330  28.708  1.00  0.00    -0.354 N 
ATOM     41  C   UNL A   1      42.520  31.357  29.945  1.00  0.00     0.074 A 
ATOM     42  C   UNL A   1      41.312  32.084  30.268  1.00  0.00     0.031 C 
ATOM     43  C   UNL A   1      40.258  25.635  28.072  1.00  0.00     0.029 A 
ATOM     44  C   UNL A   1      41.642  26.012  28.313  1.00  0.00     0.049 A 
ATOM     45  H   UNL A   1      42.353  27.842  29.018  1.00  0.00     0.167 HD
ATOM     46  C   UNL A   1      43.776  31.837  30.119  1.00  0.00     0.037 A 
ATOM     47  C   UNL A   1      42.698  25.208  28.086  1.00  0.00     0.037 A 
ATOM     48  C   UNL A   1      44.970  31.069  29.866  1.00  0.00     0.049 A 
ATOM     49  C   UNL A   1      44.080  25.768  28.246  1.00  0.00     0.074 A 
ATOM     50  C   UNL A   1      46.292  31.454  30.018  1.00  0.00     0.029 A 
ATOM     51  N   UNL A   1      44.987  29.752  29.431  1.00  0.00    -0.354 N 
ATOM     52  N   UNL A   1      44.441  26.970  28.633  1.00  0.00    -0.248 NA
ATOM     53  C   UNL A   1      45.198  24.878  27.911  1.00  0.00     0.031 C 
ATOM     54  C   UNL A   1      47.106  30.380  29.640  1.00  0.00     0.029 A 
ATOM     55  C   UNL A   1      46.293  29.311  29.300  1.00  0.00     0.049 A 
ATOM     56  H   UNL A   1      44.186  29.209  29.244  1.00  0.00     0.167 HD
ATOM     57  C   UNL A   1      45.828  26.976  28.595  1.00  0.00     0.074 A 
ATOM     58  C   UNL A   1      46.242  25.654  28.168  1.00  0.00     0.031 C 
ATOM     59  C   UNL A   1      46.684  27.988  28.882  1.00  0.00     0.037 A 
BRANCH  46  60
ATOM     60  C   UNL A   1      43.933  33.270  30.558  1.00  0.00     0.058 A 
ATOM     61  C   UNL A   1      43.963  33.646  31.910  1.00  0.00     0.135 A 
ATOM     62  C   UNL A   1      44.093  34.285  29.597  1.00  0.00     0.135 A 
ATOM     63  F   UNL A   1      43.800  32.723  32.871  1.00  0.00    -0.206 F 
ATOM     64  C   UNL A   1      44.117  34.977  32.293  1.00  0.00     0.059 A 
ATOM     65  C   UNL A   1      44.275  35.617  29.958  1.00  0.00     0.059 A 
ATOM     66  F   UNL A   1      44.075  33.985  28.289  1.00  0.00    -0.206 F 
ATOM     67  C   UNL A   1      44.269  35.956  31.309  1.00  0.00     0.060 A 
BRANCH  67  68
ATOM     68  S   UNL A   1      44.464  37.677  31.821  1.00  0.00     0.124 S 
ATOM     69  O   UNL A   1      45.916  37.791  31.909  1.00  0.00    -0.237 OA
ATOM     70  O   UNL A   1      43.838  38.404  30.722  1.00  0.00    -0.237 OA
ATOM     71  O   UNL A   1      43.753  37.736  33.094  1.00  0.00    -0.744 OA
ENDBRANCH  67  68
ENDBRANCH  46  60
BRANCH  47  72
ATOM     72  C   UNL A   1      42.480  23.816  27.606  1.00  0.00     0.058 A 
ATOM     73  C   UNL A   1      42.341  23.535  26.240  1.00  0.00     0.135 A 
ATOM     74  C   UNL A   1      42.440  22.734  28.502  1.00  0.00     0.135 A 
ATOM     75  F   UNL A   1      42.360  24.534  25.345  1.00  0.00    -0.206 F 
ATOM     76  C   UNL A   1      42.164  22.234  25.778  1.00  0.00     0.059 A 
ATOM     77  C   UNL A   1      42.300  21.423  28.063  1.00  0.00     0.059 A 
ATOM     78  F   UNL A   1      42.580  22.946  29.821  1.00  0.00    -0.206 F 
ATOM     79  C   UNL A   1      42.151  21.183  26.699  1.00  0.00     0.060 A 
BRANCH  79  80
ATOM     80  S   UNL A   1      41.976  19.493  26.086  1.00  0.00     0.124 S 
ATOM     81  O   UNL A   1      42.439  18.719  27.232  1.00  0.00    -0.237 OA
ATOM     82  O   UNL A   1      40.547  19.416  25.798  1.00  0.00    -0.237 OA
ATOM     83  O   UNL A   1      42.847  19.470  24.914  1.00  0.00    -0.744 OA
ENDBRANCH  79  80
ENDBRANCH  47  72
BRANCH  59  84
ATOM     84  C   UNL A   1      48.152  27.688  28.786  1.00  0.00     0.058 A 
ATOM     85  C   UNL A   1      48.907  28.052  27.661  1.00  0.00     0.135 A 
ATOM     86  C   UNL A   1      48.815  27.054  29.849  1.00  0.00     0.135 A 
ATOM     87  F   UNL A   1      48.317  28.649  26.614  1.00  0.00    -0.206 F 
ATOM     88  C   UNL A   1      50.268  27.778  27.584  1.00  0.00     0.059 A 
ATOM     89  C   UNL A   1      50.180  26.795  29.804  1.00  0.00     0.059 A 
ATOM     90  F   UNL A   1      48.137  26.692  30.949  1.00  0.00    -0.206 F 
ATOM     91  C   UNL A   1      50.896  27.149  28.661  1.00  0.00     0.060 A 
BRANCH  91  92
ATOM     92  S   UNL A   1      52.669  26.826  28.563  1.00  0.00     0.124 S 
ATOM     93  O   UNL A   1      53.186  28.135  28.182  1.00  0.00    -0.237 OA
ATOM     94  O   UNL A   1      52.983  26.389  29.921  1.00  0.00    -0.237 OA
ATOM     95  O   UNL A   1      52.768  25.788  27.541  1.00  0.00    -0.744 OA
ENDBRANCH  91  92
ENDBRANCH  59  84
ENDBRANCH  33  34
ENDBRANCH  26  28
ENDBRANCH  25  26
ENDBRANCH   1  25
TORSDOF 16
ENDMDL
MODEL 2
REMARK VINA RESULT:     -11.6      1.470      2.280
REMARK SMILES Cc1ccc2oc(C(=O)N[C@@H]3C=C[C@H](C(=O)OCCOC(=O)c4ccc(-c5c6nc(c(-c7c(F)cc(S(=O)(=O)[O-])cc7F)c7ccc([nH]7)c(-c7c(F)cc(S(=O)(=O)[O-])cc7F)c7nc(c(-c8c(F)cc(S(=O)(=O)[O-])cc8F)c8ccc5[nH]8)C=C7)C=C6)cc4)C3)cc2c1
REMARK SMILES IDX 19 1 18 2 17 3 15 4 16 5 14 6 11 7 12 8 89 9 13 10 10 11
REMARK SMILES IDX 8 12 9 13 7 15 1 16 2 17 3 18 92 19 4 20 91 21 5 22 90 23
REMARK SMILES IDX 6 24 20 25 21 26 22 27 23 28 24 29 88 30 25 31 87 32 26 33
REMARK SMILES IDX 27 34 28 35 81 36 29 37 86 38 80 39 82 40 30 41 85 42 79 43
REMARK SMILES IDX 78 44 31 46 65 47 44 48 64 49 45 50 48 51 63 52 83 53 46 54
REMARK SMILES IDX 47 55 62 57 84 58 49 59 32 60 33 61 42 62 34 63 35 64 41 65
REMARK SMILES IDX 43 66 36 67 37 68 38 69 39 70 40 71 66 72 67 73 76 74 68 75
REMARK SMILES IDX 69 76 75 77 77 78 70 79 71 80 72 81 73 82 74 83 50 84 51 85
REMARK SMILES IDX 60 86 52 87 53 88 59 89 61 90 54 91 55 92 56 93 57 94 58 95
REMARK H PARENT 10 14 82 45 48 56
REMARK Flexibility Score: inf
ROOT
ATOM      1  C   UNL A   1      33.378  30.192  27.591  1.00  0.00     0.275 C 
ENDROOT
BRANCH   1   2
ATOM      2  C   UNL A   1      32.680  30.155  26.225  1.00  0.00     0.274 C 
BRANCH   2   3
ATOM      3  O   UNL A   1      33.497  29.558  25.184  1.00  0.00    -0.462 OA
BRANCH   3   4
ATOM      4  C   UNL A   1      32.773  29.057  24.145  1.00  0.00     0.312 C 
ATOM      5  O   UNL A   1      33.223  28.988  23.007  1.00  0.00    -0.252 OA
BRANCH   4   6
ATOM      6  C   UNL A   1      31.327  28.652  24.501  1.00  0.00     0.124 C 
ATOM      7  C   UNL A   1      30.659  27.032  22.752  1.00  0.00     0.106 C 
ATOM      8  C   UNL A   1      29.920  28.313  22.612  1.00  0.00    -0.006 C 
ATOM      9  C   UNL A   1      31.150  27.151  24.207  1.00  0.00     0.048 C 
ATOM     10  C   UNL A   1      30.231  29.179  23.599  1.00  0.00    -0.014 C 
BRANCH   7  11
ATOM     11  N   UNL A   1      31.666  26.689  21.726  1.00  0.00    -0.343 N 
ATOM     12  C   UNL A   1      32.652  25.767  21.403  1.00  0.00     0.287 C 
ATOM     13  O   UNL A   1      33.257  26.012  20.352  1.00  0.00    -0.266 OA
ATOM     14  H   UNL A   1      31.620  27.362  21.008  1.00  0.00     0.164 HD
BRANCH  12  15
ATOM     15  C   UNL A   1      32.978  24.612  22.220  1.00  0.00     0.192 A 
ATOM     16  C   UNL A   1      33.157  19.521  25.364  1.00  0.00     0.044 C 
ATOM     17  C   UNL A   1      33.595  20.771  24.664  1.00  0.00    -0.050 A 
ATOM     18  C   UNL A   1      34.905  21.284  24.690  1.00  0.00     0.007 A 
ATOM     19  C   UNL A   1      32.612  21.463  23.972  1.00  0.00     0.015 A 
ATOM     20  C   UNL A   1      35.261  22.498  24.045  1.00  0.00     0.048 A 
ATOM     21  C   UNL A   1      32.957  22.660  23.356  1.00  0.00     0.021 A 
ATOM     22  C   UNL A   1      34.235  23.173  23.390  1.00  0.00     0.135 A 
ATOM     23  C   UNL A   1      32.220  23.551  22.610  1.00  0.00     0.065 A 
ATOM     24  O   UNL A   1      34.270  24.371  22.697  1.00  0.00    -0.451 OA
ENDBRANCH  12  15
ENDBRANCH   7  11
ENDBRANCH   4   6
ENDBRANCH   3   4
ENDBRANCH   2   3
ENDBRANCH   1   2
BRANCH   1  25
ATOM     25  O   UNL A   1      34.405  31.200  27.643  1.00  0.00    -0.458 OA
BRANCH  25  26
ATOM     26  C   UNL A   1      35.086  31.264  28.812  1.00  0.00     0.338 C 
ATOM     27  O   UNL A   1      34.743  31.862  29.820  1.00  0.00    -0.246 OA
BRANCH  26  28
ATOM     28  C   UNL A   1      36.296  30.417  28.791  1.00  0.00     0.060 A 
ATOM     29  C   UNL A   1      36.838  29.973  29.988  1.00  0.00     0.016 A 
ATOM     30  C   UNL A   1      37.038  30.288  27.620  1.00  0.00     0.016 A 
ATOM     31  C   UNL A   1      38.184  29.631  30.057  1.00  0.00     0.010 A 
ATOM     32  C   UNL A   1      38.336  29.757  27.672  1.00  0.00     0.010 A 
ATOM     33  C   UNL A   1      38.960  29.491  28.903  1.00  0.00    -0.014 A 
BRANCH  33  34
ATOM     34  C   UNL A   1      40.407  29.117  28.997  1.00  0.00     0.031 A 
ATOM     35  C   UNL A   1      41.427  30.132  29.463  1.00  0.00     0.074 A 
ATOM     36  C   UNL A   1      40.823  27.867  28.695  1.00  0.00     0.049 A 
ATOM     37  N   UNL A   1      42.732  30.103  29.361  1.00  0.00    -0.248 NA
ATOM     38  C   UNL A   1      40.912  31.350  30.112  1.00  0.00     0.031 C 
ATOM     39  C   UNL A   1      39.961  26.750  28.295  1.00  0.00     0.029 A 
ATOM     40  N   UNL A   1      42.083  27.316  28.684  1.00  0.00    -0.354 N 
ATOM     41  C   UNL A   1      43.185  31.327  29.844  1.00  0.00     0.074 A 
ATOM     42  C   UNL A   1      42.015  32.074  30.253  1.00  0.00     0.031 C 
ATOM     43  C   UNL A   1      40.700  25.643  28.147  1.00  0.00     0.029 A 
ATOM     44  C   UNL A   1      42.103  25.997  28.287  1.00  0.00     0.049 A 
ATOM     45  H   UNL A   1      42.893  27.816  28.936  1.00  0.00     0.167 HD
ATOM     46  C   UNL A   1      44.457  31.787  29.926  1.00  0.00     0.037 A 
ATOM     47  C   UNL A   1      43.127  25.176  27.985  1.00  0.00     0.037 A 
ATOM     48  C   UNL A   1      45.617  31.000  29.588  1.00  0.00     0.049 A 
ATOM     49  C   UNL A   1      44.526  25.714  28.044  1.00  0.00     0.074 A 
ATOM     50  C   UNL A   1      46.952  31.362  29.644  1.00  0.00     0.029 A 
ATOM     51  N   UNL A   1      45.581  29.682  29.155  1.00  0.00    -0.354 N 
ATOM     52  N   UNL A   1      44.933  26.909  28.402  1.00  0.00    -0.248 NA
ATOM     53  C   UNL A   1      45.602  24.805  27.630  1.00  0.00     0.031 C 
ATOM     54  C   UNL A   1      47.720  30.276  29.209  1.00  0.00     0.029 A 
ATOM     55  C   UNL A   1      46.867  29.220  28.930  1.00  0.00     0.049 A 
ATOM     56  H   UNL A   1      44.760  29.152  29.027  1.00  0.00     0.167 HD
ATOM     57  C   UNL A   1      46.314  26.893  28.264  1.00  0.00     0.074 A 
ATOM     58  C   UNL A   1      46.675  25.565  27.810  1.00  0.00     0.031 C 
ATOM     59  C   UNL A   1      47.205  27.891  28.488  1.00  0.00     0.037 A 
BRANCH  46  60
ATOM     60  C   UNL A   1      44.669  33.217  30.351  1.00  0.00     0.058 A 
ATOM     61  C   UNL A   1      44.915  33.580  31.684  1.00  0.00     0.135 A 
ATOM     62  C   UNL A   1      44.660  34.243  29.389  1.00  0.00     0.135 A 
ATOM     63  F   UNL A   1      44.920  32.645  32.648  1.00  0.00    -0.206 F 
ATOM     64  C   UNL A   1      45.115  34.908  32.053  1.00  0.00     0.059 A 
ATOM     65  C   UNL A   1      44.885  35.574  29.731  1.00  0.00     0.059 A 
ATOM     66  F   UNL A   1      44.432  33.957  28.098  1.00  0.00    -0.206 F 
ATOM     67  C   UNL A   1      45.095  35.899  31.069  1.00  0.00     0.060 A 
BRANCH  67  68
ATOM     68  S   UNL A   1      45.353  37.617  31.563  1.00  0.00     0.124 S 
ATOM     69  O   UNL A   1      46.291  37.463  32.671  1.00  0.00    -0.237 OA
ATOM     70  O   UNL A   1      45.900  38.214  30.349  1.00  0.00    -0.237 OA
ATOM     71  O   UNL A   1      44.015  38.070  31.932  1.00  0.00    -0.744 OA
ENDBRANCH  67  68
ENDBRANCH  46  60
BRANCH  47  72
ATOM     72  C   UNL A   1      42.853  23.788  27.524  1.00  0.00     0.058 A 
ATOM     73  C   UNL A   1      42.801  22.721  28.433  1.00  0.00     0.135 A 
ATOM     74  C   UNL A   1      42.604  23.504  26.171  1.00  0.00     0.135 A 
ATOM     75  F   UNL A   1      43.043  22.937  29.735  1.00  0.00    -0.206 F 
ATOM     76  C   UNL A   1      42.519  21.423  28.018  1.00  0.00     0.059 A 
ATOM     77  C   UNL A   1      42.285  22.222  25.737  1.00  0.00     0.059 A 
ATOM     78  F   UNL A   1      42.630  24.491  25.260  1.00  0.00    -0.206 F 
ATOM     79  C   UNL A   1      42.257  21.185  26.666  1.00  0.00     0.060 A 
BRANCH  79  80
ATOM     80  S   UNL A   1      41.838  19.507  26.144  1.00  0.00     0.124 S 
ATOM     81  O   UNL A   1      42.176  18.739  27.337  1.00  0.00    -0.237 OA
ATOM     82  O   UNL A   1      40.415  19.624  25.842  1.00  0.00    -0.237 OA
ATOM     83  O   UNL A   1      42.702  19.292  24.988  1.00  0.00    -0.744 OA
ENDBRANCH  79  80
ENDBRANCH  47  72
BRANCH  59  84
ATOM     84  C   UNL A   1      48.657  27.566  28.285  1.00  0.00     0.058 A 
ATOM     85  C   UNL A   1      49.283  27.730  27.041  1.00  0.00     0.135 A 
ATOM     86  C   UNL A   1      49.437  27.116  29.363  1.00  0.00     0.135 A 
ATOM     87  F   UNL A   1      48.578  28.146  25.978  1.00  0.00    -0.206 F 
ATOM     88  C   UNL A   1      50.631  27.436  26.865  1.00  0.00     0.059 A 
ATOM     89  C   UNL A   1      50.792  26.842  29.215  1.00  0.00     0.059 A 
ATOM     90  F   UNL A   1      48.885  26.950  30.575  1.00  0.00    -0.206 F 
ATOM     91  C   UNL A   1      51.377  26.993  27.959  1.00  0.00     0.060 A 
BRANCH  91  92
ATOM     92  S   UNL A   1      53.132  26.642  27.726  1.00  0.00     0.124 S 
ATOM     93  O   UNL A   1      53.552  26.326  29.087  1.00  0.00    -0.237 OA
ATOM     94  O   UNL A   1      53.107  25.520  26.792  1.00  0.00    -0.237 OA
ATOM     95  O   UNL A   1      53.658  27.890  27.180  1.00  0.00    -0.744 OA
ENDBRANCH  91  92
ENDBRANCH  59  84
ENDBRANCH  33  34
ENDBRANCH  26  28
ENDBRANCH  25  26
ENDBRANCH   1  25
TORSDOF 16
ENDMDL
MODEL 3
REMARK VINA RESULT:     -11.6      3.735      9.664
REMARK SMILES Cc1ccc2oc(C(=O)N[C@@H]3C=C[C@H](C(=O)OCCOC(=O)c4ccc(-c5c6nc(c(-c7c(F)cc(S(=O)(=O)[O-])cc7F)c7ccc([nH]7)c(-c7c(F)cc(S(=O)(=O)[O-])cc7F)c7nc(c(-c8c(F)cc(S(=O)(=O)[O-])cc8F)c8ccc5[nH]8)C=C7)C=C6)cc4)C3)cc2c1
REMARK SMILES IDX 19 1 18 2 17 3 15 4 16 5 14 6 11 7 12 8 89 9 13 10 10 11
REMARK SMILES IDX 8 12 9 13 7 15 1 16 2 17 3 18 92 19 4 20 91 21 5 22 90 23
REMARK SMILES IDX 6 24 20 25 21 26 22 27 23 28 24 29 88 30 25 31 87 32 26 33
REMARK SMILES IDX 27 34 28 35 81 36 29 37 86 38 80 39 82 40 30 41 85 42 79 43
REMARK SMILES IDX 78 44 31 46 65 47 44 48 64 49 45 50 48 51 63 52 83 53 46 54
REMARK SMILES IDX 47 55 62 57 84 58 49 59 32 60 33 61 42 62 34 63 35 64 41 65
REMARK SMILES IDX 43 66 36 67 37 68 38 69 39 70 40 71 66 72 67 73 76 74 68 75
REMARK SMILES IDX 69 76 75 77 77 78 70 79 71 80 72 81 73 82 74 83 50 84 51 85
REMARK SMILES IDX 60 86 52 87 53 88 59 89 61 90 54 91 55 92 56 93 57 94 58 95
REMARK H PARENT 10 14 82 45 48 56
REMARK Flexibility Score: inf
ROOT
ATOM      1  C   UNL A   1      37.560  21.260  25.116  1.00  0.00     0.275 C 
ENDROOT
BRANCH   1   2
ATOM      2  C   UNL A   1      36.078  21.047  25.448  1.00  0.00     0.274 C 
BRANCH   2   3
ATOM      3  O   UNL A   1      35.184  21.713  24.517  1.00  0.00    -0.462 OA
BRANCH   3   4
ATOM      4  C   UNL A   1      34.338  22.597  25.113  1.00  0.00     0.312 C 
ATOM      5  O   UNL A   1      34.713  23.694  25.514  1.00  0.00    -0.252 OA
BRANCH   4   6
ATOM      6  C   UNL A   1      32.896  22.082  25.305  1.00  0.00     0.124 C 
ATOM      7  C   UNL A   1      31.619  23.005  23.396  1.00  0.00     0.106 C 
ATOM      8  C   UNL A   1      31.215  23.644  24.674  1.00  0.00    -0.006 C 
ATOM      9  C   UNL A   1      32.310  21.734  23.925  1.00  0.00     0.048 C 
ATOM     10  C   UNL A   1      31.860  23.102  25.728  1.00  0.00    -0.014 C 
BRANCH   7  11
ATOM     11  N   UNL A   1      32.364  23.818  22.412  1.00  0.00    -0.343 N 
ATOM     12  C   UNL A   1      32.907  25.078  22.197  1.00  0.00     0.287 C 
ATOM     13  O   UNL A   1      33.429  25.226  21.084  1.00  0.00    -0.266 OA
ATOM     14  H   UNL A   1      32.540  23.262  21.618  1.00  0.00     0.164 HD
BRANCH  12  15
ATOM     15  C   UNL A   1      32.865  26.155  23.170  1.00  0.00     0.192 A 
ATOM     16  C   UNL A   1      33.847  30.240  27.432  1.00  0.00     0.044 C 
ATOM     17  C   UNL A   1      33.203  29.498  26.302  1.00  0.00    -0.050 A 
ATOM     18  C   UNL A   1      31.933  29.793  25.774  1.00  0.00     0.007 A 
ATOM     19  C   UNL A   1      33.922  28.434  25.779  1.00  0.00     0.015 A 
ATOM     20  C   UNL A   1      31.346  29.030  24.730  1.00  0.00     0.048 A 
ATOM     21  C   UNL A   1      33.340  27.676  24.769  1.00  0.00     0.021 A 
ATOM     22  C   UNL A   1      32.091  27.953  24.257  1.00  0.00     0.135 A 
ATOM     23  C   UNL A   1      33.796  26.588  24.063  1.00  0.00     0.065 A 
ATOM     24  O   UNL A   1      31.781  27.031  23.273  1.00  0.00    -0.451 OA
ENDBRANCH  12  15
ENDBRANCH   7  11
ENDBRANCH   4   6
ENDBRANCH   3   4
ENDBRANCH   2   3
ENDBRANCH   1   2
BRANCH   1  25
ATOM     25  O   UNL A   1      38.191  22.174  26.032  1.00  0.00    -0.458 OA
BRANCH  25  26
ATOM     26  C   UNL A   1      38.234  23.462  25.618  1.00  0.00     0.338 C 
ATOM     27  O   UNL A   1      37.626  23.941  24.673  1.00  0.00    -0.246 OA
BRANCH  26  28
ATOM     28  C   UNL A   1      39.046  24.304  26.519  1.00  0.00     0.060 A 
ATOM     29  C   UNL A   1      38.797  24.279  27.883  1.00  0.00     0.016 A 
ATOM     30  C   UNL A   1      39.860  25.305  25.996  1.00  0.00     0.016 A 
ATOM     31  C   UNL A   1      39.152  25.366  28.675  1.00  0.00     0.010 A 
ATOM     32  C   UNL A   1      40.376  26.299  26.842  1.00  0.00     0.010 A 
ATOM     33  C   UNL A   1      39.968  26.389  28.184  1.00  0.00    -0.014 A 
BRANCH  33  34
ATOM     34  C   UNL A   1      40.343  27.550  29.052  1.00  0.00     0.031 A 
ATOM     35  C   UNL A   1      41.646  27.536  29.822  1.00  0.00     0.074 A 
ATOM     36  C   UNL A   1      39.544  28.637  29.144  1.00  0.00     0.049 A 
ATOM     37  N   UNL A   1      42.029  28.295  30.817  1.00  0.00    -0.248 NA
ATOM     38  C   UNL A   1      42.641  26.521  29.435  1.00  0.00     0.031 C 
ATOM     39  C   UNL A   1      38.289  28.841  28.415  1.00  0.00     0.029 A 
ATOM     40  N   UNL A   1      39.673  29.788  29.885  1.00  0.00    -0.354 N 
ATOM     41  C   UNL A   1      43.259  27.795  31.233  1.00  0.00     0.074 A 
ATOM     42  C   UNL A   1      43.567  26.673  30.373  1.00  0.00     0.031 C 
ATOM     43  C   UNL A   1      37.803  30.058  28.689  1.00  0.00     0.029 A 
ATOM     44  C   UNL A   1      38.621  30.663  29.728  1.00  0.00     0.049 A 
ATOM     45  H   UNL A   1      40.442  29.969  30.472  1.00  0.00     0.167 HD
ATOM     46  C   UNL A   1      44.049  28.227  32.246  1.00  0.00     0.037 A 
ATOM     47  C   UNL A   1      38.294  31.787  30.393  1.00  0.00     0.037 A 
ATOM     48  C   UNL A   1      43.766  29.395  33.042  1.00  0.00     0.049 A 
ATOM     49  C   UNL A   1      39.160  32.228  31.536  1.00  0.00     0.074 A 
ATOM     50  C   UNL A   1      44.504  29.928  34.086  1.00  0.00     0.029 A 
ATOM     51  N   UNL A   1      42.668  30.225  32.866  1.00  0.00    -0.354 N 
ATOM     52  N   UNL A   1      40.266  31.685  31.987  1.00  0.00    -0.248 NA
ATOM     53  C   UNL A   1      38.719  33.414  32.281  1.00  0.00     0.031 C 
ATOM     54  C   UNL A   1      43.832  31.058  34.564  1.00  0.00     0.029 A 
ATOM     55  C   UNL A   1      42.702  31.260  33.787  1.00  0.00     0.049 A 
ATOM     56  H   UNL A   1      41.968  30.098  32.186  1.00  0.00     0.167 HD
ATOM     57  C   UNL A   1      40.658  32.469  33.063  1.00  0.00     0.074 A 
ATOM     58  C   UNL A   1      39.684  33.534  33.183  1.00  0.00     0.031 C 
ATOM     59  C   UNL A   1      41.727  32.316  33.884  1.00  0.00     0.037 A 
BRANCH  46  60
ATOM     60  C   UNL A   1      45.271  27.413  32.589  1.00  0.00     0.058 A 
ATOM     61  C   UNL A   1      45.214  26.274  33.407  1.00  0.00     0.135 A 
ATOM     62  C   UNL A   1      46.523  27.767  32.055  1.00  0.00     0.135 A 
ATOM     63  F   UNL A   1      44.049  25.896  33.958  1.00  0.00    -0.206 F 
ATOM     64  C   UNL A   1      46.355  25.532  33.705  1.00  0.00     0.059 A 
ATOM     65  C   UNL A   1      47.671  27.026  32.317  1.00  0.00     0.059 A 
ATOM     66  F   UNL A   1      46.639  28.846  31.264  1.00  0.00    -0.206 F 
ATOM     67  C   UNL A   1      47.580  25.918  33.157  1.00  0.00     0.060 A 
BRANCH  67  68
ATOM     68  S   UNL A   1      49.052  24.950  33.556  1.00  0.00     0.124 S 
ATOM     69  O   UNL A   1      49.647  24.771  32.236  1.00  0.00    -0.237 OA
ATOM     70  O   UNL A   1      49.775  25.836  34.461  1.00  0.00    -0.237 OA
ATOM     71  O   UNL A   1      48.509  23.741  34.168  1.00  0.00    -0.744 OA
ENDBRANCH  67  68
ENDBRANCH  46  60
BRANCH  47  72
ATOM     72  C   UNL A   1      37.049  32.522  30.040  1.00  0.00     0.058 A 
ATOM     73  C   UNL A   1      35.831  32.228  30.671  1.00  0.00     0.135 A 
ATOM     74  C   UNL A   1      37.057  33.555  29.088  1.00  0.00     0.135 A 
ATOM     75  F   UNL A   1      35.769  31.242  31.579  1.00  0.00    -0.206 F 
ATOM     76  C   UNL A   1      34.667  32.927  30.369  1.00  0.00     0.059 A 
ATOM     77  C   UNL A   1      35.914  34.291  28.795  1.00  0.00     0.059 A 
ATOM     78  F   UNL A   1      38.198  33.886  28.462  1.00  0.00    -0.206 F 
ATOM     79  C   UNL A   1      34.720  33.962  29.432  1.00  0.00     0.060 A 
BRANCH  79  80
ATOM     80  S   UNL A   1      33.215  34.899  29.086  1.00  0.00     0.124 S 
ATOM     81  O   UNL A   1      32.612  34.099  28.026  1.00  0.00    -0.237 OA
ATOM     82  O   UNL A   1      32.531  34.871  30.374  1.00  0.00    -0.237 OA
ATOM     83  O   UNL A   1      33.722  36.207  28.680  1.00  0.00    -0.744 OA
ENDBRANCH  79  80
ENDBRANCH  47  72
BRANCH  59  84
ATOM     84  C   UNL A   1      41.919  33.352  34.954  1.00  0.00     0.058 A 
ATOM     85  C   UNL A   1      42.700  34.498  34.740  1.00  0.00     0.135 A 
ATOM     86  C   UNL A   1      41.285  33.208  36.198  1.00  0.00     0.135 A 
ATOM     87  F   UNL A   1      43.335  34.675  33.571  1.00  0.00    -0.206 F 
ATOM     88  C   UNL A   1      42.864  35.457  35.734  1.00  0.00     0.059 A 
ATOM     89  C   UNL A   1      41.415  34.167  37.196  1.00  0.00     0.059 A 
ATOM     90  F   UNL A   1      40.523  32.132  36.449  1.00  0.00    -0.206 F 
ATOM     91  C   UNL A   1      42.217  35.283  36.958  1.00  0.00     0.060 A 
BRANCH  91  92
ATOM     92  S   UNL A   1      42.413  36.548  38.230  1.00  0.00     0.124 S 
ATOM     93  O   UNL A   1      43.187  37.560  37.521  1.00  0.00    -0.237 OA
ATOM     94  O   UNL A   1      41.030  36.904  38.534  1.00  0.00    -0.237 OA
ATOM     95  O   UNL A   1      43.121  35.849  39.299  1.00  0.00    -0.744 OA
ENDBRANCH  91  92
ENDBRANCH  59  84
ENDBRANCH  33  34
ENDBRANCH  26  28
ENDBRANCH  25  26
ENDBRANCH   1  25
TORSDOF 16
ENDMDL
