MODEL 1
REMARK VINA RESULT:     -11.4      0.000      0.000
REMARK SMILES CC[C@H]1SC[C@H](C(=O)OCCOC(=O)c2ccc(-c3c4nc(c(-c5c(F)cc(S(=O)(=O)[O-])cc5F)c5ccc([nH]5)c(-c5c(F)cc(S(=O)(=O)[O-])cc5F)c5nc(c(-c6c(F)cc(S(=O)(=O)[O-])cc6F)c6ccc3[nH]6)C=C5)C=C4)cc2)N1C(=O)Cc1ccc(F)c(F)c1
REMARK SMILES IDX 10 1 9 2 7 3 8 4 6 5 3 6 4 7 81 8 5 9 2 10 1 11 82 12 83 13
REMARK SMILES IDX 84 14 85 15 86 16 92 17 87 18 90 19 88 20 91 21 89 22 11 23
REMARK SMILES IDX 12 24 13 25 14 26 15 27 16 28 80 29 17 30 79 31 18 32 19 33
REMARK SMILES IDX 20 34 73 35 21 36 78 37 72 38 74 39 22 40 77 41 71 42 70 43
REMARK SMILES IDX 23 45 57 46 36 47 56 48 37 49 40 50 55 51 75 52 38 53 39 54
REMARK SMILES IDX 54 56 76 57 41 58 24 59 25 60 34 61 26 62 27 63 33 64 35 65
REMARK SMILES IDX 28 66 29 67 30 68 31 69 32 70 58 71 59 72 68 73 60 74 61 75
REMARK SMILES IDX 67 76 69 77 62 78 63 79 64 80 65 81 66 82 42 83 43 84 52 85
REMARK SMILES IDX 44 86 45 87 51 88 53 89 46 90 47 91 48 92 49 93 50 94
REMARK H PARENT 74 44 40 55
REMARK Flexibility Score: inf
ROOT
ATOM      1  C   UNL A   1      32.967  29.994  27.334  1.00  0.00     0.274 C 
ENDROOT
BRANCH   1   2
ATOM      2  O   UNL A   1      32.152  29.350  26.335  1.00  0.00    -0.461 OA
BRANCH   2   3
ATOM      3  C   UNL A   1      31.968  28.009  26.503  1.00  0.00     0.329 C 
ATOM      4  O   UNL A   1      31.499  27.497  27.511  1.00  0.00    -0.250 OA
BRANCH   3   5
ATOM      5  C   UNL A   1      32.454  27.224  25.274  1.00  0.00     0.206 C 
ATOM      6  C   UNL A   1      32.190  24.893  24.508  1.00  0.00     0.144 C 
ATOM      7  S   UNL A   1      33.407  24.792  25.848  1.00  0.00    -0.134 SA
ATOM      8  N   UNL A   1      31.540  26.169  24.755  1.00  0.00    -0.316 N 
ATOM      9  C   UNL A   1      33.779  26.560  25.710  1.00  0.00     0.109 C 
BRANCH   6  10
ATOM     10  C   UNL A   1      32.956  24.810  23.156  1.00  0.00     0.033 C 
ATOM     11  C   UNL A   1      33.415  23.436  22.682  1.00  0.00     0.007 C 
ENDBRANCH   6  10
BRANCH   8  12
ATOM     12  C   UNL A   1      30.284  26.492  24.266  1.00  0.00     0.228 C 
ATOM     13  O   UNL A   1      29.270  26.026  24.789  1.00  0.00    -0.274 OA
BRANCH  12  14
ATOM     14  C   UNL A   1      30.185  27.329  22.983  1.00  0.00     0.135 C 
BRANCH  14  15
ATOM     15  C   UNL A   1      29.427  28.633  23.068  1.00  0.00    -0.036 A 
ATOM     16  C   UNL A   1      28.202  28.804  22.407  1.00  0.00     0.007 A 
ATOM     17  C   UNL A   1      29.971  29.720  23.776  1.00  0.00     0.046 A 
ATOM     18  C   UNL A   1      27.494  30.006  22.525  1.00  0.00     0.043 A 
ATOM     19  C   UNL A   1      29.264  30.914  23.884  1.00  0.00     0.159 A 
ATOM     20  C   UNL A   1      28.024  31.050  23.275  1.00  0.00     0.158 A 
ATOM     21  F   UNL A   1      29.779  31.922  24.600  1.00  0.00    -0.204 F 
ATOM     22  F   UNL A   1      27.323  32.184  23.412  1.00  0.00    -0.204 F 
ENDBRANCH  14  15
ENDBRANCH  12  14
ENDBRANCH   8  12
ENDBRANCH   3   5
ENDBRANCH   2   3
ENDBRANCH   1   2
BRANCH   1  23
ATOM     23  C   UNL A   1      34.450  29.929  26.969  1.00  0.00     0.275 C 
BRANCH  23  24
ATOM     24  O   UNL A   1      35.192  29.389  28.073  1.00  0.00    -0.458 OA
BRANCH  24  25
ATOM     25  C   UNL A   1      35.905  30.276  28.795  1.00  0.00     0.338 C 
ATOM     26  O   UNL A   1      35.466  31.227  29.434  1.00  0.00    -0.246 OA
BRANCH  25  27
ATOM     27  C   UNL A   1      37.346  29.971  28.695  1.00  0.00     0.060 A 
ATOM     28  C   UNL A   1      37.975  29.816  27.457  1.00  0.00     0.016 A 
ATOM     29  C   UNL A   1      38.067  29.749  29.866  1.00  0.00     0.016 A 
ATOM     30  C   UNL A   1      39.293  29.371  27.383  1.00  0.00     0.010 A 
ATOM     31  C   UNL A   1      39.412  29.382  29.794  1.00  0.00     0.010 A 
ATOM     32  C   UNL A   1      40.032  29.160  28.552  1.00  0.00    -0.014 A 
BRANCH  32  33
ATOM     33  C   UNL A   1      41.439  28.684  28.496  1.00  0.00     0.031 A 
ATOM     34  C   UNL A   1      42.569  29.661  28.681  1.00  0.00     0.074 A 
ATOM     35  C   UNL A   1      41.709  27.387  28.250  1.00  0.00     0.049 A 
ATOM     36  N   UNL A   1      43.844  29.509  28.440  1.00  0.00    -0.248 NA
ATOM     37  C   UNL A   1      42.209  30.994  29.191  1.00  0.00     0.031 C 
ATOM     38  C   UNL A   1      40.712  26.326  28.099  1.00  0.00     0.029 A 
ATOM     39  N   UNL A   1      42.908  26.744  28.070  1.00  0.00    -0.354 N 
ATOM     40  C   UNL A   1      44.432  30.739  28.707  1.00  0.00     0.074 A 
ATOM     41  C   UNL A   1      43.373  31.627  29.137  1.00  0.00     0.031 C 
ATOM     42  C   UNL A   1      41.338  25.164  27.864  1.00  0.00     0.029 A 
ATOM     43  C   UNL A   1      42.772  25.411  27.762  1.00  0.00     0.049 A 
ATOM     44  H   UNL A   1      43.781  27.192  28.154  1.00  0.00     0.167 HD
ATOM     45  C   UNL A   1      45.734  31.094  28.593  1.00  0.00     0.037 A 
ATOM     46  C   UNL A   1      43.688  24.499  27.384  1.00  0.00     0.037 A 
ATOM     47  C   UNL A   1      46.785  30.190  28.203  1.00  0.00     0.049 A 
ATOM     48  C   UNL A   1      45.122  24.916  27.242  1.00  0.00     0.074 A 
ATOM     49  C   UNL A   1      48.140  30.445  28.072  1.00  0.00     0.029 A 
ATOM     50  N   UNL A   1      46.601  28.850  27.892  1.00  0.00    -0.354 N 
ATOM     51  N   UNL A   1      45.658  26.097  27.439  1.00  0.00    -0.248 NA
ATOM     52  C   UNL A   1      46.073  23.885  26.808  1.00  0.00     0.031 C 
ATOM     53  C   UNL A   1      48.769  29.267  27.653  1.00  0.00     0.029 A 
ATOM     54  C   UNL A   1      47.813  28.268  27.558  1.00  0.00     0.049 A 
ATOM     55  H   UNL A   1      45.735  28.382  27.905  1.00  0.00     0.167 HD
ATOM     56  C   UNL A   1      47.009  25.953  27.156  1.00  0.00     0.074 A 
ATOM     57  C   UNL A   1      47.213  24.564  26.791  1.00  0.00     0.031 C 
ATOM     58  C   UNL A   1      47.993  26.886  27.190  1.00  0.00     0.037 A 
BRANCH  45  59
ATOM     59  C   UNL A   1      46.083  32.535  28.849  1.00  0.00     0.058 A 
ATOM     60  C   UNL A   1      46.375  33.016  30.134  1.00  0.00     0.135 A 
ATOM     61  C   UNL A   1      46.124  33.450  27.782  1.00  0.00     0.135 A 
ATOM     62  F   UNL A   1      46.330  32.189  31.190  1.00  0.00    -0.206 F 
ATOM     63  C   UNL A   1      46.661  34.360  30.360  1.00  0.00     0.059 A 
ATOM     64  C   UNL A   1      46.432  34.792  27.981  1.00  0.00     0.059 A 
ATOM     65  F   UNL A   1      45.853  33.043  26.532  1.00  0.00    -0.206 F 
ATOM     66  C   UNL A   1      46.678  35.242  29.277  1.00  0.00     0.060 A 
BRANCH  66  67
ATOM     67  S   UNL A   1      47.024  36.988  29.583  1.00  0.00     0.124 S 
ATOM     68  O   UNL A   1      45.796  37.615  29.103  1.00  0.00    -0.237 OA
ATOM     69  O   UNL A   1      47.229  37.022  31.028  1.00  0.00    -0.237 OA
ATOM     70  O   UNL A   1      48.215  37.243  28.779  1.00  0.00    -0.744 OA
ENDBRANCH  66  67
ENDBRANCH  45  59
BRANCH  46  71
ATOM     71  C   UNL A   1      43.248  23.113  27.075  1.00  0.00     0.058 A 
ATOM     72  C   UNL A   1      43.209  22.650  25.754  1.00  0.00     0.135 A 
ATOM     73  C   UNL A   1      42.933  22.207  28.099  1.00  0.00     0.135 A 
ATOM     74  F   UNL A   1      43.492  23.483  24.741  1.00  0.00    -0.206 F 
ATOM     75  C   UNL A   1      42.884  21.330  25.457  1.00  0.00     0.059 A 
ATOM     76  C   UNL A   1      42.628  20.877  27.830  1.00  0.00     0.059 A 
ATOM     77  F   UNL A   1      42.969  22.602  29.382  1.00  0.00    -0.206 F 
ATOM     78  C   UNL A   1      42.605  20.448  26.504  1.00  0.00     0.060 A 
BRANCH  78  79
ATOM     79  S   UNL A   1      42.288  18.712  26.118  1.00  0.00     0.124 S 
ATOM     80  O   UNL A   1      42.583  18.069  27.394  1.00  0.00    -0.237 OA
ATOM     81  O   UNL A   1      40.883  18.733  25.724  1.00  0.00    -0.237 OA
ATOM     82  O   UNL A   1      43.228  18.433  25.037  1.00  0.00    -0.744 OA
ENDBRANCH  78  79
ENDBRANCH  46  71
BRANCH  58  83
ATOM     83  C   UNL A   1      49.379  26.429  26.838  1.00  0.00     0.058 A 
ATOM     84  C   UNL A   1      49.852  26.469  25.518  1.00  0.00     0.135 A 
ATOM     85  C   UNL A   1      50.255  25.978  27.839  1.00  0.00     0.135 A 
ATOM     86  F   UNL A   1      49.049  26.885  24.526  1.00  0.00    -0.206 F 
ATOM     87  C   UNL A   1      51.141  26.059  25.196  1.00  0.00     0.059 A 
ATOM     88  C   UNL A   1      51.555  25.581  27.543  1.00  0.00     0.059 A 
ATOM     89  F   UNL A   1      49.852  25.927  29.118  1.00  0.00    -0.206 F 
ATOM     90  C   UNL A   1      51.986  25.614  26.216  1.00  0.00     0.060 A 
BRANCH  90  91
ATOM     91  S   UNL A   1      53.666  25.107  25.794  1.00  0.00     0.124 S 
ATOM     92  O   UNL A   1      53.455  23.730  25.360  1.00  0.00    -0.237 OA
ATOM     93  O   UNL A   1      54.027  26.054  24.743  1.00  0.00    -0.237 OA
ATOM     94  O   UNL A   1      54.393  25.267  27.049  1.00  0.00    -0.744 OA
ENDBRANCH  90  91
ENDBRANCH  58  83
ENDBRANCH  32  33
ENDBRANCH  25  27
ENDBRANCH  24  25
ENDBRANCH  23  24
ENDBRANCH   1  23
TORSDOF 18
ENDMDL
MODEL 2
REMARK VINA RESULT:     -11.2      4.911     10.422
REMARK SMILES CC[C@H]1SC[C@H](C(=O)OCCOC(=O)c2ccc(-c3c4nc(c(-c5c(F)cc(S(=O)(=O)[O-])cc5F)c5ccc([nH]5)c(-c5c(F)cc(S(=O)(=O)[O-])cc5F)c5nc(c(-c6c(F)cc(S(=O)(=O)[O-])cc6F)c6ccc3[nH]6)C=C5)C=C4)cc2)N1C(=O)Cc1ccc(F)c(F)c1
REMARK SMILES IDX 10 1 9 2 7 3 8 4 6 5 3 6 4 7 81 8 5 9 2 10 1 11 82 12 83 13
REMARK SMILES IDX 84 14 85 15 86 16 92 17 87 18 90 19 88 20 91 21 89 22 11 23
REMARK SMILES IDX 12 24 13 25 14 26 15 27 16 28 80 29 17 30 79 31 18 32 19 33
REMARK SMILES IDX 20 34 73 35 21 36 78 37 72 38 74 39 22 40 77 41 71 42 70 43
REMARK SMILES IDX 23 45 57 46 36 47 56 48 37 49 40 50 55 51 75 52 38 53 39 54
REMARK SMILES IDX 54 56 76 57 41 58 24 59 25 60 34 61 26 62 27 63 33 64 35 65
REMARK SMILES IDX 28 66 29 67 30 68 31 69 32 70 58 71 59 72 68 73 60 74 61 75
REMARK SMILES IDX 67 76 69 77 62 78 63 79 64 80 65 81 66 82 42 83 43 84 52 85
REMARK SMILES IDX 44 86 45 87 51 88 53 89 46 90 47 91 48 92 49 93 50 94
REMARK H PARENT 74 44 40 55
REMARK Flexibility Score: inf
ROOT
ATOM      1  C   UNL A   1      36.137  21.245  25.569  1.00  0.00     0.274 C 
ENDROOT
BRANCH   1   2
ATOM      2  O   UNL A   1      34.923  21.791  25.016  1.00  0.00    -0.461 OA
BRANCH   2   3
ATOM      3  C   UNL A   1      34.514  22.975  25.554  1.00  0.00     0.329 C 
ATOM      4  O   UNL A   1      34.626  23.272  26.736  1.00  0.00    -0.250 OA
BRANCH   3   5
ATOM      5  C   UNL A   1      33.868  23.875  24.488  1.00  0.00     0.206 C 
ATOM      6  C   UNL A   1      31.539  24.447  23.903  1.00  0.00     0.144 C 
ATOM      7  S   UNL A   1      31.765  22.766  23.263  1.00  0.00    -0.134 SA
ATOM      8  N   UNL A   1      32.610  24.569  24.879  1.00  0.00    -0.316 N 
ATOM      9  C   UNL A   1      33.568  22.944  23.293  1.00  0.00     0.109 C 
BRANCH   6  10
ATOM     10  C   UNL A   1      31.643  25.436  22.706  1.00  0.00     0.033 C 
ATOM     11  C   UNL A   1      30.793  26.701  22.754  1.00  0.00     0.007 C 
ENDBRANCH   6  10
BRANCH   8  12
ATOM     12  C   UNL A   1      32.595  25.493  25.913  1.00  0.00     0.228 C 
ATOM     13  O   UNL A   1      31.729  25.439  26.788  1.00  0.00    -0.274 OA
BRANCH  12  14
ATOM     14  C   UNL A   1      33.595  26.657  25.875  1.00  0.00     0.135 C 
BRANCH  14  15
ATOM     15  C   UNL A   1      33.046  28.044  26.115  1.00  0.00    -0.036 A 
ATOM     16  C   UNL A   1      33.509  28.834  27.178  1.00  0.00     0.007 A 
ATOM     17  C   UNL A   1      32.018  28.547  25.297  1.00  0.00     0.046 A 
ATOM     18  C   UNL A   1      33.017  30.130  27.364  1.00  0.00     0.043 A 
ATOM     19  C   UNL A   1      31.531  29.836  25.493  1.00  0.00     0.159 A 
ATOM     20  C   UNL A   1      32.039  30.629  26.511  1.00  0.00     0.158 A 
ATOM     21  F   UNL A   1      30.583  30.312  24.674  1.00  0.00    -0.204 F 
ATOM     22  F   UNL A   1      31.601  31.885  26.676  1.00  0.00    -0.204 F 
ENDBRANCH  14  15
ENDBRANCH  12  14
ENDBRANCH   8  12
ENDBRANCH   3   5
ENDBRANCH   2   3
ENDBRANCH   1   2
BRANCH   1  23
ATOM     23  C   UNL A   1      37.370  21.780  24.842  1.00  0.00     0.275 C 
BRANCH  23  24
ATOM     24  O   UNL A   1      37.815  22.988  25.476  1.00  0.00    -0.458 OA
BRANCH  24  25
ATOM     25  C   UNL A   1      39.064  22.965  25.981  1.00  0.00     0.338 C 
ATOM     26  O   UNL A   1      39.875  22.049  25.894  1.00  0.00    -0.246 OA
BRANCH  25  27
ATOM     27  C   UNL A   1      39.341  24.217  26.712  1.00  0.00     0.060 A 
ATOM     28  C   UNL A   1      40.151  25.216  26.166  1.00  0.00     0.016 A 
ATOM     29  C   UNL A   1      38.852  24.359  28.009  1.00  0.00     0.016 A 
ATOM     30  C   UNL A   1      40.532  26.316  26.931  1.00  0.00     0.010 A 
ATOM     31  C   UNL A   1      39.166  25.501  28.748  1.00  0.00     0.010 A 
ATOM     32  C   UNL A   1      40.034  26.478  28.229  1.00  0.00    -0.014 A 
BRANCH  32  33
ATOM     33  C   UNL A   1      40.429  27.643  29.064  1.00  0.00     0.031 A 
ATOM     34  C   UNL A   1      41.717  27.606  29.841  1.00  0.00     0.074 A 
ATOM     35  C   UNL A   1      39.625  28.720  29.152  1.00  0.00     0.049 A 
ATOM     36  N   UNL A   1      42.132  28.395  30.796  1.00  0.00    -0.248 NA
ATOM     37  C   UNL A   1      42.658  26.523  29.506  1.00  0.00     0.031 C 
ATOM     38  C   UNL A   1      38.374  28.908  28.416  1.00  0.00     0.029 A 
ATOM     39  N   UNL A   1      39.736  29.857  29.913  1.00  0.00    -0.354 N 
ATOM     40  C   UNL A   1      43.348  27.873  31.221  1.00  0.00     0.074 A 
ATOM     41  C   UNL A   1      43.608  26.701  30.412  1.00  0.00     0.031 C 
ATOM     42  C   UNL A   1      37.841  30.093  28.748  1.00  0.00     0.029 A 
ATOM     43  C   UNL A   1      38.665  30.708  29.783  1.00  0.00     0.049 A 
ATOM     44  H   UNL A   1      40.508  30.045  30.494  1.00  0.00     0.167 HD
ATOM     45  C   UNL A   1      44.163  28.326  32.203  1.00  0.00     0.037 A 
ATOM     46  C   UNL A   1      38.347  31.830  30.457  1.00  0.00     0.037 A 
ATOM     47  C   UNL A   1      43.913  29.517  32.974  1.00  0.00     0.049 A 
ATOM     48  C   UNL A   1      39.252  32.305  31.556  1.00  0.00     0.074 A 
ATOM     49  C   UNL A   1      44.683  30.072  33.980  1.00  0.00     0.029 A 
ATOM     50  N   UNL A   1      42.810  30.345  32.815  1.00  0.00    -0.354 N 
ATOM     51  N   UNL A   1      40.368  31.770  31.991  1.00  0.00    -0.248 NA
ATOM     52  C   UNL A   1      38.845  33.522  32.270  1.00  0.00     0.031 C 
ATOM     53  C   UNL A   1      44.032  31.219  34.450  1.00  0.00     0.029 A 
ATOM     54  C   UNL A   1      42.873  31.399  33.710  1.00  0.00     0.049 A 
ATOM     55  H   UNL A   1      42.088  30.203  32.161  1.00  0.00     0.167 HD
ATOM     56  C   UNL A   1      40.801  32.586  33.027  1.00  0.00     0.074 A 
ATOM     57  C   UNL A   1      39.835  33.661  33.144  1.00  0.00     0.031 C 
ATOM     58  C   UNL A   1      41.897  32.455  33.816  1.00  0.00     0.037 A 
BRANCH  45  59
ATOM     59  C   UNL A   1      45.378  27.501  32.529  1.00  0.00     0.058 A 
ATOM     60  C   UNL A   1      45.336  26.435  33.439  1.00  0.00     0.135 A 
ATOM     61  C   UNL A   1      46.609  27.788  31.914  1.00  0.00     0.135 A 
ATOM     62  F   UNL A   1      44.190  26.131  34.069  1.00  0.00    -0.206 F 
ATOM     63  C   UNL A   1      46.478  25.704  33.757  1.00  0.00     0.059 A 
ATOM     64  C   UNL A   1      47.757  27.055  32.197  1.00  0.00     0.059 A 
ATOM     65  F   UNL A   1      46.706  28.798  31.035  1.00  0.00    -0.206 F 
ATOM     66  C   UNL A   1      47.686  26.028  33.137  1.00  0.00     0.060 A 
BRANCH  66  67
ATOM     67  S   UNL A   1      49.167  25.092  33.575  1.00  0.00     0.124 S 
ATOM     68  O   UNL A   1      48.594  23.977  34.323  1.00  0.00    -0.237 OA
ATOM     69  O   UNL A   1      49.727  24.757  32.269  1.00  0.00    -0.237 OA
ATOM     70  O   UNL A   1      49.947  26.041  34.362  1.00  0.00    -0.744 OA
ENDBRANCH  66  67
ENDBRANCH  45  59
BRANCH  46  71
ATOM     71  C   UNL A   1      37.087  32.545  30.125  1.00  0.00     0.058 A 
ATOM     72  C   UNL A   1      35.907  32.288  30.834  1.00  0.00     0.135 A 
ATOM     73  C   UNL A   1      37.060  33.550  29.146  1.00  0.00     0.135 A 
ATOM     74  F   UNL A   1      35.882  31.329  31.772  1.00  0.00    -0.206 F 
ATOM     75  C   UNL A   1      34.743  33.011  30.594  1.00  0.00     0.059 A 
ATOM     76  C   UNL A   1      35.916  34.303  28.903  1.00  0.00     0.059 A 
ATOM     77  F   UNL A   1      38.170  33.840  28.449  1.00  0.00    -0.206 F 
ATOM     78  C   UNL A   1      34.761  34.025  29.632  1.00  0.00     0.060 A 
BRANCH  78  79
ATOM     79  S   UNL A   1      33.278  35.030  29.399  1.00  0.00     0.124 S 
ATOM     80  O   UNL A   1      32.672  34.969  30.725  1.00  0.00    -0.237 OA
ATOM     81  O   UNL A   1      33.836  36.321  29.011  1.00  0.00    -0.237 OA
ATOM     82  O   UNL A   1      32.560  34.324  28.342  1.00  0.00    -0.744 OA
ENDBRANCH  78  79
ENDBRANCH  46  71
BRANCH  58  83
ATOM     83  C   UNL A   1      42.115  33.510  34.861  1.00  0.00     0.058 A 
ATOM     84  C   UNL A   1      42.899  34.644  34.605  1.00  0.00     0.135 A 
ATOM     85  C   UNL A   1      41.504  33.401  36.121  1.00  0.00     0.135 A 
ATOM     86  F   UNL A   1      43.509  34.790  33.418  1.00  0.00    -0.206 F 
ATOM     87  C   UNL A   1      43.089  35.628  35.570  1.00  0.00     0.059 A 
ATOM     88  C   UNL A   1      41.664  34.382  37.094  1.00  0.00     0.059 A 
ATOM     89  F   UNL A   1      40.739  32.337  36.413  1.00  0.00    -0.206 F 
ATOM     90  C   UNL A   1      42.468  35.487  36.813  1.00  0.00     0.060 A 
BRANCH  90  91
ATOM     91  S   UNL A   1      42.699  36.781  38.051  1.00  0.00     0.124 S 
ATOM     92  O   UNL A   1      43.484  36.081  39.062  1.00  0.00    -0.237 OA
ATOM     93  O   UNL A   1      43.407  37.813  37.300  1.00  0.00    -0.237 OA
ATOM     94  O   UNL A   1      41.334  37.124  38.440  1.00  0.00    -0.744 OA
ENDBRANCH  90  91
ENDBRANCH  58  83
ENDBRANCH  32  33
ENDBRANCH  25  27
ENDBRANCH  24  25
ENDBRANCH  23  24
ENDBRANCH   1  23
TORSDOF 18
ENDMDL
MODEL 3
REMARK VINA RESULT:     -11.2      6.324     11.852
REMARK SMILES CC[C@H]1SC[C@H](C(=O)OCCOC(=O)c2ccc(-c3c4nc(c(-c5c(F)cc(S(=O)(=O)[O-])cc5F)c5ccc([nH]5)c(-c5c(F)cc(S(=O)(=O)[O-])cc5F)c5nc(c(-c6c(F)cc(S(=O)(=O)[O-])cc6F)c6ccc3[nH]6)C=C5)C=C4)cc2)N1C(=O)Cc1ccc(F)c(F)c1
REMARK SMILES IDX 10 1 9 2 7 3 8 4 6 5 3 6 4 7 81 8 5 9 2 10 1 11 82 12 83 13
REMARK SMILES IDX 84 14 85 15 86 16 92 17 87 18 90 19 88 20 91 21 89 22 11 23
REMARK SMILES IDX 12 24 13 25 14 26 15 27 16 28 80 29 17 30 79 31 18 32 19 33
REMARK SMILES IDX 20 34 73 35 21 36 78 37 72 38 74 39 22 40 77 41 71 42 70 43
REMARK SMILES IDX 23 45 57 46 36 47 56 48 37 49 40 50 55 51 75 52 38 53 39 54
REMARK SMILES IDX 54 56 76 57 41 58 24 59 25 60 34 61 26 62 27 63 33 64 35 65
REMARK SMILES IDX 28 66 29 67 30 68 31 69 32 70 58 71 59 72 68 73 60 74 61 75
REMARK SMILES IDX 67 76 69 77 62 78 63 79 64 80 65 81 66 82 42 83 43 84 52 85
REMARK SMILES IDX 44 86 45 87 51 88 53 89 46 90 47 91 48 92 49 93 50 94
REMARK H PARENT 74 44 40 55
REMARK Flexibility Score: inf
ROOT
ATOM      1  C   UNL A   1      36.898  21.824  25.763  1.00  0.00     0.274 C 
ENDROOT
BRANCH   1   2
ATOM      2  O   UNL A   1      36.320  21.638  24.456  1.00  0.00    -0.461 OA
BRANCH   2   3
ATOM      3  C   UNL A   1      35.687  22.729  23.935  1.00  0.00     0.329 C 
ATOM      4  O   UNL A   1      35.969  23.242  22.860  1.00  0.00    -0.250 OA
BRANCH   3   5
ATOM      5  C   UNL A   1      34.595  23.245  24.886  1.00  0.00     0.206 C 
ATOM      6  C   UNL A   1      32.548  24.589  24.585  1.00  0.00     0.144 C 
ATOM      7  S   UNL A   1      33.898  25.791  24.458  1.00  0.00    -0.134 SA
ATOM      8  N   UNL A   1      33.215  23.322  24.333  1.00  0.00    -0.316 N 
ATOM      9  C   UNL A   1      35.046  24.664  25.294  1.00  0.00     0.109 C 
BRANCH   6  10
ATOM     10  C   UNL A   1      31.922  24.716  26.005  1.00  0.00     0.033 C 
ATOM     11  C   UNL A   1      30.709  23.850  26.327  1.00  0.00     0.007 C 
ENDBRANCH   6  10
BRANCH   8  12
ATOM     12  C   UNL A   1      32.550  22.181  23.913  1.00  0.00     0.228 C 
ATOM     13  O   UNL A   1      31.920  22.179  22.854  1.00  0.00    -0.274 OA
BRANCH  12  14
ATOM     14  C   UNL A   1      32.502  20.967  24.851  1.00  0.00     0.135 C 
BRANCH  14  15
ATOM     15  C   UNL A   1      32.985  19.648  24.297  1.00  0.00    -0.036 A 
ATOM     16  C   UNL A   1      32.309  19.011  23.246  1.00  0.00     0.007 A 
ATOM     17  C   UNL A   1      34.100  19.009  24.868  1.00  0.00     0.046 A 
ATOM     18  C   UNL A   1      32.790  17.807  22.719  1.00  0.00     0.043 A 
ATOM     19  C   UNL A   1      34.569  17.808  24.342  1.00  0.00     0.159 A 
ATOM     20  C   UNL A   1      33.927  17.219  23.263  1.00  0.00     0.158 A 
ATOM     21  F   UNL A   1      35.660  17.239  24.872  1.00  0.00    -0.204 F 
ATOM     22  F   UNL A   1      34.400  16.085  22.728  1.00  0.00    -0.204 F 
ENDBRANCH  14  15
ENDBRANCH  12  14
ENDBRANCH   8  12
ENDBRANCH   3   5
ENDBRANCH   2   3
ENDBRANCH   1   2
BRANCH   1  23
ATOM     23  C   UNL A   1      38.411  22.023  25.680  1.00  0.00     0.275 C 
BRANCH  23  24
ATOM     24  O   UNL A   1      38.751  23.326  26.177  1.00  0.00    -0.458 OA
BRANCH  24  25
ATOM     25  C   UNL A   1      40.026  23.489  26.581  1.00  0.00     0.338 C 
ATOM     26  O   UNL A   1      40.965  22.725  26.381  1.00  0.00    -0.246 OA
BRANCH  25  27
ATOM     27  C   UNL A   1      40.158  24.739  27.355  1.00  0.00     0.060 A 
ATOM     28  C   UNL A   1      41.357  25.456  27.385  1.00  0.00     0.016 A 
ATOM     29  C   UNL A   1      39.085  25.158  28.141  1.00  0.00     0.016 A 
ATOM     30  C   UNL A   1      41.512  26.541  28.246  1.00  0.00     0.010 A 
ATOM     31  C   UNL A   1      39.214  26.293  28.943  1.00  0.00     0.010 A 
ATOM     32  C   UNL A   1      40.438  26.980  29.027  1.00  0.00    -0.014 A 
BRANCH  32  33
ATOM     33  C   UNL A   1      40.583  28.134  29.953  1.00  0.00     0.031 A 
ATOM     34  C   UNL A   1      41.684  28.138  30.979  1.00  0.00     0.074 A 
ATOM     35  C   UNL A   1      39.714  29.162  29.900  1.00  0.00     0.049 A 
ATOM     36  N   UNL A   1      41.846  28.913  32.018  1.00  0.00    -0.248 NA
ATOM     37  C   UNL A   1      42.736  27.120  30.819  1.00  0.00     0.031 C 
ATOM     38  C   UNL A   1      38.632  29.308  28.925  1.00  0.00     0.029 A 
ATOM     39  N   UNL A   1      39.599  30.275  30.694  1.00  0.00    -0.354 N 
ATOM     40  C   UNL A   1      42.978  28.443  32.672  1.00  0.00     0.074 A 
ATOM     41  C   UNL A   1      43.468  27.316  31.907  1.00  0.00     0.031 C 
ATOM     42  C   UNL A   1      37.972  30.451  29.169  1.00  0.00     0.029 A 
ATOM     43  C   UNL A   1      38.528  31.071  30.366  1.00  0.00     0.049 A 
ATOM     44  H   UNL A   1      40.223  30.484  31.427  1.00  0.00     0.167 HD
ATOM     45  C   UNL A   1      43.546  28.903  33.812  1.00  0.00     0.037 A 
ATOM     46  C   UNL A   1      38.012  32.150  30.987  1.00  0.00     0.037 A 
ATOM     47  C   UNL A   1      43.072  30.050  34.543  1.00  0.00     0.049 A 
ATOM     48  C   UNL A   1      38.641  32.633  32.261  1.00  0.00     0.074 A 
ATOM     49  C   UNL A   1      43.585  30.610  35.701  1.00  0.00     0.029 A 
ATOM     50  N   UNL A   1      41.978  30.823  34.180  1.00  0.00    -0.354 N 
ATOM     51  N   UNL A   1      39.675  32.143  32.903  1.00  0.00    -0.248 NA
ATOM     52  C   UNL A   1      38.025  33.799  32.904  1.00  0.00     0.031 C 
ATOM     53  C   UNL A   1      42.783  31.702  36.053  1.00  0.00     0.029 A 
ATOM     54  C   UNL A   1      41.792  31.846  35.094  1.00  0.00     0.049 A 
ATOM     55  H   UNL A   1      41.415  30.666  33.387  1.00  0.00     0.167 HD
ATOM     56  C   UNL A   1      39.837  32.943  34.027  1.00  0.00     0.074 A 
ATOM     57  C   UNL A   1      38.805  33.960  33.967  1.00  0.00     0.031 C 
ATOM     58  C   UNL A   1      40.753  32.843  35.021  1.00  0.00     0.037 A 
BRANCH  45  59
ATOM     59  C   UNL A   1      44.716  28.134  34.362  1.00  0.00     0.058 A 
ATOM     60  C   UNL A   1      46.035  28.392  33.961  1.00  0.00     0.135 A 
ATOM     61  C   UNL A   1      44.507  27.117  35.310  1.00  0.00     0.135 A 
ATOM     62  F   UNL A   1      46.288  29.339  33.043  1.00  0.00    -0.206 F 
ATOM     63  C   UNL A   1      47.104  27.647  34.451  1.00  0.00     0.059 A 
ATOM     64  C   UNL A   1      45.563  26.377  35.833  1.00  0.00     0.059 A 
ATOM     65  F   UNL A   1      43.265  26.828  35.729  1.00  0.00    -0.206 F 
ATOM     66  C   UNL A   1      46.856  26.635  35.381  1.00  0.00     0.060 A 
BRANCH  66  67
ATOM     67  S   UNL A   1      48.246  25.657  35.993  1.00  0.00     0.124 S 
ATOM     68  O   UNL A   1      49.211  25.815  34.909  1.00  0.00    -0.237 OA
ATOM     69  O   UNL A   1      48.582  26.330  37.243  1.00  0.00    -0.237 OA
ATOM     70  O   UNL A   1      47.680  24.319  36.139  1.00  0.00    -0.744 OA
ENDBRANCH  66  67
ENDBRANCH  45  59
BRANCH  46  71
ATOM     71  C   UNL A   1      36.806  32.807  30.419  1.00  0.00     0.058 A 
ATOM     72  C   UNL A   1      35.533  32.548  30.943  1.00  0.00     0.135 A 
ATOM     73  C   UNL A   1      36.914  33.761  29.395  1.00  0.00     0.135 A 
ATOM     74  F   UNL A   1      35.379  31.637  31.914  1.00  0.00    -0.206 F 
ATOM     75  C   UNL A   1      34.406  33.222  30.480  1.00  0.00     0.059 A 
ATOM     76  C   UNL A   1      35.808  34.465  28.932  1.00  0.00     0.059 A 
ATOM     77  F   UNL A   1      38.116  34.052  28.871  1.00  0.00    -0.206 F 
ATOM     78  C   UNL A   1      34.557  34.187  29.481  1.00  0.00     0.060 A 
BRANCH  78  79
ATOM     79  S   UNL A   1      33.108  35.132  28.959  1.00  0.00     0.124 S 
ATOM     80  O   UNL A   1      33.726  36.318  28.376  1.00  0.00    -0.237 OA
ATOM     81  O   UNL A   1      32.465  34.220  28.019  1.00  0.00    -0.237 OA
ATOM     82  O   UNL A   1      32.382  35.346  30.208  1.00  0.00    -0.744 OA
ENDBRANCH  78  79
ENDBRANCH  46  71
BRANCH  58  83
ATOM     83  C   UNL A   1      40.689  33.870  36.114  1.00  0.00     0.058 A 
ATOM     84  C   UNL A   1      39.908  33.670  37.262  1.00  0.00     0.135 A 
ATOM     85  C   UNL A   1      41.443  35.051  36.027  1.00  0.00     0.135 A 
ATOM     86  F   UNL A   1      39.163  32.561  37.388  1.00  0.00    -0.206 F 
ATOM     87  C   UNL A   1      39.860  34.616  38.281  1.00  0.00     0.059 A 
ATOM     88  C   UNL A   1      41.426  36.001  37.042  1.00  0.00     0.059 A 
ATOM     89  F   UNL A   1      42.211  35.285  34.951  1.00  0.00    -0.206 F 
ATOM     90  C   UNL A   1      40.622  35.781  38.161  1.00  0.00     0.060 A 
BRANCH  90  91
ATOM     91  S   UNL A   1      40.574  36.992  39.498  1.00  0.00     0.124 S 
ATOM     92  O   UNL A   1      41.805  37.739  39.261  1.00  0.00    -0.237 OA
ATOM     93  O   UNL A   1      39.333  37.713  39.228  1.00  0.00    -0.237 OA
ATOM     94  O   UNL A   1      40.560  36.166  40.702  1.00  0.00    -0.744 OA
ENDBRANCH  90  91
ENDBRANCH  58  83
ENDBRANCH  32  33
ENDBRANCH  25  27
ENDBRANCH  24  25
ENDBRANCH  23  24
ENDBRANCH   1  23
TORSDOF 18
ENDMDL
