MODEL 1
REMARK VINA RESULT:     -11.4      0.000      0.000
REMARK SMILES Cc1cc(C)c2c(c1)C=C(C(=O)OCCOC(=O)c1ccc(-c3c4nc(c(-c5c(F)cc(S(=O)(=O)[O-])cc5F)c5ccc([nH]5)c(-c5c(F)cc(S(=O)(=O)[O-])cc5F)c5nc(c(-c6c(F)cc(S(=O)(=O)[O-])cc6F)c6ccc3[nH]6)C=C5)C=C4)cc1)[C@@H](C(F)(F)F)O2
REMARK SMILES IDX 15 1 14 2 13 3 11 4 12 5 10 6 1 7 2 8 3 9 8 10 4 11 7 12
REMARK SMILES IDX 5 13 6 14 9 15 90 16 85 17 86 18 87 19 88 20 89 21 16 22
REMARK SMILES IDX 17 23 18 24 19 25 20 26 84 27 21 28 83 29 22 30 23 31 24 32
REMARK SMILES IDX 77 33 25 34 82 35 76 36 78 37 26 38 81 39 75 40 74 41 27 43
REMARK SMILES IDX 61 44 40 45 60 46 41 47 44 48 59 49 79 50 42 51 43 52 58 54
REMARK SMILES IDX 80 55 45 56 28 57 29 58 38 59 30 60 31 61 37 62 39 63 32 64
REMARK SMILES IDX 33 65 34 66 35 67 36 68 62 69 63 70 72 71 64 72 65 73 71 74
REMARK SMILES IDX 73 75 66 76 67 77 68 78 69 79 70 80 46 81 47 82 56 83 48 84
REMARK SMILES IDX 49 85 55 86 57 87 50 88 51 89 52 90 53 91 54 92
REMARK H PARENT 78 42 44 53
REMARK Flexibility Score: inf
ROOT
ATOM      1  C   UNL A   1      32.589  28.371  27.356  1.00  0.00     0.275 C 
ENDROOT
BRANCH   1   2
ATOM      2  C   UNL A   1      32.112  28.394  25.902  1.00  0.00     0.275 C 
BRANCH   2   3
ATOM      3  O   UNL A   1      32.081  27.070  25.324  1.00  0.00    -0.459 OA
BRANCH   3   4
ATOM      4  C   UNL A   1      33.138  26.758  24.537  1.00  0.00     0.338 C 
ATOM      5  O   UNL A   1      33.684  27.501  23.734  1.00  0.00    -0.246 OA
BRANCH   4   6
ATOM      6  C   UNL A   1      33.596  25.378  24.787  1.00  0.00     0.087 C 
ATOM      7  C   UNL A   1      38.739  22.282  26.119  1.00  0.00     0.044 C 
ATOM      8  C   UNL A   1      37.288  22.433  25.764  1.00  0.00    -0.050 A 
ATOM      9  C   UNL A   1      36.479  21.329  25.474  1.00  0.00     0.010 A 
ATOM     10  C   UNL A   1      36.733  23.709  25.684  1.00  0.00     0.015 A 
ATOM     11  C   UNL A   1      35.125  21.490  25.123  1.00  0.00    -0.008 A 
ATOM     12  C   UNL A   1      35.392  23.880  25.317  1.00  0.00     0.018 A 
ATOM     13  C   UNL A   1      34.286  20.285  24.815  1.00  0.00     0.048 C 
ATOM     14  C   UNL A   1      34.580  22.781  25.054  1.00  0.00     0.130 A 
ATOM     15  C   UNL A   1      34.865  25.217  25.170  1.00  0.00     0.027 C 
ATOM     16  O   UNL A   1      33.252  22.900  24.733  1.00  0.00    -0.475 OA
ATOM     17  C   UNL A   1      32.695  24.222  24.470  1.00  0.00     0.316 C 
BRANCH  17  18
ATOM     18  C   UNL A   1      32.235  24.272  23.004  1.00  0.00     0.430 C 
ATOM     19  F   UNL A   1      31.198  25.128  22.839  1.00  0.00    -0.167 F 
ATOM     20  F   UNL A   1      33.223  24.709  22.183  1.00  0.00    -0.167 F 
ATOM     21  F   UNL A   1      31.838  23.064  22.546  1.00  0.00    -0.167 F 
ENDBRANCH  17  18
ENDBRANCH   4   6
ENDBRANCH   3   4
ENDBRANCH   2   3
ENDBRANCH   1   2
BRANCH   1  22
ATOM     22  O   UNL A   1      34.008  28.589  27.442  1.00  0.00    -0.458 OA
BRANCH  22  23
ATOM     23  C   UNL A   1      34.363  29.836  27.826  1.00  0.00     0.338 C 
ATOM     24  O   UNL A   1      33.635  30.810  27.922  1.00  0.00    -0.246 OA
BRANCH  23  25
ATOM     25  C   UNL A   1      35.774  29.878  28.232  1.00  0.00     0.060 A 
ATOM     26  C   UNL A   1      36.712  30.207  27.265  1.00  0.00     0.016 A 
ATOM     27  C   UNL A   1      36.186  29.358  29.454  1.00  0.00     0.016 A 
ATOM     28  C   UNL A   1      38.041  29.836  27.430  1.00  0.00     0.010 A 
ATOM     29  C   UNL A   1      37.552  29.152  29.686  1.00  0.00     0.010 A 
ATOM     30  C   UNL A   1      38.495  29.335  28.656  1.00  0.00    -0.014 A 
BRANCH  30  31
ATOM     31  C   UNL A   1      39.938  29.010  28.860  1.00  0.00     0.031 A 
ATOM     32  C   UNL A   1      40.895  30.060  29.373  1.00  0.00     0.074 A 
ATOM     33  C   UNL A   1      40.401  27.770  28.588  1.00  0.00     0.049 A 
ATOM     34  N   UNL A   1      42.204  30.054  29.382  1.00  0.00    -0.248 NA
ATOM     35  C   UNL A   1      40.305  31.287  29.935  1.00  0.00     0.031 C 
ATOM     36  C   UNL A   1      39.585  26.633  28.149  1.00  0.00     0.029 A 
ATOM     37  N   UNL A   1      41.673  27.252  28.636  1.00  0.00    -0.354 N 
ATOM     38  C   UNL A   1      42.593  31.287  29.896  1.00  0.00     0.074 A 
ATOM     39  C   UNL A   1      41.381  32.023  30.182  1.00  0.00     0.031 C 
ATOM     40  C   UNL A   1      40.361  25.550  28.017  1.00  0.00     0.029 A 
ATOM     41  C   UNL A   1      41.746  25.939  28.230  1.00  0.00     0.049 A 
ATOM     42  H   UNL A   1      42.455  27.770  28.934  1.00  0.00     0.167 HD
ATOM     43  C   UNL A   1      43.848  31.758  30.103  1.00  0.00     0.037 A 
ATOM     44  C   UNL A   1      42.806  25.145  27.982  1.00  0.00     0.037 A 
ATOM     45  C   UNL A   1      45.044  30.992  29.851  1.00  0.00     0.049 A 
ATOM     46  C   UNL A   1      44.185  25.711  28.152  1.00  0.00     0.074 A 
ATOM     47  C   UNL A   1      46.364  31.377  30.014  1.00  0.00     0.029 A 
ATOM     48  N   UNL A   1      45.067  29.678  29.404  1.00  0.00    -0.354 N 
ATOM     49  N   UNL A   1      44.538  26.911  28.544  1.00  0.00    -0.248 NA
ATOM     50  C   UNL A   1      45.308  24.823  27.829  1.00  0.00     0.031 C 
ATOM     51  C   UNL A   1      47.184  30.314  29.623  1.00  0.00     0.029 A 
ATOM     52  C   UNL A   1      46.377  29.243  29.278  1.00  0.00     0.049 A 
ATOM     53  H   UNL A   1      44.270  29.135  29.205  1.00  0.00     0.167 HD
ATOM     54  C   UNL A   1      45.927  26.914  28.545  1.00  0.00     0.074 A 
ATOM     55  C   UNL A   1      46.347  25.592  28.124  1.00  0.00     0.031 C 
ATOM     56  C   UNL A   1      46.778  27.919  28.869  1.00  0.00     0.037 A 
BRANCH  43  57
ATOM     57  C   UNL A   1      44.010  33.172  30.600  1.00  0.00     0.058 A 
ATOM     58  C   UNL A   1      44.079  34.267  29.725  1.00  0.00     0.135 A 
ATOM     59  C   UNL A   1      44.016  33.441  31.980  1.00  0.00     0.135 A 
ATOM     60  F   UNL A   1      44.096  34.072  28.397  1.00  0.00    -0.206 F 
ATOM     61  C   UNL A   1      44.155  35.575  30.199  1.00  0.00     0.059 A 
ATOM     62  C   UNL A   1      44.061  34.742  32.476  1.00  0.00     0.059 A 
ATOM     63  F   UNL A   1      43.953  32.434  32.864  1.00  0.00    -0.206 F 
ATOM     64  C   UNL A   1      44.137  35.803  31.577  1.00  0.00     0.060 A 
BRANCH  64  65
ATOM     65  S   UNL A   1      44.200  37.507  32.171  1.00  0.00     0.124 S 
ATOM     66  O   UNL A   1      43.791  38.247  30.981  1.00  0.00    -0.237 OA
ATOM     67  O   UNL A   1      43.237  37.488  33.267  1.00  0.00    -0.237 OA
ATOM     68  O   UNL A   1      45.595  37.681  32.566  1.00  0.00    -0.744 OA
ENDBRANCH  64  65
ENDBRANCH  43  57
BRANCH  44  69
ATOM     69  C   UNL A   1      42.592  23.751  27.507  1.00  0.00     0.058 A 
ATOM     70  C   UNL A   1      42.546  23.455  26.137  1.00  0.00     0.135 A 
ATOM     71  C   UNL A   1      42.467  22.681  28.410  1.00  0.00     0.135 A 
ATOM     72  F   UNL A   1      42.651  24.443  25.235  1.00  0.00    -0.206 F 
ATOM     73  C   UNL A   1      42.380  22.153  25.678  1.00  0.00     0.059 A 
ATOM     74  C   UNL A   1      42.336  21.366  27.975  1.00  0.00     0.059 A 
ATOM     75  F   UNL A   1      42.519  22.905  29.732  1.00  0.00    -0.206 F 
ATOM     76  C   UNL A   1      42.284  21.114  26.605  1.00  0.00     0.060 A 
BRANCH  76  77
ATOM     77  S   UNL A   1      42.123  19.422  25.995  1.00  0.00     0.124 S 
ATOM     78  O   UNL A   1      40.688  19.332  25.753  1.00  0.00    -0.237 OA
ATOM     79  O   UNL A   1      42.972  19.446  24.807  1.00  0.00    -0.237 OA
ATOM     80  O   UNL A   1      42.628  18.615  27.101  1.00  0.00    -0.744 OA
ENDBRANCH  76  77
ENDBRANCH  44  69
BRANCH  56  81
ATOM     81  C   UNL A   1      48.248  27.610  28.841  1.00  0.00     0.058 A 
ATOM     82  C   UNL A   1      48.887  26.933  29.890  1.00  0.00     0.135 A 
ATOM     83  C   UNL A   1      49.022  27.975  27.726  1.00  0.00     0.135 A 
ATOM     84  F   UNL A   1      48.194  26.569  30.981  1.00  0.00    -0.206 F 
ATOM     85  C   UNL A   1      50.249  26.658  29.851  1.00  0.00     0.059 A 
ATOM     86  C   UNL A   1      50.379  27.681  27.652  1.00  0.00     0.059 A 
ATOM     87  F   UNL A   1      48.457  28.616  26.691  1.00  0.00    -0.206 F 
ATOM     88  C   UNL A   1      50.986  27.036  28.727  1.00  0.00     0.060 A 
BRANCH  88  89
ATOM     89  S   UNL A   1      52.752  26.663  28.688  1.00  0.00     0.124 S 
ATOM     90  O   UNL A   1      53.318  27.961  28.338  1.00  0.00    -0.237 OA
ATOM     91  O   UNL A   1      53.004  26.209  30.051  1.00  0.00    -0.237 OA
ATOM     92  O   UNL A   1      52.860  25.634  27.658  1.00  0.00    -0.744 OA
ENDBRANCH  88  89
ENDBRANCH  56  81
ENDBRANCH  30  31
ENDBRANCH  23  25
ENDBRANCH  22  23
ENDBRANCH   1  22
TORSDOF 15
ENDMDL
MODEL 2
REMARK VINA RESULT:     -11.1      0.649      1.642
REMARK SMILES Cc1cc(C)c2c(c1)C=C(C(=O)OCCOC(=O)c1ccc(-c3c4nc(c(-c5c(F)cc(S(=O)(=O)[O-])cc5F)c5ccc([nH]5)c(-c5c(F)cc(S(=O)(=O)[O-])cc5F)c5nc(c(-c6c(F)cc(S(=O)(=O)[O-])cc6F)c6ccc3[nH]6)C=C5)C=C4)cc1)[C@@H](C(F)(F)F)O2
REMARK SMILES IDX 15 1 14 2 13 3 11 4 12 5 10 6 1 7 2 8 3 9 8 10 4 11 7 12
REMARK SMILES IDX 5 13 6 14 9 15 90 16 85 17 86 18 87 19 88 20 89 21 16 22
REMARK SMILES IDX 17 23 18 24 19 25 20 26 84 27 21 28 83 29 22 30 23 31 24 32
REMARK SMILES IDX 77 33 25 34 82 35 76 36 78 37 26 38 81 39 75 40 74 41 27 43
REMARK SMILES IDX 61 44 40 45 60 46 41 47 44 48 59 49 79 50 42 51 43 52 58 54
REMARK SMILES IDX 80 55 45 56 28 57 29 58 38 59 30 60 31 61 37 62 39 63 32 64
REMARK SMILES IDX 33 65 34 66 35 67 36 68 62 69 63 70 72 71 64 72 65 73 71 74
REMARK SMILES IDX 73 75 66 76 67 77 68 78 69 79 70 80 46 81 47 82 56 83 48 84
REMARK SMILES IDX 49 85 55 86 57 87 50 88 51 89 52 90 53 91 54 92
REMARK H PARENT 78 42 44 53
REMARK Flexibility Score: inf
ROOT
ATOM      1  C   UNL A   1      32.530  28.377  27.375  1.00  0.00     0.275 C 
ENDROOT
BRANCH   1   2
ATOM      2  C   UNL A   1      32.131  27.971  25.954  1.00  0.00     0.275 C 
BRANCH   2   3
ATOM      3  O   UNL A   1      32.704  26.700  25.574  1.00  0.00    -0.459 OA
BRANCH   3   4
ATOM      4  C   UNL A   1      32.026  25.610  26.004  1.00  0.00     0.338 C 
ATOM      5  O   UNL A   1      30.874  25.590  26.410  1.00  0.00    -0.246 OA
BRANCH   4   6
ATOM      6  C   UNL A   1      32.856  24.394  25.895  1.00  0.00     0.087 C 
ATOM      7  C   UNL A   1      38.758  22.679  26.068  1.00  0.00     0.044 C 
ATOM      8  C   UNL A   1      37.283  22.480  25.875  1.00  0.00    -0.050 A 
ATOM      9  C   UNL A   1      36.754  21.273  25.406  1.00  0.00     0.010 A 
ATOM     10  C   UNL A   1      36.411  23.537  26.132  1.00  0.00     0.015 A 
ATOM     11  C   UNL A   1      35.369  21.110  25.212  1.00  0.00    -0.008 A 
ATOM     12  C   UNL A   1      35.034  23.391  25.924  1.00  0.00     0.018 A 
ATOM     13  C   UNL A   1      34.835  19.803  24.704  1.00  0.00     0.048 C 
ATOM     14  C   UNL A   1      34.505  22.181  25.482  1.00  0.00     0.130 A 
ATOM     15  C   UNL A   1      34.164  24.526  26.128  1.00  0.00     0.027 C 
ATOM     16  O   UNL A   1      33.160  21.981  25.305  1.00  0.00    -0.475 OA
ATOM     17  C   UNL A   1      32.249  23.117  25.396  1.00  0.00     0.316 C 
BRANCH  17  18
ATOM     18  C   UNL A   1      31.591  23.323  24.021  1.00  0.00     0.430 C 
ATOM     19  F   UNL A   1      31.654  22.197  23.269  1.00  0.00    -0.167 F 
ATOM     20  F   UNL A   1      30.275  23.629  24.137  1.00  0.00    -0.167 F 
ATOM     21  F   UNL A   1      32.174  24.315  23.313  1.00  0.00    -0.167 F 
ENDBRANCH  17  18
ENDBRANCH   4   6
ENDBRANCH   3   4
ENDBRANCH   2   3
ENDBRANCH   1   2
BRANCH   1  22
ATOM     22  O   UNL A   1      33.954  28.553  27.485  1.00  0.00    -0.458 OA
BRANCH  22  23
ATOM     23  C   UNL A   1      34.348  29.831  27.683  1.00  0.00     0.338 C 
ATOM     24  O   UNL A   1      33.662  30.835  27.589  1.00  0.00    -0.246 OA
BRANCH  23  25
ATOM     25  C   UNL A   1      35.742  29.884  28.144  1.00  0.00     0.060 A 
ATOM     26  C   UNL A   1      36.714  30.227  27.217  1.00  0.00     0.016 A 
ATOM     27  C   UNL A   1      36.110  29.361  29.379  1.00  0.00     0.016 A 
ATOM     28  C   UNL A   1      38.039  29.868  27.432  1.00  0.00     0.010 A 
ATOM     29  C   UNL A   1      37.469  29.166  29.663  1.00  0.00     0.010 A 
ATOM     30  C   UNL A   1      38.450  29.364  28.672  1.00  0.00    -0.014 A 
BRANCH  30  31
ATOM     31  C   UNL A   1      39.887  29.051  28.931  1.00  0.00     0.031 A 
ATOM     32  C   UNL A   1      40.811  30.105  29.495  1.00  0.00     0.074 A 
ATOM     33  C   UNL A   1      40.374  27.820  28.662  1.00  0.00     0.049 A 
ATOM     34  N   UNL A   1      42.118  30.112  29.558  1.00  0.00    -0.248 NA
ATOM     35  C   UNL A   1      40.185  31.317  30.049  1.00  0.00     0.031 C 
ATOM     36  C   UNL A   1      39.589  26.681  28.176  1.00  0.00     0.029 A 
ATOM     37  N   UNL A   1      41.648  27.315  28.755  1.00  0.00    -0.354 N 
ATOM     38  C   UNL A   1      42.472  31.342  30.103  1.00  0.00     0.074 A 
ATOM     39  C   UNL A   1      41.241  32.061  30.349  1.00  0.00     0.031 C 
ATOM     40  C   UNL A   1      40.382  25.607  28.062  1.00  0.00     0.029 A 
ATOM     41  C   UNL A   1      41.753  26.008  28.335  1.00  0.00     0.049 A 
ATOM     42  H   UNL A   1      42.412  27.837  29.091  1.00  0.00     0.167 HD
ATOM     43  C   UNL A   1      43.712  31.824  30.368  1.00  0.00     0.037 A 
ATOM     44  C   UNL A   1      42.830  25.229  28.122  1.00  0.00     0.037 A 
ATOM     45  C   UNL A   1      44.926  31.074  30.155  1.00  0.00     0.049 A 
ATOM     46  C   UNL A   1      44.195  25.806  28.355  1.00  0.00     0.074 A 
ATOM     47  C   UNL A   1      46.234  31.470  30.377  1.00  0.00     0.029 A 
ATOM     48  N   UNL A   1      44.982  29.766  29.692  1.00  0.00    -0.354 N 
ATOM     49  N   UNL A   1      44.519  27.005  28.777  1.00  0.00    -0.248 NA
ATOM     50  C   UNL A   1      45.340  24.935  28.067  1.00  0.00     0.031 C 
ATOM     51  C   UNL A   1      47.080  30.421  30.006  1.00  0.00     0.029 A 
ATOM     52  C   UNL A   1      46.300  29.346  29.614  1.00  0.00     0.049 A 
ATOM     53  H   UNL A   1      44.199  29.218  29.455  1.00  0.00     0.167 HD
ATOM     54  C   UNL A   1      45.906  27.022  28.834  1.00  0.00     0.074 A 
ATOM     55  C   UNL A   1      46.358  25.711  28.413  1.00  0.00     0.031 C 
ATOM     56  C   UNL A   1      46.732  28.032  29.205  1.00  0.00     0.037 A 
BRANCH  43  57
ATOM     57  C   UNL A   1      43.839  33.232  30.889  1.00  0.00     0.058 A 
ATOM     58  C   UNL A   1      43.895  33.519  32.261  1.00  0.00     0.135 A 
ATOM     59  C   UNL A   1      43.988  34.307  29.994  1.00  0.00     0.135 A 
ATOM     60  F   UNL A   1      43.741  32.537  33.164  1.00  0.00    -0.206 F 
ATOM     61  C   UNL A   1      44.087  34.818  32.728  1.00  0.00     0.059 A 
ATOM     62  C   UNL A   1      44.209  35.608  30.438  1.00  0.00     0.059 A 
ATOM     63  F   UNL A   1      43.941  34.094  28.670  1.00  0.00    -0.206 F 
ATOM     64  C   UNL A   1      44.251  35.855  31.808  1.00  0.00     0.060 A 
BRANCH  64  65
ATOM     65  S   UNL A   1      44.534  37.526  32.432  1.00  0.00     0.124 S 
ATOM     66  O   UNL A   1      43.939  37.446  33.763  1.00  0.00    -0.237 OA
ATOM     67  O   UNL A   1      45.989  37.628  32.393  1.00  0.00    -0.237 OA
ATOM     68  O   UNL A   1      43.821  38.373  31.479  1.00  0.00    -0.744 OA
ENDBRANCH  64  65
ENDBRANCH  43  57
BRANCH  44  69
ATOM     69  C   UNL A   1      42.652  23.839  27.620  1.00  0.00     0.058 A 
ATOM     70  C   UNL A   1      42.521  22.763  28.509  1.00  0.00     0.135 A 
ATOM     71  C   UNL A   1      42.571  23.562  26.244  1.00  0.00     0.135 A 
ATOM     72  F   UNL A   1      42.602  22.973  29.832  1.00  0.00    -0.206 F 
ATOM     73  C   UNL A   1      42.322  21.463  28.056  1.00  0.00     0.059 A 
ATOM     74  C   UNL A   1      42.336  22.276  25.768  1.00  0.00     0.059 A 
ATOM     75  F   UNL A   1      42.675  24.556  25.349  1.00  0.00    -0.206 F 
ATOM     76  C   UNL A   1      42.222  21.231  26.682  1.00  0.00     0.060 A 
BRANCH  76  77
ATOM     77  S   UNL A   1      41.908  19.547  26.110  1.00  0.00     0.124 S 
ATOM     78  O   UNL A   1      40.468  19.577  25.887  1.00  0.00    -0.237 OA
ATOM     79  O   UNL A   1      42.740  19.474  24.913  1.00  0.00    -0.237 OA
ATOM     80  O   UNL A   1      42.358  18.723  27.228  1.00  0.00    -0.744 OA
ENDBRANCH  76  77
ENDBRANCH  44  69
BRANCH  56  81
ATOM     81  C   UNL A   1      48.206  27.739  29.233  1.00  0.00     0.058 A 
ATOM     82  C   UNL A   1      48.828  27.159  30.349  1.00  0.00     0.135 A 
ATOM     83  C   UNL A   1      49.000  28.018  28.108  1.00  0.00     0.135 A 
ATOM     84  F   UNL A   1      48.116  26.880  31.452  1.00  0.00    -0.206 F 
ATOM     85  C   UNL A   1      50.194  26.898  30.361  1.00  0.00     0.059 A 
ATOM     86  C   UNL A   1      50.360  27.735  28.087  1.00  0.00     0.059 A 
ATOM     87  F   UNL A   1      48.450  28.563  27.011  1.00  0.00    -0.206 F 
ATOM     88  C   UNL A   1      50.951  27.190  29.225  1.00  0.00     0.060 A 
BRANCH  88  89
ATOM     89  S   UNL A   1      52.721  26.835  29.253  1.00  0.00     0.124 S 
ATOM     90  O   UNL A   1      52.894  26.110  27.999  1.00  0.00    -0.237 OA
ATOM     91  O   UNL A   1      53.305  28.172  29.299  1.00  0.00    -0.237 OA
ATOM     92  O   UNL A   1      52.890  26.040  30.466  1.00  0.00    -0.744 OA
ENDBRANCH  88  89
ENDBRANCH  56  81
ENDBRANCH  30  31
ENDBRANCH  23  25
ENDBRANCH  22  23
ENDBRANCH   1  22
TORSDOF 15
ENDMDL
MODEL 3
REMARK VINA RESULT:     -11.1      3.747      9.711
REMARK SMILES Cc1cc(C)c2c(c1)C=C(C(=O)OCCOC(=O)c1ccc(-c3c4nc(c(-c5c(F)cc(S(=O)(=O)[O-])cc5F)c5ccc([nH]5)c(-c5c(F)cc(S(=O)(=O)[O-])cc5F)c5nc(c(-c6c(F)cc(S(=O)(=O)[O-])cc6F)c6ccc3[nH]6)C=C5)C=C4)cc1)[C@@H](C(F)(F)F)O2
REMARK SMILES IDX 15 1 14 2 13 3 11 4 12 5 10 6 1 7 2 8 3 9 8 10 4 11 7 12
REMARK SMILES IDX 5 13 6 14 9 15 90 16 85 17 86 18 87 19 88 20 89 21 16 22
REMARK SMILES IDX 17 23 18 24 19 25 20 26 84 27 21 28 83 29 22 30 23 31 24 32
REMARK SMILES IDX 77 33 25 34 82 35 76 36 78 37 26 38 81 39 75 40 74 41 27 43
REMARK SMILES IDX 61 44 40 45 60 46 41 47 44 48 59 49 79 50 42 51 43 52 58 54
REMARK SMILES IDX 80 55 45 56 28 57 29 58 38 59 30 60 31 61 37 62 39 63 32 64
REMARK SMILES IDX 33 65 34 66 35 67 36 68 62 69 63 70 72 71 64 72 65 73 71 74
REMARK SMILES IDX 73 75 66 76 67 77 68 78 69 79 70 80 46 81 47 82 56 83 48 84
REMARK SMILES IDX 49 85 55 86 57 87 50 88 51 89 52 90 53 91 54 92
REMARK H PARENT 78 42 44 53
REMARK Flexibility Score: inf
ROOT
ATOM      1  C   UNL A   1      36.658  23.295  24.097  1.00  0.00     0.275 C 
ENDROOT
BRANCH   1   2
ATOM      2  C   UNL A   1      35.456  22.443  24.511  1.00  0.00     0.275 C 
BRANCH   2   3
ATOM      3  O   UNL A   1      34.215  23.176  24.413  1.00  0.00    -0.459 OA
BRANCH   3   4
ATOM      4  C   UNL A   1      33.800  23.766  25.559  1.00  0.00     0.338 C 
ATOM      5  O   UNL A   1      33.802  23.262  26.672  1.00  0.00    -0.246 OA
BRANCH   4   6
ATOM      6  C   UNL A   1      33.354  25.151  25.310  1.00  0.00     0.087 C 
ATOM      7  C   UNL A   1      34.061  30.815  27.596  1.00  0.00     0.044 C 
ATOM      8  C   UNL A   1      33.478  29.771  26.689  1.00  0.00    -0.050 A 
ATOM      9  C   UNL A   1      32.421  30.055  25.817  1.00  0.00     0.010 A 
ATOM     10  C   UNL A   1      33.973  28.469  26.737  1.00  0.00     0.015 A 
ATOM     11  C   UNL A   1      31.873  29.058  24.988  1.00  0.00    -0.008 A 
ATOM     12  C   UNL A   1      33.422  27.467  25.930  1.00  0.00     0.018 A 
ATOM     13  C   UNL A   1      30.737  29.396  24.066  1.00  0.00     0.048 C 
ATOM     14  C   UNL A   1      32.387  27.755  25.044  1.00  0.00     0.130 A 
ATOM     15  C   UNL A   1      33.906  26.111  26.056  1.00  0.00     0.027 C 
ATOM     16  O   UNL A   1      31.846  26.815  24.205  1.00  0.00    -0.475 OA
ATOM     17  C   UNL A   1      32.223  25.414  24.362  1.00  0.00     0.316 C 
BRANCH  17  18
ATOM     18  C   UNL A   1      30.972  24.618  24.767  1.00  0.00     0.430 C 
ATOM     19  F   UNL A   1      30.995  23.364  24.252  1.00  0.00    -0.167 F 
ATOM     20  F   UNL A   1      30.882  24.474  26.113  1.00  0.00    -0.167 F 
ATOM     21  F   UNL A   1      29.828  25.205  24.349  1.00  0.00    -0.167 F 
ENDBRANCH  17  18
ENDBRANCH   4   6
ENDBRANCH   3   4
ENDBRANCH   2   3
ENDBRANCH   1   2
BRANCH   1  22
ATOM     22  O   UNL A   1      37.241  23.960  25.231  1.00  0.00    -0.458 OA
BRANCH  22  23
ATOM     23  C   UNL A   1      38.351  23.363  25.722  1.00  0.00     0.338 C 
ATOM     24  O   UNL A   1      38.769  22.250  25.450  1.00  0.00    -0.246 OA
BRANCH  23  25
ATOM     25  C   UNL A   1      39.097  24.281  26.593  1.00  0.00     0.060 A 
ATOM     26  C   UNL A   1      38.812  24.254  27.951  1.00  0.00     0.016 A 
ATOM     27  C   UNL A   1      39.862  25.314  26.062  1.00  0.00     0.016 A 
ATOM     28  C   UNL A   1      39.115  25.352  28.747  1.00  0.00     0.010 A 
ATOM     29  C   UNL A   1      40.320  26.332  26.908  1.00  0.00     0.010 A 
ATOM     30  C   UNL A   1      39.905  26.397  28.252  1.00  0.00    -0.014 A 
BRANCH  30  31
ATOM     31  C   UNL A   1      40.297  27.540  29.130  1.00  0.00     0.031 A 
ATOM     32  C   UNL A   1      41.575  27.486  29.933  1.00  0.00     0.074 A 
ATOM     33  C   UNL A   1      39.508  28.634  29.213  1.00  0.00     0.049 A 
ATOM     34  N   UNL A   1      41.963  28.248  30.924  1.00  0.00    -0.248 NA
ATOM     35  C   UNL A   1      42.539  26.428  29.588  1.00  0.00     0.031 C 
ATOM     36  C   UNL A   1      38.278  28.858  28.448  1.00  0.00     0.029 A 
ATOM     37  N   UNL A   1      39.619  29.768  29.981  1.00  0.00    -0.354 N 
ATOM     38  C   UNL A   1      43.181  27.732  31.355  1.00  0.00     0.074 A 
ATOM     39  C   UNL A   1      43.468  26.585  30.522  1.00  0.00     0.031 C 
ATOM     40  C   UNL A   1      37.779  30.065  28.746  1.00  0.00     0.029 A 
ATOM     41  C   UNL A   1      38.572  30.647  29.817  1.00  0.00     0.049 A 
ATOM     42  H   UNL A   1      40.375  29.936  30.590  1.00  0.00     0.167 HD
ATOM     43  C   UNL A   1      43.980  28.176  32.357  1.00  0.00     0.037 A 
ATOM     44  C   UNL A   1      38.237  31.762  30.493  1.00  0.00     0.037 A 
ATOM     45  C   UNL A   1      43.697  29.349  33.149  1.00  0.00     0.049 A 
ATOM     46  C   UNL A   1      39.098  32.195  31.642  1.00  0.00     0.074 A 
ATOM     47  C   UNL A   1      44.431  29.879  34.196  1.00  0.00     0.029 A 
ATOM     48  N   UNL A   1      42.603  30.185  32.968  1.00  0.00    -0.354 N 
ATOM     49  N   UNL A   1      40.194  31.641  32.102  1.00  0.00    -0.248 NA
ATOM     50  C   UNL A   1      38.669  33.391  32.377  1.00  0.00     0.031 C 
ATOM     51  C   UNL A   1      43.759  31.007  34.677  1.00  0.00     0.029 A 
ATOM     52  C   UNL A   1      42.640  31.220  33.889  1.00  0.00     0.049 A 
ATOM     53  H   UNL A   1      41.904  30.061  32.286  1.00  0.00     0.167 HD
ATOM     54  C   UNL A   1      40.604  32.440  33.162  1.00  0.00     0.074 A 
ATOM     55  C   UNL A   1      39.643  33.520  33.267  1.00  0.00     0.031 C 
ATOM     56  C   UNL A   1      41.682  32.294  33.972  1.00  0.00     0.037 A 
BRANCH  43  57
ATOM     57  C   UNL A   1      45.223  27.390  32.686  1.00  0.00     0.058 A 
ATOM     58  C   UNL A   1      46.468  27.686  32.110  1.00  0.00     0.135 A 
ATOM     59  C   UNL A   1      45.181  26.373  33.656  1.00  0.00     0.135 A 
ATOM     60  F   UNL A   1      46.568  28.634  31.164  1.00  0.00    -0.206 F 
ATOM     61  C   UNL A   1      47.623  26.999  32.478  1.00  0.00     0.059 A 
ATOM     62  C   UNL A   1      46.327  25.694  34.061  1.00  0.00     0.059 A 
ATOM     63  F   UNL A   1      44.018  26.046  34.240  1.00  0.00    -0.206 F 
ATOM     64  C   UNL A   1      47.544  26.010  33.461  1.00  0.00     0.060 A 
BRANCH  64  65
ATOM     65  S   UNL A   1      49.058  25.156  33.950  1.00  0.00     0.124 S 
ATOM     66  O   UNL A   1      49.743  25.016  32.668  1.00  0.00    -0.237 OA
ATOM     67  O   UNL A   1      49.656  26.100  34.888  1.00  0.00    -0.237 OA
ATOM     68  O   UNL A   1      48.574  23.910  34.538  1.00  0.00    -0.744 OA
ENDBRANCH  64  65
ENDBRANCH  43  57
BRANCH  44  69
ATOM     69  C   UNL A   1      37.006  32.512  30.120  1.00  0.00     0.058 A 
ATOM     70  C   UNL A   1      35.783  32.252  30.754  1.00  0.00     0.135 A 
ATOM     71  C   UNL A   1      37.034  33.529  29.150  1.00  0.00     0.135 A 
ATOM     72  F   UNL A   1      35.702  31.284  31.681  1.00  0.00    -0.206 F 
ATOM     73  C   UNL A   1      34.632  32.966  30.440  1.00  0.00     0.059 A 
ATOM     74  C   UNL A   1      35.905  34.281  28.844  1.00  0.00     0.059 A 
ATOM     75  F   UNL A   1      38.181  33.830  28.522  1.00  0.00    -0.206 F 
ATOM     76  C   UNL A   1      34.706  33.986  29.488  1.00  0.00     0.060 A 
BRANCH  76  77
ATOM     77  S   UNL A   1      33.216  34.942  29.129  1.00  0.00     0.124 S 
ATOM     78  O   UNL A   1      33.782  36.193  28.638  1.00  0.00    -0.237 OA
ATOM     79  O   UNL A   1      32.552  34.106  28.133  1.00  0.00    -0.237 OA
ATOM     80  O   UNL A   1      32.544  35.017  30.422  1.00  0.00    -0.744 OA
ENDBRANCH  76  77
ENDBRANCH  44  69
BRANCH  56  81
ATOM     81  C   UNL A   1      41.913  33.361  35.005  1.00  0.00     0.058 A 
ATOM     82  C   UNL A   1      41.515  33.204  36.340  1.00  0.00     0.135 A 
ATOM     83  C   UNL A   1      42.574  34.550  34.651  1.00  0.00     0.135 A 
ATOM     84  F   UNL A   1      40.874  32.090  36.728  1.00  0.00    -0.206 F 
ATOM     85  C   UNL A   1      41.733  34.203  37.283  1.00  0.00     0.059 A 
ATOM     86  C   UNL A   1      42.831  35.548  35.584  1.00  0.00     0.059 A 
ATOM     87  F   UNL A   1      42.984  34.745  33.387  1.00  0.00    -0.206 F 
ATOM     88  C   UNL A   1      42.392  35.371  36.894  1.00  0.00     0.060 A 
BRANCH  88  89
ATOM     89  S   UNL A   1      42.676  36.654  38.132  1.00  0.00     0.124 S 
ATOM     90  O   UNL A   1      43.246  35.882  39.230  1.00  0.00    -0.237 OA
ATOM     91  O   UNL A   1      43.597  37.552  37.443  1.00  0.00    -0.237 OA
ATOM     92  O   UNL A   1      41.342  37.196  38.373  1.00  0.00    -0.744 OA
ENDBRANCH  88  89
ENDBRANCH  56  81
ENDBRANCH  30  31
ENDBRANCH  23  25
ENDBRANCH  22  23
ENDBRANCH   1  22
TORSDOF 15
ENDMDL
