MODEL 1
REMARK VINA RESULT:     -11.2      0.000      0.000
REMARK SMILES Cc1cc(C)c2c(=O)n(CCCC(=O)OCCOC(=O)c3ccc(-c4c5nc(c(-c6c(F)cc(S(=O)(=O)[O-])cc6F)c6ccc([nH]6)c(-c6c(F)cc(S(=O)(=O)[O-])cc6F)c6nc(c(-c7c(F)cc(S(=O)(=O)[O-])cc7F)c7ccc4[nH]7)C=C6)C=C5)cc3)sc2n1
REMARK SMILES IDX 16 1 15 2 13 3 14 4 12 5 11 6 10 7 9 8 1 9 2 10 3 11 89 12
REMARK SMILES IDX 4 13 88 14 5 15 6 16 87 17 7 18 8 19 17 20 18 21 19 22 20 23
REMARK SMILES IDX 21 24 22 25 86 26 23 27 85 28 24 29 25 30 26 31 79 32 27 33
REMARK SMILES IDX 84 34 78 35 80 36 28 37 83 38 77 39 76 40 29 42 63 43 42 44
REMARK SMILES IDX 62 45 43 46 46 47 61 48 81 49 44 50 45 51 60 53 82 54 47 55
REMARK SMILES IDX 30 56 31 57 40 58 32 59 33 60 39 61 41 62 34 63 35 64 36 65
REMARK SMILES IDX 37 66 38 67 64 68 65 69 74 70 66 71 67 72 73 73 75 74 68 75
REMARK SMILES IDX 69 76 70 77 71 78 72 79 48 80 49 81 58 82 50 83 51 84 57 85
REMARK SMILES IDX 59 86 52 87 53 88 54 89 55 90 56 91
REMARK H PARENT 80 41 46 52
REMARK Flexibility Score: inf
ROOT
ATOM      1  C   UNL A   1      43.385  18.904  25.730  1.00  0.00     0.274 C 
ENDROOT
BRANCH   1   2
ATOM      2  O   UNL A   1      42.241  19.702  25.387  1.00  0.00    -0.462 OA
BRANCH   2   3
ATOM      3  C   UNL A   1      41.453  20.191  26.372  1.00  0.00     0.305 C 
ATOM      4  O   UNL A   1      41.162  19.576  27.393  1.00  0.00    -0.252 OA
BRANCH   3   5
ATOM      5  C   UNL A   1      40.887  21.568  26.057  1.00  0.00     0.124 C 
BRANCH   5   6
ATOM      6  C   UNL A   1      39.673  22.115  26.826  1.00  0.00     0.035 C 
BRANCH   6   7
ATOM      7  C   UNL A   1      38.689  23.067  26.126  1.00  0.00     0.139 C 
BRANCH   7   8
ATOM      8  N   UNL A   1      37.478  22.433  25.625  1.00  0.00    -0.262 N 
ATOM      9  C   UNL A   1      32.968  18.487  24.662  1.00  0.00     0.067 C 
ATOM     10  C   UNL A   1      33.725  19.768  24.816  1.00  0.00     0.039 A 
ATOM     11  C   UNL A   1      33.071  21.003  24.945  1.00  0.00     0.027 A 
ATOM     12  N   UNL A   1      35.067  19.654  24.795  1.00  0.00    -0.241 NA
ATOM     13  C   UNL A   1      33.818  22.177  25.150  1.00  0.00    -0.033 A 
ATOM     14  C   UNL A   1      35.746  20.790  25.003  1.00  0.00     0.146 A 
ATOM     15  C   UNL A   1      33.158  23.513  25.267  1.00  0.00     0.045 C 
ATOM     16  C   UNL A   1      35.193  22.034  25.235  1.00  0.00     0.081 A 
ATOM     17  S   UNL A   1      37.495  20.836  25.008  1.00  0.00    -0.035 S 
ATOM     18  C   UNL A   1      36.225  23.026  25.617  1.00  0.00     0.270 A 
ATOM     19  O   UNL A   1      35.952  24.177  25.926  1.00  0.00    -0.268 OA
ENDBRANCH   7   8
ENDBRANCH   6   7
ENDBRANCH   5   6
ENDBRANCH   3   5
ENDBRANCH   2   3
ENDBRANCH   1   2
BRANCH   1  20
ATOM     20  C   UNL A   1      44.598  19.396  24.960  1.00  0.00     0.275 C 
BRANCH  20  21
ATOM     21  O   UNL A   1      44.222  20.493  24.136  1.00  0.00    -0.458 OA
BRANCH  21  22
ATOM     22  C   UNL A   1      44.916  21.629  24.367  1.00  0.00     0.338 C 
ATOM     23  O   UNL A   1      46.055  21.893  24.024  1.00  0.00    -0.246 OA
BRANCH  22  24
ATOM     24  C   UNL A   1      44.133  22.496  25.234  1.00  0.00     0.060 A 
ATOM     25  C   UNL A   1      43.421  23.547  24.645  1.00  0.00     0.016 A 
ATOM     26  C   UNL A   1      44.389  22.428  26.608  1.00  0.00     0.016 A 
ATOM     27  C   UNL A   1      43.125  24.642  25.422  1.00  0.00     0.010 A 
ATOM     28  C   UNL A   1      44.113  23.526  27.372  1.00  0.00     0.010 A 
ATOM     29  C   UNL A   1      43.563  24.643  26.748  1.00  0.00    -0.014 A 
BRANCH  29  30
ATOM     30  C   UNL A   1      43.432  25.854  27.521  1.00  0.00     0.031 A 
ATOM     31  C   UNL A   1      44.504  26.840  27.263  1.00  0.00     0.074 A 
ATOM     32  C   UNL A   1      42.310  26.090  28.227  1.00  0.00     0.049 A 
ATOM     33  N   UNL A   1      45.371  27.316  28.092  1.00  0.00    -0.248 NA
ATOM     34  C   UNL A   1      44.735  27.230  25.860  1.00  0.00     0.031 C 
ATOM     35  C   UNL A   1      41.074  25.299  28.248  1.00  0.00     0.029 A 
ATOM     36  N   UNL A   1      41.986  27.176  28.970  1.00  0.00    -0.354 N 
ATOM     37  C   UNL A   1      46.110  28.239  27.358  1.00  0.00     0.074 A 
ATOM     38  C   UNL A   1      45.819  27.995  25.970  1.00  0.00     0.031 C 
ATOM     39  C   UNL A   1      40.076  26.052  28.762  1.00  0.00     0.029 A 
ATOM     40  C   UNL A   1      40.628  27.319  29.212  1.00  0.00     0.049 A 
ATOM     41  H   UNL A   1      42.658  27.809  29.311  1.00  0.00     0.167 HD
ATOM     42  C   UNL A   1      46.694  29.313  27.948  1.00  0.00     0.037 A 
ATOM     43  C   UNL A   1      40.015  28.449  29.646  1.00  0.00     0.037 A 
ATOM     44  C   UNL A   1      46.814  29.141  29.372  1.00  0.00     0.049 A 
ATOM     45  C   UNL A   1      41.075  29.313  30.241  1.00  0.00     0.074 A 
ATOM     46  C   UNL A   1      47.441  28.212  30.180  1.00  0.00     0.029 A 
ATOM     47  N   UNL A   1      45.905  29.786  30.176  1.00  0.00    -0.354 N 
ATOM     48  N   UNL A   1      41.752  29.008  31.316  1.00  0.00    -0.248 NA
ATOM     49  C   UNL A   1      41.700  30.306  29.379  1.00  0.00     0.031 C 
ATOM     50  C   UNL A   1      46.558  28.022  31.282  1.00  0.00     0.029 A 
ATOM     51  C   UNL A   1      45.470  28.881  31.111  1.00  0.00     0.049 A 
ATOM     52  H   UNL A   1      45.619  30.725  30.095  1.00  0.00     0.167 HD
ATOM     53  C   UNL A   1      43.045  29.447  31.066  1.00  0.00     0.074 A 
ATOM     54  C   UNL A   1      42.930  30.318  29.898  1.00  0.00     0.031 C 
ATOM     55  C   UNL A   1      44.126  28.847  31.649  1.00  0.00     0.037 A 
BRANCH  42  56
ATOM     56  C   UNL A   1      46.812  30.653  27.272  1.00  0.00     0.058 A 
ATOM     57  C   UNL A   1      48.059  31.299  27.222  1.00  0.00     0.135 A 
ATOM     58  C   UNL A   1      45.694  31.440  26.907  1.00  0.00     0.135 A 
ATOM     59  F   UNL A   1      49.179  30.649  27.574  1.00  0.00    -0.206 F 
ATOM     60  C   UNL A   1      48.181  32.647  26.880  1.00  0.00     0.059 A 
ATOM     61  C   UNL A   1      45.800  32.763  26.503  1.00  0.00     0.059 A 
ATOM     62  F   UNL A   1      44.436  30.993  27.024  1.00  0.00    -0.206 F 
ATOM     63  C   UNL A   1      47.042  33.371  26.535  1.00  0.00     0.060 A 
BRANCH  63  64
ATOM     64  S   UNL A   1      47.180  35.136  26.208  1.00  0.00     0.124 S 
ATOM     65  O   UNL A   1      47.860  35.599  27.412  1.00  0.00    -0.237 OA
ATOM     66  O   UNL A   1      47.966  35.156  24.979  1.00  0.00    -0.237 OA
ATOM     67  O   UNL A   1      45.791  35.560  26.064  1.00  0.00    -0.744 OA
ENDBRANCH  63  64
ENDBRANCH  42  56
BRANCH  43  68
ATOM     68  C   UNL A   1      38.690  28.977  29.221  1.00  0.00     0.058 A 
ATOM     69  C   UNL A   1      37.696  29.281  30.169  1.00  0.00     0.135 A 
ATOM     70  C   UNL A   1      38.460  29.455  27.913  1.00  0.00     0.135 A 
ATOM     71  F   UNL A   1      37.839  28.885  31.444  1.00  0.00    -0.206 F 
ATOM     72  C   UNL A   1      36.573  30.055  29.854  1.00  0.00     0.059 A 
ATOM     73  C   UNL A   1      37.343  30.214  27.572  1.00  0.00     0.059 A 
ATOM     74  F   UNL A   1      39.365  29.281  26.939  1.00  0.00    -0.206 F 
ATOM     75  C   UNL A   1      36.416  30.536  28.554  1.00  0.00     0.060 A 
BRANCH  75  76
ATOM     76  S   UNL A   1      35.066  31.680  28.185  1.00  0.00     0.124 S 
ATOM     77  O   UNL A   1      34.465  31.873  29.499  1.00  0.00    -0.237 OA
ATOM     78  O   UNL A   1      35.778  32.827  27.634  1.00  0.00    -0.237 OA
ATOM     79  O   UNL A   1      34.247  30.940  27.228  1.00  0.00    -0.744 OA
ENDBRANCH  75  76
ENDBRANCH  43  68
BRANCH  55  80
ATOM     80  C   UNL A   1      43.880  27.883  32.784  1.00  0.00     0.058 A 
ATOM     81  C   UNL A   1      43.599  28.274  34.105  1.00  0.00     0.135 A 
ATOM     82  C   UNL A   1      43.754  26.519  32.482  1.00  0.00     0.135 A 
ATOM     83  F   UNL A   1      43.593  29.567  34.455  1.00  0.00    -0.206 F 
ATOM     84  C   UNL A   1      43.244  27.348  35.088  1.00  0.00     0.059 A 
ATOM     85  C   UNL A   1      43.370  25.582  33.438  1.00  0.00     0.059 A 
ATOM     86  F   UNL A   1      43.945  26.090  31.223  1.00  0.00    -0.206 F 
ATOM     87  C   UNL A   1      43.126  26.003  34.744  1.00  0.00     0.060 A 
BRANCH  87  88
ATOM     88  S   UNL A   1      42.576  24.822  35.994  1.00  0.00     0.124 S 
ATOM     89  O   UNL A   1      43.197  25.344  37.207  1.00  0.00    -0.237 OA
ATOM     90  O   UNL A   1      41.122  24.940  35.925  1.00  0.00    -0.237 OA
ATOM     91  O   UNL A   1      43.111  23.548  35.520  1.00  0.00    -0.744 OA
ENDBRANCH  87  88
ENDBRANCH  55  80
ENDBRANCH  29  30
ENDBRANCH  22  24
ENDBRANCH  21  22
ENDBRANCH  20  21
ENDBRANCH   1  20
TORSDOF 17
ENDMDL
MODEL 2
REMARK VINA RESULT:     -11.1      3.204      5.503
REMARK SMILES Cc1cc(C)c2c(=O)n(CCCC(=O)OCCOC(=O)c3ccc(-c4c5nc(c(-c6c(F)cc(S(=O)(=O)[O-])cc6F)c6ccc([nH]6)c(-c6c(F)cc(S(=O)(=O)[O-])cc6F)c6nc(c(-c7c(F)cc(S(=O)(=O)[O-])cc7F)c7ccc4[nH]7)C=C6)C=C5)cc3)sc2n1
REMARK SMILES IDX 16 1 15 2 13 3 14 4 12 5 11 6 10 7 9 8 1 9 2 10 3 11 89 12
REMARK SMILES IDX 4 13 88 14 5 15 6 16 87 17 7 18 8 19 17 20 18 21 19 22 20 23
REMARK SMILES IDX 21 24 22 25 86 26 23 27 85 28 24 29 25 30 26 31 79 32 27 33
REMARK SMILES IDX 84 34 78 35 80 36 28 37 83 38 77 39 76 40 29 42 63 43 42 44
REMARK SMILES IDX 62 45 43 46 46 47 61 48 81 49 44 50 45 51 60 53 82 54 47 55
REMARK SMILES IDX 30 56 31 57 40 58 32 59 33 60 39 61 41 62 34 63 35 64 36 65
REMARK SMILES IDX 37 66 38 67 64 68 65 69 74 70 66 71 67 72 73 73 75 74 68 75
REMARK SMILES IDX 69 76 70 77 71 78 72 79 48 80 49 81 58 82 50 83 51 84 57 85
REMARK SMILES IDX 59 86 52 87 53 88 54 89 55 90 56 91
REMARK H PARENT 80 41 46 52
REMARK Flexibility Score: inf
ROOT
ATOM      1  C   UNL A   1      42.188  20.671  26.351  1.00  0.00     0.274 C 
ENDROOT
BRANCH   1   2
ATOM      2  O   UNL A   1      42.538  19.348  25.913  1.00  0.00    -0.462 OA
BRANCH   2   3
ATOM      3  C   UNL A   1      43.715  19.149  25.276  1.00  0.00     0.305 C 
ATOM      4  O   UNL A   1      44.312  18.078  25.249  1.00  0.00    -0.252 OA
BRANCH   3   5
ATOM      5  C   UNL A   1      44.277  20.416  24.650  1.00  0.00     0.124 C 
BRANCH   5   6
ATOM      6  C   UNL A   1      45.795  20.628  24.530  1.00  0.00     0.035 C 
BRANCH   6   7
ATOM      7  C   UNL A   1      46.361  22.051  24.396  1.00  0.00     0.139 C 
BRANCH   7   8
ATOM      8  N   UNL A   1      45.953  22.972  25.447  1.00  0.00    -0.262 N 
ATOM      9  C   UNL A   1      45.195  25.651  30.840  1.00  0.00     0.067 C 
ATOM     10  C   UNL A   1      45.367  25.447  29.368  1.00  0.00     0.039 A 
ATOM     11  C   UNL A   1      45.675  26.508  28.503  1.00  0.00     0.027 A 
ATOM     12  N   UNL A   1      45.179  24.185  28.933  1.00  0.00    -0.241 NA
ATOM     13  C   UNL A   1      45.890  26.263  27.135  1.00  0.00    -0.033 A 
ATOM     14  C   UNL A   1      45.402  23.986  27.627  1.00  0.00     0.146 A 
ATOM     15  C   UNL A   1      46.195  27.373  26.181  1.00  0.00     0.045 C 
ATOM     16  C   UNL A   1      45.801  24.946  26.717  1.00  0.00     0.081 A 
ATOM     17  S   UNL A   1      45.206  22.415  26.883  1.00  0.00    -0.035 S 
ATOM     18  C   UNL A   1      46.142  24.345  25.407  1.00  0.00     0.270 A 
ATOM     19  O   UNL A   1      46.577  25.003  24.472  1.00  0.00    -0.268 OA
ENDBRANCH   7   8
ENDBRANCH   6   7
ENDBRANCH   5   6
ENDBRANCH   3   5
ENDBRANCH   2   3
ENDBRANCH   1   2
BRANCH   1  20
ATOM     20  C   UNL A   1      40.690  20.751  26.582  1.00  0.00     0.275 C 
BRANCH  20  21
ATOM     21  O   UNL A   1      40.395  21.888  27.385  1.00  0.00    -0.458 OA
BRANCH  21  22
ATOM     22  C   UNL A   1      39.635  22.823  26.774  1.00  0.00     0.338 C 
ATOM     23  O   UNL A   1      38.652  22.647  26.075  1.00  0.00    -0.246 OA
BRANCH  22  24
ATOM     24  C   UNL A   1      40.246  24.130  26.962  1.00  0.00     0.060 A 
ATOM     25  C   UNL A   1      41.478  24.190  27.621  1.00  0.00     0.016 A 
ATOM     26  C   UNL A   1      39.433  25.251  26.764  1.00  0.00     0.016 A 
ATOM     27  C   UNL A   1      41.813  25.362  28.258  1.00  0.00     0.010 A 
ATOM     28  C   UNL A   1      39.757  26.406  27.416  1.00  0.00     0.010 A 
ATOM     29  C   UNL A   1      40.896  26.415  28.218  1.00  0.00    -0.014 A 
BRANCH  29  30
ATOM     30  C   UNL A   1      41.140  27.579  29.036  1.00  0.00     0.031 A 
ATOM     31  C   UNL A   1      42.222  28.446  28.522  1.00  0.00     0.074 A 
ATOM     32  C   UNL A   1      40.293  27.898  30.032  1.00  0.00     0.049 A 
ATOM     33  N   UNL A   1      43.337  28.761  29.092  1.00  0.00    -0.248 NA
ATOM     34  C   UNL A   1      42.114  28.898  27.122  1.00  0.00     0.031 C 
ATOM     35  C   UNL A   1      39.015  27.258  30.370  1.00  0.00     0.029 A 
ATOM     36  N   UNL A   1      40.328  28.962  30.869  1.00  0.00    -0.354 N 
ATOM     37  C   UNL A   1      43.963  29.636  28.212  1.00  0.00     0.074 A 
ATOM     38  C   UNL A   1      43.278  29.521  26.952  1.00  0.00     0.031 C 
ATOM     39  C   UNL A   1      38.302  28.088  31.163  1.00  0.00     0.029 A 
ATOM     40  C   UNL A   1      39.117  29.248  31.482  1.00  0.00     0.049 A 
ATOM     41  H   UNL A   1      41.144  29.488  31.030  1.00  0.00     0.167 HD
ATOM     42  C   UNL A   1      44.822  30.593  28.650  1.00  0.00     0.037 A 
ATOM     43  C   UNL A   1      38.799  30.411  32.104  1.00  0.00     0.037 A 
ATOM     44  C   UNL A   1      45.299  30.314  29.978  1.00  0.00     0.049 A 
ATOM     45  C   UNL A   1      40.084  31.103  32.409  1.00  0.00     0.074 A 
ATOM     46  C   UNL A   1      45.993  29.266  30.552  1.00  0.00     0.029 A 
ATOM     47  N   UNL A   1      44.735  31.007  31.023  1.00  0.00    -0.354 N 
ATOM     48  N   UNL A   1      40.981  30.650  33.244  1.00  0.00    -0.248 NA
ATOM     49  C   UNL A   1      40.577  32.071  31.439  1.00  0.00     0.031 C 
ATOM     50  C   UNL A   1      45.425  29.109  31.849  1.00  0.00     0.029 A 
ATOM     51  C   UNL A   1      44.455  30.099  32.013  1.00  0.00     0.049 A 
ATOM     52  H   UNL A   1      44.563  31.976  31.054  1.00  0.00     0.167 HD
ATOM     53  C   UNL A   1      42.205  30.949  32.660  1.00  0.00     0.074 A 
ATOM     54  C   UNL A   1      41.893  31.903  31.597  1.00  0.00     0.031 C 
ATOM     55  C   UNL A   1      43.314  30.188  32.901  1.00  0.00     0.037 A 
BRANCH  42  56
ATOM     56  C   UNL A   1      44.927  31.952  28.010  1.00  0.00     0.058 A 
ATOM     57  C   UNL A   1      46.130  32.340  27.397  1.00  0.00     0.135 A 
ATOM     58  C   UNL A   1      43.977  32.981  28.211  1.00  0.00     0.135 A 
ATOM     59  F   UNL A   1      47.108  31.445  27.185  1.00  0.00    -0.206 F 
ATOM     60  C   UNL A   1      46.392  33.666  27.051  1.00  0.00     0.059 A 
ATOM     61  C   UNL A   1      44.190  34.294  27.818  1.00  0.00     0.059 A 
ATOM     62  F   UNL A   1      42.840  32.781  28.891  1.00  0.00    -0.206 F 
ATOM     63  C   UNL A   1      45.418  34.636  27.279  1.00  0.00     0.060 A 
BRANCH  63  64
ATOM     64  S   UNL A   1      45.794  36.364  26.944  1.00  0.00     0.124 S 
ATOM     65  O   UNL A   1      46.630  36.251  25.754  1.00  0.00    -0.237 OA
ATOM     66  O   UNL A   1      44.464  36.931  26.742  1.00  0.00    -0.237 OA
ATOM     67  O   UNL A   1      46.477  36.801  28.157  1.00  0.00    -0.744 OA
ENDBRANCH  63  64
ENDBRANCH  42  56
BRANCH  43  68
ATOM     68  C   UNL A   1      37.490  31.119  32.080  1.00  0.00     0.058 A 
ATOM     69  C   UNL A   1      36.905  31.595  33.267  1.00  0.00     0.135 A 
ATOM     70  C   UNL A   1      36.915  31.587  30.879  1.00  0.00     0.135 A 
ATOM     71  F   UNL A   1      37.398  31.220  34.458  1.00  0.00    -0.206 F 
ATOM     72  C   UNL A   1      35.853  32.519  33.264  1.00  0.00     0.059 A 
ATOM     73  C   UNL A   1      35.858  32.494  30.851  1.00  0.00     0.059 A 
ATOM     74  F   UNL A   1      37.426  31.251  29.686  1.00  0.00    -0.206 F 
ATOM     75  C   UNL A   1      35.350  32.980  32.048  1.00  0.00     0.060 A 
BRANCH  75  76
ATOM     76  S   UNL A   1      34.116  34.301  32.038  1.00  0.00     0.124 S 
ATOM     77  O   UNL A   1      33.718  34.334  30.635  1.00  0.00    -0.237 OA
ATOM     78  O   UNL A   1      33.118  33.796  32.973  1.00  0.00    -0.237 OA
ATOM     79  O   UNL A   1      34.865  35.468  32.501  1.00  0.00    -0.744 OA
ENDBRANCH  75  76
ENDBRANCH  43  68
BRANCH  55  80
ATOM     80  C   UNL A   1      43.260  29.187  34.029  1.00  0.00     0.058 A 
ATOM     81  C   UNL A   1      43.478  29.507  35.381  1.00  0.00     0.135 A 
ATOM     82  C   UNL A   1      42.800  27.892  33.747  1.00  0.00     0.135 A 
ATOM     83  F   UNL A   1      43.817  30.750  35.748  1.00  0.00    -0.206 F 
ATOM     84  C   UNL A   1      43.282  28.574  36.401  1.00  0.00     0.059 A 
ATOM     85  C   UNL A   1      42.567  26.955  34.750  1.00  0.00     0.059 A 
ATOM     86  F   UNL A   1      42.511  27.543  32.482  1.00  0.00    -0.206 F 
ATOM     87  C   UNL A   1      42.820  27.300  36.076  1.00  0.00     0.060 A 
BRANCH  87  88
ATOM     88  S   UNL A   1      42.478  26.125  37.405  1.00  0.00     0.124 S 
ATOM     89  O   UNL A   1      41.067  26.371  37.679  1.00  0.00    -0.237 OA
ATOM     90  O   UNL A   1      42.789  24.842  36.781  1.00  0.00    -0.237 OA
ATOM     91  O   UNL A   1      43.398  26.531  38.465  1.00  0.00    -0.744 OA
ENDBRANCH  87  88
ENDBRANCH  55  80
ENDBRANCH  29  30
ENDBRANCH  22  24
ENDBRANCH  21  22
ENDBRANCH  20  21
ENDBRANCH   1  20
TORSDOF 17
ENDMDL
MODEL 3
REMARK VINA RESULT:     -11.0      3.883     11.536
REMARK SMILES Cc1cc(C)c2c(=O)n(CCCC(=O)OCCOC(=O)c3ccc(-c4c5nc(c(-c6c(F)cc(S(=O)(=O)[O-])cc6F)c6ccc([nH]6)c(-c6c(F)cc(S(=O)(=O)[O-])cc6F)c6nc(c(-c7c(F)cc(S(=O)(=O)[O-])cc7F)c7ccc4[nH]7)C=C6)C=C5)cc3)sc2n1
REMARK SMILES IDX 16 1 15 2 13 3 14 4 12 5 11 6 10 7 9 8 1 9 2 10 3 11 89 12
REMARK SMILES IDX 4 13 88 14 5 15 6 16 87 17 7 18 8 19 17 20 18 21 19 22 20 23
REMARK SMILES IDX 21 24 22 25 86 26 23 27 85 28 24 29 25 30 26 31 79 32 27 33
REMARK SMILES IDX 84 34 78 35 80 36 28 37 83 38 77 39 76 40 29 42 63 43 42 44
REMARK SMILES IDX 62 45 43 46 46 47 61 48 81 49 44 50 45 51 60 53 82 54 47 55
REMARK SMILES IDX 30 56 31 57 40 58 32 59 33 60 39 61 41 62 34 63 35 64 36 65
REMARK SMILES IDX 37 66 38 67 64 68 65 69 74 70 66 71 67 72 73 73 75 74 68 75
REMARK SMILES IDX 69 76 70 77 71 78 72 79 48 80 49 81 58 82 50 83 51 84 57 85
REMARK SMILES IDX 59 86 52 87 53 88 54 89 55 90 56 91
REMARK H PARENT 80 41 46 52
REMARK Flexibility Score: inf
ROOT
ATOM      1  C   UNL A   1      33.239  34.259  28.374  1.00  0.00     0.274 C 
ENDROOT
BRANCH   1   2
ATOM      2  O   UNL A   1      32.957  34.565  29.749  1.00  0.00    -0.462 OA
BRANCH   2   3
ATOM      3  C   UNL A   1      32.909  35.858  30.146  1.00  0.00     0.305 C 
ATOM      4  O   UNL A   1      32.907  36.815  29.379  1.00  0.00    -0.252 OA
BRANCH   3   5
ATOM      5  C   UNL A   1      32.936  36.021  31.658  1.00  0.00     0.124 C 
BRANCH   5   6
ATOM      6  C   UNL A   1      33.298  34.839  32.571  1.00  0.00     0.035 C 
BRANCH   6   7
ATOM      7  C   UNL A   1      34.447  34.975  33.583  1.00  0.00     0.139 C 
BRANCH   7   8
ATOM      8  N   UNL A   1      35.724  34.443  33.131  1.00  0.00    -0.262 N 
ATOM      9  C   UNL A   1      41.378  33.975  30.975  1.00  0.00     0.067 C 
ATOM     10  C   UNL A   1      40.131  33.710  31.756  1.00  0.00     0.039 A 
ATOM     11  C   UNL A   1      40.119  32.850  32.865  1.00  0.00     0.027 A 
ATOM     12  N   UNL A   1      39.023  34.331  31.306  1.00  0.00    -0.241 NA
ATOM     13  C   UNL A   1      38.939  32.677  33.610  1.00  0.00    -0.033 A 
ATOM     14  C   UNL A   1      37.920  34.151  32.045  1.00  0.00     0.146 A 
ATOM     15  C   UNL A   1      38.884  31.749  34.781  1.00  0.00     0.045 C 
ATOM     16  C   UNL A   1      37.833  33.403  33.203  1.00  0.00     0.081 A 
ATOM     17  S   UNL A   1      36.387  34.877  31.613  1.00  0.00    -0.035 S 
ATOM     18  C   UNL A   1      36.520  33.578  33.866  1.00  0.00     0.270 A 
ATOM     19  O   UNL A   1      36.247  33.056  34.939  1.00  0.00    -0.268 OA
ENDBRANCH   7   8
ENDBRANCH   6   7
ENDBRANCH   5   6
ENDBRANCH   3   5
ENDBRANCH   2   3
ENDBRANCH   1   2
BRANCH   1  20
ATOM     20  C   UNL A   1      34.642  33.693  28.257  1.00  0.00     0.275 C 
BRANCH  20  21
ATOM     21  O   UNL A   1      34.741  32.507  29.039  1.00  0.00    -0.458 OA
BRANCH  21  22
ATOM     22  C   UNL A   1      35.086  31.404  28.340  1.00  0.00     0.338 C 
ATOM     23  O   UNL A   1      34.558  30.959  27.336  1.00  0.00    -0.246 OA
BRANCH  22  24
ATOM     24  C   UNL A   1      36.147  30.705  29.049  1.00  0.00     0.060 A 
ATOM     25  C   UNL A   1      36.921  31.434  29.958  1.00  0.00     0.016 A 
ATOM     26  C   UNL A   1      36.531  29.454  28.554  1.00  0.00     0.016 A 
ATOM     27  C   UNL A   1      38.192  30.984  30.230  1.00  0.00     0.010 A 
ATOM     28  C   UNL A   1      37.802  29.022  28.809  1.00  0.00     0.010 A 
ATOM     29  C   UNL A   1      38.636  29.835  29.573  1.00  0.00    -0.014 A 
BRANCH  29  30
ATOM     30  C   UNL A   1      40.023  29.456  29.697  1.00  0.00     0.031 A 
ATOM     31  C   UNL A   1      40.462  29.268  31.096  1.00  0.00     0.074 A 
ATOM     32  C   UNL A   1      40.733  29.117  28.605  1.00  0.00     0.049 A 
ATOM     33  N   UNL A   1      41.375  29.911  31.743  1.00  0.00    -0.248 NA
ATOM     34  C   UNL A   1      39.671  28.344  31.930  1.00  0.00     0.031 C 
ATOM     35  C   UNL A   1      40.251  28.961  27.227  1.00  0.00     0.029 A 
ATOM     36  N   UNL A   1      42.018  28.696  28.524  1.00  0.00    -0.354 N 
ATOM     37  C   UNL A   1      41.427  29.310  32.996  1.00  0.00     0.074 A 
ATOM     38  C   UNL A   1      40.237  28.510  33.123  1.00  0.00     0.031 C 
ATOM     39  C   UNL A   1      41.160  28.256  26.518  1.00  0.00     0.029 A 
ATOM     40  C   UNL A   1      42.326  28.021  27.352  1.00  0.00     0.049 A 
ATOM     41  H   UNL A   1      42.677  28.857  29.236  1.00  0.00     0.167 HD
ATOM     42  C   UNL A   1      42.569  29.293  33.732  1.00  0.00     0.037 A 
ATOM     43  C   UNL A   1      43.418  27.241  27.151  1.00  0.00     0.037 A 
ATOM     44  C   UNL A   1      43.511  30.281  33.277  1.00  0.00     0.049 A 
ATOM     45  C   UNL A   1      44.412  27.611  28.199  1.00  0.00     0.074 A 
ATOM     46  C   UNL A   1      43.477  31.656  33.149  1.00  0.00     0.029 A 
ATOM     47  N   UNL A   1      44.562  29.857  32.500  1.00  0.00    -0.354 N 
ATOM     48  N   UNL A   1      44.992  28.779  28.280  1.00  0.00    -0.248 NA
ATOM     49  C   UNL A   1      44.417  26.833  29.429  1.00  0.00     0.031 C 
ATOM     50  C   UNL A   1      44.194  31.936  31.950  1.00  0.00     0.029 A 
ATOM     51  C   UNL A   1      44.665  30.724  31.441  1.00  0.00     0.049 A 
ATOM     52  H   UNL A   1      45.134  29.074  32.671  1.00  0.00     0.167 HD
ATOM     53  C   UNL A   1      45.068  29.053  29.639  1.00  0.00     0.074 A 
ATOM     54  C   UNL A   1      44.782  27.780  30.298  1.00  0.00     0.031 C 
ATOM     55  C   UNL A   1      45.075  30.336  30.107  1.00  0.00     0.037 A 
BRANCH  42  56
ATOM     56  C   UNL A   1      42.956  28.135  34.612  1.00  0.00     0.058 A 
ATOM     57  C   UNL A   1      43.239  28.359  35.970  1.00  0.00     0.135 A 
ATOM     58  C   UNL A   1      43.313  26.862  34.109  1.00  0.00     0.135 A 
ATOM     59  F   UNL A   1      42.964  29.544  36.539  1.00  0.00    -0.206 F 
ATOM     60  C   UNL A   1      43.878  27.403  36.761  1.00  0.00     0.059 A 
ATOM     61  C   UNL A   1      43.892  25.874  34.893  1.00  0.00     0.059 A 
ATOM     62  F   UNL A   1      43.213  26.553  32.809  1.00  0.00    -0.206 F 
ATOM     63  C   UNL A   1      44.210  26.169  36.207  1.00  0.00     0.060 A 
BRANCH  63  64
ATOM     64  S   UNL A   1      45.138  24.978  37.188  1.00  0.00     0.124 S 
ATOM     65  O   UNL A   1      44.275  24.833  38.355  1.00  0.00    -0.237 OA
ATOM     66  O   UNL A   1      45.201  23.830  36.291  1.00  0.00    -0.237 OA
ATOM     67  O   UNL A   1      46.410  25.654  37.422  1.00  0.00    -0.744 OA
ENDBRANCH  63  64
ENDBRANCH  42  56
BRANCH  43  68
ATOM     68  C   UNL A   1      43.486  25.962  26.392  1.00  0.00     0.058 A 
ATOM     69  C   UNL A   1      44.469  25.759  25.406  1.00  0.00     0.135 A 
ATOM     70  C   UNL A   1      42.775  24.813  26.799  1.00  0.00     0.135 A 
ATOM     71  F   UNL A   1      45.210  26.791  24.973  1.00  0.00    -0.206 F 
ATOM     72  C   UNL A   1      44.765  24.490  24.896  1.00  0.00     0.059 A 
ATOM     73  C   UNL A   1      43.041  23.542  26.294  1.00  0.00     0.059 A 
ATOM     74  F   UNL A   1      41.858  24.871  27.775  1.00  0.00    -0.206 F 
ATOM     75  C   UNL A   1      44.058  23.382  25.363  1.00  0.00     0.060 A 
BRANCH  75  76
ATOM     76  S   UNL A   1      44.554  21.724  24.840  1.00  0.00     0.124 S 
ATOM     77  O   UNL A   1      44.604  21.866  23.390  1.00  0.00    -0.237 OA
ATOM     78  O   UNL A   1      45.840  21.564  25.511  1.00  0.00    -0.237 OA
ATOM     79  O   UNL A   1      43.480  20.873  25.347  1.00  0.00    -0.744 OA
ENDBRANCH  75  76
ENDBRANCH  43  68
BRANCH  55  80
ATOM     80  C   UNL A   1      45.284  31.455  29.117  1.00  0.00     0.058 A 
ATOM     81  C   UNL A   1      46.545  31.936  28.721  1.00  0.00     0.135 A 
ATOM     82  C   UNL A   1      44.169  31.938  28.415  1.00  0.00     0.135 A 
ATOM     83  F   UNL A   1      47.669  31.451  29.265  1.00  0.00    -0.206 F 
ATOM     84  C   UNL A   1      46.689  32.877  27.700  1.00  0.00     0.059 A 
ATOM     85  C   UNL A   1      44.290  32.853  27.372  1.00  0.00     0.059 A 
ATOM     86  F   UNL A   1      42.943  31.471  28.700  1.00  0.00    -0.206 F 
ATOM     87  C   UNL A   1      45.554  33.327  27.026  1.00  0.00     0.060 A 
BRANCH  87  88
ATOM     88  S   UNL A   1      45.751  34.474  25.645  1.00  0.00     0.124 S 
ATOM     89  O   UNL A   1      45.349  35.744  26.240  1.00  0.00    -0.237 OA
ATOM     90  O   UNL A   1      47.170  34.345  25.326  1.00  0.00    -0.237 OA
ATOM     91  O   UNL A   1      44.843  33.947  24.630  1.00  0.00    -0.744 OA
ENDBRANCH  87  88
ENDBRANCH  55  80
ENDBRANCH  29  30
ENDBRANCH  22  24
ENDBRANCH  21  22
ENDBRANCH  20  21
ENDBRANCH   1  20
TORSDOF 17
ENDMDL
