MODEL 1
REMARK VINA RESULT:     -10.4      0.000      0.000
REMARK SMILES O=C(OCCOC(=O)[C@@H]1CS[C@H](c2cc(Br)ccc2O)[NH2+]1)c1ccc(-c2c3nc(c(-c4c(F)cc(S(=O)(=O)[O-])cc4F)c4ccc([nH]4)c(-c4c(F)cc(S(=O)(=O)[O-])cc4F)c4nc(c(-c5c(F)cc(S(=O)(=O)[O-])cc5F)c5ccc2[nH]5)C=C4)C=C3)cc1
REMARK SMILES IDX 4 1 3 2 2 3 1 4 22 5 23 6 87 7 24 8 86 9 25 10 26 11 27 12
REMARK SMILES IDX 80 13 28 14 85 15 79 16 81 17 29 18 84 19 78 20 77 21 30 23
REMARK SMILES IDX 64 24 43 25 63 26 44 27 47 28 62 29 82 30 45 31 46 32 61 34
REMARK SMILES IDX 83 35 48 36 31 37 32 38 41 39 33 40 34 41 40 42 42 43 35 44
REMARK SMILES IDX 36 45 37 46 38 47 39 48 65 49 66 50 75 51 67 52 68 53 74 54
REMARK SMILES IDX 76 55 69 56 70 57 71 58 72 59 73 60 49 61 50 62 59 63 51 64
REMARK SMILES IDX 52 65 58 66 60 67 53 68 54 69 55 70 56 71 57 72 5 73 6 74
REMARK SMILES IDX 7 75 8 76 9 77 10 78 21 79 11 80 12 81 13 84 14 85 19 86
REMARK SMILES IDX 15 87 18 88 16 89 17 90 20 91
REMARK H PARENT 81 22 47 33 21 82 21 83 20 92
REMARK Flexibility Score: inf
ROOT
ATOM      1  C   UNL A   1      40.477  20.977  26.908  1.00  0.00     0.275 C 
ENDROOT
BRANCH   1   2
ATOM      2  O   UNL A   1      40.003  22.004  25.993  1.00  0.00    -0.458 OA
BRANCH   2   3
ATOM      3  C   UNL A   1      39.008  22.882  26.323  1.00  0.00     0.338 C 
ATOM      4  O   UNL A   1      37.863  22.744  25.913  1.00  0.00    -0.246 OA
BRANCH   3   5
ATOM      5  C   UNL A   1      39.479  24.210  26.848  1.00  0.00     0.060 A 
ATOM      6  C   UNL A   1      39.350  24.540  28.187  1.00  0.00     0.016 A 
ATOM      7  C   UNL A   1      40.074  25.169  26.015  1.00  0.00     0.016 A 
ATOM      8  C   UNL A   1      39.968  25.673  28.736  1.00  0.00     0.010 A 
ATOM      9  C   UNL A   1      40.668  26.343  26.555  1.00  0.00     0.010 A 
ATOM     10  C   UNL A   1      40.685  26.568  27.940  1.00  0.00    -0.014 A 
BRANCH  10  11
ATOM     11  C   UNL A   1      41.247  27.776  28.626  1.00  0.00     0.031 A 
ATOM     12  C   UNL A   1      42.727  28.008  28.512  1.00  0.00     0.074 A 
ATOM     13  C   UNL A   1      40.484  28.779  29.122  1.00  0.00     0.049 A 
ATOM     14  N   UNL A   1      43.444  29.016  28.931  1.00  0.00    -0.248 NA
ATOM     15  C   UNL A   1      43.489  26.971  27.800  1.00  0.00     0.031 C 
ATOM     16  C   UNL A   1      39.029  28.783  29.167  1.00  0.00     0.029 A 
ATOM     17  N   UNL A   1      40.819  30.029  29.609  1.00  0.00    -0.354 N 
ATOM     18  C   UNL A   1      44.751  28.714  28.575  1.00  0.00     0.074 A 
ATOM     19  C   UNL A   1      44.717  27.460  27.855  1.00  0.00     0.031 C 
ATOM     20  C   UNL A   1      38.594  30.007  29.512  1.00  0.00     0.029 A 
ATOM     21  C   UNL A   1      39.734  30.838  29.891  1.00  0.00     0.049 A 
ATOM     22  H   UNL A   1      41.751  30.319  29.741  1.00  0.00     0.167 HD
ATOM     23  C   UNL A   1      45.884  29.391  28.870  1.00  0.00     0.037 A 
ATOM     24  C   UNL A   1      39.649  32.077  30.434  1.00  0.00     0.037 A 
ATOM     25  C   UNL A   1      45.926  30.622  29.611  1.00  0.00     0.049 A 
ATOM     26  C   UNL A   1      40.923  32.781  30.840  1.00  0.00     0.074 A 
ATOM     27  C   UNL A   1      47.036  31.310  30.067  1.00  0.00     0.029 A 
ATOM     28  N   UNL A   1      44.813  31.346  30.014  1.00  0.00    -0.354 N 
ATOM     29  N   UNL A   1      42.164  32.415  30.621  1.00  0.00    -0.248 NA
ATOM     30  C   UNL A   1      40.797  34.039  31.595  1.00  0.00     0.031 C 
ATOM     31  C   UNL A   1      46.593  32.418  30.799  1.00  0.00     0.029 A 
ATOM     32  C   UNL A   1      45.209  32.458  30.741  1.00  0.00     0.049 A 
ATOM     33  H   UNL A   1      43.879  31.105  29.814  1.00  0.00     0.167 HD
ATOM     34  C   UNL A   1      42.962  33.389  31.212  1.00  0.00     0.074 A 
ATOM     35  C   UNL A   1      42.067  34.384  31.766  1.00  0.00     0.031 C 
ATOM     36  C   UNL A   1      44.314  33.441  31.301  1.00  0.00     0.037 A 
BRANCH  23  37
ATOM     37  C   UNL A   1      47.169  28.698  28.526  1.00  0.00     0.058 A 
ATOM     38  C   UNL A   1      47.851  28.915  27.320  1.00  0.00     0.135 A 
ATOM     39  C   UNL A   1      47.671  27.719  29.401  1.00  0.00     0.135 A 
ATOM     40  F   UNL A   1      47.385  29.805  26.429  1.00  0.00    -0.206 F 
ATOM     41  C   UNL A   1      48.962  28.153  26.973  1.00  0.00     0.059 A 
ATOM     42  C   UNL A   1      48.796  26.969  29.089  1.00  0.00     0.059 A 
ATOM     43  F   UNL A   1      47.041  27.462  30.559  1.00  0.00    -0.206 F 
ATOM     44  C   UNL A   1      49.419  27.175  27.861  1.00  0.00     0.060 A 
BRANCH  44  45
ATOM     45  S   UNL A   1      50.823  26.152  27.375  1.00  0.00     0.124 S 
ATOM     46  O   UNL A   1      51.021  26.573  25.991  1.00  0.00    -0.237 OA
ATOM     47  O   UNL A   1      51.854  26.570  28.318  1.00  0.00    -0.237 OA
ATOM     48  O   UNL A   1      50.327  24.791  27.552  1.00  0.00    -0.744 OA
ENDBRANCH  44  45
ENDBRANCH  23  37
BRANCH  24  49
ATOM     49  C   UNL A   1      38.313  32.701  30.717  1.00  0.00     0.058 A 
ATOM     50  C   UNL A   1      37.616  33.453  29.753  1.00  0.00     0.135 A 
ATOM     51  C   UNL A   1      37.701  32.565  31.976  1.00  0.00     0.135 A 
ATOM     52  F   UNL A   1      38.161  33.665  28.546  1.00  0.00    -0.206 F 
ATOM     53  C   UNL A   1      36.367  34.019  30.018  1.00  0.00     0.059 A 
ATOM     54  C   UNL A   1      36.438  33.084  32.251  1.00  0.00     0.059 A 
ATOM     55  F   UNL A   1      38.321  31.888  32.955  1.00  0.00    -0.206 F 
ATOM     56  C   UNL A   1      35.777  33.813  31.267  1.00  0.00     0.060 A 
BRANCH  56  57
ATOM     57  S   UNL A   1      34.118  34.464  31.578  1.00  0.00     0.124 S 
ATOM     58  O   UNL A   1      33.518  34.391  30.251  1.00  0.00    -0.237 OA
ATOM     59  O   UNL A   1      33.599  33.526  32.567  1.00  0.00    -0.237 OA
ATOM     60  O   UNL A   1      34.376  35.812  32.079  1.00  0.00    -0.744 OA
ENDBRANCH  56  57
ENDBRANCH  24  49
BRANCH  36  61
ATOM     61  C   UNL A   1      44.925  34.609  32.027  1.00  0.00     0.058 A 
ATOM     62  C   UNL A   1      45.255  35.800  31.360  1.00  0.00     0.135 A 
ATOM     63  C   UNL A   1      45.118  34.563  33.417  1.00  0.00     0.135 A 
ATOM     64  F   UNL A   1      45.094  35.897  30.031  1.00  0.00    -0.206 F 
ATOM     65  C   UNL A   1      45.770  36.897  32.043  1.00  0.00     0.059 A 
ATOM     66  C   UNL A   1      45.605  35.657  34.125  1.00  0.00     0.059 A 
ATOM     67  F   UNL A   1      44.808  33.452  34.106  1.00  0.00    -0.206 F 
ATOM     68  C   UNL A   1      45.936  36.818  33.427  1.00  0.00     0.060 A 
BRANCH  68  69
ATOM     69  S   UNL A   1      46.560  38.266  34.307  1.00  0.00     0.124 S 
ATOM     70  O   UNL A   1      45.412  38.626  35.133  1.00  0.00    -0.237 OA
ATOM     71  O   UNL A   1      47.710  37.724  35.022  1.00  0.00    -0.237 OA
ATOM     72  O   UNL A   1      46.880  39.203  33.235  1.00  0.00    -0.744 OA
ENDBRANCH  68  69
ENDBRANCH  36  61
ENDBRANCH  10  11
ENDBRANCH   3   5
ENDBRANCH   2   3
ENDBRANCH   1   2
BRANCH   1  73
ATOM     73  C   UNL A   1      40.891  19.701  26.138  1.00  0.00     0.274 C 
BRANCH  73  74
ATOM     74  O   UNL A   1      42.195  19.838  25.577  1.00  0.00    -0.458 OA
BRANCH  74  75
ATOM     75  C   UNL A   1      43.091  18.874  25.884  1.00  0.00     0.365 C 
ATOM     76  O   UNL A   1      43.021  18.138  26.871  1.00  0.00    -0.245 OA
BRANCH  75  77
ATOM     77  C   UNL A   1      44.153  18.738  24.800  1.00  0.00     0.304 C 
ATOM     78  C   UNL A   1      45.528  18.452  25.362  1.00  0.00     0.153 C 
ATOM     79  N   UNL A   1      44.155  19.909  23.894  1.00  0.00    -0.319 N 
ATOM     80  S   UNL A   1      46.400  20.024  25.333  1.00  0.00    -0.087 SA
ATOM     81  C   UNL A   1      45.239  20.836  24.200  1.00  0.00     0.278 C 
ATOM     82  H   UNL A   1      43.266  20.400  23.988  1.00  0.00     0.348 HD
ATOM     83  H   UNL A   1      44.291  19.571  22.941  1.00  0.00     0.348 HD
BRANCH  81  84
ATOM     84  C   UNL A   1      45.031  22.319  24.518  1.00  0.00     0.063 A 
ATOM     85  C   UNL A   1      46.224  23.087  24.463  1.00  0.00     0.030 A 
ATOM     86  C   UNL A   1      43.879  23.055  24.809  1.00  0.00     0.125 A 
ATOM     87  C   UNL A   1      46.266  24.443  24.785  1.00  0.00     0.018 A 
ATOM     88  C   UNL A   1      43.924  24.405  25.201  1.00  0.00     0.048 A 
ATOM     89  Br  UNL A   1      47.891  25.389  24.628  1.00  0.00    -0.051 Br
ATOM     90  C   UNL A   1      45.123  25.098  25.204  1.00  0.00     0.019 A 
BRANCH  86  91
ATOM     91  O   UNL A   1      42.617  22.582  24.631  1.00  0.00    -0.507 OA
ATOM     92  H   UNL A   1      42.464  21.859  24.055  1.00  0.00     0.293 HD
ENDBRANCH  86  91
ENDBRANCH  81  84
ENDBRANCH  75  77
ENDBRANCH  74  75
ENDBRANCH  73  74
ENDBRANCH   1  73
TORSDOF 16
ENDMDL
MODEL 2
REMARK VINA RESULT:     -10.3      2.036      2.871
REMARK SMILES O=C(OCCOC(=O)[C@@H]1CS[C@H](c2cc(Br)ccc2O)[NH2+]1)c1ccc(-c2c3nc(c(-c4c(F)cc(S(=O)(=O)[O-])cc4F)c4ccc([nH]4)c(-c4c(F)cc(S(=O)(=O)[O-])cc4F)c4nc(c(-c5c(F)cc(S(=O)(=O)[O-])cc5F)c5ccc2[nH]5)C=C4)C=C3)cc1
REMARK SMILES IDX 4 1 3 2 2 3 1 4 22 5 23 6 87 7 24 8 86 9 25 10 26 11 27 12
REMARK SMILES IDX 80 13 28 14 85 15 79 16 81 17 29 18 84 19 78 20 77 21 30 23
REMARK SMILES IDX 64 24 43 25 63 26 44 27 47 28 62 29 82 30 45 31 46 32 61 34
REMARK SMILES IDX 83 35 48 36 31 37 32 38 41 39 33 40 34 41 40 42 42 43 35 44
REMARK SMILES IDX 36 45 37 46 38 47 39 48 65 49 66 50 75 51 67 52 68 53 74 54
REMARK SMILES IDX 76 55 69 56 70 57 71 58 72 59 73 60 49 61 50 62 59 63 51 64
REMARK SMILES IDX 52 65 58 66 60 67 53 68 54 69 55 70 56 71 57 72 5 73 6 74
REMARK SMILES IDX 7 75 8 76 9 77 10 78 21 79 11 80 12 81 13 84 14 85 19 86
REMARK SMILES IDX 15 87 18 88 16 89 17 90 20 91
REMARK H PARENT 81 22 47 33 21 82 21 83 20 92
REMARK Flexibility Score: inf
ROOT
ATOM      1  C   UNL A   1      40.708  21.253  27.107  1.00  0.00     0.275 C 
ENDROOT
BRANCH   1   2
ATOM      2  O   UNL A   1      40.187  22.056  26.011  1.00  0.00    -0.458 OA
BRANCH   2   3
ATOM      3  C   UNL A   1      39.096  22.869  26.146  1.00  0.00     0.338 C 
ATOM      4  O   UNL A   1      38.092  22.720  25.461  1.00  0.00    -0.246 OA
BRANCH   3   5
ATOM      5  C   UNL A   1      39.353  24.169  26.856  1.00  0.00     0.060 A 
ATOM      6  C   UNL A   1      38.857  24.404  28.127  1.00  0.00     0.016 A 
ATOM      7  C   UNL A   1      40.110  25.196  26.272  1.00  0.00     0.016 A 
ATOM      8  C   UNL A   1      39.257  25.511  28.888  1.00  0.00     0.010 A 
ATOM      9  C   UNL A   1      40.489  26.345  27.021  1.00  0.00     0.010 A 
ATOM     10  C   UNL A   1      40.124  26.475  28.370  1.00  0.00    -0.014 A 
BRANCH  10  11
ATOM     11  C   UNL A   1      40.431  27.647  29.253  1.00  0.00     0.031 A 
ATOM     12  C   UNL A   1      41.844  27.789  29.743  1.00  0.00     0.074 A 
ATOM     13  C   UNL A   1      39.590  28.693  29.428  1.00  0.00     0.049 A 
ATOM     14  N   UNL A   1      42.388  28.752  30.438  1.00  0.00    -0.248 NA
ATOM     15  C   UNL A   1      42.768  26.708  29.369  1.00  0.00     0.031 C 
ATOM     16  C   UNL A   1      38.240  28.786  28.889  1.00  0.00     0.029 A 
ATOM     17  N   UNL A   1      39.771  29.921  30.038  1.00  0.00    -0.354 N 
ATOM     18  C   UNL A   1      43.710  28.373  30.625  1.00  0.00     0.074 A 
ATOM     19  C   UNL A   1      43.897  27.123  29.920  1.00  0.00     0.031 C 
ATOM     20  C   UNL A   1      37.772  30.034  29.063  1.00  0.00     0.029 A 
ATOM     21  C   UNL A   1      38.710  30.794  29.885  1.00  0.00     0.049 A 
ATOM     22  H   UNL A   1      40.587  30.154  30.538  1.00  0.00     0.167 HD
ATOM     23  C   UNL A   1      44.667  28.980  31.363  1.00  0.00     0.037 A 
ATOM     24  C   UNL A   1      38.484  32.036  30.379  1.00  0.00     0.037 A 
ATOM     25  C   UNL A   1      44.477  30.206  32.090  1.00  0.00     0.049 A 
ATOM     26  C   UNL A   1      39.526  32.661  31.276  1.00  0.00     0.074 A 
ATOM     27  C   UNL A   1      45.348  30.825  32.967  1.00  0.00     0.029 A 
ATOM     28  N   UNL A   1      43.337  30.995  32.034  1.00  0.00    -0.354 N 
ATOM     29  N   UNL A   1      40.729  32.222  31.561  1.00  0.00    -0.248 NA
ATOM     30  C   UNL A   1      39.179  33.924  31.949  1.00  0.00     0.031 C 
ATOM     31  C   UNL A   1      44.712  31.958  33.489  1.00  0.00     0.029 A 
ATOM     32  C   UNL A   1      43.471  32.080  32.885  1.00  0.00     0.049 A 
ATOM     33  H   UNL A   1      42.549  30.811  31.473  1.00  0.00     0.167 HD
ATOM     34  C   UNL A   1      41.277  33.145  32.445  1.00  0.00     0.074 A 
ATOM     35  C   UNL A   1      40.292  34.192  32.620  1.00  0.00     0.031 C 
ATOM     36  C   UNL A   1      42.483  33.116  33.066  1.00  0.00     0.037 A 
BRANCH  23  37
ATOM     37  C   UNL A   1      45.942  28.210  31.543  1.00  0.00     0.058 A 
ATOM     38  C   UNL A   1      46.118  27.257  32.556  1.00  0.00     0.135 A 
ATOM     39  C   UNL A   1      47.042  28.514  30.722  1.00  0.00     0.135 A 
ATOM     40  F   UNL A   1      45.112  26.967  33.396  1.00  0.00    -0.206 F 
ATOM     41  C   UNL A   1      47.357  26.665  32.781  1.00  0.00     0.059 A 
ATOM     42  C   UNL A   1      48.279  27.912  30.908  1.00  0.00     0.059 A 
ATOM     43  F   UNL A   1      46.927  29.433  29.750  1.00  0.00    -0.206 F 
ATOM     44  C   UNL A   1      48.433  27.008  31.957  1.00  0.00     0.060 A 
BRANCH  44  45
ATOM     45  S   UNL A   1      50.048  26.280  32.294  1.00  0.00     0.124 S 
ATOM     46  O   UNL A   1      50.508  25.959  30.945  1.00  0.00    -0.237 OA
ATOM     47  O   UNL A   1      50.750  27.373  32.959  1.00  0.00    -0.237 OA
ATOM     48  O   UNL A   1      49.733  25.133  33.139  1.00  0.00    -0.744 OA
ENDBRANCH  44  45
ENDBRANCH  23  37
BRANCH  24  49
ATOM     49  C   UNL A   1      37.182  32.739  30.121  1.00  0.00     0.058 A 
ATOM     50  C   UNL A   1      36.041  32.523  30.915  1.00  0.00     0.135 A 
ATOM     51  C   UNL A   1      37.048  33.648  29.057  1.00  0.00     0.135 A 
ATOM     52  F   UNL A   1      36.081  31.633  31.918  1.00  0.00    -0.206 F 
ATOM     53  C   UNL A   1      34.837  33.191  30.678  1.00  0.00     0.059 A 
ATOM     54  C   UNL A   1      35.873  34.359  28.826  1.00  0.00     0.059 A 
ATOM     55  F   UNL A   1      38.086  33.882  28.238  1.00  0.00    -0.206 F 
ATOM     56  C   UNL A   1      34.769  34.122  29.641  1.00  0.00     0.060 A 
BRANCH  56  57
ATOM     57  S   UNL A   1      33.241  35.058  29.394  1.00  0.00     0.124 S 
ATOM     58  O   UNL A   1      33.753  36.353  28.962  1.00  0.00    -0.237 OA
ATOM     59  O   UNL A   1      32.557  34.269  28.375  1.00  0.00    -0.237 OA
ATOM     60  O   UNL A   1      32.617  35.036  30.715  1.00  0.00    -0.744 OA
ENDBRANCH  56  57
ENDBRANCH  24  49
BRANCH  36  61
ATOM     61  C   UNL A   1      42.816  34.244  34.004  1.00  0.00     0.058 A 
ATOM     62  C   UNL A   1      42.514  34.176  35.374  1.00  0.00     0.135 A 
ATOM     63  C   UNL A   1      43.509  35.375  33.543  1.00  0.00     0.135 A 
ATOM     64  F   UNL A   1      41.849  33.119  35.867  1.00  0.00    -0.206 F 
ATOM     65  C   UNL A   1      42.871  35.197  36.249  1.00  0.00     0.059 A 
ATOM     66  C   UNL A   1      43.901  36.394  34.404  1.00  0.00     0.059 A 
ATOM     67  F   UNL A   1      43.833  35.485  32.244  1.00  0.00    -0.206 F 
ATOM     68  C   UNL A   1      43.570  36.300  35.755  1.00  0.00     0.060 A 
BRANCH  68  69
ATOM     69  S   UNL A   1      44.069  37.595  36.911  1.00  0.00     0.124 S 
ATOM     70  O   UNL A   1      44.101  38.768  36.044  1.00  0.00    -0.237 OA
ATOM     71  O   UNL A   1      42.993  37.564  37.896  1.00  0.00    -0.237 OA
ATOM     72  O   UNL A   1      45.367  37.135  37.395  1.00  0.00    -0.744 OA
ENDBRANCH  68  69
ENDBRANCH  36  61
ENDBRANCH  10  11
ENDBRANCH   3   5
ENDBRANCH   2   3
ENDBRANCH   1   2
BRANCH   1  73
ATOM     73  C   UNL A   1      41.104  19.841  26.617  1.00  0.00     0.274 C 
BRANCH  73  74
ATOM     74  O   UNL A   1      42.289  19.884  25.825  1.00  0.00    -0.458 OA
BRANCH  74  75
ATOM     75  C   UNL A   1      43.165  18.868  25.990  1.00  0.00     0.365 C 
ATOM     76  O   UNL A   1      43.133  18.057  26.919  1.00  0.00    -0.245 OA
BRANCH  75  77
ATOM     77  C   UNL A   1      44.144  18.785  24.826  1.00  0.00     0.304 C 
ATOM     78  C   UNL A   1      45.564  18.518  25.276  1.00  0.00     0.153 C 
ATOM     79  N   UNL A   1      44.051  19.978  23.954  1.00  0.00    -0.319 N 
ATOM     80  S   UNL A   1      46.396  20.110  25.222  1.00  0.00    -0.087 SA
ATOM     81  C   UNL A   1      45.135  20.923  24.202  1.00  0.00     0.278 C 
ATOM     82  H   UNL A   1      43.162  20.444  24.128  1.00  0.00     0.348 HD
ATOM     83  H   UNL A   1      44.122  19.666  22.985  1.00  0.00     0.348 HD
BRANCH  81  84
ATOM     84  C   UNL A   1      44.919  22.391  24.574  1.00  0.00     0.063 A 
ATOM     85  C   UNL A   1      46.109  23.164  24.560  1.00  0.00     0.030 A 
ATOM     86  C   UNL A   1      43.761  23.112  24.881  1.00  0.00     0.125 A 
ATOM     87  C   UNL A   1      46.144  24.507  24.933  1.00  0.00     0.018 A 
ATOM     88  C   UNL A   1      43.798  24.447  25.325  1.00  0.00     0.048 A 
ATOM     89  Br  UNL A   1      47.768  25.463  24.827  1.00  0.00    -0.051 Br
ATOM     90  C   UNL A   1      44.995  25.143  25.366  1.00  0.00     0.019 A 
BRANCH  86  91
ATOM     91  O   UNL A   1      42.503  22.643  24.674  1.00  0.00    -0.507 OA
ATOM     92  H   UNL A   1      42.080  22.783  23.849  1.00  0.00     0.293 HD
ENDBRANCH  86  91
ENDBRANCH  81  84
ENDBRANCH  75  77
ENDBRANCH  74  75
ENDBRANCH  73  74
ENDBRANCH   1  73
TORSDOF 16
ENDMDL
MODEL 3
REMARK VINA RESULT:     -10.3      4.223     12.406
REMARK SMILES O=C(OCCOC(=O)[C@@H]1CS[C@H](c2cc(Br)ccc2O)[NH2+]1)c1ccc(-c2c3nc(c(-c4c(F)cc(S(=O)(=O)[O-])cc4F)c4ccc([nH]4)c(-c4c(F)cc(S(=O)(=O)[O-])cc4F)c4nc(c(-c5c(F)cc(S(=O)(=O)[O-])cc5F)c5ccc2[nH]5)C=C4)C=C3)cc1
REMARK SMILES IDX 4 1 3 2 2 3 1 4 22 5 23 6 87 7 24 8 86 9 25 10 26 11 27 12
REMARK SMILES IDX 80 13 28 14 85 15 79 16 81 17 29 18 84 19 78 20 77 21 30 23
REMARK SMILES IDX 64 24 43 25 63 26 44 27 47 28 62 29 82 30 45 31 46 32 61 34
REMARK SMILES IDX 83 35 48 36 31 37 32 38 41 39 33 40 34 41 40 42 42 43 35 44
REMARK SMILES IDX 36 45 37 46 38 47 39 48 65 49 66 50 75 51 67 52 68 53 74 54
REMARK SMILES IDX 76 55 69 56 70 57 71 58 72 59 73 60 49 61 50 62 59 63 51 64
REMARK SMILES IDX 52 65 58 66 60 67 53 68 54 69 55 70 56 71 57 72 5 73 6 74
REMARK SMILES IDX 7 75 8 76 9 77 10 78 21 79 11 80 12 81 13 84 14 85 19 86
REMARK SMILES IDX 15 87 18 88 16 89 17 90 20 91
REMARK H PARENT 81 22 47 33 21 82 21 83 20 92
REMARK Flexibility Score: inf
ROOT
ATOM      1  C   UNL A   1      33.796  33.101  27.885  1.00  0.00     0.275 C 
ENDROOT
BRANCH   1   2
ATOM      2  O   UNL A   1      33.985  31.839  28.584  1.00  0.00    -0.458 OA
BRANCH   2   3
ATOM      3  C   UNL A   1      34.709  30.806  28.056  1.00  0.00     0.338 C 
ATOM      4  O   UNL A   1      34.176  29.899  27.428  1.00  0.00    -0.246 OA
BRANCH   3   5
ATOM      5  C   UNL A   1      36.086  30.630  28.634  1.00  0.00     0.060 A 
ATOM      6  C   UNL A   1      36.448  29.464  29.286  1.00  0.00     0.016 A 
ATOM      7  C   UNL A   1      37.065  31.629  28.534  1.00  0.00     0.016 A 
ATOM      8  C   UNL A   1      37.777  29.193  29.642  1.00  0.00     0.010 A 
ATOM      9  C   UNL A   1      38.409  31.381  28.930  1.00  0.00     0.010 A 
ATOM     10  C   UNL A   1      38.793  30.125  29.422  1.00  0.00    -0.014 A 
BRANCH  10  11
ATOM     11  C   UNL A   1      40.163  29.751  29.902  1.00  0.00     0.031 A 
ATOM     12  C   UNL A   1      40.615  30.332  31.212  1.00  0.00     0.074 A 
ATOM     13  C   UNL A   1      40.900  28.753  29.362  1.00  0.00     0.049 A 
ATOM     14  N   UNL A   1      41.708  30.101  31.889  1.00  0.00    -0.248 NA
ATOM     15  C   UNL A   1      39.690  31.281  31.851  1.00  0.00     0.031 C 
ATOM     16  C   UNL A   1      40.533  27.980  28.184  1.00  0.00     0.029 A 
ATOM     17  N   UNL A   1      42.075  28.154  29.779  1.00  0.00    -0.354 N 
ATOM     18  C   UNL A   1      41.625  30.909  33.014  1.00  0.00     0.074 A 
ATOM     19  C   UNL A   1      40.349  31.590  32.955  1.00  0.00     0.031 C 
ATOM     20  C   UNL A   1      41.368  26.935  28.054  1.00  0.00     0.029 A 
ATOM     21  C   UNL A   1      42.448  27.052  29.031  1.00  0.00     0.049 A 
ATOM     22  H   UNL A   1      42.600  28.483  30.545  1.00  0.00     0.167 HD
ATOM     23  C   UNL A   1      42.550  31.109  33.980  1.00  0.00     0.037 A 
ATOM     24  C   UNL A   1      43.543  26.256  29.082  1.00  0.00     0.037 A 
ATOM     25  C   UNL A   1      43.830  30.458  34.027  1.00  0.00     0.049 A 
ATOM     26  C   UNL A   1      44.609  26.551  30.111  1.00  0.00     0.074 A 
ATOM     27  C   UNL A   1      44.881  30.695  34.894  1.00  0.00     0.029 A 
ATOM     28  N   UNL A   1      44.242  29.450  33.167  1.00  0.00    -0.354 N 
ATOM     29  N   UNL A   1      44.579  27.422  31.092  1.00  0.00    -0.248 NA
ATOM     30  C   UNL A   1      45.869  25.794  30.026  1.00  0.00     0.031 C 
ATOM     31  C   UNL A   1      45.951  29.873  34.521  1.00  0.00     0.029 A 
ATOM     32  C   UNL A   1      45.543  29.076  33.464  1.00  0.00     0.049 A 
ATOM     33  H   UNL A   1      43.691  29.058  32.451  1.00  0.00     0.167 HD
ATOM     34  C   UNL A   1      45.808  27.321  31.735  1.00  0.00     0.074 A 
ATOM     35  C   UNL A   1      46.549  26.278  31.058  1.00  0.00     0.031 C 
ATOM     36  C   UNL A   1      46.282  28.042  32.781  1.00  0.00     0.037 A 
BRANCH  23  37
ATOM     37  C   UNL A   1      42.249  32.208  34.956  1.00  0.00     0.058 A 
ATOM     38  C   UNL A   1      41.638  31.978  36.197  1.00  0.00     0.135 A 
ATOM     39  C   UNL A   1      42.505  33.539  34.582  1.00  0.00     0.135 A 
ATOM     40  F   UNL A   1      41.331  30.728  36.578  1.00  0.00    -0.206 F 
ATOM     41  C   UNL A   1      41.247  33.033  37.014  1.00  0.00     0.059 A 
ATOM     42  C   UNL A   1      42.151  34.606  35.396  1.00  0.00     0.059 A 
ATOM     43  F   UNL A   1      43.071  33.811  33.396  1.00  0.00    -0.206 F 
ATOM     44  C   UNL A   1      41.499  34.344  36.599  1.00  0.00     0.060 A 
BRANCH  44  45
ATOM     45  S   UNL A   1      40.935  35.705  37.639  1.00  0.00     0.124 S 
ATOM     46  O   UNL A   1      40.168  36.500  36.683  1.00  0.00    -0.237 OA
ATOM     47  O   UNL A   1      40.154  35.015  38.659  1.00  0.00    -0.237 OA
ATOM     48  O   UNL A   1      42.177  36.313  38.106  1.00  0.00    -0.744 OA
ENDBRANCH  44  45
ENDBRANCH  23  37
BRANCH  24  49
ATOM     49  C   UNL A   1      43.743  25.160  28.075  1.00  0.00     0.058 A 
ATOM     50  C   UNL A   1      44.342  25.389  26.823  1.00  0.00     0.135 A 
ATOM     51  C   UNL A   1      43.325  23.844  28.343  1.00  0.00     0.135 A 
ATOM     52  F   UNL A   1      44.720  26.630  26.478  1.00  0.00    -0.206 F 
ATOM     53  C   UNL A   1      44.537  24.363  25.896  1.00  0.00     0.059 A 
ATOM     54  C   UNL A   1      43.547  22.795  27.454  1.00  0.00     0.059 A 
ATOM     55  F   UNL A   1      42.718  23.556  29.505  1.00  0.00    -0.206 F 
ATOM     56  C   UNL A   1      44.151  23.063  26.230  1.00  0.00     0.060 A 
BRANCH  56  57
ATOM     57  S   UNL A   1      44.491  21.717  25.070  1.00  0.00     0.124 S 
ATOM     58  O   UNL A   1      44.302  22.378  23.784  1.00  0.00    -0.237 OA
ATOM     59  O   UNL A   1      45.864  21.358  25.408  1.00  0.00    -0.237 OA
ATOM     60  O   UNL A   1      43.486  20.714  25.417  1.00  0.00    -0.744 OA
ENDBRANCH  56  57
ENDBRANCH  24  49
BRANCH  36  61
ATOM     61  C   UNL A   1      47.674  27.741  33.267  1.00  0.00     0.058 A 
ATOM     62  C   UNL A   1      47.916  26.767  34.249  1.00  0.00     0.135 A 
ATOM     63  C   UNL A   1      48.784  28.382  32.694  1.00  0.00     0.135 A 
ATOM     64  F   UNL A   1      46.891  26.127  34.832  1.00  0.00    -0.206 F 
ATOM     65  C   UNL A   1      49.208  26.453  34.658  1.00  0.00     0.059 A 
ATOM     66  C   UNL A   1      50.086  28.064  33.067  1.00  0.00     0.059 A 
ATOM     67  F   UNL A   1      48.610  29.313  31.741  1.00  0.00    -0.206 F 
ATOM     68  C   UNL A   1      50.288  27.103  34.057  1.00  0.00     0.060 A 
BRANCH  68  69
ATOM     69  S   UNL A   1      51.961  26.650  34.564  1.00  0.00     0.124 S 
ATOM     70  O   UNL A   1      52.209  27.598  35.644  1.00  0.00    -0.237 OA
ATOM     71  O   UNL A   1      51.796  25.257  34.968  1.00  0.00    -0.237 OA
ATOM     72  O   UNL A   1      52.750  26.856  33.353  1.00  0.00    -0.744 OA
ENDBRANCH  68  69
ENDBRANCH  36  61
ENDBRANCH  10  11
ENDBRANCH   3   5
ENDBRANCH   2   3
ENDBRANCH   1   2
BRANCH   1  73
ATOM     73  C   UNL A   1      34.268  34.289  28.755  1.00  0.00     0.274 C 
BRANCH  73  74
ATOM     74  O   UNL A   1      33.311  34.603  29.763  1.00  0.00    -0.458 OA
BRANCH  74  75
ATOM     75  C   UNL A   1      32.958  35.903  29.880  1.00  0.00     0.365 C 
ATOM     76  O   UNL A   1      32.993  36.726  28.962  1.00  0.00    -0.245 OA
BRANCH  75  77
ATOM     77  C   UNL A   1      32.412  36.207  31.269  1.00  0.00     0.304 C 
ATOM     78  C   UNL A   1      33.081  37.401  31.911  1.00  0.00     0.153 C 
ATOM     79  N   UNL A   1      32.451  35.010  32.140  1.00  0.00    -0.319 N 
ATOM     80  S   UNL A   1      34.278  36.721  33.067  1.00  0.00    -0.087 SA
ATOM     81  C   UNL A   1      33.573  35.050  33.073  1.00  0.00     0.278 C 
ATOM     82  H   UNL A   1      32.538  34.180  31.556  1.00  0.00     0.348 HD
ATOM     83  H   UNL A   1      31.590  34.989  32.686  1.00  0.00     0.348 HD
BRANCH  81  84
ATOM     84  C   UNL A   1      34.634  33.953  33.179  1.00  0.00     0.063 A 
ATOM     85  C   UNL A   1      35.491  34.094  34.301  1.00  0.00     0.030 A 
ATOM     86  C   UNL A   1      34.882  32.820  32.397  1.00  0.00     0.125 A 
ATOM     87  C   UNL A   1      36.566  33.241  34.546  1.00  0.00     0.018 A 
ATOM     88  C   UNL A   1      36.005  31.996  32.597  1.00  0.00     0.048 A 
ATOM     89  Br  UNL A   1      37.614  33.480  36.096  1.00  0.00    -0.051 Br
ATOM     90  C   UNL A   1      36.859  32.215  33.665  1.00  0.00     0.019 A 
BRANCH  86  91
ATOM     91  O   UNL A   1      34.019  32.345  31.462  1.00  0.00    -0.507 OA
ATOM     92  H   UNL A   1      34.318  32.174  30.591  1.00  0.00     0.293 HD
ENDBRANCH  86  91
ENDBRANCH  81  84
ENDBRANCH  75  77
ENDBRANCH  74  75
ENDBRANCH  73  74
ENDBRANCH   1  73
TORSDOF 16
ENDMDL
