MODEL 1
REMARK VINA RESULT:     -11.6      0.000      0.000
REMARK SMILES Cc1ccc(S(=O)(=O)N2CCC(C(=O)N3CCC[C@@H](C(=O)OCCOC(=O)c4ccc(-c5c6nc(c(-c7c(F)cc(S(=O)(=O)[O-])cc7F)c7ccc([nH]7)c(-c7c(F)cc(S(=O)(=O)[O-])cc7F)c7nc(c(-c8c(F)cc(S(=O)(=O)[O-])cc8F)c8ccc5[nH]8)C=C7)C=C6)cc4)C3)CC2)cc1
REMARK SMILES IDX 23 1 22 2 20 3 21 4 19 5 15 6 16 7 94 8 17 9 18 10 13 11
REMARK SMILES IDX 14 12 12 13 9 14 10 15 96 16 11 17 95 18 6 19 7 20 8 21 5 22
REMARK SMILES IDX 1 23 2 24 3 25 98 26 4 27 97 28 24 29 25 30 26 31 27 32
REMARK SMILES IDX 28 33 29 34 93 35 30 36 92 37 31 38 32 39 33 40 86 41 34 42
REMARK SMILES IDX 91 43 85 44 87 45 35 46 90 47 84 48 83 49 36 51 70 52 49 53
REMARK SMILES IDX 69 54 50 55 53 56 68 57 88 58 51 59 52 60 67 62 89 63 54 64
REMARK SMILES IDX 37 65 38 66 47 67 39 68 40 69 46 70 48 71 41 72 42 73 43 74
REMARK SMILES IDX 44 75 45 76 71 77 72 78 81 79 73 80 74 81 80 82 82 83 75 84
REMARK SMILES IDX 76 85 77 86 78 87 79 88 55 89 56 90 65 91 57 92 58 93 64 94
REMARK SMILES IDX 66 95 59 96 60 97 61 98 62 99 63 100
REMARK H PARENT 87 50 53 61
REMARK Flexibility Score: inf
ROOT
ATOM      1  C   UNL A   1      44.085  30.900  27.828  1.00  0.00     0.274 C 
ENDROOT
BRANCH   1   2
ATOM      2  O   UNL A   1      43.883  30.388  26.493  1.00  0.00    -0.462 OA
BRANCH   2   3
ATOM      3  C   UNL A   1      43.444  28.994  26.372  1.00  0.00     0.310 C 
ATOM      4  O   UNL A   1      44.378  28.442  25.734  1.00  0.00    -0.252 OA
BRANCH   3   5
ATOM      5  C   UNL A   1      41.627  28.177  27.316  1.00  0.00     0.119 C 
ATOM      6  N   UNL A   1      39.086  28.615  28.332  1.00  0.00    -0.342 N 
ATOM      7  C   UNL A   1      38.727  27.235  28.518  1.00  0.00     0.119 C 
ATOM      8  C   UNL A   1      39.968  28.855  27.206  1.00  0.00     0.134 C 
ATOM      9  C   UNL A   1      39.956  26.371  28.645  1.00  0.00     0.022 C 
ATOM     10  C   UNL A   1      40.997  26.561  27.515  1.00  0.00     0.019 C 
BRANCH   6  11
ATOM     11  C   UNL A   1      38.485  29.593  29.119  1.00  0.00     0.225 C 
ATOM     12  O   UNL A   1      38.625  29.576  30.349  1.00  0.00    -0.275 OA
BRANCH  11  13
ATOM     13  C   UNL A   1      37.388  30.523  28.535  1.00  0.00     0.081 C 
ATOM     14  N   UNL A   1      35.328  32.571  28.447  1.00  0.00    -0.198 NA
ATOM     15  C   UNL A   1      34.995  31.208  27.945  1.00  0.00     0.103 C 
ATOM     16  C   UNL A   1      36.752  32.958  28.422  1.00  0.00     0.103 C 
ATOM     17  C   UNL A   1      35.904  30.151  28.570  1.00  0.00     0.030 C 
ATOM     18  C   UNL A   1      37.611  31.919  29.117  1.00  0.00     0.030 C 
BRANCH  14  19
ATOM     19  S   UNL A   1      34.194  33.811  28.166  1.00  0.00     0.243 S 
ATOM     20  O   UNL A   1      32.909  33.182  27.917  1.00  0.00    -0.207 OA
ATOM     21  O   UNL A   1      34.745  34.764  27.229  1.00  0.00    -0.207 OA
BRANCH  19  22
ATOM     22  C   UNL A   1      33.987  34.698  29.703  1.00  0.00     0.082 A 
ATOM     23  C   UNL A   1      33.710  36.755  33.471  1.00  0.00     0.044 C 
ATOM     24  C   UNL A   1      33.806  36.031  32.163  1.00  0.00    -0.051 A 
ATOM     25  C   UNL A   1      34.559  34.856  32.051  1.00  0.00     0.005 A 
ATOM     26  C   UNL A   1      33.141  36.525  31.039  1.00  0.00     0.005 A 
ATOM     27  C   UNL A   1      34.652  34.190  30.826  1.00  0.00     0.022 A 
ATOM     28  C   UNL A   1      33.232  35.862  29.816  1.00  0.00     0.022 A 
ENDBRANCH  19  22
ENDBRANCH  14  19
ENDBRANCH  11  13
ENDBRANCH   6  11
ENDBRANCH   3   5
ENDBRANCH   2   3
ENDBRANCH   1   2
BRANCH   1  29
ATOM     29  C   UNL A   1      45.574  30.797  28.199  1.00  0.00     0.275 C 
BRANCH  29  30
ATOM     30  O   UNL A   1      45.926  29.551  28.844  1.00  0.00    -0.458 OA
BRANCH  30  31
ATOM     31  C   UNL A   1      46.670  28.669  28.129  1.00  0.00     0.338 C 
ATOM     32  O   UNL A   1      47.557  28.923  27.334  1.00  0.00    -0.246 OA
BRANCH  31  33
ATOM     33  C   UNL A   1      46.552  27.352  28.765  1.00  0.00     0.060 A 
ATOM     34  C   UNL A   1      45.059  26.334  28.572  1.00  0.00     0.016 A 
ATOM     35  C   UNL A   1      47.557  27.183  30.239  1.00  0.00     0.016 A 
ATOM     36  C   UNL A   1      44.412  25.384  29.969  1.00  0.00     0.010 A 
ATOM     37  C   UNL A   1      46.895  26.254  31.632  1.00  0.00     0.010 A 
ATOM     38  C   UNL A   1      45.298  25.419  31.507  1.00  0.00    -0.014 A 
BRANCH  38  39
ATOM     39  C   UNL A   1      44.557  25.460  32.789  1.00  0.00     0.031 A 
ATOM     40  C   UNL A   1      43.965  26.774  33.103  1.00  0.00     0.074 A 
ATOM     41  C   UNL A   1      44.378  24.322  33.519  1.00  0.00     0.049 A 
ATOM     42  N   UNL A   1      43.957  27.332  34.264  1.00  0.00    -0.248 NA
ATOM     43  C   UNL A   1      43.535  27.714  32.055  1.00  0.00     0.031 C 
ATOM     44  C   UNL A   1      43.427  24.011  34.588  1.00  0.00     0.029 A 
ATOM     45  N   UNL A   1      45.155  23.170  33.498  1.00  0.00    -0.354 N 
ATOM     46  C   UNL A   1      43.149  28.447  34.112  1.00  0.00     0.074 A 
ATOM     47  C   UNL A   1      43.297  28.818  32.751  1.00  0.00     0.031 C 
ATOM     48  C   UNL A   1      43.841  22.919  35.268  1.00  0.00     0.029 A 
ATOM     49  C   UNL A   1      45.118  22.500  34.716  1.00  0.00     0.049 A 
ATOM     50  H   UNL A   1      45.668  22.865  32.716  1.00  0.00     0.167 HD
ATOM     51  C   UNL A   1      42.133  28.672  34.993  1.00  0.00     0.037 A 
ATOM     52  C   UNL A   1      46.280  22.357  35.420  1.00  0.00     0.037 A 
ATOM     53  C   UNL A   1      42.237  27.678  36.060  1.00  0.00     0.049 A 
ATOM     54  C   UNL A   1      46.300  23.369  36.550  1.00  0.00     0.074 A 
ATOM     55  C   UNL A   1      41.565  26.499  36.328  1.00  0.00     0.029 A 
ATOM     56  N   UNL A   1      43.427  27.620  36.770  1.00  0.00    -0.354 N 
ATOM     57  N   UNL A   1      45.571  24.460  36.537  1.00  0.00    -0.248 NA
ATOM     58  C   UNL A   1      46.964  23.170  37.838  1.00  0.00     0.031 C 
ATOM     59  C   UNL A   1      42.419  25.696  37.146  1.00  0.00     0.029 A 
ATOM     60  C   UNL A   1      43.608  26.382  37.350  1.00  0.00     0.049 A 
ATOM     61  H   UNL A   1      44.062  28.368  36.850  1.00  0.00     0.167 HD
ATOM     62  C   UNL A   1      45.577  25.039  37.774  1.00  0.00     0.074 A 
ATOM     63  C   UNL A   1      46.476  24.203  38.549  1.00  0.00     0.031 C 
ATOM     64  C   UNL A   1      44.827  26.135  38.108  1.00  0.00     0.037 A 
BRANCH  51  65
ATOM     65  C   UNL A   1      40.915  29.564  34.766  1.00  0.00     0.058 A 
ATOM     66  C   UNL A   1      40.767  30.731  35.546  1.00  0.00     0.135 A 
ATOM     67  C   UNL A   1      39.865  29.367  33.834  1.00  0.00     0.135 A 
ATOM     68  F   UNL A   1      41.676  31.070  36.471  1.00  0.00    -0.206 F 
ATOM     69  C   UNL A   1      39.689  31.614  35.414  1.00  0.00     0.059 A 
ATOM     70  C   UNL A   1      38.776  30.231  33.689  1.00  0.00     0.059 A 
ATOM     71  F   UNL A   1      39.819  28.340  32.987  1.00  0.00    -0.206 F 
ATOM     72  C   UNL A   1      38.701  31.361  34.476  1.00  0.00     0.060 A 
BRANCH  72  73
ATOM     73  S   UNL A   1      37.357  32.540  34.270  1.00  0.00     0.124 S 
ATOM     74  O   UNL A   1      38.054  33.701  33.725  1.00  0.00    -0.237 OA
ATOM     75  O   UNL A   1      36.475  31.833  33.347  1.00  0.00    -0.237 OA
ATOM     76  O   UNL A   1      36.836  32.706  35.624  1.00  0.00    -0.744 OA
ENDBRANCH  72  73
ENDBRANCH  51  65
BRANCH  52  77
ATOM     77  C   UNL A   1      47.372  21.791  34.553  1.00  0.00     0.058 A 
ATOM     78  C   UNL A   1      48.395  22.703  34.208  1.00  0.00     0.135 A 
ATOM     79  C   UNL A   1      47.712  20.432  34.469  1.00  0.00     0.135 A 
ATOM     80  F   UNL A   1      48.134  24.021  34.203  1.00  0.00    -0.206 F 
ATOM     81  C   UNL A   1      49.716  22.311  33.990  1.00  0.00     0.059 A 
ATOM     82  C   UNL A   1      49.041  20.009  34.211  1.00  0.00     0.059 A 
ATOM     83  F   UNL A   1      46.798  19.494  34.760  1.00  0.00    -0.206 F 
ATOM     84  C   UNL A   1      50.047  20.961  34.019  1.00  0.00     0.060 A 
BRANCH  84  85
ATOM     85  S   UNL A   1      51.815  20.539  33.860  1.00  0.00     0.124 S 
ATOM     86  O   UNL A   1      51.827  19.152  34.306  1.00  0.00    -0.237 OA
ATOM     87  O   UNL A   1      52.065  20.747  32.436  1.00  0.00    -0.237 OA
ATOM     88  O   UNL A   1      52.508  21.462  34.750  1.00  0.00    -0.744 OA
ENDBRANCH  84  85
ENDBRANCH  52  77
BRANCH  64  89
ATOM     89  C   UNL A   1      45.177  27.077  39.238  1.00  0.00     0.058 A 
ATOM     90  C   UNL A   1      44.878  26.803  40.582  1.00  0.00     0.135 A 
ATOM     91  C   UNL A   1      45.988  28.220  39.018  1.00  0.00     0.135 A 
ATOM     92  F   UNL A   1      44.285  25.663  40.961  1.00  0.00    -0.206 F 
ATOM     93  C   UNL A   1      45.220  27.673  41.609  1.00  0.00     0.059 A 
ATOM     94  C   UNL A   1      46.440  29.037  40.044  1.00  0.00     0.059 A 
ATOM     95  F   UNL A   1      46.397  28.585  37.794  1.00  0.00    -0.206 F 
ATOM     96  C   UNL A   1      45.994  28.791  41.329  1.00  0.00     0.060 A 
BRANCH  96  97
ATOM     97  S   UNL A   1      46.406  29.914  42.663  1.00  0.00     0.124 S 
ATOM     98  O   UNL A   1      45.685  29.305  43.777  1.00  0.00    -0.237 OA
ATOM     99  O   UNL A   1      47.861  29.813  42.720  1.00  0.00    -0.237 OA
ATOM    100  O   UNL A   1      45.888  31.198  42.202  1.00  0.00    -0.744 OA
ENDBRANCH  96  97
ENDBRANCH  64  89
ENDBRANCH  38  39
ENDBRANCH  31  33
ENDBRANCH  30  31
ENDBRANCH  29  30
ENDBRANCH   1  29
TORSDOF 18
ENDMDL
MODEL 2
REMARK VINA RESULT:     -10.5      8.420     13.708
REMARK SMILES Cc1ccc(S(=O)(=O)N2CCC(C(=O)N3CCC[C@@H](C(=O)OCCOC(=O)c4ccc(-c5c6nc(c(-c7c(F)cc(S(=O)(=O)[O-])cc7F)c7ccc([nH]7)c(-c7c(F)cc(S(=O)(=O)[O-])cc7F)c7nc(c(-c8c(F)cc(S(=O)(=O)[O-])cc8F)c8ccc5[nH]8)C=C7)C=C6)cc4)C3)CC2)cc1
REMARK SMILES IDX 23 1 22 2 20 3 21 4 19 5 15 6 16 7 94 8 17 9 18 10 13 11
REMARK SMILES IDX 14 12 12 13 9 14 10 15 96 16 11 17 95 18 6 19 7 20 8 21 5 22
REMARK SMILES IDX 1 23 2 24 3 25 98 26 4 27 97 28 24 29 25 30 26 31 27 32
REMARK SMILES IDX 28 33 29 34 93 35 30 36 92 37 31 38 32 39 33 40 86 41 34 42
REMARK SMILES IDX 91 43 85 44 87 45 35 46 90 47 84 48 83 49 36 51 70 52 49 53
REMARK SMILES IDX 69 54 50 55 53 56 68 57 88 58 51 59 52 60 67 62 89 63 54 64
REMARK SMILES IDX 37 65 38 66 47 67 39 68 40 69 46 70 48 71 41 72 42 73 43 74
REMARK SMILES IDX 44 75 45 76 71 77 72 78 81 79 73 80 74 81 80 82 82 83 75 84
REMARK SMILES IDX 76 85 77 86 78 87 79 88 55 89 56 90 65 91 57 92 58 93 64 94
REMARK SMILES IDX 66 95 59 96 60 97 61 98 62 99 63 100
REMARK H PARENT 87 50 53 61
REMARK Flexibility Score: inf
ROOT
ATOM      1  C   UNL A   1      41.768  27.092  27.743  1.00  0.00     0.274 C 
ENDROOT
BRANCH   1   2
ATOM      2  O   UNL A   1      41.143  26.310  28.783  1.00  0.00    -0.462 OA
BRANCH   2   3
ATOM      3  C   UNL A   1      39.773  25.849  28.539  1.00  0.00     0.310 C 
ATOM      4  O   UNL A   1      39.059  26.739  29.073  1.00  0.00    -0.252 OA
BRANCH   3   5
ATOM      5  C   UNL A   1      39.254  24.079  27.331  1.00  0.00     0.119 C 
ATOM      6  N   UNL A   1      37.350  22.672  25.890  1.00  0.00    -0.342 N 
ATOM      7  C   UNL A   1      38.237  21.684  25.338  1.00  0.00     0.119 C 
ATOM      8  C   UNL A   1      37.958  23.973  26.092  1.00  0.00     0.134 C 
ATOM      9  C   UNL A   1      39.476  21.538  26.185  1.00  0.00     0.022 C 
ATOM     10  C   UNL A   1      40.200  22.869  26.503  1.00  0.00     0.019 C 
BRANCH   6  11
ATOM     11  C   UNL A   1      36.002  22.368  26.057  1.00  0.00     0.225 C 
ATOM     12  O   UNL A   1      35.624  21.188  26.052  1.00  0.00    -0.275 OA
BRANCH  11  13
ATOM     13  C   UNL A   1      34.915  23.469  25.936  1.00  0.00     0.081 C 
ATOM     14  N   UNL A   1      32.331  24.689  25.406  1.00  0.00    -0.198 NA
ATOM     15  C   UNL A   1      33.532  25.245  24.721  1.00  0.00     0.103 C 
ATOM     16  C   UNL A   1      32.563  23.980  26.679  1.00  0.00     0.103 C 
ATOM     17  C   UNL A   1      34.644  24.202  24.621  1.00  0.00     0.030 C 
ATOM     18  C   UNL A   1      33.620  22.904  26.518  1.00  0.00     0.030 C 
BRANCH  14  19
ATOM     19  S   UNL A   1      30.875  25.563  25.271  1.00  0.00     0.243 S 
ATOM     20  O   UNL A   1      29.984  25.095  26.319  1.00  0.00    -0.207 OA
ATOM     21  O   UNL A   1      30.449  25.577  23.889  1.00  0.00    -0.207 OA
BRANCH  19  22
ATOM     22  C   UNL A   1      31.235  27.262  25.690  1.00  0.00     0.082 A 
ATOM     23  C   UNL A   1      32.241  31.271  26.879  1.00  0.00     0.044 C 
ATOM     24  C   UNL A   1      31.886  29.874  26.473  1.00  0.00    -0.051 A 
ATOM     25  C   UNL A   1      31.850  28.842  27.419  1.00  0.00     0.005 A 
ATOM     26  C   UNL A   1      31.585  29.588  25.139  1.00  0.00     0.005 A 
ATOM     27  C   UNL A   1      31.527  27.540  27.031  1.00  0.00     0.022 A 
ATOM     28  C   UNL A   1      31.262  28.289  24.751  1.00  0.00     0.022 A 
ENDBRANCH  19  22
ENDBRANCH  14  19
ENDBRANCH  11  13
ENDBRANCH   6  11
ENDBRANCH   3   5
ENDBRANCH   2   3
ENDBRANCH   1   2
BRANCH   1  29
ATOM     29  C   UNL A   1      42.167  28.469  28.303  1.00  0.00     0.275 C 
BRANCH  29  30
ATOM     30  O   UNL A   1      43.115  28.398  29.393  1.00  0.00    -0.458 OA
BRANCH  30  31
ATOM     31  C   UNL A   1      44.425  28.256  29.070  1.00  0.00     0.338 C 
ATOM     32  O   UNL A   1      44.999  27.232  28.743  1.00  0.00    -0.246 OA
BRANCH  31  33
ATOM     33  C   UNL A   1      44.964  29.583  28.753  1.00  0.00     0.060 A 
ATOM     34  C   UNL A   1      44.967  30.227  27.053  1.00  0.00     0.016 A 
ATOM     35  C   UNL A   1      46.211  30.139  29.914  1.00  0.00     0.016 A 
ATOM     36  C   UNL A   1      46.377  31.175  26.435  1.00  0.00     0.010 A 
ATOM     37  C   UNL A   1      47.623  31.063  29.285  1.00  0.00     0.010 A 
ATOM     38  C   UNL A   1      47.725  31.515  27.540  1.00  0.00    -0.014 A 
BRANCH  38  39
ATOM     39  C   UNL A   1      49.121  31.469  27.044  1.00  0.00     0.031 A 
ATOM     40  C   UNL A   1      49.591  32.735  26.449  1.00  0.00     0.074 A 
ATOM     41  C   UNL A   1      49.890  30.363  27.247  1.00  0.00     0.049 A 
ATOM     42  N   UNL A   1      50.302  32.839  25.379  1.00  0.00    -0.248 NA
ATOM     43  C   UNL A   1      49.080  34.045  26.881  1.00  0.00     0.031 C 
ATOM     44  C   UNL A   1      51.342  30.182  27.189  1.00  0.00     0.029 A 
ATOM     45  N   UNL A   1      49.460  29.058  27.463  1.00  0.00    -0.354 N 
ATOM     46  C   UNL A   1      50.644  34.180  25.315  1.00  0.00     0.074 A 
ATOM     47  C   UNL A   1      49.576  34.857  25.956  1.00  0.00     0.031 C 
ATOM     48  C   UNL A   1      51.638  28.867  27.092  1.00  0.00     0.029 A 
ATOM     49  C   UNL A   1      50.390  28.127  27.018  1.00  0.00     0.049 A 
ATOM     50  H   UNL A   1      48.600  28.823  27.882  1.00  0.00     0.167 HD
ATOM     51  C   UNL A   1      51.947  34.538  25.134  1.00  0.00     0.037 A 
ATOM     52  C   UNL A   1      50.032  27.270  26.016  1.00  0.00     0.037 A 
ATOM     53  C   UNL A   1      52.716  33.320  24.887  1.00  0.00     0.049 A 
ATOM     54  C   UNL A   1      50.642  27.754  24.713  1.00  0.00     0.074 A 
ATOM     55  C   UNL A   1      53.542  32.541  25.680  1.00  0.00     0.029 A 
ATOM     56  N   UNL A   1      52.330  32.521  23.821  1.00  0.00    -0.354 N 
ATOM     57  N   UNL A   1      51.023  28.995  24.527  1.00  0.00    -0.248 NA
ATOM     58  C   UNL A   1      51.046  26.885  23.607  1.00  0.00     0.031 C 
ATOM     59  C   UNL A   1      53.571  31.231  25.108  1.00  0.00     0.029 A 
ATOM     60  C   UNL A   1      52.749  31.218  23.990  1.00  0.00     0.049 A 
ATOM     61  H   UNL A   1      51.822  32.843  23.043  1.00  0.00     0.167 HD
ATOM     62  C   UNL A   1      51.771  29.088  23.388  1.00  0.00     0.074 A 
ATOM     63  C   UNL A   1      51.743  27.743  22.839  1.00  0.00     0.031 C 
ATOM     64  C   UNL A   1      52.399  30.232  22.977  1.00  0.00     0.037 A 
BRANCH  51  65
ATOM     65  C   UNL A   1      52.568  35.896  25.451  1.00  0.00     0.058 A 
ATOM     66  C   UNL A   1      52.857  36.221  26.793  1.00  0.00     0.135 A 
ATOM     67  C   UNL A   1      52.908  36.922  24.533  1.00  0.00     0.135 A 
ATOM     68  F   UNL A   1      52.604  35.359  27.787  1.00  0.00    -0.206 F 
ATOM     69  C   UNL A   1      53.427  37.437  27.186  1.00  0.00     0.059 A 
ATOM     70  C   UNL A   1      53.471  38.146  24.902  1.00  0.00     0.059 A 
ATOM     71  F   UNL A   1      52.736  36.815  23.216  1.00  0.00    -0.206 F 
ATOM     72  C   UNL A   1      53.740  38.393  26.232  1.00  0.00     0.060 A 
BRANCH  72  73
ATOM     73  S   UNL A   1      54.535  39.924  26.743  1.00  0.00     0.124 S 
ATOM     74  O   UNL A   1      54.617  40.658  25.484  1.00  0.00    -0.237 OA
ATOM     75  O   UNL A   1      53.587  40.443  27.724  1.00  0.00    -0.237 OA
ATOM     76  O   UNL A   1      55.815  39.480  27.288  1.00  0.00    -0.744 OA
ENDBRANCH  72  73
ENDBRANCH  51  65
BRANCH  52  77
ATOM     77  C   UNL A   1      48.728  26.588  26.327  1.00  0.00     0.058 A 
ATOM     78  C   UNL A   1      47.723  26.742  25.345  1.00  0.00     0.135 A 
ATOM     79  C   UNL A   1      48.577  25.489  27.186  1.00  0.00     0.135 A 
ATOM     80  F   UNL A   1      47.758  27.803  24.521  1.00  0.00    -0.206 F 
ATOM     81  C   UNL A   1      46.750  25.773  25.098  1.00  0.00     0.059 A 
ATOM     82  C   UNL A   1      47.573  24.510  26.978  1.00  0.00     0.059 A 
ATOM     83  F   UNL A   1      49.474  25.274  28.160  1.00  0.00    -0.206 F 
ATOM     84  C   UNL A   1      46.691  24.638  25.900  1.00  0.00     0.060 A 
BRANCH  84  85
ATOM     85  S   UNL A   1      45.482  23.356  25.430  1.00  0.00     0.124 S 
ATOM     86  O   UNL A   1      44.432  23.565  26.420  1.00  0.00    -0.237 OA
ATOM     87  O   UNL A   1      45.141  23.726  24.059  1.00  0.00    -0.237 OA
ATOM     88  O   UNL A   1      46.193  22.091  25.569  1.00  0.00    -0.744 OA
ENDBRANCH  84  85
ENDBRANCH  52  77
BRANCH  64  89
ATOM     89  C   UNL A   1      52.777  30.511  21.540  1.00  0.00     0.058 A 
ATOM     90  C   UNL A   1      54.108  30.611  21.104  1.00  0.00     0.135 A 
ATOM     91  C   UNL A   1      51.801  30.514  20.510  1.00  0.00     0.135 A 
ATOM     92  F   UNL A   1      55.143  30.433  21.936  1.00  0.00    -0.206 F 
ATOM     93  C   UNL A   1      54.438  30.853  19.777  1.00  0.00     0.059 A 
ATOM     94  C   UNL A   1      52.119  30.637  19.165  1.00  0.00     0.059 A 
ATOM     95  F   UNL A   1      50.490  30.379  20.763  1.00  0.00    -0.206 F 
ATOM     96  C   UNL A   1      53.435  30.871  18.816  1.00  0.00     0.060 A 
BRANCH  96  97
ATOM     97  S   UNL A   1      53.877  31.207  17.112  1.00  0.00     0.124 S 
ATOM     98  O   UNL A   1      52.560  31.390  16.510  1.00  0.00    -0.237 OA
ATOM     99  O   UNL A   1      54.692  32.413  17.232  1.00  0.00    -0.237 OA
ATOM    100  O   UNL A   1      54.599  30.008  16.703  1.00  0.00    -0.744 OA
ENDBRANCH  96  97
ENDBRANCH  64  89
ENDBRANCH  38  39
ENDBRANCH  31  33
ENDBRANCH  30  31
ENDBRANCH  29  30
ENDBRANCH   1  29
TORSDOF 18
ENDMDL
MODEL 3
REMARK VINA RESULT:     -10.4      6.861     11.791
REMARK SMILES Cc1ccc(S(=O)(=O)N2CCC(C(=O)N3CCC[C@@H](C(=O)OCCOC(=O)c4ccc(-c5c6nc(c(-c7c(F)cc(S(=O)(=O)[O-])cc7F)c7ccc([nH]7)c(-c7c(F)cc(S(=O)(=O)[O-])cc7F)c7nc(c(-c8c(F)cc(S(=O)(=O)[O-])cc8F)c8ccc5[nH]8)C=C7)C=C6)cc4)C3)CC2)cc1
REMARK SMILES IDX 23 1 22 2 20 3 21 4 19 5 15 6 16 7 94 8 17 9 18 10 13 11
REMARK SMILES IDX 14 12 12 13 9 14 10 15 96 16 11 17 95 18 6 19 7 20 8 21 5 22
REMARK SMILES IDX 1 23 2 24 3 25 98 26 4 27 97 28 24 29 25 30 26 31 27 32
REMARK SMILES IDX 28 33 29 34 93 35 30 36 92 37 31 38 32 39 33 40 86 41 34 42
REMARK SMILES IDX 91 43 85 44 87 45 35 46 90 47 84 48 83 49 36 51 70 52 49 53
REMARK SMILES IDX 69 54 50 55 53 56 68 57 88 58 51 59 52 60 67 62 89 63 54 64
REMARK SMILES IDX 37 65 38 66 47 67 39 68 40 69 46 70 48 71 41 72 42 73 43 74
REMARK SMILES IDX 44 75 45 76 71 77 72 78 81 79 73 80 74 81 80 82 82 83 75 84
REMARK SMILES IDX 76 85 77 86 78 87 79 88 55 89 56 90 65 91 57 92 58 93 64 94
REMARK SMILES IDX 66 95 59 96 60 97 61 98 62 99 63 100
REMARK H PARENT 87 50 53 61
REMARK Flexibility Score: inf
ROOT
ATOM      1  C   UNL A   1      38.938  24.287  27.275  1.00  0.00     0.274 C 
ENDROOT
BRANCH   1   2
ATOM      2  O   UNL A   1      38.164  24.236  26.057  1.00  0.00    -0.462 OA
BRANCH   2   3
ATOM      3  C   UNL A   1      37.490  22.972  25.746  1.00  0.00     0.310 C 
ATOM      4  O   UNL A   1      38.439  22.179  25.507  1.00  0.00    -0.252 OA
BRANCH   3   5
ATOM      5  C   UNL A   1      35.313  22.654  25.896  1.00  0.00     0.119 C 
ATOM      6  N   UNL A   1      32.912  22.086  24.635  1.00  0.00    -0.342 N 
ATOM      7  C   UNL A   1      32.119  21.926  25.824  1.00  0.00     0.119 C 
ATOM      8  C   UNL A   1      34.296  21.680  24.783  1.00  0.00     0.134 C 
ATOM      9  C   UNL A   1      32.739  22.656  26.988  1.00  0.00     0.022 C 
ATOM     10  C   UNL A   1      34.233  22.332  27.229  1.00  0.00     0.019 C 
BRANCH   6  11
ATOM     11  C   UNL A   1      32.297  22.471  23.447  1.00  0.00     0.225 C 
ATOM     12  O   UNL A   1      32.305  21.712  22.467  1.00  0.00    -0.275 OA
BRANCH  11  13
ATOM     13  C   UNL A   1      31.874  23.945  23.208  1.00  0.00     0.081 C 
ATOM     14  N   UNL A   1      31.752  26.827  23.560  1.00  0.00    -0.198 NA
ATOM     15  C   UNL A   1      30.479  26.053  23.597  1.00  0.00     0.103 C 
ATOM     16  C   UNL A   1      32.873  26.223  22.815  1.00  0.00     0.103 C 
ATOM     17  C   UNL A   1      30.728  24.597  23.985  1.00  0.00     0.030 C 
ATOM     18  C   UNL A   1      33.136  24.804  23.281  1.00  0.00     0.030 C 
BRANCH  14  19
ATOM     19  S   UNL A   1      31.638  28.527  23.527  1.00  0.00     0.243 S 
ATOM     20  O   UNL A   1      30.242  28.876  23.718  1.00  0.00    -0.207 OA
ATOM     21  O   UNL A   1      32.381  29.036  22.395  1.00  0.00    -0.207 OA
BRANCH  19  22
ATOM     22  C   UNL A   1      32.476  29.143  24.979  1.00  0.00     0.082 A 
ATOM     23  C   UNL A   1      34.704  30.569  28.371  1.00  0.00     0.044 C 
ATOM     24  C   UNL A   1      33.931  30.064  27.192  1.00  0.00    -0.051 A 
ATOM     25  C   UNL A   1      34.444  29.040  26.387  1.00  0.00     0.005 A 
ATOM     26  C   UNL A   1      32.684  30.614  26.884  1.00  0.00     0.005 A 
ATOM     27  C   UNL A   1      33.721  28.579  25.283  1.00  0.00     0.022 A 
ATOM     28  C   UNL A   1      31.962  30.155  25.785  1.00  0.00     0.022 A 
ENDBRANCH  19  22
ENDBRANCH  14  19
ENDBRANCH  11  13
ENDBRANCH   6  11
ENDBRANCH   3   5
ENDBRANCH   2   3
ENDBRANCH   1   2
BRANCH   1  29
ATOM     29  C   UNL A   1      40.322  24.889  26.981  1.00  0.00     0.275 C 
BRANCH  29  30
ATOM     30  O   UNL A   1      41.333  23.899  26.681  1.00  0.00    -0.458 OA
BRANCH  30  31
ATOM     31  C   UNL A   1      41.471  22.868  27.553  1.00  0.00     0.338 C 
ATOM     32  O   UNL A   1      40.769  21.876  27.643  1.00  0.00    -0.246 OA
BRANCH  31  33
ATOM     33  C   UNL A   1      42.836  22.903  28.089  1.00  0.00     0.060 A 
ATOM     34  C   UNL A   1      43.285  23.989  29.476  1.00  0.00     0.016 A 
ATOM     35  C   UNL A   1      44.083  22.436  26.889  1.00  0.00     0.016 A 
ATOM     36  C   UNL A   1      44.879  24.843  29.491  1.00  0.00     0.010 A 
ATOM     37  C   UNL A   1      45.658  23.308  26.899  1.00  0.00     0.010 A 
ATOM     38  C   UNL A   1      46.016  24.551  28.159  1.00  0.00    -0.014 A 
BRANCH  38  39
ATOM     39  C   UNL A   1      46.823  25.667  27.614  1.00  0.00     0.031 A 
ATOM     40  C   UNL A   1      48.227  25.674  28.066  1.00  0.00     0.074 A 
ATOM     41  C   UNL A   1      46.290  26.518  26.693  1.00  0.00     0.049 A 
ATOM     42  N   UNL A   1      48.896  26.719  28.413  1.00  0.00    -0.248 NA
ATOM     43  C   UNL A   1      48.948  24.438  28.414  1.00  0.00     0.031 C 
ATOM     44  C   UNL A   1      46.935  27.444  25.759  1.00  0.00     0.029 A 
ATOM     45  N   UNL A   1      44.946  26.805  26.479  1.00  0.00    -0.354 N 
ATOM     46  C   UNL A   1      50.194  26.265  28.582  1.00  0.00     0.074 A 
ATOM     47  C   UNL A   1      50.055  24.909  28.974  1.00  0.00     0.031 C 
ATOM     48  C   UNL A   1      46.032  28.342  25.305  1.00  0.00     0.029 A 
ATOM     49  C   UNL A   1      44.765  28.085  25.969  1.00  0.00     0.049 A 
ATOM     50  H   UNL A   1      44.212  26.176  26.666  1.00  0.00     0.167 HD
ATOM     51  C   UNL A   1      51.224  26.915  27.970  1.00  0.00     0.037 A 
ATOM     52  C   UNL A   1      44.056  28.990  26.708  1.00  0.00     0.037 A 
ATOM     53  C   UNL A   1      50.683  28.122  27.347  1.00  0.00     0.049 A 
ATOM     54  C   UNL A   1      45.026  29.941  27.384  1.00  0.00     0.074 A 
ATOM     55  C   UNL A   1      50.340  28.446  26.046  1.00  0.00     0.029 A 
ATOM     56  N   UNL A   1      50.019  29.025  28.163  1.00  0.00    -0.354 N 
ATOM     57  N   UNL A   1      46.286  29.640  27.591  1.00  0.00    -0.248 NA
ATOM     58  C   UNL A   1      44.737  31.339  27.706  1.00  0.00     0.031 C 
ATOM     59  C   UNL A   1      49.387  29.510  26.108  1.00  0.00     0.029 A 
ATOM     60  C   UNL A   1      49.142  29.808  27.441  1.00  0.00     0.049 A 
ATOM     61  H   UNL A   1      50.156  29.099  29.135  1.00  0.00     0.167 HD
ATOM     62  C   UNL A   1      46.978  30.758  27.961  1.00  0.00     0.074 A 
ATOM     63  C   UNL A   1      45.961  31.792  28.034  1.00  0.00     0.031 C 
ATOM     64  C   UNL A   1      48.334  30.790  28.149  1.00  0.00     0.037 A 
BRANCH  51  65
ATOM     65  C   UNL A   1      52.615  26.353  27.689  1.00  0.00     0.058 A 
ATOM     66  C   UNL A   1      52.798  25.505  26.576  1.00  0.00     0.135 A 
ATOM     67  C   UNL A   1      53.801  26.579  28.432  1.00  0.00     0.135 A 
ATOM     68  F   UNL A   1      51.779  25.194  25.763  1.00  0.00    -0.206 F 
ATOM     69  C   UNL A   1      54.032  24.940  26.233  1.00  0.00     0.059 A 
ATOM     70  C   UNL A   1      55.042  26.022  28.113  1.00  0.00     0.059 A 
ATOM     71  F   UNL A   1      53.855  27.363  29.508  1.00  0.00    -0.206 F 
ATOM     72  C   UNL A   1      55.153  25.211  27.003  1.00  0.00     0.060 A 
BRANCH  72  73
ATOM     73  S   UNL A   1      56.745  24.534  26.511  1.00  0.00     0.124 S 
ATOM     74  O   UNL A   1      56.800  23.297  27.283  1.00  0.00    -0.237 OA
ATOM     75  O   UNL A   1      56.576  24.381  25.070  1.00  0.00    -0.237 OA
ATOM     76  O   UNL A   1      57.696  25.564  26.920  1.00  0.00    -0.744 OA
ENDBRANCH  72  73
ENDBRANCH  51  65
BRANCH  52  77
ATOM     77  C   UNL A   1      42.735  28.418  27.143  1.00  0.00     0.058 A 
ATOM     78  C   UNL A   1      42.634  28.129  28.523  1.00  0.00     0.135 A 
ATOM     79  C   UNL A   1      41.519  28.590  26.465  1.00  0.00     0.135 A 
ATOM     80  F   UNL A   1      43.750  27.889  29.233  1.00  0.00    -0.206 F 
ATOM     81  C   UNL A   1      41.431  28.203  29.226  1.00  0.00     0.059 A 
ATOM     82  C   UNL A   1      40.279  28.631  27.154  1.00  0.00     0.059 A 
ATOM     83  F   UNL A   1      41.517  28.849  25.149  1.00  0.00    -0.206 F 
ATOM     84  C   UNL A   1      40.252  28.483  28.543  1.00  0.00     0.060 A 
BRANCH  84  85
ATOM     85  S   UNL A   1      38.746  28.696  29.550  1.00  0.00     0.124 S 
ATOM     86  O   UNL A   1      37.736  28.920  28.523  1.00  0.00    -0.237 OA
ATOM     87  O   UNL A   1      38.654  27.424  30.261  1.00  0.00    -0.237 OA
ATOM     88  O   UNL A   1      39.011  29.856  30.392  1.00  0.00    -0.744 OA
ENDBRANCH  84  85
ENDBRANCH  52  77
BRANCH  64  89
ATOM     89  C   UNL A   1      49.035  31.808  29.019  1.00  0.00     0.058 A 
ATOM     90  C   UNL A   1      49.096  31.708  30.418  1.00  0.00     0.135 A 
ATOM     91  C   UNL A   1      49.828  32.840  28.451  1.00  0.00     0.135 A 
ATOM     92  F   UNL A   1      48.556  30.675  31.080  1.00  0.00    -0.206 F 
ATOM     93  C   UNL A   1      49.757  32.645  31.201  1.00  0.00     0.059 A 
ATOM     94  C   UNL A   1      50.591  33.715  29.211  1.00  0.00     0.059 A 
ATOM     95  F   UNL A   1      49.912  33.034  27.126  1.00  0.00    -0.206 F 
ATOM     96  C   UNL A   1      50.495  33.648  30.588  1.00  0.00     0.060 A 
BRANCH  96  97
ATOM     97  S   UNL A   1      51.323  34.862  31.615  1.00  0.00     0.124 S 
ATOM     98  O   UNL A   1      51.037  36.092  30.884  1.00  0.00    -0.237 OA
ATOM     99  O   UNL A   1      50.636  34.711  32.894  1.00  0.00    -0.237 OA
ATOM    100  O   UNL A   1      52.716  34.428  31.602  1.00  0.00    -0.744 OA
ENDBRANCH  96  97
ENDBRANCH  64  89
ENDBRANCH  38  39
ENDBRANCH  31  33
ENDBRANCH  30  31
ENDBRANCH  29  30
ENDBRANCH   1  29
TORSDOF 18
ENDMDL
