MODEL 1
REMARK VINA RESULT:     -11.8      0.000      0.000
REMARK SMILES O=C(OCCOC(=O)c1ccc(-c2c3nc(c(-c4c(F)cc(S(=O)(=O)[O-])cc4F)c4ccc([nH]4)c(-c4c(F)cc(S(=O)(=O)[O-])cc4F)c4nc(c(-c5c(F)cc(S(=O)(=O)[O-])cc5F)c5ccc2[nH]5)C=C4)C=C3)cc1)C1=Cc2cc(S(F)(F)(F)(F)F)cc(Br)c2O[C@H]1C(F)(F)F
REMARK SMILES IDX 5 1 4 2 3 3 2 4 1 5 75 6 76 7 91 8 77 9 90 10 78 11 89 12
REMARK SMILES IDX 79 13 87 14 86 15 88 16 92 17 93 18 94 19 95 20 80 21 81 22
REMARK SMILES IDX 82 23 83 24 84 25 85 26 6 27 7 28 8 29 9 30 10 31 74 32
REMARK SMILES IDX 11 33 73 34 12 35 13 36 14 37 67 38 15 39 72 40 66 41 68 42
REMARK SMILES IDX 16 43 71 44 65 45 64 46 17 48 51 49 30 50 50 51 31 52 34 53
REMARK SMILES IDX 49 54 69 55 32 56 33 57 48 59 70 60 35 61 18 62 19 63 28 64
REMARK SMILES IDX 20 65 21 66 27 67 29 68 22 69 23 70 24 71 25 72 26 73 52 74
REMARK SMILES IDX 53 75 62 76 54 77 55 78 61 79 63 80 56 81 57 82 58 83 59 84
REMARK SMILES IDX 60 85 36 86 37 87 46 88 38 89 39 90 45 91 47 92 40 93 41 94
REMARK SMILES IDX 42 95 43 96 44 97
REMARK H PARENT 68 47 34 58
REMARK Flexibility Score: inf
ROOT
ATOM      1  C   UNL A   1      32.186  29.059  27.375  1.00  0.00     0.275 C 
ENDROOT
BRANCH   1   2
ATOM      2  C   UNL A   1      31.627  27.742  26.862  1.00  0.00     0.275 C 
BRANCH   2   3
ATOM      3  O   UNL A   1      32.221  27.431  25.610  1.00  0.00    -0.459 OA
BRANCH   3   4
ATOM      4  C   UNL A   1      31.425  26.911  24.556  1.00  0.00     0.338 C 
ATOM      5  O   UNL A   1      30.219  26.577  24.775  1.00  0.00    -0.246 OA
BRANCH   4   6
ATOM      6  C   UNL A   1      32.016  26.753  23.164  1.00  0.00     0.087 C 
ATOM      7  C   UNL A   1      32.940  25.784  22.923  1.00  0.00     0.027 C 
ATOM      8  C   UNL A   1      31.575  27.679  22.042  1.00  0.00     0.316 C 
ATOM      9  C   UNL A   1      33.381  24.859  24.045  1.00  0.00     0.020 A 
ATOM     10  O   UNL A   1      31.088  24.722  24.658  1.00  0.00    -0.474 OA
ATOM     11  C   UNL A   1      34.726  24.631  24.284  1.00  0.00     0.036 A 
ATOM     12  C   UNL A   1      32.445  24.340  24.832  1.00  0.00     0.142 A 
ATOM     13  C   UNL A   1      34.977  23.596  25.215  1.00  0.00     0.109 A 
ATOM     14  C   UNL A   1      32.777  23.437  25.813  1.00  0.00     0.062 A 
ATOM     15  C   UNL A   1      34.084  23.120  26.063  1.00  0.00     0.044 A 
ATOM     16  Br  UNL A   1      31.358  22.591  26.867  1.00  0.00    -0.047 Br
BRANCH   8  17
ATOM     17  C   UNL A   1      30.544  28.663  22.573  1.00  0.00     0.430 C 
ATOM     18  F   UNL A   1      30.999  29.234  23.684  1.00  0.00    -0.167 F 
ATOM     19  F   UNL A   1      30.323  29.596  21.651  1.00  0.00    -0.167 F 
ATOM     20  F   UNL A   1      29.409  28.021  22.837  1.00  0.00    -0.167 F 
ENDBRANCH   8  17
BRANCH  13  21
ATOM     21  S   UNL A   1      36.637  22.876  25.248  1.00  0.00     0.310 S 
ATOM     22  F   UNL A   1      37.096  23.702  23.973  1.00  0.00    -0.094 F 
ATOM     23  F   UNL A   1      36.149  21.751  24.256  1.00  0.00    -0.094 F 
ATOM     24  F   UNL A   1      38.064  22.261  25.288  1.00  0.00    -0.094 F 
ATOM     25  F   UNL A   1      37.142  24.086  26.125  1.00  0.00    -0.094 F 
ATOM     26  F   UNL A   1      35.223  23.574  25.125  1.00  0.00    -0.094 F 
ENDBRANCH  13  21
ENDBRANCH   4   6
ENDBRANCH   3   4
ENDBRANCH   2   3
ENDBRANCH   1   2
BRANCH   1  27
ATOM     27  O   UNL A   1      33.572  28.910  27.647  1.00  0.00    -0.458 OA
BRANCH  27  28
ATOM     28  C   UNL A   1      34.407  30.056  27.722  1.00  0.00     0.338 C 
ATOM     29  O   UNL A   1      33.928  31.209  27.483  1.00  0.00    -0.246 OA
BRANCH  28  30
ATOM     30  C   UNL A   1      35.875  29.905  28.089  1.00  0.00     0.060 A 
ATOM     31  C   UNL A   1      36.853  30.064  27.122  1.00  0.00     0.016 A 
ATOM     32  C   UNL A   1      36.179  29.507  29.319  1.00  0.00     0.016 A 
ATOM     33  C   UNL A   1      38.102  29.497  27.471  1.00  0.00     0.010 A 
ATOM     34  C   UNL A   1      37.454  29.094  29.624  1.00  0.00     0.010 A 
ATOM     35  C   UNL A   1      38.457  29.169  28.699  1.00  0.00    -0.014 A 
BRANCH  35  36
ATOM     36  C   UNL A   1      39.907  28.888  29.066  1.00  0.00     0.031 A 
ATOM     37  C   UNL A   1      40.414  27.630  28.735  1.00  0.00     0.074 A 
ATOM     38  C   UNL A   1      40.659  29.905  29.627  1.00  0.00     0.049 A 
ATOM     39  N   UNL A   1      41.671  27.203  28.860  1.00  0.00    -0.248 NA
ATOM     40  C   UNL A   1      39.609  26.537  28.171  1.00  0.00     0.031 C 
ATOM     41  C   UNL A   1      40.155  31.178  29.955  1.00  0.00     0.029 A 
ATOM     42  N   UNL A   1      41.995  29.879  29.964  1.00  0.00    -0.354 N 
ATOM     43  C   UNL A   1      41.778  25.946  28.420  1.00  0.00     0.074 A 
ATOM     44  C   UNL A   1      40.451  25.499  27.976  1.00  0.00     0.031 C 
ATOM     45  C   UNL A   1      41.169  31.906  30.494  1.00  0.00     0.029 A 
ATOM     46  C   UNL A   1      42.323  31.100  30.509  1.00  0.00     0.049 A 
ATOM     47  H   UNL A   1      42.608  29.120  29.838  1.00  0.00     0.167 HD
ATOM     48  C   UNL A   1      42.929  25.159  28.370  1.00  0.00     0.037 A 
ATOM     49  C   UNL A   1      43.553  31.507  31.001  1.00  0.00     0.037 A 
ATOM     50  C   UNL A   1      44.169  25.582  28.821  1.00  0.00     0.049 A 
ATOM     51  C   UNL A   1      44.693  30.698  31.004  1.00  0.00     0.074 A 
ATOM     52  C   UNL A   1      45.341  24.802  28.771  1.00  0.00     0.029 A 
ATOM     53  N   UNL A   1      44.492  26.793  29.390  1.00  0.00    -0.354 N 
ATOM     54  N   UNL A   1      44.807  29.458  30.529  1.00  0.00    -0.248 NA
ATOM     55  C   UNL A   1      45.993  31.107  31.552  1.00  0.00     0.031 C 
ATOM     56  C   UNL A   1      46.355  25.531  29.309  1.00  0.00     0.029 A 
ATOM     57  C   UNL A   1      45.833  26.777  29.706  1.00  0.00     0.049 A 
ATOM     58  H   UNL A   1      43.872  27.543  29.542  1.00  0.00     0.167 HD
ATOM     59  C   UNL A   1      46.056  29.015  30.691  1.00  0.00     0.074 A 
ATOM     60  C   UNL A   1      46.835  30.067  31.359  1.00  0.00     0.031 C 
ATOM     61  C   UNL A   1      46.578  27.779  30.308  1.00  0.00     0.037 A 
BRANCH  48  62
ATOM     62  C   UNL A   1      42.816  23.760  27.787  1.00  0.00     0.058 A 
ATOM     63  C   UNL A   1      42.934  23.559  26.421  1.00  0.00     0.135 A 
ATOM     64  C   UNL A   1      42.543  22.754  28.611  1.00  0.00     0.135 A 
ATOM     65  F   UNL A   1      43.447  24.467  25.597  1.00  0.00    -0.206 F 
ATOM     66  C   UNL A   1      42.459  22.299  25.984  1.00  0.00     0.059 A 
ATOM     67  C   UNL A   1      42.220  21.514  28.116  1.00  0.00     0.059 A 
ATOM     68  F   UNL A   1      42.585  22.950  29.926  1.00  0.00    -0.206 F 
ATOM     69  C   UNL A   1      42.259  21.260  26.773  1.00  0.00     0.060 A 
BRANCH  69  70
ATOM     70  S   UNL A   1      42.046  19.588  26.112  1.00  0.00     0.124 S 
ATOM     71  O   UNL A   1      42.891  19.429  24.846  1.00  0.00    -0.237 OA
ATOM     72  O   UNL A   1      42.495  18.565  27.157  1.00  0.00    -0.237 OA
ATOM     73  O   UNL A   1      40.399  19.331  25.734  1.00  0.00    -0.744 OA
ENDBRANCH  69  70
ENDBRANCH  48  62
BRANCH  49  74
ATOM     74  C   UNL A   1      43.671  32.913  31.568  1.00  0.00     0.058 A 
ATOM     75  C   UNL A   1      43.426  33.065  32.922  1.00  0.00     0.135 A 
ATOM     76  C   UNL A   1      44.014  33.947  30.809  1.00  0.00     0.135 A 
ATOM     77  F   UNL A   1      43.329  32.039  33.761  1.00  0.00    -0.206 F 
ATOM     78  C   UNL A   1      43.287  34.412  33.331  1.00  0.00     0.059 A 
ATOM     79  C   UNL A   1      43.987  35.224  31.314  1.00  0.00     0.059 A 
ATOM     80  F   UNL A   1      44.389  33.744  29.548  1.00  0.00    -0.206 F 
ATOM     81  C   UNL A   1      43.695  35.454  32.630  1.00  0.00     0.060 A 
BRANCH  81  82
ATOM     82  S   UNL A   1      43.858  37.098  33.370  1.00  0.00     0.124 S 
ATOM     83  O   UNL A   1      42.620  37.401  34.216  1.00  0.00    -0.237 OA
ATOM     84  O   UNL A   1      45.104  37.136  34.258  1.00  0.00    -0.237 OA
ATOM     85  O   UNL A   1      44.004  38.268  32.132  1.00  0.00    -0.744 OA
ENDBRANCH  81  82
ENDBRANCH  49  74
BRANCH  61  86
ATOM     86  C   UNL A   1      48.053  27.516  30.565  1.00  0.00     0.058 A 
ATOM     87  C   UNL A   1      48.983  27.764  29.570  1.00  0.00     0.135 A 
ATOM     88  C   UNL A   1      48.412  26.988  31.729  1.00  0.00     0.135 A 
ATOM     89  F   UNL A   1      48.721  28.512  28.503  1.00  0.00    -0.206 F 
ATOM     90  C   UNL A   1      50.238  27.149  29.793  1.00  0.00     0.059 A 
ATOM     91  C   UNL A   1      49.694  26.531  31.923  1.00  0.00     0.059 A 
ATOM     92  F   UNL A   1      47.526  26.902  32.717  1.00  0.00    -0.206 F 
ATOM     93  C   UNL A   1      50.651  26.689  30.960  1.00  0.00     0.060 A 
BRANCH  93  94
ATOM     94  S   UNL A   1      52.389  26.292  31.267  1.00  0.00     0.124 S 
ATOM     95  O   UNL A   1      52.490  24.906  31.908  1.00  0.00    -0.237 OA
ATOM     96  O   UNL A   1      53.157  26.299  29.943  1.00  0.00    -0.237 OA
ATOM     97  O   UNL A   1      53.062  27.458  32.323  1.00  0.00    -0.744 OA
ENDBRANCH  93  94
ENDBRANCH  61  86
ENDBRANCH  35  36
ENDBRANCH  28  30
ENDBRANCH  27  28
ENDBRANCH   1  27
TORSDOF 16
ENDMDL
MODEL 2
REMARK VINA RESULT:     -11.2      3.152      9.066
REMARK SMILES O=C(OCCOC(=O)c1ccc(-c2c3nc(c(-c4c(F)cc(S(=O)(=O)[O-])cc4F)c4ccc([nH]4)c(-c4c(F)cc(S(=O)(=O)[O-])cc4F)c4nc(c(-c5c(F)cc(S(=O)(=O)[O-])cc5F)c5ccc2[nH]5)C=C4)C=C3)cc1)C1=Cc2cc(S(F)(F)(F)(F)F)cc(Br)c2O[C@H]1C(F)(F)F
REMARK SMILES IDX 5 1 4 2 3 3 2 4 1 5 75 6 76 7 91 8 77 9 90 10 78 11 89 12
REMARK SMILES IDX 79 13 87 14 86 15 88 16 92 17 93 18 94 19 95 20 80 21 81 22
REMARK SMILES IDX 82 23 83 24 84 25 85 26 6 27 7 28 8 29 9 30 10 31 74 32
REMARK SMILES IDX 11 33 73 34 12 35 13 36 14 37 67 38 15 39 72 40 66 41 68 42
REMARK SMILES IDX 16 43 71 44 65 45 64 46 17 48 51 49 30 50 50 51 31 52 34 53
REMARK SMILES IDX 49 54 69 55 32 56 33 57 48 59 70 60 35 61 18 62 19 63 28 64
REMARK SMILES IDX 20 65 21 66 27 67 29 68 22 69 23 70 24 71 25 72 26 73 52 74
REMARK SMILES IDX 53 75 62 76 54 77 55 78 61 79 63 80 56 81 57 82 58 83 59 84
REMARK SMILES IDX 60 85 36 86 37 87 46 88 38 89 39 90 45 91 47 92 40 93 41 94
REMARK SMILES IDX 42 95 43 96 44 97
REMARK H PARENT 68 47 34 58
REMARK Flexibility Score: inf
ROOT
ATOM      1  C   UNL A   1      37.047  22.195  24.336  1.00  0.00     0.275 C 
ENDROOT
BRANCH   1   2
ATOM      2  C   UNL A   1      36.094  23.052  23.519  1.00  0.00     0.275 C 
BRANCH   2   3
ATOM      3  O   UNL A   1      35.030  23.496  24.347  1.00  0.00    -0.459 OA
BRANCH   3   4
ATOM      4  C   UNL A   1      33.686  23.209  23.991  1.00  0.00     0.338 C 
ATOM      5  O   UNL A   1      33.386  22.972  22.779  1.00  0.00    -0.246 OA
BRANCH   4   6
ATOM      6  C   UNL A   1      32.605  23.183  25.060  1.00  0.00     0.087 C 
ATOM      7  C   UNL A   1      32.198  24.342  25.643  1.00  0.00     0.027 C 
ATOM      8  C   UNL A   1      31.980  21.862  25.476  1.00  0.00     0.316 C 
ATOM      9  C   UNL A   1      32.823  25.663  25.227  1.00  0.00     0.020 A 
ATOM     10  O   UNL A   1      32.648  24.891  22.986  1.00  0.00    -0.474 OA
ATOM     11  C   UNL A   1      33.282  26.558  26.179  1.00  0.00     0.036 A 
ATOM     12  C   UNL A   1      32.984  25.897  23.929  1.00  0.00     0.142 A 
ATOM     13  C   UNL A   1      33.645  27.820  25.654  1.00  0.00     0.109 A 
ATOM     14  C   UNL A   1      33.472  27.105  23.491  1.00  0.00     0.062 A 
ATOM     15  C   UNL A   1      33.888  28.059  24.378  1.00  0.00     0.044 A 
ATOM     16  Br  UNL A   1      33.571  27.466  21.567  1.00  0.00    -0.047 Br
BRANCH   8  17
ATOM     17  C   UNL A   1      32.607  20.730  24.678  1.00  0.00     0.430 C 
ATOM     18  F   UNL A   1      33.933  20.816  24.744  1.00  0.00    -0.167 F 
ATOM     19  F   UNL A   1      32.211  19.568  25.190  1.00  0.00    -0.167 F 
ATOM     20  F   UNL A   1      32.220  20.811  23.408  1.00  0.00    -0.167 F 
ENDBRANCH   8  17
BRANCH  13  21
ATOM     21  S   UNL A   1      33.785  29.206  26.811  1.00  0.00     0.310 S 
ATOM     22  F   UNL A   1      33.192  28.354  28.011  1.00  0.00    -0.094 F 
ATOM     23  F   UNL A   1      32.304  29.621  26.466  1.00  0.00    -0.094 F 
ATOM     24  F   UNL A   1      33.918  30.396  27.801  1.00  0.00    -0.094 F 
ATOM     25  F   UNL A   1      35.213  28.693  27.247  1.00  0.00    -0.094 F 
ATOM     26  F   UNL A   1      33.622  27.928  25.894  1.00  0.00    -0.094 F 
ENDBRANCH  13  21
ENDBRANCH   4   6
ENDBRANCH   3   4
ENDBRANCH   2   3
ENDBRANCH   1   2
BRANCH   1  27
ATOM     27  O   UNL A   1      37.283  22.814  25.592  1.00  0.00    -0.458 OA
BRANCH  27  28
ATOM     28  C   UNL A   1      38.610  22.959  26.073  1.00  0.00     0.338 C 
ATOM     29  O   UNL A   1      39.438  22.002  25.954  1.00  0.00    -0.246 OA
BRANCH  28  30
ATOM     30  C   UNL A   1      39.042  24.259  26.734  1.00  0.00     0.060 A 
ATOM     31  C   UNL A   1      39.899  25.123  26.075  1.00  0.00     0.016 A 
ATOM     32  C   UNL A   1      38.669  24.482  27.989  1.00  0.00     0.016 A 
ATOM     33  C   UNL A   1      40.545  26.050  26.926  1.00  0.00     0.010 A 
ATOM     34  C   UNL A   1      39.246  25.492  28.720  1.00  0.00     0.010 A 
ATOM     35  C   UNL A   1      40.146  26.348  28.148  1.00  0.00    -0.014 A 
BRANCH  35  36
ATOM     36  C   UNL A   1      40.659  27.577  28.882  1.00  0.00     0.031 A 
ATOM     37  C   UNL A   1      39.782  28.656  29.010  1.00  0.00     0.074 A 
ATOM     38  C   UNL A   1      41.923  27.534  29.446  1.00  0.00     0.049 A 
ATOM     39  N   UNL A   1      39.973  29.782  29.698  1.00  0.00    -0.248 NA
ATOM     40  C   UNL A   1      38.454  28.718  28.384  1.00  0.00     0.031 C 
ATOM     41  C   UNL A   1      42.809  26.447  29.328  1.00  0.00     0.029 A 
ATOM     42  N   UNL A   1      42.542  28.504  30.204  1.00  0.00    -0.354 N 
ATOM     43  C   UNL A   1      38.901  30.570  29.601  1.00  0.00     0.074 A 
ATOM     44  C   UNL A   1      37.910  29.898  28.749  1.00  0.00     0.031 C 
ATOM     45  C   UNL A   1      43.952  26.760  29.994  1.00  0.00     0.029 A 
ATOM     46  C   UNL A   1      43.797  28.048  30.541  1.00  0.00     0.049 A 
ATOM     47  H   UNL A   1      42.155  29.372  30.460  1.00  0.00     0.167 HD
ATOM     48  C   UNL A   1      38.710  31.821  30.192  1.00  0.00     0.037 A 
ATOM     49  C   UNL A   1      44.768  28.705  31.280  1.00  0.00     0.037 A 
ATOM     50  C   UNL A   1      39.664  32.458  30.967  1.00  0.00     0.049 A 
ATOM     51  C   UNL A   1      44.599  29.981  31.823  1.00  0.00     0.074 A 
ATOM     52  C   UNL A   1      39.483  33.715  31.576  1.00  0.00     0.029 A 
ATOM     53  N   UNL A   1      40.928  32.014  31.284  1.00  0.00    -0.354 N 
ATOM     54  N   UNL A   1      43.512  30.751  31.758  1.00  0.00    -0.248 NA
ATOM     55  C   UNL A   1      45.632  30.700  32.580  1.00  0.00     0.031 C 
ATOM     56  C   UNL A   1      40.626  34.029  32.243  1.00  0.00     0.029 A 
ATOM     57  C   UNL A   1      41.540  32.972  32.061  1.00  0.00     0.049 A 
ATOM     58  H   UNL A   1      41.326  31.157  31.004  1.00  0.00     0.167 HD
ATOM     59  C   UNL A   1      43.719  31.895  32.412  1.00  0.00     0.074 A 
ATOM     60  C   UNL A   1      45.089  31.882  32.944  1.00  0.00     0.031 C 
ATOM     61  C   UNL A   1      42.821  32.949  32.589  1.00  0.00     0.037 A 
BRANCH  48  62
ATOM     62  C   UNL A   1      37.379  32.522  29.971  1.00  0.00     0.058 A 
ATOM     63  C   UNL A   1      37.264  33.521  29.019  1.00  0.00     0.135 A 
ATOM     64  C   UNL A   1      36.356  32.192  30.751  1.00  0.00     0.135 A 
ATOM     65  F   UNL A   1      38.162  33.713  28.056  1.00  0.00    -0.206 F 
ATOM     66  C   UNL A   1      36.104  34.319  29.162  1.00  0.00     0.059 A 
ATOM     67  C   UNL A   1      35.201  32.937  30.740  1.00  0.00     0.059 A 
ATOM     68  F   UNL A   1      36.450  31.132  31.548  1.00  0.00    -0.206 F 
ATOM     69  C   UNL A   1      35.042  33.975  29.866  1.00  0.00     0.060 A 
BRANCH  69  70
ATOM     70  S   UNL A   1      33.458  34.834  29.684  1.00  0.00     0.124 S 
ATOM     71  O   UNL A   1      33.701  36.237  29.122  1.00  0.00    -0.237 OA
ATOM     72  O   UNL A   1      32.559  34.050  28.727  1.00  0.00    -0.237 OA
ATOM     73  O   UNL A   1      32.698  34.956  31.210  1.00  0.00    -0.744 OA
ENDBRANCH  69  70
ENDBRANCH  48  62
BRANCH  49  74
ATOM     74  C   UNL A   1      46.093  27.996  31.516  1.00  0.00     0.058 A 
ATOM     75  C   UNL A   1      46.190  27.211  32.653  1.00  0.00     0.135 A 
ATOM     76  C   UNL A   1      47.105  28.103  30.664  1.00  0.00     0.135 A 
ATOM     77  F   UNL A   1      45.138  26.873  33.392  1.00  0.00    -0.206 F 
ATOM     78  C   UNL A   1      47.509  26.801  32.955  1.00  0.00     0.059 A 
ATOM     79  C   UNL A   1      48.331  27.561  30.964  1.00  0.00     0.059 A 
ATOM     80  F   UNL A   1      46.931  28.741  29.509  1.00  0.00    -0.206 F 
ATOM     81  C   UNL A   1      48.515  26.822  32.099  1.00  0.00     0.060 A 
BRANCH  81  82
ATOM     82  S   UNL A   1      50.054  25.922  32.414  1.00  0.00     0.124 S 
ATOM     83  O   UNL A   1      50.879  26.672  33.461  1.00  0.00    -0.237 OA
ATOM     84  O   UNL A   1      49.727  24.519  32.930  1.00  0.00    -0.237 OA
ATOM     85  O   UNL A   1      50.949  25.801  30.962  1.00  0.00    -0.744 OA
ENDBRANCH  81  82
ENDBRANCH  49  74
BRANCH  61  86
ATOM     86  C   UNL A   1      43.275  34.144  33.413  1.00  0.00     0.058 A 
ATOM     87  C   UNL A   1      43.088  34.149  34.785  1.00  0.00     0.135 A 
ATOM     88  C   UNL A   1      43.789  35.194  32.783  1.00  0.00     0.135 A 
ATOM     89  F   UNL A   1      42.820  33.050  35.484  1.00  0.00    -0.206 F 
ATOM     90  C   UNL A   1      43.208  35.429  35.375  1.00  0.00     0.059 A 
ATOM     91  C   UNL A   1      44.007  36.373  33.455  1.00  0.00     0.059 A 
ATOM     92  F   UNL A   1      44.096  35.104  31.493  1.00  0.00    -0.206 F 
ATOM     93  C   UNL A   1      43.788  36.468  34.801  1.00  0.00     0.060 A 
BRANCH  93  94
ATOM     94  S   UNL A   1      44.266  37.935  35.745  1.00  0.00     0.124 S 
ATOM     95  O   UNL A   1      43.535  37.938  37.090  1.00  0.00    -0.237 OA
ATOM     96  O   UNL A   1      45.777  37.917  35.987  1.00  0.00    -0.237 OA
ATOM     97  O   UNL A   1      43.845  39.341  34.865  1.00  0.00    -0.744 OA
ENDBRANCH  93  94
ENDBRANCH  61  86
ENDBRANCH  35  36
ENDBRANCH  28  30
ENDBRANCH  27  28
ENDBRANCH   1  27
TORSDOF 16
ENDMDL
MODEL 3
REMARK VINA RESULT:     -11.2      1.799      4.096
REMARK SMILES O=C(OCCOC(=O)c1ccc(-c2c3nc(c(-c4c(F)cc(S(=O)(=O)[O-])cc4F)c4ccc([nH]4)c(-c4c(F)cc(S(=O)(=O)[O-])cc4F)c4nc(c(-c5c(F)cc(S(=O)(=O)[O-])cc5F)c5ccc2[nH]5)C=C4)C=C3)cc1)C1=Cc2cc(S(F)(F)(F)(F)F)cc(Br)c2O[C@H]1C(F)(F)F
REMARK SMILES IDX 5 1 4 2 3 3 2 4 1 5 75 6 76 7 91 8 77 9 90 10 78 11 89 12
REMARK SMILES IDX 79 13 87 14 86 15 88 16 92 17 93 18 94 19 95 20 80 21 81 22
REMARK SMILES IDX 82 23 83 24 84 25 85 26 6 27 7 28 8 29 9 30 10 31 74 32
REMARK SMILES IDX 11 33 73 34 12 35 13 36 14 37 67 38 15 39 72 40 66 41 68 42
REMARK SMILES IDX 16 43 71 44 65 45 64 46 17 48 51 49 30 50 50 51 31 52 34 53
REMARK SMILES IDX 49 54 69 55 32 56 33 57 48 59 70 60 35 61 18 62 19 63 28 64
REMARK SMILES IDX 20 65 21 66 27 67 29 68 22 69 23 70 24 71 25 72 26 73 52 74
REMARK SMILES IDX 53 75 62 76 54 77 55 78 61 79 63 80 56 81 57 82 58 83 59 84
REMARK SMILES IDX 60 85 36 86 37 87 46 88 38 89 39 90 45 91 47 92 40 93 41 94
REMARK SMILES IDX 42 95 43 96 44 97
REMARK H PARENT 68 47 34 58
REMARK Flexibility Score: inf
ROOT
ATOM      1  C   UNL A   1      33.100  28.364  26.423  1.00  0.00     0.275 C 
ENDROOT
BRANCH   1   2
ATOM      2  C   UNL A   1      33.689  26.972  26.261  1.00  0.00     0.275 C 
BRANCH   2   3
ATOM      3  O   UNL A   1      32.638  26.022  26.170  1.00  0.00    -0.459 OA
BRANCH   3   4
ATOM      4  C   UNL A   1      32.641  25.058  25.126  1.00  0.00     0.338 C 
ATOM      5  O   UNL A   1      33.736  24.718  24.578  1.00  0.00    -0.246 OA
BRANCH   4   6
ATOM      6  C   UNL A   1      31.335  24.434  24.665  1.00  0.00     0.087 C 
ATOM      7  C   UNL A   1      30.440  25.174  23.957  1.00  0.00     0.027 C 
ATOM      8  C   UNL A   1      31.029  22.982  24.995  1.00  0.00     0.316 C 
ATOM      9  C   UNL A   1      30.746  26.625  23.627  1.00  0.00     0.020 A 
ATOM     10  O   UNL A   1      32.949  25.905  23.100  1.00  0.00    -0.474 OA
ATOM     11  C   UNL A   1      29.807  27.616  23.863  1.00  0.00     0.036 A 
ATOM     12  C   UNL A   1      31.961  26.922  23.179  1.00  0.00     0.142 A 
ATOM     13  C   UNL A   1      30.151  28.875  23.319  1.00  0.00     0.109 A 
ATOM     14  C   UNL A   1      32.270  28.203  22.792  1.00  0.00     0.062 A 
ATOM     15  C   UNL A   1      31.368  29.221  22.942  1.00  0.00     0.044 A 
ATOM     16  Br  UNL A   1      34.029  28.578  22.012  1.00  0.00    -0.047 Br
BRANCH   8  17
ATOM     17  C   UNL A   1      32.183  22.388  25.786  1.00  0.00     0.430 C 
ATOM     18  F   UNL A   1      33.288  22.402  25.047  1.00  0.00    -0.167 F 
ATOM     19  F   UNL A   1      32.374  23.114  26.885  1.00  0.00    -0.167 F 
ATOM     20  F   UNL A   1      31.893  21.135  26.127  1.00  0.00    -0.167 F 
ENDBRANCH   8  17
BRANCH  13  21
ATOM     21  S   UNL A   1      28.831  30.099  23.126  1.00  0.00     0.310 S 
ATOM     22  F   UNL A   1      29.647  30.910  22.033  1.00  0.00    -0.094 F 
ATOM     23  F   UNL A   1      29.530  30.999  24.215  1.00  0.00    -0.094 F 
ATOM     24  F   UNL A   1      27.689  31.140  22.958  1.00  0.00    -0.094 F 
ATOM     25  F   UNL A   1      28.224  29.252  21.940  1.00  0.00    -0.094 F 
ATOM     26  F   UNL A   1      30.045  29.089  23.206  1.00  0.00    -0.094 F 
ENDBRANCH  13  21
ENDBRANCH   4   6
ENDBRANCH   3   4
ENDBRANCH   2   3
ENDBRANCH   1   2
BRANCH   1  27
ATOM     27  O   UNL A   1      33.422  28.868  27.710  1.00  0.00    -0.458 OA
BRANCH  27  28
ATOM     28  C   UNL A   1      34.252  30.013  27.837  1.00  0.00     0.338 C 
ATOM     29  O   UNL A   1      33.759  31.175  27.693  1.00  0.00    -0.246 OA
BRANCH  28  30
ATOM     30  C   UNL A   1      35.731  29.849  28.145  1.00  0.00     0.060 A 
ATOM     31  C   UNL A   1      36.677  30.077  27.159  1.00  0.00     0.016 A 
ATOM     32  C   UNL A   1      36.079  29.375  29.337  1.00  0.00     0.016 A 
ATOM     33  C   UNL A   1      37.939  29.498  27.430  1.00  0.00     0.010 A 
ATOM     34  C   UNL A   1      37.365  28.952  29.573  1.00  0.00     0.010 A 
ATOM     35  C   UNL A   1      38.337  29.093  28.622  1.00  0.00    -0.014 A 
BRANCH  35  36
ATOM     36  C   UNL A   1      39.799  28.800  28.922  1.00  0.00     0.031 A 
ATOM     37  C   UNL A   1      40.276  27.532  28.583  1.00  0.00     0.074 A 
ATOM     38  C   UNL A   1      40.589  29.814  29.434  1.00  0.00     0.049 A 
ATOM     39  N   UNL A   1      41.533  27.092  28.652  1.00  0.00    -0.248 NA
ATOM     40  C   UNL A   1      39.433  26.443  28.071  1.00  0.00     0.031 C 
ATOM     41  C   UNL A   1      40.115  31.097  29.770  1.00  0.00     0.029 A 
ATOM     42  N   UNL A   1      41.938  29.777  29.707  1.00  0.00    -0.354 N 
ATOM     43  C   UNL A   1      41.604  25.830  28.223  1.00  0.00     0.074 A 
ATOM     44  C   UNL A   1      40.252  25.393  27.849  1.00  0.00     0.031 C 
ATOM     45  C   UNL A   1      41.162  31.820  30.251  1.00  0.00     0.029 A 
ATOM     46  C   UNL A   1      42.306  31.001  30.221  1.00  0.00     0.049 A 
ATOM     47  H   UNL A   1      42.537  29.009  29.561  1.00  0.00     0.167 HD
ATOM     48  C   UNL A   1      42.743  25.029  28.128  1.00  0.00     0.037 A 
ATOM     49  C   UNL A   1      43.563  31.399  30.648  1.00  0.00     0.037 A 
ATOM     50  C   UNL A   1      44.008  25.442  28.514  1.00  0.00     0.049 A 
ATOM     51  C   UNL A   1      44.692  30.577  30.607  1.00  0.00     0.074 A 
ATOM     52  C   UNL A   1      45.167  24.648  28.417  1.00  0.00     0.029 A 
ATOM     53  N   UNL A   1      44.371  26.656  29.052  1.00  0.00    -0.354 N 
ATOM     54  N   UNL A   1      44.770  29.330  30.142  1.00  0.00    -0.248 NA
ATOM     55  C   UNL A   1      46.022  30.977  31.086  1.00  0.00     0.031 C 
ATOM     56  C   UNL A   1      46.214  25.371  28.897  1.00  0.00     0.029 A 
ATOM     57  C   UNL A   1      45.725  26.628  29.303  1.00  0.00     0.049 A 
ATOM     58  H   UNL A   1      43.767  27.415  29.224  1.00  0.00     0.167 HD
ATOM     59  C   UNL A   1      46.020  28.875  30.249  1.00  0.00     0.074 A 
ATOM     60  C   UNL A   1      46.842  29.925  30.866  1.00  0.00     0.031 C 
ATOM     61  C   UNL A   1      46.509  27.628  29.857  1.00  0.00     0.037 A 
BRANCH  48  62
ATOM     62  C   UNL A   1      42.586  23.624  27.568  1.00  0.00     0.058 A 
ATOM     63  C   UNL A   1      42.430  22.544  28.422  1.00  0.00     0.135 A 
ATOM     64  C   UNL A   1      42.663  23.457  26.253  1.00  0.00     0.135 A 
ATOM     65  F   UNL A   1      42.098  22.674  29.703  1.00  0.00    -0.206 F 
ATOM     66  C   UNL A   1      42.655  21.290  27.806  1.00  0.00     0.059 A 
ATOM     67  C   UNL A   1      42.743  22.197  25.712  1.00  0.00     0.059 A 
ATOM     68  F   UNL A   1      42.662  24.520  25.453  1.00  0.00    -0.206 F 
ATOM     69  C   UNL A   1      42.654  21.085  26.502  1.00  0.00     0.060 A 
BRANCH  69  70
ATOM     70  S   UNL A   1      42.543  19.421  25.798  1.00  0.00     0.124 S 
ATOM     71  O   UNL A   1      41.099  19.141  25.376  1.00  0.00    -0.237 OA
ATOM     72  O   UNL A   1      43.459  19.321  24.576  1.00  0.00    -0.237 OA
ATOM     73  O   UNL A   1      43.027  18.274  26.969  1.00  0.00    -0.744 OA
ENDBRANCH  69  70
ENDBRANCH  48  62
BRANCH  49  74
ATOM     74  C   UNL A   1      43.723  32.810  31.192  1.00  0.00     0.058 A 
ATOM     75  C   UNL A   1      43.990  33.809  30.271  1.00  0.00     0.135 A 
ATOM     76  C   UNL A   1      43.592  33.080  32.485  1.00  0.00     0.135 A 
ATOM     77  F   UNL A   1      43.881  33.633  28.958  1.00  0.00    -0.206 F 
ATOM     78  C   UNL A   1      44.391  35.034  30.855  1.00  0.00     0.059 A 
ATOM     79  C   UNL A   1      43.869  34.337  32.967  1.00  0.00     0.059 A 
ATOM     80  F   UNL A   1      43.187  32.128  33.321  1.00  0.00    -0.206 F 
ATOM     81  C   UNL A   1      44.197  35.359  32.121  1.00  0.00     0.060 A 
BRANCH  81  82
ATOM     82  S   UNL A   1      44.360  37.065  32.703  1.00  0.00     0.124 S 
ATOM     83  O   UNL A   1      45.657  37.211  33.500  1.00  0.00    -0.237 OA
ATOM     84  O   UNL A   1      44.390  38.013  31.501  1.00  0.00    -0.237 OA
ATOM     85  O   UNL A   1      43.028  37.455  33.702  1.00  0.00    -0.744 OA
ENDBRANCH  81  82
ENDBRANCH  49  74
BRANCH  61  86
ATOM     86  C   UNL A   1      47.992  27.351  30.046  1.00  0.00     0.058 A 
ATOM     87  C   UNL A   1      48.439  26.753  31.212  1.00  0.00     0.135 A 
ATOM     88  C   UNL A   1      48.840  27.750  29.106  1.00  0.00     0.135 A 
ATOM     89  F   UNL A   1      47.633  26.116  32.056  1.00  0.00    -0.206 F 
ATOM     90  C   UNL A   1      49.833  26.881  31.424  1.00  0.00     0.059 A 
ATOM     91  C   UNL A   1      50.196  27.722  29.331  1.00  0.00     0.059 A 
ATOM     92  F   UNL A   1      48.376  28.182  27.938  1.00  0.00    -0.206 F 
ATOM     93  C   UNL A   1      50.707  27.199  30.487  1.00  0.00     0.060 A 
BRANCH  93  94
ATOM     94  S   UNL A   1      52.484  26.953  30.718  1.00  0.00     0.124 S 
ATOM     95  O   UNL A   1      53.086  26.349  29.447  1.00  0.00    -0.237 OA
ATOM     96  O   UNL A   1      53.153  28.299  31.009  1.00  0.00    -0.237 OA
ATOM     97  O   UNL A   1      52.746  25.890  32.033  1.00  0.00    -0.744 OA
ENDBRANCH  93  94
ENDBRANCH  61  86
ENDBRANCH  35  36
ENDBRANCH  28  30
ENDBRANCH  27  28
ENDBRANCH   1  27
TORSDOF 16
ENDMDL
