MODEL 1
REMARK VINA RESULT:      -9.7      0.000      0.000
REMARK SMILES C[C@]([NH3+])(Cc1ccc(I)cc1)C(=O)OCCOC(=O)c1ccc(-c2c3nc(c(-c4c(F)cc(S(=O)(=O)[O-])cc4F)c4ccc([nH]4)c(-c4c(F)cc(S(=O)(=O)[O-])cc4F)c4nc(c(-c5c(F)cc(S(=O)(=O)[O-])cc5F)c5ccc2[nH]5)C=C4)C=C3)cc1
REMARK SMILES IDX 16 1 15 2 14 3 12 4 13 5 2 6 1 7 4 8 5 9 6 10 11 11 7 12
REMARK SMILES IDX 10 13 8 14 9 15 3 16 17 20 18 21 19 22 20 23 21 24 85 25
REMARK SMILES IDX 22 26 84 27 23 28 24 29 25 30 78 31 26 32 83 33 77 34 79 35
REMARK SMILES IDX 27 36 82 37 76 38 75 39 28 41 62 42 41 43 61 44 42 45 45 46
REMARK SMILES IDX 60 47 80 48 43 49 44 50 59 52 81 53 46 54 29 55 30 56 39 57
REMARK SMILES IDX 31 58 32 59 38 60 40 61 33 62 34 63 35 64 36 65 37 66 63 67
REMARK SMILES IDX 64 68 73 69 65 70 66 71 72 72 74 73 67 74 68 75 69 76 70 77
REMARK SMILES IDX 71 78 47 79 48 80 57 81 49 82 50 83 56 84 58 85 51 86 52 87
REMARK SMILES IDX 53 88 54 89 55 90
REMARK H PARENT 3 17 3 18 3 19 79 40 45 51
REMARK Flexibility Score: inf
ROOT
ATOM      1  C   UNL A   1      40.241  21.100  26.817  1.00  0.00     0.275 C 
ENDROOT
BRANCH   1   2
ATOM      2  C   UNL A   1      41.098  19.985  26.226  1.00  0.00     0.274 C 
BRANCH   2   3
ATOM      3  O   UNL A   1      42.483  20.137  26.597  1.00  0.00    -0.457 OA
BRANCH   3   4
ATOM      4  C   UNL A   1      43.325  20.418  25.562  1.00  0.00     0.368 C 
ATOM      5  O   UNL A   1      43.715  19.588  24.743  1.00  0.00    -0.245 OA
BRANCH   4   6
ATOM      6  C   UNL A   1      43.890  21.858  25.603  1.00  0.00     0.194 C 
ATOM      7  C   UNL A   1      45.418  21.689  25.494  1.00  0.00     0.092 C 
BRANCH   6   8
ATOM      8  C   UNL A   1      43.564  22.656  26.891  1.00  0.00     0.116 C 
BRANCH   8   9
ATOM      9  C   UNL A   1      44.418  23.861  27.234  1.00  0.00    -0.041 A 
ATOM     10  C   UNL A   1      44.329  25.049  26.492  1.00  0.00     0.005 A 
ATOM     11  C   UNL A   1      45.376  23.785  28.255  1.00  0.00     0.005 A 
ATOM     12  C   UNL A   1      45.149  26.142  26.781  1.00  0.00     0.015 A 
ATOM     13  C   UNL A   1      46.205  24.873  28.541  1.00  0.00     0.015 A 
ATOM     14  C   UNL A   1      46.082  26.053  27.810  1.00  0.00     0.013 A 
ATOM     15  I   UNL A   1      47.286  27.684  28.257  1.00  0.00    -0.044 I 
ENDBRANCH   8   9
ENDBRANCH   6   8
BRANCH   6  16
ATOM     16  N   UNL A   1      43.447  22.581  24.379  1.00  0.00    -0.343 N 
ATOM     17  H   UNL A   1      43.717  23.562  24.449  1.00  0.00     0.345 HD
ATOM     18  H   UNL A   1      42.433  22.514  24.293  1.00  0.00     0.345 HD
ATOM     19  H   UNL A   1      43.887  22.163  23.560  1.00  0.00     0.345 HD
ENDBRANCH   6  16
ENDBRANCH   4   6
ENDBRANCH   3   4
ENDBRANCH   2   3
ENDBRANCH   1   2
BRANCH   1  20
ATOM     20  O   UNL A   1      40.193  22.209  25.908  1.00  0.00    -0.458 OA
BRANCH  20  21
ATOM     21  C   UNL A   1      39.122  23.024  26.045  1.00  0.00     0.338 C 
ATOM     22  O   UNL A   1      38.004  22.835  25.597  1.00  0.00    -0.246 OA
BRANCH  21  23
ATOM     23  C   UNL A   1      39.520  24.269  26.731  1.00  0.00     0.060 A 
ATOM     24  C   UNL A   1      40.399  25.196  26.159  1.00  0.00     0.016 A 
ATOM     25  C   UNL A   1      39.014  24.485  28.012  1.00  0.00     0.016 A 
ATOM     26  C   UNL A   1      40.794  26.328  26.880  1.00  0.00     0.010 A 
ATOM     27  C   UNL A   1      39.368  25.636  28.711  1.00  0.00     0.010 A 
ATOM     28  C   UNL A   1      40.272  26.559  28.160  1.00  0.00    -0.014 A 
BRANCH  28  29
ATOM     29  C   UNL A   1      40.645  27.743  28.972  1.00  0.00     0.031 A 
ATOM     30  C   UNL A   1      41.852  27.672  29.863  1.00  0.00     0.074 A 
ATOM     31  C   UNL A   1      39.841  28.823  29.000  1.00  0.00     0.049 A 
ATOM     32  N   UNL A   1      42.183  28.431  30.874  1.00  0.00    -0.248 NA
ATOM     33  C   UNL A   1      42.807  26.586  29.585  1.00  0.00     0.031 C 
ATOM     34  C   UNL A   1      38.664  29.025  28.155  1.00  0.00     0.029 A 
ATOM     35  N   UNL A   1      39.868  29.935  29.807  1.00  0.00    -0.354 N 
ATOM     36  C   UNL A   1      43.356  27.890  31.384  1.00  0.00     0.074 A 
ATOM     37  C   UNL A   1      43.687  26.742  30.566  1.00  0.00     0.031 C 
ATOM     38  C   UNL A   1      38.067  30.177  28.502  1.00  0.00     0.029 A 
ATOM     39  C   UNL A   1      38.777  30.755  29.639  1.00  0.00     0.049 A 
ATOM     40  H   UNL A   1      40.597  30.125  30.441  1.00  0.00     0.167 HD
ATOM     41  C   UNL A   1      44.080  28.310  32.449  1.00  0.00     0.037 A 
ATOM     42  C   UNL A   1      38.361  31.817  30.357  1.00  0.00     0.037 A 
ATOM     43  C   UNL A   1      43.743  29.464  33.243  1.00  0.00     0.049 A 
ATOM     44  C   UNL A   1      39.154  32.243  31.560  1.00  0.00     0.074 A 
ATOM     45  C   UNL A   1      44.408  29.981  34.341  1.00  0.00     0.029 A 
ATOM     46  N   UNL A   1      42.646  30.283  33.018  1.00  0.00    -0.354 N 
ATOM     47  N   UNL A   1      40.242  31.706  32.059  1.00  0.00    -0.248 NA
ATOM     48  C   UNL A   1      38.660  33.408  32.308  1.00  0.00     0.031 C 
ATOM     49  C   UNL A   1      43.698  31.097  34.795  1.00  0.00     0.029 A 
ATOM     50  C   UNL A   1      42.612  31.297  33.959  1.00  0.00     0.049 A 
ATOM     51  H   UNL A   1      41.989  30.161  32.295  1.00  0.00     0.167 HD
ATOM     52  C   UNL A   1      40.574  32.477  33.167  1.00  0.00     0.074 A 
ATOM     53  C   UNL A   1      39.572  33.520  33.264  1.00  0.00     0.031 C 
ATOM     54  C   UNL A   1      41.614  32.337  34.023  1.00  0.00     0.037 A 
BRANCH  41  55
ATOM     55  C   UNL A   1      45.285  27.503  32.839  1.00  0.00     0.058 A 
ATOM     56  C   UNL A   1      46.577  27.848  32.411  1.00  0.00     0.135 A 
ATOM     57  C   UNL A   1      45.152  26.389  33.685  1.00  0.00     0.135 A 
ATOM     58  F   UNL A   1      46.759  28.894  31.589  1.00  0.00    -0.206 F 
ATOM     59  C   UNL A   1      47.691  27.106  32.792  1.00  0.00     0.059 A 
ATOM     60  C   UNL A   1      46.254  25.645  34.095  1.00  0.00     0.059 A 
ATOM     61  F   UNL A   1      43.939  26.016  34.123  1.00  0.00    -0.206 F 
ATOM     62  C   UNL A   1      47.519  26.004  33.633  1.00  0.00     0.060 A 
BRANCH  62  63
ATOM     63  S   UNL A   1      48.974  25.054  34.127  1.00  0.00     0.124 S 
ATOM     64  O   UNL A   1      49.384  25.759  35.338  1.00  0.00    -0.237 OA
ATOM     65  O   UNL A   1      48.424  23.717  34.329  1.00  0.00    -0.237 OA
ATOM     66  O   UNL A   1      49.872  25.192  32.985  1.00  0.00    -0.744 OA
ENDBRANCH  62  63
ENDBRANCH  41  55
BRANCH  42  67
ATOM     67  C   UNL A   1      37.108  32.517  29.972  1.00  0.00     0.058 A 
ATOM     68  C   UNL A   1      35.882  32.167  30.553  1.00  0.00     0.135 A 
ATOM     69  C   UNL A   1      37.120  33.580  29.056  1.00  0.00     0.135 A 
ATOM     70  F   UNL A   1      35.819  31.151  31.426  1.00  0.00    -0.206 F 
ATOM     71  C   UNL A   1      34.709  32.848  30.242  1.00  0.00     0.059 A 
ATOM     72  C   UNL A   1      35.965  34.290  28.745  1.00  0.00     0.059 A 
ATOM     73  F   UNL A   1      38.272  33.960  28.481  1.00  0.00    -0.206 F 
ATOM     74  C   UNL A   1      34.762  33.913  29.341  1.00  0.00     0.060 A 
BRANCH  74  75
ATOM     75  S   UNL A   1      33.251  34.845  29.003  1.00  0.00     0.124 S 
ATOM     76  O   UNL A   1      33.790  36.118  28.540  1.00  0.00    -0.237 OA
ATOM     77  O   UNL A   1      32.598  34.021  27.989  1.00  0.00    -0.237 OA
ATOM     78  O   UNL A   1      32.580  34.874  30.300  1.00  0.00    -0.744 OA
ENDBRANCH  74  75
ENDBRANCH  42  67
BRANCH  54  79
ATOM     79  C   UNL A   1      41.757  33.356  35.113  1.00  0.00     0.058 A 
ATOM     80  C   UNL A   1      41.231  33.139  36.395  1.00  0.00     0.135 A 
ATOM     81  C   UNL A   1      42.503  34.524  34.893  1.00  0.00     0.135 A 
ATOM     82  F   UNL A   1      40.503  32.041  36.650  1.00  0.00    -0.206 F 
ATOM     83  C   UNL A   1      41.443  34.049  37.426  1.00  0.00     0.059 A 
ATOM     84  C   UNL A   1      42.741  35.439  35.914  1.00  0.00     0.059 A 
ATOM     85  F   UNL A   1      43.030  34.771  33.683  1.00  0.00    -0.206 F 
ATOM     86  C   UNL A   1      42.204  35.193  37.177  1.00  0.00     0.060 A 
BRANCH  86  87
ATOM     87  S   UNL A   1      42.532  36.333  38.539  1.00  0.00     0.124 S 
ATOM     88  O   UNL A   1      43.344  37.350  37.881  1.00  0.00    -0.237 OA
ATOM     89  O   UNL A   1      41.188  36.750  38.930  1.00  0.00    -0.237 OA
ATOM     90  O   UNL A   1      43.232  35.503  39.514  1.00  0.00    -0.744 OA
ENDBRANCH  86  87
ENDBRANCH  54  79
ENDBRANCH  28  29
ENDBRANCH  21  23
ENDBRANCH  20  21
ENDBRANCH   1  20
TORSDOF 17
ENDMDL
MODEL 2
REMARK VINA RESULT:      -9.6      3.752     11.314
REMARK SMILES C[C@]([NH3+])(Cc1ccc(I)cc1)C(=O)OCCOC(=O)c1ccc(-c2c3nc(c(-c4c(F)cc(S(=O)(=O)[O-])cc4F)c4ccc([nH]4)c(-c4c(F)cc(S(=O)(=O)[O-])cc4F)c4nc(c(-c5c(F)cc(S(=O)(=O)[O-])cc5F)c5ccc2[nH]5)C=C4)C=C3)cc1
REMARK SMILES IDX 16 1 15 2 14 3 12 4 13 5 2 6 1 7 4 8 5 9 6 10 11 11 7 12
REMARK SMILES IDX 10 13 8 14 9 15 3 16 17 20 18 21 19 22 20 23 21 24 85 25
REMARK SMILES IDX 22 26 84 27 23 28 24 29 25 30 78 31 26 32 83 33 77 34 79 35
REMARK SMILES IDX 27 36 82 37 76 38 75 39 28 41 62 42 41 43 61 44 42 45 45 46
REMARK SMILES IDX 60 47 80 48 43 49 44 50 59 52 81 53 46 54 29 55 30 56 39 57
REMARK SMILES IDX 31 58 32 59 38 60 40 61 33 62 34 63 35 64 36 65 37 66 63 67
REMARK SMILES IDX 64 68 73 69 65 70 66 71 72 72 74 73 67 74 68 75 69 76 70 77
REMARK SMILES IDX 71 78 47 79 48 80 57 81 49 82 50 83 56 84 58 85 51 86 52 87
REMARK SMILES IDX 53 88 54 89 55 90
REMARK H PARENT 3 17 3 18 3 19 79 40 45 51
REMARK Flexibility Score: inf
ROOT
ATOM      1  C   UNL A   1      34.077  32.800  28.124  1.00  0.00     0.275 C 
ENDROOT
BRANCH   1   2
ATOM      2  C   UNL A   1      34.445  33.760  29.251  1.00  0.00     0.274 C 
BRANCH   2   3
ATOM      3  O   UNL A   1      35.470  33.205  30.098  1.00  0.00    -0.457 OA
BRANCH   3   4
ATOM      4  C   UNL A   1      35.151  33.148  31.422  1.00  0.00     0.368 C 
ATOM      5  O   UNL A   1      34.134  32.616  31.866  1.00  0.00    -0.245 OA
BRANCH   4   6
ATOM      6  C   UNL A   1      36.107  33.967  32.322  1.00  0.00     0.194 C 
ATOM      7  C   UNL A   1      37.387  34.146  31.483  1.00  0.00     0.092 C 
BRANCH   6   8
ATOM      8  C   UNL A   1      36.480  33.294  33.668  1.00  0.00     0.116 C 
BRANCH   8   9
ATOM      9  C   UNL A   1      37.579  32.251  33.678  1.00  0.00    -0.041 A 
ATOM     10  C   UNL A   1      38.880  32.570  34.097  1.00  0.00     0.005 A 
ATOM     11  C   UNL A   1      37.335  30.958  33.192  1.00  0.00     0.005 A 
ATOM     12  C   UNL A   1      39.902  31.618  34.062  1.00  0.00     0.015 A 
ATOM     13  C   UNL A   1      38.357  30.006  33.146  1.00  0.00     0.015 A 
ATOM     14  C   UNL A   1      39.636  30.335  33.591  1.00  0.00     0.013 A 
ATOM     15  I   UNL A   1      41.147  28.912  33.560  1.00  0.00    -0.044 I 
ENDBRANCH   8   9
ENDBRANCH   6   8
BRANCH   6  16
ATOM     16  N   UNL A   1      35.529  35.323  32.524  1.00  0.00    -0.343 N 
ATOM     17  H   UNL A   1      34.517  35.283  32.403  1.00  0.00     0.345 HD
ATOM     18  H   UNL A   1      35.927  35.968  31.841  1.00  0.00     0.345 HD
ATOM     19  H   UNL A   1      35.747  35.648  33.466  1.00  0.00     0.345 HD
ENDBRANCH   6  16
ENDBRANCH   4   6
ENDBRANCH   3   4
ENDBRANCH   2   3
ENDBRANCH   1   2
BRANCH   1  20
ATOM     20  O   UNL A   1      34.062  31.453  28.619  1.00  0.00    -0.458 OA
BRANCH  20  21
ATOM     21  C   UNL A   1      34.522  30.516  27.759  1.00  0.00     0.338 C 
ATOM     22  O   UNL A   1      33.907  30.018  26.831  1.00  0.00    -0.246 OA
BRANCH  21  23
ATOM     23  C   UNL A   1      35.869  30.072  28.169  1.00  0.00     0.060 A 
ATOM     24  C   UNL A   1      36.141  29.578  29.450  1.00  0.00     0.016 A 
ATOM     25  C   UNL A   1      36.897  30.197  27.236  1.00  0.00     0.016 A 
ATOM     26  C   UNL A   1      37.449  29.234  29.807  1.00  0.00     0.010 A 
ATOM     27  C   UNL A   1      38.190  29.807  27.574  1.00  0.00     0.010 A 
ATOM     28  C   UNL A   1      38.482  29.338  28.866  1.00  0.00    -0.014 A 
BRANCH  28  29
ATOM     29  C   UNL A   1      39.887  28.981  29.179  1.00  0.00     0.031 A 
ATOM     30  C   UNL A   1      40.829  30.053  29.647  1.00  0.00     0.074 A 
ATOM     31  C   UNL A   1      40.340  27.737  28.929  1.00  0.00     0.049 A 
ATOM     32  N   UNL A   1      42.136  30.055  29.672  1.00  0.00    -0.248 NA
ATOM     33  C   UNL A   1      40.214  31.297  30.138  1.00  0.00     0.031 C 
ATOM     34  C   UNL A   1      39.515  26.604  28.510  1.00  0.00     0.029 A 
ATOM     35  N   UNL A   1      41.617  27.233  28.949  1.00  0.00    -0.354 N 
ATOM     36  C   UNL A   1      42.503  31.313  30.134  1.00  0.00     0.074 A 
ATOM     37  C   UNL A   1      41.280  32.046  30.388  1.00  0.00     0.031 C 
ATOM     38  C   UNL A   1      40.308  25.543  28.288  1.00  0.00     0.029 A 
ATOM     39  C   UNL A   1      41.699  25.942  28.480  1.00  0.00     0.049 A 
ATOM     40  H   UNL A   1      42.396  27.743  29.268  1.00  0.00     0.167 HD
ATOM     41  C   UNL A   1      43.749  31.810  30.316  1.00  0.00     0.037 A 
ATOM     42  C   UNL A   1      42.773  25.187  28.180  1.00  0.00     0.037 A 
ATOM     43  C   UNL A   1      44.955  31.059  30.073  1.00  0.00     0.049 A 
ATOM     44  C   UNL A   1      44.148  25.768  28.348  1.00  0.00     0.074 A 
ATOM     45  C   UNL A   1      46.269  31.463  30.227  1.00  0.00     0.029 A 
ATOM     46  N   UNL A   1      44.990  29.745  29.627  1.00  0.00    -0.354 N 
ATOM     47  N   UNL A   1      44.488  26.970  28.750  1.00  0.00    -0.248 NA
ATOM     48  C   UNL A   1      45.286  24.903  28.009  1.00  0.00     0.031 C 
ATOM     49  C   UNL A   1      47.099  30.402  29.850  1.00  0.00     0.029 A 
ATOM     50  C   UNL A   1      46.302  29.325  29.496  1.00  0.00     0.049 A 
ATOM     51  H   UNL A   1      44.198  29.193  29.434  1.00  0.00     0.167 HD
ATOM     52  C   UNL A   1      45.877  26.999  28.732  1.00  0.00     0.074 A 
ATOM     53  C   UNL A   1      46.316  25.693  28.280  1.00  0.00     0.031 C 
ATOM     54  C   UNL A   1      46.714  28.013  29.062  1.00  0.00     0.037 A 
BRANCH  41  55
ATOM     55  C   UNL A   1      43.876  33.236  30.767  1.00  0.00     0.058 A 
ATOM     56  C   UNL A   1      43.803  34.307  29.864  1.00  0.00     0.135 A 
ATOM     57  C   UNL A   1      44.034  33.540  32.130  1.00  0.00     0.135 A 
ATOM     58  F   UNL A   1      43.669  34.073  28.548  1.00  0.00    -0.206 F 
ATOM     59  C   UNL A   1      43.903  35.628  30.292  1.00  0.00     0.059 A 
ATOM     60  C   UNL A   1      44.116  34.853  32.583  1.00  0.00     0.059 A 
ATOM     61  F   UNL A   1      44.110  32.552  33.037  1.00  0.00    -0.206 F 
ATOM     62  C   UNL A   1      44.062  35.891  31.654  1.00  0.00     0.060 A 
BRANCH  62  63
ATOM     63  S   UNL A   1      44.181  37.609  32.199  1.00  0.00     0.124 S 
ATOM     64  O   UNL A   1      45.544  37.655  32.721  1.00  0.00    -0.237 OA
ATOM     65  O   UNL A   1      43.953  38.349  30.961  1.00  0.00    -0.237 OA
ATOM     66  O   UNL A   1      43.122  37.722  33.196  1.00  0.00    -0.744 OA
ENDBRANCH  62  63
ENDBRANCH  41  55
BRANCH  42  67
ATOM     67  C   UNL A   1      42.578  23.812  27.650  1.00  0.00     0.058 A 
ATOM     68  C   UNL A   1      42.525  23.574  26.269  1.00  0.00     0.135 A 
ATOM     69  C   UNL A   1      42.490  22.705  28.509  1.00  0.00     0.135 A 
ATOM     70  F   UNL A   1      42.594  24.601  25.410  1.00  0.00    -0.206 F 
ATOM     71  C   UNL A   1      42.395  22.287  25.757  1.00  0.00     0.059 A 
ATOM     72  C   UNL A   1      42.382  21.407  28.021  1.00  0.00     0.059 A 
ATOM     73  F   UNL A   1      42.547  22.880  29.839  1.00  0.00    -0.206 F 
ATOM     74  C   UNL A   1      42.330  21.209  26.642  1.00  0.00     0.060 A 
BRANCH  74  75
ATOM     75  S   UNL A   1      42.243  19.534  25.968  1.00  0.00     0.124 S 
ATOM     76  O   UNL A   1      43.163  19.624  24.841  1.00  0.00    -0.237 OA
ATOM     77  O   UNL A   1      42.692  18.723  27.096  1.00  0.00    -0.237 OA
ATOM     78  O   UNL A   1      40.832  19.386  25.625  1.00  0.00    -0.744 OA
ENDBRANCH  74  75
ENDBRANCH  42  67
BRANCH  54  79
ATOM     79  C   UNL A   1      48.187  27.745  28.995  1.00  0.00     0.058 A 
ATOM     80  C   UNL A   1      48.872  27.135  30.056  1.00  0.00     0.135 A 
ATOM     81  C   UNL A   1      48.902  28.024  27.819  1.00  0.00     0.135 A 
ATOM     82  F   UNL A   1      48.233  26.858  31.203  1.00  0.00    -0.206 F 
ATOM     83  C   UNL A   1      50.220  26.809  29.953  1.00  0.00     0.059 A 
ATOM     84  C   UNL A   1      50.246  27.691  27.689  1.00  0.00     0.059 A 
ATOM     85  F   UNL A   1      48.286  28.602  26.776  1.00  0.00    -0.206 F 
ATOM     86  C   UNL A   1      50.897  27.085  28.763  1.00  0.00     0.060 A 
BRANCH  86  87
ATOM     87  S   UNL A   1      52.629  26.595  28.613  1.00  0.00     0.124 S 
ATOM     88  O   UNL A   1      52.926  26.148  29.969  1.00  0.00    -0.237 OA
ATOM     89  O   UNL A   1      52.573  25.548  27.598  1.00  0.00    -0.237 OA
ATOM     90  O   UNL A   1      53.294  27.826  28.197  1.00  0.00    -0.744 OA
ENDBRANCH  86  87
ENDBRANCH  54  79
ENDBRANCH  28  29
ENDBRANCH  21  23
ENDBRANCH  20  21
ENDBRANCH   1  20
TORSDOF 17
ENDMDL
MODEL 3
REMARK VINA RESULT:      -9.5      4.980     11.286
REMARK SMILES C[C@]([NH3+])(Cc1ccc(I)cc1)C(=O)OCCOC(=O)c1ccc(-c2c3nc(c(-c4c(F)cc(S(=O)(=O)[O-])cc4F)c4ccc([nH]4)c(-c4c(F)cc(S(=O)(=O)[O-])cc4F)c4nc(c(-c5c(F)cc(S(=O)(=O)[O-])cc5F)c5ccc2[nH]5)C=C4)C=C3)cc1
REMARK SMILES IDX 16 1 15 2 14 3 12 4 13 5 2 6 1 7 4 8 5 9 6 10 11 11 7 12
REMARK SMILES IDX 10 13 8 14 9 15 3 16 17 20 18 21 19 22 20 23 21 24 85 25
REMARK SMILES IDX 22 26 84 27 23 28 24 29 25 30 78 31 26 32 83 33 77 34 79 35
REMARK SMILES IDX 27 36 82 37 76 38 75 39 28 41 62 42 41 43 61 44 42 45 45 46
REMARK SMILES IDX 60 47 80 48 43 49 44 50 59 52 81 53 46 54 29 55 30 56 39 57
REMARK SMILES IDX 31 58 32 59 38 60 40 61 33 62 34 63 35 64 36 65 37 66 63 67
REMARK SMILES IDX 64 68 73 69 65 70 66 71 72 72 74 73 67 74 68 75 69 76 70 77
REMARK SMILES IDX 71 78 47 79 48 80 57 81 49 82 50 83 56 84 58 85 51 86 52 87
REMARK SMILES IDX 53 88 54 89 55 90
REMARK H PARENT 3 17 3 18 3 19 79 40 45 51
REMARK Flexibility Score: inf
ROOT
ATOM      1  C   UNL A   1      33.292  29.768  26.332  1.00  0.00     0.275 C 
ENDROOT
BRANCH   1   2
ATOM      2  C   UNL A   1      31.790  29.514  26.415  1.00  0.00     0.274 C 
BRANCH   2   3
ATOM      3  O   UNL A   1      31.412  28.353  25.649  1.00  0.00    -0.457 OA
BRANCH   3   4
ATOM      4  C   UNL A   1      31.203  28.585  24.322  1.00  0.00     0.368 C 
ATOM      5  O   UNL A   1      30.525  29.512  23.880  1.00  0.00    -0.245 OA
BRANCH   4   6
ATOM      6  C   UNL A   1      31.763  27.471  23.406  1.00  0.00     0.194 C 
ATOM      7  C   UNL A   1      31.012  26.194  23.829  1.00  0.00     0.092 C 
BRANCH   6   8
ATOM      8  C   UNL A   1      33.288  27.221  23.532  1.00  0.00     0.116 C 
BRANCH   8   9
ATOM      9  C   UNL A   1      33.765  25.854  23.981  1.00  0.00    -0.041 A 
ATOM     10  C   UNL A   1      34.056  25.593  25.328  1.00  0.00     0.005 A 
ATOM     11  C   UNL A   1      34.001  24.841  23.040  1.00  0.00     0.005 A 
ATOM     12  C   UNL A   1      34.538  24.345  25.732  1.00  0.00     0.015 A 
ATOM     13  C   UNL A   1      34.493  23.595  23.439  1.00  0.00     0.015 A 
ATOM     14  C   UNL A   1      34.750  23.347  24.786  1.00  0.00     0.013 A 
ATOM     15  I   UNL A   1      35.445  21.485  25.387  1.00  0.00    -0.044 I 
ENDBRANCH   8   9
ENDBRANCH   6   8
BRANCH   6  16
ATOM     16  N   UNL A   1      31.366  27.761  22.001  1.00  0.00    -0.343 N 
ATOM     17  H   UNL A   1      31.275  26.885  21.487  1.00  0.00     0.345 HD
ATOM     18  H   UNL A   1      32.079  28.341  21.559  1.00  0.00     0.345 HD
ATOM     19  H   UNL A   1      30.474  28.254  21.995  1.00  0.00     0.345 HD
ENDBRANCH   6  16
ENDBRANCH   4   6
ENDBRANCH   3   4
ENDBRANCH   2   3
ENDBRANCH   1   2
BRANCH   1  20
ATOM     20  O   UNL A   1      33.908  29.448  27.588  1.00  0.00    -0.458 OA
BRANCH  20  21
ATOM     21  C   UNL A   1      34.603  30.456  28.164  1.00  0.00     0.338 C 
ATOM     22  O   UNL A   1      34.218  31.601  28.329  1.00  0.00    -0.246 OA
BRANCH  21  23
ATOM     23  C   UNL A   1      35.975  30.009  28.475  1.00  0.00     0.060 A 
ATOM     24  C   UNL A   1      36.353  29.572  29.749  1.00  0.00     0.016 A 
ATOM     25  C   UNL A   1      36.917  30.070  27.449  1.00  0.00     0.016 A 
ATOM     26  C   UNL A   1      37.684  29.223  30.005  1.00  0.00     0.010 A 
ATOM     27  C   UNL A   1      38.230  29.675  27.690  1.00  0.00     0.010 A 
ATOM     28  C   UNL A   1      38.629  29.263  28.972  1.00  0.00    -0.014 A 
BRANCH  28  29
ATOM     29  C   UNL A   1      40.053  28.897  29.177  1.00  0.00     0.031 A 
ATOM     30  C   UNL A   1      41.041  29.968  29.540  1.00  0.00     0.074 A 
ATOM     31  C   UNL A   1      40.470  27.642  28.922  1.00  0.00     0.049 A 
ATOM     32  N   UNL A   1      42.345  29.955  29.457  1.00  0.00    -0.248 NA
ATOM     33  C   UNL A   1      40.480  31.231  30.048  1.00  0.00     0.031 C 
ATOM     34  C   UNL A   1      39.603  26.509  28.601  1.00  0.00     0.029 A 
ATOM     35  N   UNL A   1      41.740  27.123  28.849  1.00  0.00    -0.354 N 
ATOM     36  C   UNL A   1      42.761  31.220  29.855  1.00  0.00     0.074 A 
ATOM     37  C   UNL A   1      41.571  31.973  30.191  1.00  0.00     0.031 C 
ATOM     38  C   UNL A   1      40.364  25.434  28.340  1.00  0.00     0.029 A 
ATOM     39  C   UNL A   1      41.770  25.821  28.407  1.00  0.00     0.049 A 
ATOM     40  H   UNL A   1      42.548  27.632  29.090  1.00  0.00     0.167 HD
ATOM     41  C   UNL A   1      44.024  31.705  29.921  1.00  0.00     0.037 A 
ATOM     42  C   UNL A   1      42.808  25.046  28.037  1.00  0.00     0.037 A 
ATOM     43  C   UNL A   1      45.197  30.935  29.598  1.00  0.00     0.049 A 
ATOM     44  C   UNL A   1      44.198  25.614  28.078  1.00  0.00     0.074 A 
ATOM     45  C   UNL A   1      46.524  31.327  29.633  1.00  0.00     0.029 A 
ATOM     46  N   UNL A   1      45.182  29.610  29.184  1.00  0.00    -0.354 N 
ATOM     47  N   UNL A   1      44.581  26.821  28.420  1.00  0.00    -0.248 NA
ATOM     48  C   UNL A   1      45.295  24.727  27.667  1.00  0.00     0.031 C 
ATOM     49  C   UNL A   1      47.309  30.247  29.215  1.00  0.00     0.029 A 
ATOM     50  C   UNL A   1      46.474  29.172  28.955  1.00  0.00     0.049 A 
ATOM     51  H   UNL A   1      44.371  29.063  29.071  1.00  0.00     0.167 HD
ATOM     52  C   UNL A   1      45.965  26.833  28.287  1.00  0.00     0.074 A 
ATOM     53  C   UNL A   1      46.352  25.512  27.832  1.00  0.00     0.031 C 
ATOM     54  C   UNL A   1      46.836  27.845  28.521  1.00  0.00     0.037 A 
BRANCH  41  55
ATOM     55  C   UNL A   1      44.202  33.141  30.325  1.00  0.00     0.058 A 
ATOM     56  C   UNL A   1      44.449  33.510  31.656  1.00  0.00     0.135 A 
ATOM     57  C   UNL A   1      44.163  34.161  29.360  1.00  0.00     0.135 A 
ATOM     58  F   UNL A   1      44.480  32.576  32.621  1.00  0.00    -0.206 F 
ATOM     59  C   UNL A   1      44.631  34.840  32.020  1.00  0.00     0.059 A 
ATOM     60  C   UNL A   1      44.362  35.496  29.697  1.00  0.00     0.059 A 
ATOM     61  F   UNL A   1      43.930  33.863  28.072  1.00  0.00    -0.206 F 
ATOM     62  C   UNL A   1      44.584  35.828  31.033  1.00  0.00     0.060 A 
BRANCH  62  63
ATOM     63  S   UNL A   1      44.830  37.551  31.516  1.00  0.00     0.124 S 
ATOM     64  O   UNL A   1      44.722  37.464  32.969  1.00  0.00    -0.237 OA
ATOM     65  O   UNL A   1      46.165  37.836  30.997  1.00  0.00    -0.237 OA
ATOM     66  O   UNL A   1      43.739  38.250  30.845  1.00  0.00    -0.744 OA
ENDBRANCH  62  63
ENDBRANCH  41  55
BRANCH  42  67
ATOM     67  C   UNL A   1      42.555  23.661  27.560  1.00  0.00     0.058 A 
ATOM     68  C   UNL A   1      42.416  23.387  26.192  1.00  0.00     0.135 A 
ATOM     69  C   UNL A   1      42.499  22.581  28.454  1.00  0.00     0.135 A 
ATOM     70  F   UNL A   1      42.453  24.388  25.301  1.00  0.00    -0.206 F 
ATOM     71  C   UNL A   1      42.232  22.089  25.726  1.00  0.00     0.059 A 
ATOM     72  C   UNL A   1      42.337  21.272  28.011  1.00  0.00     0.059 A 
ATOM     73  F   UNL A   1      42.638  22.791  29.773  1.00  0.00    -0.206 F 
ATOM     74  C   UNL A   1      42.200  21.037  26.643  1.00  0.00     0.060 A 
BRANCH  74  75
ATOM     75  S   UNL A   1      42.041  19.346  26.025  1.00  0.00     0.124 S 
ATOM     76  O   UNL A   1      42.972  19.357  24.903  1.00  0.00    -0.237 OA
ATOM     77  O   UNL A   1      42.446  18.553  27.182  1.00  0.00    -0.237 OA
ATOM     78  O   UNL A   1      40.627  19.250  25.675  1.00  0.00    -0.744 OA
ENDBRANCH  74  75
ENDBRANCH  42  67
BRANCH  54  79
ATOM     79  C   UNL A   1      48.296  27.557  28.339  1.00  0.00     0.058 A 
ATOM     80  C   UNL A   1      48.948  27.811  27.124  1.00  0.00     0.135 A 
ATOM     81  C   UNL A   1      49.066  27.104  29.422  1.00  0.00     0.135 A 
ATOM     82  F   UNL A   1      48.253  28.237  26.059  1.00  0.00    -0.206 F 
ATOM     83  C   UNL A   1      50.321  27.626  26.989  1.00  0.00     0.059 A 
ATOM     84  C   UNL A   1      50.441  26.927  29.313  1.00  0.00     0.059 A 
ATOM     85  F   UNL A   1      48.484  26.852  30.606  1.00  0.00    -0.206 F 
ATOM     86  C   UNL A   1      51.059  27.190  28.091  1.00  0.00     0.060 A 
BRANCH  86  87
ATOM     87  S   UNL A   1      52.850  27.018  27.926  1.00  0.00     0.124 S 
ATOM     88  O   UNL A   1      52.960  25.735  27.241  1.00  0.00    -0.237 OA
ATOM     89  O   UNL A   1      53.207  28.193  27.135  1.00  0.00    -0.237 OA
ATOM     90  O   UNL A   1      53.320  27.036  29.308  1.00  0.00    -0.744 OA
ENDBRANCH  86  87
ENDBRANCH  54  79
ENDBRANCH  28  29
ENDBRANCH  21  23
ENDBRANCH  20  21
ENDBRANCH   1  20
TORSDOF 17
ENDMDL
