MODEL 1
REMARK VINA RESULT:     -11.9      0.000      0.000
REMARK SMILES CC1=C2C(CSc3c(Cl)cccc3Cl)=CC(=O)N=C2S[C@H]1C(=O)OCCOC(=O)c1ccc(-c2c3nc(c(-c4c(F)cc(S(=O)(=O)[O-])cc4F)c4ccc([nH]4)c(-c4c(F)cc(S(=O)(=O)[O-])cc4F)c4nc(c(-c5c(F)cc(S(=O)(=O)[O-])cc5F)c5ccc2[nH]5)C=C4)C=C3)cc1
REMARK SMILES IDX 25 1 24 2 22 3 23 4 21 5 1 6 2 7 3 8 4 9 19 10 20 11 15 12
REMARK SMILES IDX 18 13 16 14 17 15 5 16 6 17 7 18 8 19 13 20 9 21 10 22 12 23
REMARK SMILES IDX 14 24 11 25 26 26 27 27 28 28 29 29 30 30 31 31 95 32 32 33
REMARK SMILES IDX 94 34 33 35 34 36 35 37 88 38 36 39 93 40 87 41 89 42 37 43
REMARK SMILES IDX 92 44 86 45 85 46 38 48 72 49 51 50 71 51 52 52 55 53 70 54
REMARK SMILES IDX 90 55 53 56 54 57 69 59 91 60 56 61 39 62 40 63 49 64 41 65
REMARK SMILES IDX 42 66 48 67 50 68 43 69 44 70 45 71 46 72 47 73 73 74 74 75
REMARK SMILES IDX 83 76 75 77 76 78 82 79 84 80 77 81 78 82 79 83 80 84 81 85
REMARK SMILES IDX 57 86 58 87 67 88 59 89 60 90 66 91 68 92 61 93 62 94 63 95
REMARK SMILES IDX 64 96 65 97
REMARK H PARENT 89 47 55 58
REMARK Flexibility Score: inf
ROOT
ATOM      1  C   UNL A   1      39.506  21.512  26.148  1.00  0.00     0.274 C 
ENDROOT
BRANCH   1   2
ATOM      2  O   UNL A   1      38.427  22.291  25.590  1.00  0.00    -0.461 OA
BRANCH   2   3
ATOM      3  C   UNL A   1      37.225  21.673  25.383  1.00  0.00     0.323 C 
ATOM      4  O   UNL A   1      37.097  20.523  24.978  1.00  0.00    -0.251 OA
BRANCH   3   5
ATOM      5  C   UNL A   1      36.031  22.585  25.729  1.00  0.00     0.189 C 
ATOM      6  C   UNL A   1      35.388  23.857  23.595  1.00  0.00     0.042 C 
ATOM      7  C   UNL A   1      35.062  22.775  24.578  1.00  0.00    -0.039 C 
ATOM      8  C   UNL A   1      34.013  21.935  24.554  1.00  0.00     0.012 C 
ATOM      9  C   UNL A   1      32.908  21.695  23.651  1.00  0.00    -0.022 C 
ATOM     10  C   UNL A   1      33.987  21.115  25.796  1.00  0.00     0.109 C 
ATOM     11  S   UNL A   1      35.030  21.778  27.023  1.00  0.00    -0.086 SA
ATOM     12  C   UNL A   1      32.179  20.585  23.896  1.00  0.00     0.079 C 
ATOM     13  N   UNL A   1      33.285  20.062  26.013  1.00  0.00    -0.202 NA
ATOM     14  C   UNL A   1      32.509  19.612  24.977  1.00  0.00     0.271 C 
ATOM     15  O   UNL A   1      32.021  18.488  24.935  1.00  0.00    -0.267 OA
BRANCH   9  16
ATOM     16  C   UNL A   1      32.514  22.656  22.556  1.00  0.00     0.111 C 
BRANCH  16  17
ATOM     17  S   UNL A   1      31.150  23.775  23.033  1.00  0.00    -0.118 SA
BRANCH  17  18
ATOM     18  C   UNL A   1      32.049  25.043  23.949  1.00  0.00     0.045 A 
ATOM     19  C   UNL A   1      32.735  26.079  23.280  1.00  0.00     0.056 A 
ATOM     20  C   UNL A   1      32.181  24.970  25.350  1.00  0.00     0.056 A 
ATOM     21  Cl  UNL A   1      32.670  26.284  21.560  1.00  0.00    -0.083 Cl
ATOM     22  C   UNL A   1      33.520  27.001  23.987  1.00  0.00     0.022 A 
ATOM     23  C   UNL A   1      32.975  25.889  26.049  1.00  0.00     0.022 A 
ATOM     24  Cl  UNL A   1      31.389  23.759  26.305  1.00  0.00    -0.083 Cl
ATOM     25  C   UNL A   1      33.645  26.902  25.369  1.00  0.00     0.003 A 
ENDBRANCH  17  18
ENDBRANCH  16  17
ENDBRANCH   9  16
ENDBRANCH   3   5
ENDBRANCH   2   3
ENDBRANCH   1   2
BRANCH   1  26
ATOM     26  C   UNL A   1      40.563  22.401  26.807  1.00  0.00     0.275 C 
BRANCH  26  27
ATOM     27  O   UNL A   1      40.238  23.797  26.677  1.00  0.00    -0.458 OA
BRANCH  27  28
ATOM     28  C   UNL A   1      41.306  24.624  26.681  1.00  0.00     0.338 C 
ATOM     29  O   UNL A   1      42.269  24.580  25.935  1.00  0.00    -0.246 OA
BRANCH  28  30
ATOM     30  C   UNL A   1      41.125  25.693  27.669  1.00  0.00     0.060 A 
ATOM     31  C   UNL A   1      42.140  26.646  27.791  1.00  0.00     0.016 A 
ATOM     32  C   UNL A   1      40.019  25.714  28.518  1.00  0.00     0.016 A 
ATOM     33  C   UNL A   1      42.074  27.610  28.788  1.00  0.00     0.010 A 
ATOM     34  C   UNL A   1      39.943  26.694  29.506  1.00  0.00     0.010 A 
ATOM     35  C   UNL A   1      40.975  27.639  29.651  1.00  0.00    -0.014 A 
BRANCH  35  36
ATOM     36  C   UNL A   1      40.883  28.674  30.700  1.00  0.00     0.031 A 
ATOM     37  C   UNL A   1      41.765  28.597  31.907  1.00  0.00     0.074 A 
ATOM     38  C   UNL A   1      39.978  29.660  30.562  1.00  0.00     0.049 A 
ATOM     39  N   UNL A   1      41.735  29.316  32.998  1.00  0.00    -0.248 NA
ATOM     40  C   UNL A   1      42.822  27.573  31.886  1.00  0.00     0.031 C 
ATOM     41  C   UNL A   1      39.106  29.846  29.400  1.00  0.00     0.029 A 
ATOM     42  N   UNL A   1      39.629  30.676  31.411  1.00  0.00    -0.354 N 
ATOM     43  C   UNL A   1      42.754  28.825  33.803  1.00  0.00     0.074 A 
ATOM     44  C   UNL A   1      43.378  27.736  33.080  1.00  0.00     0.031 C 
ATOM     45  C   UNL A   1      38.307  30.902  29.618  1.00  0.00     0.029 A 
ATOM     46  C   UNL A   1      38.578  31.432  30.952  1.00  0.00     0.049 A 
ATOM     47  H   UNL A   1      40.085  30.848  32.266  1.00  0.00     0.167 HD
ATOM     48  C   UNL A   1      43.129  29.251  35.032  1.00  0.00     0.037 A 
ATOM     49  C   UNL A   1      37.886  32.415  31.556  1.00  0.00     0.037 A 
ATOM     50  C   UNL A   1      42.489  30.333  35.735  1.00  0.00     0.049 A 
ATOM     51  C   UNL A   1      38.273  32.821  32.950  1.00  0.00     0.074 A 
ATOM     52  C   UNL A   1      42.784  30.844  36.986  1.00  0.00     0.029 A 
ATOM     53  N   UNL A   1      41.419  31.071  35.243  1.00  0.00    -0.354 N 
ATOM     54  N   UNL A   1      39.229  32.341  33.710  1.00  0.00    -0.248 NA
ATOM     55  C   UNL A   1      37.488  33.894  33.572  1.00  0.00     0.031 C 
ATOM     56  C   UNL A   1      41.870  31.867  37.266  1.00  0.00     0.029 A 
ATOM     57  C   UNL A   1      41.033  32.022  36.172  1.00  0.00     0.049 A 
ATOM     58  H   UNL A   1      40.998  30.937  34.364  1.00  0.00     0.167 HD
ATOM     59  C   UNL A   1      39.179  33.074  34.890  1.00  0.00     0.074 A 
ATOM     60  C   UNL A   1      38.098  34.029  34.741  1.00  0.00     0.031 C 
ATOM     61  C   UNL A   1      39.959  32.968  35.994  1.00  0.00     0.037 A 
BRANCH  48  62
ATOM     62  C   UNL A   1      44.257  28.522  35.705  1.00  0.00     0.058 A 
ATOM     63  C   UNL A   1      45.593  28.919  35.543  1.00  0.00     0.135 A 
ATOM     64  C   UNL A   1      43.998  27.420  36.538  1.00  0.00     0.135 A 
ATOM     65  F   UNL A   1      45.899  29.953  34.742  1.00  0.00    -0.206 F 
ATOM     66  C   UNL A   1      46.636  28.234  36.160  1.00  0.00     0.059 A 
ATOM     67  C   UNL A   1      45.023  26.735  37.183  1.00  0.00     0.059 A 
ATOM     68  F   UNL A   1      42.738  26.997  36.724  1.00  0.00    -0.206 F 
ATOM     69  C   UNL A   1      46.341  27.140  36.974  1.00  0.00     0.060 A 
BRANCH  69  70
ATOM     70  S   UNL A   1      47.703  26.248  37.754  1.00  0.00     0.124 S 
ATOM     71  O   UNL A   1      47.212  24.874  37.708  1.00  0.00    -0.237 OA
ATOM     72  O   UNL A   1      48.824  26.550  36.869  1.00  0.00    -0.237 OA
ATOM     73  O   UNL A   1      47.780  26.843  39.085  1.00  0.00    -0.744 OA
ENDBRANCH  69  70
ENDBRANCH  48  62
BRANCH  49  74
ATOM     74  C   UNL A   1      36.753  33.061  30.848  1.00  0.00     0.058 A 
ATOM     75  C   UNL A   1      35.427  32.777  31.202  1.00  0.00     0.135 A 
ATOM     76  C   UNL A   1      36.973  34.004  29.831  1.00  0.00     0.135 A 
ATOM     77  F   UNL A   1      35.168  31.880  32.166  1.00  0.00    -0.206 F 
ATOM     78  C   UNL A   1      34.356  33.399  30.569  1.00  0.00     0.059 A 
ATOM     79  C   UNL A   1      35.920  34.655  29.199  1.00  0.00     0.059 A 
ATOM     80  F   UNL A   1      38.226  34.321  29.467  1.00  0.00    -0.206 F 
ATOM     81  C   UNL A   1      34.613  34.340  29.571  1.00  0.00     0.060 A 
BRANCH  81  82
ATOM     82  S   UNL A   1      33.218  35.186  28.797  1.00  0.00     0.124 S 
ATOM     83  O   UNL A   1      32.439  35.591  29.962  1.00  0.00    -0.237 OA
ATOM     84  O   UNL A   1      33.879  36.262  28.065  1.00  0.00    -0.237 OA
ATOM     85  O   UNL A   1      32.618  34.148  27.963  1.00  0.00    -0.744 OA
ENDBRANCH  81  82
ENDBRANCH  49  74
BRANCH  61  86
ATOM     86  C   UNL A   1      39.700  33.940  37.110  1.00  0.00     0.058 A 
ATOM     87  C   UNL A   1      38.943  33.583  38.236  1.00  0.00     0.135 A 
ATOM     88  C   UNL A   1      40.262  35.225  37.072  1.00  0.00     0.135 A 
ATOM     89  F   UNL A   1      38.377  32.368  38.313  1.00  0.00    -0.206 F 
ATOM     90  C   UNL A   1      38.741  34.475  39.283  1.00  0.00     0.059 A 
ATOM     91  C   UNL A   1      40.092  36.125  38.118  1.00  0.00     0.059 A 
ATOM     92  F   UNL A   1      41.000  35.609  36.018  1.00  0.00    -0.206 F 
ATOM     93  C   UNL A   1      39.321  35.744  39.215  1.00  0.00     0.060 A 
BRANCH  93  94
ATOM     94  S   UNL A   1      39.090  36.879  40.600  1.00  0.00     0.124 S 
ATOM     95  O   UNL A   1      38.368  36.040  41.549  1.00  0.00    -0.237 OA
ATOM     96  O   UNL A   1      40.464  37.212  40.965  1.00  0.00    -0.237 OA
ATOM     97  O   UNL A   1      38.322  37.974  40.016  1.00  0.00    -0.744 OA
ENDBRANCH  93  94
ENDBRANCH  61  86
ENDBRANCH  35  36
ENDBRANCH  28  30
ENDBRANCH  27  28
ENDBRANCH  26  27
ENDBRANCH   1  26
TORSDOF 17
ENDMDL
MODEL 2
REMARK VINA RESULT:     -11.8      6.468     11.851
REMARK SMILES CC1=C2C(CSc3c(Cl)cccc3Cl)=CC(=O)N=C2S[C@H]1C(=O)OCCOC(=O)c1ccc(-c2c3nc(c(-c4c(F)cc(S(=O)(=O)[O-])cc4F)c4ccc([nH]4)c(-c4c(F)cc(S(=O)(=O)[O-])cc4F)c4nc(c(-c5c(F)cc(S(=O)(=O)[O-])cc5F)c5ccc2[nH]5)C=C4)C=C3)cc1
REMARK SMILES IDX 25 1 24 2 22 3 23 4 21 5 1 6 2 7 3 8 4 9 19 10 20 11 15 12
REMARK SMILES IDX 18 13 16 14 17 15 5 16 6 17 7 18 8 19 13 20 9 21 10 22 12 23
REMARK SMILES IDX 14 24 11 25 26 26 27 27 28 28 29 29 30 30 31 31 95 32 32 33
REMARK SMILES IDX 94 34 33 35 34 36 35 37 88 38 36 39 93 40 87 41 89 42 37 43
REMARK SMILES IDX 92 44 86 45 85 46 38 48 72 49 51 50 71 51 52 52 55 53 70 54
REMARK SMILES IDX 90 55 53 56 54 57 69 59 91 60 56 61 39 62 40 63 49 64 41 65
REMARK SMILES IDX 42 66 48 67 50 68 43 69 44 70 45 71 46 72 47 73 73 74 74 75
REMARK SMILES IDX 83 76 75 77 76 78 82 79 84 80 77 81 78 82 79 83 80 84 81 85
REMARK SMILES IDX 57 86 58 87 67 88 59 89 60 90 66 91 68 92 61 93 62 94 63 95
REMARK SMILES IDX 64 96 65 97
REMARK H PARENT 89 47 55 58
REMARK Flexibility Score: inf
ROOT
ATOM      1  C   UNL A   1      33.328  31.152  27.371  1.00  0.00     0.274 C 
ENDROOT
BRANCH   1   2
ATOM      2  O   UNL A   1      33.656  30.174  26.364  1.00  0.00    -0.461 OA
BRANCH   2   3
ATOM      3  C   UNL A   1      33.133  28.917  26.490  1.00  0.00     0.323 C 
ATOM      4  O   UNL A   1      32.467  28.536  27.446  1.00  0.00    -0.251 OA
BRANCH   3   5
ATOM      5  C   UNL A   1      33.464  28.021  25.279  1.00  0.00     0.189 C 
ATOM      6  C   UNL A   1      33.444  25.588  26.094  1.00  0.00     0.042 C 
ATOM      7  C   UNL A   1      32.767  26.674  25.316  1.00  0.00    -0.039 C 
ATOM      8  C   UNL A   1      31.599  26.604  24.654  1.00  0.00     0.012 C 
ATOM      9  C   UNL A   1      30.580  25.592  24.473  1.00  0.00    -0.022 C 
ATOM     10  C   UNL A   1      31.365  27.862  23.895  1.00  0.00     0.109 C 
ATOM     11  S   UNL A   1      32.820  28.812  23.767  1.00  0.00    -0.086 SA
ATOM     12  C   UNL A   1      29.433  26.012  23.896  1.00  0.00     0.079 C 
ATOM     13  N   UNL A   1      30.268  28.244  23.350  1.00  0.00    -0.202 NA
ATOM     14  C   UNL A   1      29.177  27.433  23.523  1.00  0.00     0.271 C 
ATOM     15  O   UNL A   1      28.024  27.796  23.317  1.00  0.00    -0.267 OA
BRANCH   9  16
ATOM     16  C   UNL A   1      30.792  24.137  24.809  1.00  0.00     0.111 C 
BRANCH  16  17
ATOM     17  S   UNL A   1      31.293  23.128  23.370  1.00  0.00    -0.118 SA
BRANCH  17  18
ATOM     18  C   UNL A   1      33.038  22.849  23.735  1.00  0.00     0.045 A 
ATOM     19  C   UNL A   1      34.040  23.681  23.192  1.00  0.00     0.056 A 
ATOM     20  C   UNL A   1      33.452  21.729  24.483  1.00  0.00     0.056 A 
ATOM     21  Cl  UNL A   1      33.674  25.087  22.244  1.00  0.00    -0.083 Cl
ATOM     22  C   UNL A   1      35.398  23.400  23.389  1.00  0.00     0.022 A 
ATOM     23  C   UNL A   1      34.813  21.450  24.668  1.00  0.00     0.022 A 
ATOM     24  Cl  UNL A   1      32.336  20.626  25.218  1.00  0.00    -0.083 Cl
ATOM     25  C   UNL A   1      35.785  22.282  24.122  1.00  0.00     0.003 A 
ENDBRANCH  17  18
ENDBRANCH  16  17
ENDBRANCH   9  16
ENDBRANCH   3   5
ENDBRANCH   2   3
ENDBRANCH   1   2
BRANCH   1  26
ATOM     26  C   UNL A   1      34.573  31.631  28.122  1.00  0.00     0.275 C 
BRANCH  26  27
ATOM     27  O   UNL A   1      35.525  30.567  28.304  1.00  0.00    -0.458 OA
BRANCH  27  28
ATOM     28  C   UNL A   1      36.277  30.673  29.420  1.00  0.00     0.338 C 
ATOM     29  O   UNL A   1      35.912  31.064  30.515  1.00  0.00    -0.246 OA
BRANCH  28  30
ATOM     30  C   UNL A   1      37.626  30.148  29.183  1.00  0.00     0.060 A 
ATOM     31  C   UNL A   1      38.467  29.989  30.288  1.00  0.00     0.016 A 
ATOM     32  C   UNL A   1      38.087  29.895  27.891  1.00  0.00     0.016 A 
ATOM     33  C   UNL A   1      39.790  29.607  30.108  1.00  0.00     0.010 A 
ATOM     34  C   UNL A   1      39.410  29.492  27.711  1.00  0.00     0.010 A 
ATOM     35  C   UNL A   1      40.268  29.356  28.818  1.00  0.00    -0.014 A 
BRANCH  35  36
ATOM     36  C   UNL A   1      41.666  28.927  28.616  1.00  0.00     0.031 A 
ATOM     37  C   UNL A   1      42.773  29.935  28.659  1.00  0.00     0.074 A 
ATOM     38  C   UNL A   1      41.917  27.629  28.368  1.00  0.00     0.049 A 
ATOM     39  N   UNL A   1      44.036  29.785  28.362  1.00  0.00    -0.248 NA
ATOM     40  C   UNL A   1      42.408  31.294  29.091  1.00  0.00     0.031 C 
ATOM     41  C   UNL A   1      40.912  26.565  28.351  1.00  0.00     0.029 A 
ATOM     42  N   UNL A   1      43.089  26.990  28.061  1.00  0.00    -0.354 N 
ATOM     43  C   UNL A   1      44.620  31.031  28.554  1.00  0.00     0.074 A 
ATOM     44  C   UNL A   1      43.568  31.930  28.981  1.00  0.00     0.031 C 
ATOM     45  C   UNL A   1      41.508  25.405  28.032  1.00  0.00     0.029 A 
ATOM     46  C   UNL A   1      42.922  25.657  27.772  1.00  0.00     0.049 A 
ATOM     47  H   UNL A   1      43.964  27.440  28.047  1.00  0.00     0.167 HD
ATOM     48  C   UNL A   1      45.916  31.382  28.386  1.00  0.00     0.037 A 
ATOM     49  C   UNL A   1      43.804  24.752  27.311  1.00  0.00     0.037 A 
ATOM     50  C   UNL A   1      46.944  30.470  27.955  1.00  0.00     0.049 A 
ATOM     51  C   UNL A   1      45.221  25.183  27.062  1.00  0.00     0.074 A 
ATOM     52  C   UNL A   1      48.289  30.721  27.748  1.00  0.00     0.029 A 
ATOM     53  N   UNL A   1      46.737  29.128  27.661  1.00  0.00    -0.354 N 
ATOM     54  N   UNL A   1      45.762  26.367  27.233  1.00  0.00    -0.248 NA
ATOM     55  C   UNL A   1      46.148  24.163  26.556  1.00  0.00     0.031 C 
ATOM     56  C   UNL A   1      48.888  29.539  27.295  1.00  0.00     0.029 A 
ATOM     57  C   UNL A   1      47.926  28.542  27.260  1.00  0.00     0.049 A 
ATOM     58  H   UNL A   1      45.873  28.663  27.728  1.00  0.00     0.167 HD
ATOM     59  C   UNL A   1      47.099  26.228  26.881  1.00  0.00     0.074 A 
ATOM     60  C   UNL A   1      47.284  24.844  26.489  1.00  0.00     0.031 C 
ATOM     61  C   UNL A   1      48.084  27.158  26.885  1.00  0.00     0.037 A 
BRANCH  48  62
ATOM     62  C   UNL A   1      46.284  32.817  28.637  1.00  0.00     0.058 A 
ATOM     63  C   UNL A   1      46.226  33.782  27.620  1.00  0.00     0.135 A 
ATOM     64  C   UNL A   1      46.685  33.236  29.917  1.00  0.00     0.135 A 
ATOM     65  F   UNL A   1      45.869  33.432  26.375  1.00  0.00    -0.206 F 
ATOM     66  C   UNL A   1      46.578  35.109  27.855  1.00  0.00     0.059 A 
ATOM     67  C   UNL A   1      47.020  34.562  30.179  1.00  0.00     0.059 A 
ATOM     68  F   UNL A   1      46.762  32.352  30.924  1.00  0.00    -0.206 F 
ATOM     69  C   UNL A   1      46.979  35.487  29.138  1.00  0.00     0.060 A 
BRANCH  69  70
ATOM     70  S   UNL A   1      47.451  37.206  29.426  1.00  0.00     0.124 S 
ATOM     71  O   UNL A   1      46.224  37.750  30.000  1.00  0.00    -0.237 OA
ATOM     72  O   UNL A   1      48.577  37.072  30.345  1.00  0.00    -0.237 OA
ATOM     73  O   UNL A   1      47.789  37.692  28.091  1.00  0.00    -0.744 OA
ENDBRANCH  69  70
ENDBRANCH  48  62
BRANCH  49  74
ATOM     74  C   UNL A   1      43.360  23.361  27.042  1.00  0.00     0.058 A 
ATOM     75  C   UNL A   1      43.155  22.912  25.730  1.00  0.00     0.135 A 
ATOM     76  C   UNL A   1      43.168  22.444  28.088  1.00  0.00     0.135 A 
ATOM     77  F   UNL A   1      43.323  23.754  24.700  1.00  0.00    -0.206 F 
ATOM     78  C   UNL A   1      42.771  21.603  25.462  1.00  0.00     0.059 A 
ATOM     79  C   UNL A   1      42.806  21.124  27.844  1.00  0.00     0.059 A 
ATOM     80  F   UNL A   1      43.368  22.822  29.360  1.00  0.00    -0.206 F 
ATOM     81  C   UNL A   1      42.602  20.714  26.526  1.00  0.00     0.060 A 
BRANCH  81  82
ATOM     82  S   UNL A   1      42.161  19.002  26.163  1.00  0.00     0.124 S 
ATOM     83  O   UNL A   1      42.440  18.352  27.439  1.00  0.00    -0.237 OA
ATOM     84  O   UNL A   1      40.753  19.117  25.799  1.00  0.00    -0.237 OA
ATOM     85  O   UNL A   1      43.057  18.651  25.065  1.00  0.00    -0.744 OA
ENDBRANCH  81  82
ENDBRANCH  49  74
BRANCH  61  86
ATOM     86  C   UNL A   1      49.460  26.700  26.496  1.00  0.00     0.058 A 
ATOM     87  C   UNL A   1      50.336  26.124  27.428  1.00  0.00     0.135 A 
ATOM     88  C   UNL A   1      49.884  26.791  25.161  1.00  0.00     0.135 A 
ATOM     89  F   UNL A   1      49.979  26.024  28.719  1.00  0.00    -0.206 F 
ATOM     90  C   UNL A   1      51.594  25.665  27.052  1.00  0.00     0.059 A 
ATOM     91  C   UNL A   1      51.128  26.319  24.758  1.00  0.00     0.059 A 
ATOM     92  F   UNL A   1      49.078  27.328  24.231  1.00  0.00    -0.206 F 
ATOM     93  C   UNL A   1      51.980  25.766  25.714  1.00  0.00     0.060 A 
BRANCH  93  94
ATOM     94  S   UNL A   1      53.597  25.127  25.227  1.00  0.00     0.124 S 
ATOM     95  O   UNL A   1      53.744  25.691  23.889  1.00  0.00    -0.237 OA
ATOM     96  O   UNL A   1      54.476  25.685  26.250  1.00  0.00    -0.237 OA
ATOM     97  O   UNL A   1      53.420  23.680  25.283  1.00  0.00    -0.744 OA
ENDBRANCH  93  94
ENDBRANCH  61  86
ENDBRANCH  35  36
ENDBRANCH  28  30
ENDBRANCH  27  28
ENDBRANCH  26  27
ENDBRANCH   1  26
TORSDOF 17
ENDMDL
MODEL 3
REMARK VINA RESULT:     -11.7      5.219     10.589
REMARK SMILES CC1=C2C(CSc3c(Cl)cccc3Cl)=CC(=O)N=C2S[C@H]1C(=O)OCCOC(=O)c1ccc(-c2c3nc(c(-c4c(F)cc(S(=O)(=O)[O-])cc4F)c4ccc([nH]4)c(-c4c(F)cc(S(=O)(=O)[O-])cc4F)c4nc(c(-c5c(F)cc(S(=O)(=O)[O-])cc5F)c5ccc2[nH]5)C=C4)C=C3)cc1
REMARK SMILES IDX 25 1 24 2 22 3 23 4 21 5 1 6 2 7 3 8 4 9 19 10 20 11 15 12
REMARK SMILES IDX 18 13 16 14 17 15 5 16 6 17 7 18 8 19 13 20 9 21 10 22 12 23
REMARK SMILES IDX 14 24 11 25 26 26 27 27 28 28 29 29 30 30 31 31 95 32 32 33
REMARK SMILES IDX 94 34 33 35 34 36 35 37 88 38 36 39 93 40 87 41 89 42 37 43
REMARK SMILES IDX 92 44 86 45 85 46 38 48 72 49 51 50 71 51 52 52 55 53 70 54
REMARK SMILES IDX 90 55 53 56 54 57 69 59 91 60 56 61 39 62 40 63 49 64 41 65
REMARK SMILES IDX 42 66 48 67 50 68 43 69 44 70 45 71 46 72 47 73 73 74 74 75
REMARK SMILES IDX 83 76 75 77 76 78 82 79 84 80 77 81 78 82 79 83 80 84 81 85
REMARK SMILES IDX 57 86 58 87 67 88 59 89 60 90 66 91 68 92 61 93 62 94 63 95
REMARK SMILES IDX 64 96 65 97
REMARK H PARENT 89 47 55 58
REMARK Flexibility Score: inf
ROOT
ATOM      1  C   UNL A   1      32.257  29.861  26.455  1.00  0.00     0.274 C 
ENDROOT
BRANCH   1   2
ATOM      2  O   UNL A   1      31.404  28.929  25.760  1.00  0.00    -0.461 OA
BRANCH   2   3
ATOM      3  C   UNL A   1      31.329  27.647  26.231  1.00  0.00     0.323 C 
ATOM      4  O   UNL A   1      31.131  27.350  27.404  1.00  0.00    -0.251 OA
BRANCH   3   5
ATOM      5  C   UNL A   1      31.510  26.601  25.113  1.00  0.00     0.189 C 
ATOM      6  C   UNL A   1      33.924  26.791  24.263  1.00  0.00     0.042 C 
ATOM      7  C   UNL A   1      32.910  26.020  25.050  1.00  0.00    -0.039 C 
ATOM      8  C   UNL A   1      33.096  24.873  25.727  1.00  0.00     0.012 C 
ATOM      9  C   UNL A   1      34.228  24.016  26.007  1.00  0.00    -0.022 C 
ATOM     10  C   UNL A   1      31.794  24.368  26.244  1.00  0.00     0.109 C 
ATOM     11  S   UNL A   1      30.448  25.163  25.475  1.00  0.00    -0.086 SA
ATOM     12  C   UNL A   1      34.020  23.050  26.928  1.00  0.00     0.079 C 
ATOM     13  N   UNL A   1      31.615  23.446  27.119  1.00  0.00    -0.202 NA
ATOM     14  C   UNL A   1      32.740  22.896  27.676  1.00  0.00     0.271 C 
ATOM     15  O   UNL A   1      32.729  22.231  28.706  1.00  0.00    -0.267 OA
BRANCH   9  16
ATOM     16  C   UNL A   1      35.538  24.111  25.264  1.00  0.00     0.111 C 
BRANCH  16  17
ATOM     17  S   UNL A   1      35.480  23.365  23.597  1.00  0.00    -0.118 SA
BRANCH  17  18
ATOM     18  C   UNL A   1      34.456  21.912  23.905  1.00  0.00     0.045 A 
ATOM     19  C   UNL A   1      33.088  21.896  23.561  1.00  0.00     0.056 A 
ATOM     20  C   UNL A   1      34.970  20.796  24.596  1.00  0.00     0.056 A 
ATOM     21  Cl  UNL A   1      32.321  23.204  22.720  1.00  0.00    -0.083 Cl
ATOM     22  C   UNL A   1      32.271  20.808  23.897  1.00  0.00     0.022 A 
ATOM     23  C   UNL A   1      34.145  19.716  24.936  1.00  0.00     0.022 A 
ATOM     24  Cl  UNL A   1      36.632  20.672  25.073  1.00  0.00    -0.083 Cl
ATOM     25  C   UNL A   1      32.797  19.722  24.589  1.00  0.00     0.003 A 
ENDBRANCH  17  18
ENDBRANCH  16  17
ENDBRANCH   9  16
ENDBRANCH   3   5
ENDBRANCH   2   3
ENDBRANCH   1   2
BRANCH   1  26
ATOM     26  C   UNL A   1      33.733  29.469  26.342  1.00  0.00     0.275 C 
BRANCH  26  27
ATOM     27  O   UNL A   1      34.294  29.139  27.626  1.00  0.00    -0.458 OA
BRANCH  27  28
ATOM     28  C   UNL A   1      34.832  30.185  28.288  1.00  0.00     0.338 C 
ATOM     29  O   UNL A   1      34.246  31.170  28.702  1.00  0.00    -0.246 OA
BRANCH  28  30
ATOM     30  C   UNL A   1      36.256  29.948  28.552  1.00  0.00     0.060 A 
ATOM     31  C   UNL A   1      37.147  30.078  27.483  1.00  0.00     0.016 A 
ATOM     32  C   UNL A   1      36.699  29.526  29.805  1.00  0.00     0.016 A 
ATOM     33  C   UNL A   1      38.487  29.753  27.649  1.00  0.00     0.010 A 
ATOM     34  C   UNL A   1      38.048  29.219  29.978  1.00  0.00     0.010 A 
ATOM     35  C   UNL A   1      38.944  29.321  28.898  1.00  0.00    -0.014 A 
BRANCH  35  36
ATOM     36  C   UNL A   1      40.371  28.995  29.093  1.00  0.00     0.031 A 
ATOM     37  C   UNL A   1      41.323  30.051  29.563  1.00  0.00     0.074 A 
ATOM     38  C   UNL A   1      40.796  27.750  28.814  1.00  0.00     0.049 A 
ATOM     39  N   UNL A   1      42.625  30.006  29.651  1.00  0.00    -0.248 NA
ATOM     40  C   UNL A   1      40.730  31.330  29.987  1.00  0.00     0.031 C 
ATOM     41  C   UNL A   1      39.937  26.641  28.394  1.00  0.00     0.029 A 
ATOM     42  N   UNL A   1      42.057  27.215  28.820  1.00  0.00    -0.354 N 
ATOM     43  C   UNL A   1      43.015  31.252  30.126  1.00  0.00     0.074 A 
ATOM     44  C   UNL A   1      41.810  32.037  30.294  1.00  0.00     0.031 C 
ATOM     45  C   UNL A   1      40.700  25.560  28.166  1.00  0.00     0.029 A 
ATOM     46  C   UNL A   1      42.100  25.917  28.373  1.00  0.00     0.049 A 
ATOM     47  H   UNL A   1      42.854  27.712  29.115  1.00  0.00     0.167 HD
ATOM     48  C   UNL A   1      44.268  31.691  30.394  1.00  0.00     0.037 A 
ATOM     49  C   UNL A   1      43.154  25.120  28.121  1.00  0.00     0.037 A 
ATOM     50  C   UNL A   1      45.453  30.892  30.214  1.00  0.00     0.049 A 
ATOM     51  C   UNL A   1      44.538  25.655  28.356  1.00  0.00     0.074 A 
ATOM     52  C   UNL A   1      46.771  31.239  30.449  1.00  0.00     0.029 A 
ATOM     53  N   UNL A   1      45.459  29.583  29.748  1.00  0.00    -0.354 N 
ATOM     54  N   UNL A   1      44.899  26.839  28.791  1.00  0.00    -0.248 NA
ATOM     55  C   UNL A   1      45.658  24.752  28.063  1.00  0.00     0.031 C 
ATOM     56  C   UNL A   1      47.578  30.151  30.093  1.00  0.00     0.029 A 
ATOM     57  C   UNL A   1      46.760  29.113  29.676  1.00  0.00     0.049 A 
ATOM     58  H   UNL A   1      44.658  29.067  29.506  1.00  0.00     0.167 HD
ATOM     59  C   UNL A   1      46.287  26.815  28.851  1.00  0.00     0.074 A 
ATOM     60  C   UNL A   1      46.699  25.497  28.408  1.00  0.00     0.031 C 
ATOM     61  C   UNL A   1      47.142  27.792  29.240  1.00  0.00     0.037 A 
BRANCH  48  62
ATOM     62  C   UNL A   1      44.419  33.106  30.876  1.00  0.00     0.058 A 
ATOM     63  C   UNL A   1      44.476  33.417  32.243  1.00  0.00     0.135 A 
ATOM     64  C   UNL A   1      44.524  34.164  29.958  1.00  0.00     0.135 A 
ATOM     65  F   UNL A   1      44.360  32.447  33.164  1.00  0.00    -0.206 F 
ATOM     66  C   UNL A   1      44.605  34.731  32.685  1.00  0.00     0.059 A 
ATOM     67  C   UNL A   1      44.676  35.483  30.377  1.00  0.00     0.059 A 
ATOM     68  F   UNL A   1      44.471  33.921  28.639  1.00  0.00    -0.206 F 
ATOM     69  C   UNL A   1      44.699  35.757  31.744  1.00  0.00     0.060 A 
BRANCH  69  70
ATOM     70  S   UNL A   1      44.847  37.459  32.329  1.00  0.00     0.124 S 
ATOM     71  O   UNL A   1      43.534  37.673  32.929  1.00  0.00    -0.237 OA
ATOM     72  O   UNL A   1      45.965  37.373  33.264  1.00  0.00    -0.237 OA
ATOM     73  O   UNL A   1      45.111  38.216  31.109  1.00  0.00    -0.744 OA
ENDBRANCH  69  70
ENDBRANCH  48  62
BRANCH  49  74
ATOM     74  C   UNL A   1      42.932  23.748  27.602  1.00  0.00     0.058 A 
ATOM     75  C   UNL A   1      42.684  22.680  28.476  1.00  0.00     0.135 A 
ATOM     76  C   UNL A   1      42.925  23.483  26.223  1.00  0.00     0.135 A 
ATOM     77  F   UNL A   1      42.685  22.885  29.801  1.00  0.00    -0.206 F 
ATOM     78  C   UNL A   1      42.442  21.395  28.002  1.00  0.00     0.059 A 
ATOM     79  C   UNL A   1      42.663  22.211  25.725  1.00  0.00     0.059 A 
ATOM     80  F   UNL A   1      43.141  24.476  25.346  1.00  0.00    -0.206 F 
ATOM     81  C   UNL A   1      42.430  21.171  26.624  1.00  0.00     0.060 A 
BRANCH  81  82
ATOM     82  S   UNL A   1      42.055  19.512  26.018  1.00  0.00     0.124 S 
ATOM     83  O   UNL A   1      42.908  19.432  24.839  1.00  0.00    -0.237 OA
ATOM     84  O   UNL A   1      42.446  18.676  27.148  1.00  0.00    -0.237 OA
ATOM     85  O   UNL A   1      40.618  19.568  25.758  1.00  0.00    -0.744 OA
ENDBRANCH  81  82
ENDBRANCH  49  74
BRANCH  61  86
ATOM     86  C   UNL A   1      48.606  27.457  29.248  1.00  0.00     0.058 A 
ATOM     87  C   UNL A   1      49.415  27.665  28.121  1.00  0.00     0.135 A 
ATOM     88  C   UNL A   1      49.214  26.972  30.416  1.00  0.00     0.135 A 
ATOM     89  F   UNL A   1      48.877  28.119  26.977  1.00  0.00    -0.206 F 
ATOM     90  C   UNL A   1      50.778  27.390  28.148  1.00  0.00     0.059 A 
ATOM     91  C   UNL A   1      50.578  26.712  30.473  1.00  0.00     0.059 A 
ATOM     92  F   UNL A   1      48.481  26.765  31.523  1.00  0.00    -0.206 F 
ATOM     93  C   UNL A   1      51.350  26.915  29.330  1.00  0.00     0.060 A 
BRANCH  93  94
ATOM     94  S   UNL A   1      53.128  26.603  29.369  1.00  0.00     0.124 S 
ATOM     95  O   UNL A   1      53.662  27.959  29.421  1.00  0.00    -0.237 OA
ATOM     96  O   UNL A   1      53.282  25.814  30.588  1.00  0.00    -0.237 OA
ATOM     97  O   UNL A   1      53.372  25.877  28.126  1.00  0.00    -0.744 OA
ENDBRANCH  93  94
ENDBRANCH  61  86
ENDBRANCH  35  36
ENDBRANCH  28  30
ENDBRANCH  27  28
ENDBRANCH  26  27
ENDBRANCH   1  26
TORSDOF 17
ENDMDL
