MODEL 1
REMARK VINA RESULT:     -11.0      0.000      0.000
REMARK SMILES Cc1cc(F)cc(N[C@H](C(=O)OCCOC(=O)c2ccc(-c3c4nc(c(-c5c(F)cc(S(=O)(=O)[O-])cc5F)c5ccc([nH]5)c(-c5c(F)cc(S(=O)(=O)[O-])cc5F)c5nc(c(-c6c(F)cc(S(=O)(=O)[O-])cc6F)c6ccc3[nH]6)C=C5)C=C4)cc2)c2cc(Br)cs2)c1
REMARK SMILES IDX 14 1 13 2 12 3 10 4 11 5 9 6 8 7 7 9 1 10 2 11 3 12 90 13
REMARK SMILES IDX 4 14 5 15 6 16 84 17 85 18 89 19 86 20 88 21 87 22 15 23
REMARK SMILES IDX 16 24 17 25 18 26 19 27 83 28 20 29 82 30 21 31 22 32 23 33
REMARK SMILES IDX 76 34 24 35 81 36 75 37 77 38 25 39 80 40 74 41 73 42 26 44
REMARK SMILES IDX 60 45 39 46 59 47 40 48 43 49 58 50 78 51 41 52 42 53 57 55
REMARK SMILES IDX 79 56 44 57 27 58 28 59 37 60 29 61 30 62 36 63 38 64 31 65
REMARK SMILES IDX 32 66 33 67 34 68 35 69 61 70 62 71 71 72 63 73 64 74 70 75
REMARK SMILES IDX 72 76 65 77 66 78 67 79 68 80 69 81 45 82 46 83 55 84 47 85
REMARK SMILES IDX 48 86 54 87 56 88 49 89 50 90 51 91 52 92 53 93
REMARK H PARENT 8 8 77 43 43 54
REMARK Flexibility Score: inf
ROOT
ATOM      1  C   UNL A   1      32.646  28.689  27.245  1.00  0.00     0.275 C 
ENDROOT
BRANCH   1   2
ATOM      2  C   UNL A   1      31.800  29.036  26.015  1.00  0.00     0.274 C 
BRANCH   2   3
ATOM      3  O   UNL A   1      32.576  29.687  24.995  1.00  0.00    -0.460 OA
BRANCH   3   4
ATOM      4  C   UNL A   1      32.878  28.921  23.896  1.00  0.00     0.334 C 
ATOM      5  O   UNL A   1      33.838  29.157  23.170  1.00  0.00    -0.249 OA
BRANCH   4   6
ATOM      6  C   UNL A   1      31.900  27.710  23.761  1.00  0.00     0.231 C 
BRANCH   6   7
ATOM      7  N   UNL A   1      31.030  27.890  22.580  1.00  0.00    -0.368 N 
ATOM      8  H   UNL A   1      31.339  27.503  21.728  1.00  0.00     0.161 HD
BRANCH   7   9
ATOM      9  C   UNL A   1      29.820  28.556  22.577  1.00  0.00     0.038 A 
ATOM     10  C   UNL A   1      28.639  32.119  21.847  1.00  0.00     0.044 C 
ATOM     11  C   UNL A   1      28.635  30.682  22.267  1.00  0.00    -0.046 A 
ATOM     12  C   UNL A   1      27.486  30.123  22.828  1.00  0.00     0.042 A 
ATOM     13  C   UNL A   1      29.794  29.895  22.158  1.00  0.00     0.029 A 
ATOM     14  C   UNL A   1      27.497  28.797  23.229  1.00  0.00     0.125 A 
ATOM     15  F   UNL A   1      26.396  28.263  23.776  1.00  0.00    -0.207 F 
ATOM     16  C   UNL A   1      28.638  28.016  23.097  1.00  0.00     0.065 A 
ENDBRANCH   7   9
ENDBRANCH   6   7
BRANCH   6  17
ATOM     17  C   UNL A   1      32.646  26.370  23.862  1.00  0.00     0.039 A 
ATOM     18  C   UNL A   1      32.970  25.615  24.983  1.00  0.00     0.033 A 
ATOM     19  S   UNL A   1      33.195  25.544  22.438  1.00  0.00    -0.145 S 
ATOM     20  C   UNL A   1      33.899  24.589  24.684  1.00  0.00     0.029 A 
ATOM     21  C   UNL A   1      34.171  24.477  23.347  1.00  0.00     0.080 A 
ATOM     22  Br  UNL A   1      34.698  23.551  26.039  1.00  0.00    -0.050 Br
ENDBRANCH   6  17
ENDBRANCH   4   6
ENDBRANCH   3   4
ENDBRANCH   2   3
ENDBRANCH   1   2
BRANCH   1  23
ATOM     23  O   UNL A   1      34.044  28.970  27.049  1.00  0.00    -0.458 OA
BRANCH  23  24
ATOM     24  C   UNL A   1      34.517  30.039  27.739  1.00  0.00     0.338 C 
ATOM     25  O   UNL A   1      33.872  30.997  28.128  1.00  0.00    -0.246 OA
BRANCH  24  26
ATOM     26  C   UNL A   1      35.920  29.807  28.138  1.00  0.00     0.060 A 
ATOM     27  C   UNL A   1      36.902  29.951  27.150  1.00  0.00     0.016 A 
ATOM     28  C   UNL A   1      36.277  29.431  29.435  1.00  0.00     0.016 A 
ATOM     29  C   UNL A   1      38.242  29.736  27.453  1.00  0.00     0.010 A 
ATOM     30  C   UNL A   1      37.623  29.195  29.734  1.00  0.00     0.010 A 
ATOM     31  C   UNL A   1      38.609  29.340  28.743  1.00  0.00    -0.014 A 
BRANCH  31  32
ATOM     32  C   UNL A   1      40.023  28.990  29.013  1.00  0.00     0.031 A 
ATOM     33  C   UNL A   1      40.924  30.011  29.646  1.00  0.00     0.074 A 
ATOM     34  C   UNL A   1      40.476  27.754  28.737  1.00  0.00     0.049 A 
ATOM     35  N   UNL A   1      42.187  29.916  29.963  1.00  0.00    -0.248 NA
ATOM     36  C   UNL A   1      40.315  31.312  29.971  1.00  0.00     0.031 C 
ATOM     37  C   UNL A   1      39.677  26.669  28.168  1.00  0.00     0.029 A 
ATOM     38  N   UNL A   1      41.723  27.204  28.899  1.00  0.00    -0.354 N 
ATOM     39  C   UNL A   1      42.531  31.141  30.521  1.00  0.00     0.074 A 
ATOM     40  C   UNL A   1      41.348  31.974  30.473  1.00  0.00     0.031 C 
ATOM     41  C   UNL A   1      40.457  25.585  28.020  1.00  0.00     0.029 A 
ATOM     42  C   UNL A   1      41.815  25.908  28.450  1.00  0.00     0.049 A 
ATOM     43  H   UNL A   1      42.479  27.692  29.300  1.00  0.00     0.167 HD
ATOM     44  C   UNL A   1      43.722  31.530  31.035  1.00  0.00     0.037 A 
ATOM     45  C   UNL A   1      42.882  25.087  28.377  1.00  0.00     0.037 A 
ATOM     46  C   UNL A   1      44.895  30.694  31.069  1.00  0.00     0.049 A 
ATOM     47  C   UNL A   1      44.217  25.571  28.882  1.00  0.00     0.074 A 
ATOM     48  C   UNL A   1      46.150  30.992  31.571  1.00  0.00     0.029 A 
ATOM     49  N   UNL A   1      44.962  29.399  30.571  1.00  0.00    -0.354 N 
ATOM     50  N   UNL A   1      44.526  26.727  29.424  1.00  0.00    -0.248 NA
ATOM     51  C   UNL A   1      45.347  24.639  28.773  1.00  0.00     0.031 C 
ATOM     52  C   UNL A   1      46.990  29.902  31.325  1.00  0.00     0.029 A 
ATOM     53  C   UNL A   1      46.243  28.897  30.732  1.00  0.00     0.049 A 
ATOM     54  H   UNL A   1      44.210  28.911  30.165  1.00  0.00     0.167 HD
ATOM     55  C   UNL A   1      45.876  26.645  29.755  1.00  0.00     0.074 A 
ATOM     56  C   UNL A   1      46.321  25.325  29.357  1.00  0.00     0.031 C 
ATOM     57  C   UNL A   1      46.671  27.574  30.341  1.00  0.00     0.037 A 
BRANCH  44  58
ATOM     58  C   UNL A   1      43.826  32.932  31.570  1.00  0.00     0.058 A 
ATOM     59  C   UNL A   1      44.206  34.011  30.755  1.00  0.00     0.135 A 
ATOM     60  C   UNL A   1      43.511  33.206  32.911  1.00  0.00     0.135 A 
ATOM     61  F   UNL A   1      44.537  33.805  29.471  1.00  0.00    -0.206 F 
ATOM     62  C   UNL A   1      44.296  35.305  31.258  1.00  0.00     0.059 A 
ATOM     63  C   UNL A   1      43.566  34.496  33.427  1.00  0.00     0.059 A 
ATOM     64  F   UNL A   1      43.146  32.212  33.736  1.00  0.00    -0.206 F 
ATOM     65  C   UNL A   1      43.973  35.538  32.595  1.00  0.00     0.060 A 
BRANCH  65  66
ATOM     66  S   UNL A   1      44.094  37.223  33.231  1.00  0.00     0.124 S 
ATOM     67  O   UNL A   1      44.069  38.003  31.996  1.00  0.00    -0.237 OA
ATOM     68  O   UNL A   1      42.902  37.325  34.068  1.00  0.00    -0.237 OA
ATOM     69  O   UNL A   1      45.363  37.228  33.949  1.00  0.00    -0.744 OA
ENDBRANCH  65  66
ENDBRANCH  44  58
BRANCH  45  70
ATOM     70  C   UNL A   1      42.735  23.728  27.790  1.00  0.00     0.058 A 
ATOM     71  C   UNL A   1      42.795  23.521  26.404  1.00  0.00     0.135 A 
ATOM     72  C   UNL A   1      42.524  22.605  28.607  1.00  0.00     0.135 A 
ATOM     73  F   UNL A   1      42.983  24.563  25.579  1.00  0.00    -0.206 F 
ATOM     74  C   UNL A   1      42.631  22.257  25.846  1.00  0.00     0.059 A 
ATOM     75  C   UNL A   1      42.387  21.326  28.076  1.00  0.00     0.059 A 
ATOM     76  F   UNL A   1      42.466  22.745  29.940  1.00  0.00    -0.206 F 
ATOM     77  C   UNL A   1      42.429  21.164  26.692  1.00  0.00     0.060 A 
BRANCH  77  78
ATOM     78  S   UNL A   1      42.252  19.523  25.959  1.00  0.00     0.124 S 
ATOM     79  O   UNL A   1      40.825  19.489  25.656  1.00  0.00    -0.237 OA
ATOM     80  O   UNL A   1      43.148  19.603  24.810  1.00  0.00    -0.237 OA
ATOM     81  O   UNL A   1      42.690  18.629  27.027  1.00  0.00    -0.744 OA
ENDBRANCH  77  78
ENDBRANCH  45  70
BRANCH  57  82
ATOM     82  C   UNL A   1      48.094  27.185  30.644  1.00  0.00     0.058 A 
ATOM     83  C   UNL A   1      49.130  27.362  29.713  1.00  0.00     0.135 A 
ATOM     84  C   UNL A   1      48.433  26.677  31.910  1.00  0.00     0.135 A 
ATOM     85  F   UNL A   1      48.863  27.839  28.487  1.00  0.00    -0.206 F 
ATOM     86  C   UNL A   1      50.446  27.024  30.017  1.00  0.00     0.059 A 
ATOM     87  C   UNL A   1      49.746  26.364  32.246  1.00  0.00     0.059 A 
ATOM     88  F   UNL A   1      47.484  26.498  32.843  1.00  0.00    -0.206 F 
ATOM     89  C   UNL A   1      50.745  26.528  31.288  1.00  0.00     0.060 A 
BRANCH  89  90
ATOM     90  S   UNL A   1      52.460  26.126  31.680  1.00  0.00     0.124 S 
ATOM     91  O   UNL A   1      53.115  26.347  30.395  1.00  0.00    -0.237 OA
ATOM     92  O   UNL A   1      52.775  27.092  32.727  1.00  0.00    -0.237 OA
ATOM     93  O   UNL A   1      52.393  24.735  32.119  1.00  0.00    -0.744 OA
ENDBRANCH  89  90
ENDBRANCH  57  82
ENDBRANCH  31  32
ENDBRANCH  24  26
ENDBRANCH  23  24
ENDBRANCH   1  23
TORSDOF 17
ENDMDL
MODEL 2
REMARK VINA RESULT:     -10.7      2.038      2.676
REMARK SMILES Cc1cc(F)cc(N[C@H](C(=O)OCCOC(=O)c2ccc(-c3c4nc(c(-c5c(F)cc(S(=O)(=O)[O-])cc5F)c5ccc([nH]5)c(-c5c(F)cc(S(=O)(=O)[O-])cc5F)c5nc(c(-c6c(F)cc(S(=O)(=O)[O-])cc6F)c6ccc3[nH]6)C=C5)C=C4)cc2)c2cc(Br)cs2)c1
REMARK SMILES IDX 14 1 13 2 12 3 10 4 11 5 9 6 8 7 7 9 1 10 2 11 3 12 90 13
REMARK SMILES IDX 4 14 5 15 6 16 84 17 85 18 89 19 86 20 88 21 87 22 15 23
REMARK SMILES IDX 16 24 17 25 18 26 19 27 83 28 20 29 82 30 21 31 22 32 23 33
REMARK SMILES IDX 76 34 24 35 81 36 75 37 77 38 25 39 80 40 74 41 73 42 26 44
REMARK SMILES IDX 60 45 39 46 59 47 40 48 43 49 58 50 78 51 41 52 42 53 57 55
REMARK SMILES IDX 79 56 44 57 27 58 28 59 37 60 29 61 30 62 36 63 38 64 31 65
REMARK SMILES IDX 32 66 33 67 34 68 35 69 61 70 62 71 71 72 63 73 64 74 70 75
REMARK SMILES IDX 72 76 65 77 66 78 67 79 68 80 69 81 45 82 46 83 55 84 47 85
REMARK SMILES IDX 48 86 54 87 56 88 49 89 50 90 51 91 52 92 53 93
REMARK H PARENT 8 8 77 43 43 54
REMARK Flexibility Score: inf
ROOT
ATOM      1  C   UNL A   1      32.370  29.291  27.019  1.00  0.00     0.275 C 
ENDROOT
BRANCH   1   2
ATOM      2  C   UNL A   1      31.892  29.410  25.568  1.00  0.00     0.274 C 
BRANCH   2   3
ATOM      3  O   UNL A   1      32.964  29.760  24.675  1.00  0.00    -0.460 OA
BRANCH   3   4
ATOM      4  C   UNL A   1      33.127  28.934  23.590  1.00  0.00     0.334 C 
ATOM      5  O   UNL A   1      34.056  29.060  22.800  1.00  0.00    -0.249 OA
BRANCH   4   6
ATOM      6  C   UNL A   1      32.042  27.811  23.561  1.00  0.00     0.231 C 
BRANCH   6   7
ATOM      7  N   UNL A   1      31.143  28.005  22.405  1.00  0.00    -0.368 N 
ATOM      8  H   UNL A   1      31.442  27.655  21.534  1.00  0.00     0.161 HD
BRANCH   7   9
ATOM      9  C   UNL A   1      29.915  28.639  22.448  1.00  0.00     0.038 A 
ATOM     10  C   UNL A   1      28.620  32.181  21.815  1.00  0.00     0.044 C 
ATOM     11  C   UNL A   1      28.667  30.737  22.210  1.00  0.00    -0.046 A 
ATOM     12  C   UNL A   1      27.550  30.139  22.794  1.00  0.00     0.042 A 
ATOM     13  C   UNL A   1      29.841  29.984  22.053  1.00  0.00     0.029 A 
ATOM     14  C   UNL A   1      27.607  28.807  23.171  1.00  0.00     0.125 A 
ATOM     15  F   UNL A   1      26.537  28.235  23.740  1.00  0.00    -0.207 F 
ATOM     16  C   UNL A   1      28.763  28.060  22.993  1.00  0.00     0.065 A 
ENDBRANCH   7   9
ENDBRANCH   6   7
BRANCH   6  17
ATOM     17  C   UNL A   1      32.670  26.416  23.711  1.00  0.00     0.039 A 
ATOM     18  C   UNL A   1      33.601  25.955  24.632  1.00  0.00     0.033 A 
ATOM     19  S   UNL A   1      32.213  25.115  22.658  1.00  0.00    -0.145 S 
ATOM     20  C   UNL A   1      34.133  24.695  24.267  1.00  0.00     0.029 A 
ATOM     21  C   UNL A   1      33.525  24.147  23.170  1.00  0.00     0.080 A 
ATOM     22  Br  UNL A   1      35.579  23.922  25.198  1.00  0.00    -0.050 Br
ENDBRANCH   6  17
ENDBRANCH   4   6
ENDBRANCH   3   4
ENDBRANCH   2   3
ENDBRANCH   1   2
BRANCH   1  23
ATOM     23  O   UNL A   1      33.804  29.200  27.121  1.00  0.00    -0.458 OA
BRANCH  23  24
ATOM     24  C   UNL A   1      34.413  30.297  27.638  1.00  0.00     0.338 C 
ATOM     25  O   UNL A   1      33.897  31.377  27.868  1.00  0.00    -0.246 OA
BRANCH  24  26
ATOM     26  C   UNL A   1      35.783  29.959  28.077  1.00  0.00     0.060 A 
ATOM     27  C   UNL A   1      35.934  29.436  29.367  1.00  0.00     0.016 A 
ATOM     28  C   UNL A   1      36.901  30.167  27.267  1.00  0.00     0.016 A 
ATOM     29  C   UNL A   1      37.195  29.106  29.848  1.00  0.00     0.010 A 
ATOM     30  C   UNL A   1      38.173  29.854  27.759  1.00  0.00     0.010 A 
ATOM     31  C   UNL A   1      38.325  29.329  29.054  1.00  0.00    -0.014 A 
BRANCH  31  32
ATOM     32  C   UNL A   1      39.668  29.094  29.631  1.00  0.00     0.031 A 
ATOM     33  C   UNL A   1      40.150  29.969  30.752  1.00  0.00     0.074 A 
ATOM     34  C   UNL A   1      40.425  28.075  29.185  1.00  0.00     0.049 A 
ATOM     35  N   UNL A   1      41.287  29.940  31.394  1.00  0.00    -0.248 NA
ATOM     36  C   UNL A   1      39.221  31.013  31.214  1.00  0.00     0.031 C 
ATOM     37  C   UNL A   1      40.037  27.132  28.135  1.00  0.00     0.029 A 
ATOM     38  N   UNL A   1      41.680  27.664  29.559  1.00  0.00    -0.354 N 
ATOM     39  C   UNL A   1      41.217  30.960  32.335  1.00  0.00     0.074 A 
ATOM     40  C   UNL A   1      39.935  31.610  32.158  1.00  0.00     0.031 C 
ATOM     41  C   UNL A   1      41.039  26.257  27.944  1.00  0.00     0.029 A 
ATOM     42  C   UNL A   1      42.150  26.598  28.830  1.00  0.00     0.049 A 
ATOM     43  H   UNL A   1      42.194  28.093  30.282  1.00  0.00     0.167 HD
ATOM     44  C   UNL A   1      42.135  31.315  33.265  1.00  0.00     0.037 A 
ATOM     45  C   UNL A   1      43.349  25.983  28.862  1.00  0.00     0.037 A 
ATOM     46  C   UNL A   1      43.411  30.667  33.423  1.00  0.00     0.049 A 
ATOM     47  C   UNL A   1      44.386  26.449  29.854  1.00  0.00     0.074 A 
ATOM     48  C   UNL A   1      44.412  30.949  34.338  1.00  0.00     0.029 A 
ATOM     49  N   UNL A   1      43.870  29.614  32.643  1.00  0.00    -0.354 N 
ATOM     50  N   UNL A   1      44.301  27.405  30.749  1.00  0.00    -0.248 NA
ATOM     51  C   UNL A   1      45.678  25.749  29.843  1.00  0.00     0.031 C 
ATOM     52  C   UNL A   1      45.497  30.107  34.073  1.00  0.00     0.029 A 
ATOM     53  C   UNL A   1      45.147  29.252  33.038  1.00  0.00     0.049 A 
ATOM     54  H   UNL A   1      43.361  29.187  31.916  1.00  0.00     0.167 HD
ATOM     55  C   UNL A   1      45.514  27.394  31.435  1.00  0.00     0.074 A 
ATOM     56  C   UNL A   1      46.311  26.334  30.851  1.00  0.00     0.031 C 
ATOM     57  C   UNL A   1      45.926  28.185  32.457  1.00  0.00     0.037 A 
BRANCH  44  58
ATOM     58  C   UNL A   1      41.807  32.479  34.159  1.00  0.00     0.058 A 
ATOM     59  C   UNL A   1      42.196  33.791  33.843  1.00  0.00     0.135 A 
ATOM     60  C   UNL A   1      41.066  32.285  35.335  1.00  0.00     0.135 A 
ATOM     61  F   UNL A   1      42.923  34.034  32.740  1.00  0.00    -0.206 F 
ATOM     62  C   UNL A   1      41.884  34.863  34.674  1.00  0.00     0.059 A 
ATOM     63  C   UNL A   1      40.718  33.344  36.166  1.00  0.00     0.059 A 
ATOM     64  F   UNL A   1      40.671  31.051  35.690  1.00  0.00    -0.206 F 
ATOM     65  C   UNL A   1      41.144  34.629  35.834  1.00  0.00     0.060 A 
BRANCH  65  66
ATOM     66  S   UNL A   1      40.748  36.030  36.901  1.00  0.00     0.124 S 
ATOM     67  O   UNL A   1      39.748  36.733  36.101  1.00  0.00    -0.237 OA
ATOM     68  O   UNL A   1      40.248  35.372  38.104  1.00  0.00    -0.237 OA
ATOM     69  O   UNL A   1      42.026  36.718  37.051  1.00  0.00    -0.744 OA
ENDBRANCH  65  66
ENDBRANCH  44  58
BRANCH  45  70
ATOM     70  C   UNL A   1      43.640  24.870  27.919  1.00  0.00     0.058 A 
ATOM     71  C   UNL A   1      43.293  23.546  28.225  1.00  0.00     0.135 A 
ATOM     72  C   UNL A   1      44.280  25.108  26.693  1.00  0.00     0.135 A 
ATOM     73  F   UNL A   1      42.689  23.264  29.390  1.00  0.00    -0.206 F 
ATOM     74  C   UNL A   1      43.586  22.496  27.361  1.00  0.00     0.059 A 
ATOM     75  C   UNL A   1      44.558  24.080  25.798  1.00  0.00     0.059 A 
ATOM     76  F   UNL A   1      44.627  26.358  26.346  1.00  0.00    -0.206 F 
ATOM     77  C   UNL A   1      44.218  22.774  26.147  1.00  0.00     0.060 A 
BRANCH  77  78
ATOM     78  S   UNL A   1      44.563  21.407  25.017  1.00  0.00     0.124 S 
ATOM     79  O   UNL A   1      45.894  20.996  25.452  1.00  0.00    -0.237 OA
ATOM     80  O   UNL A   1      43.477  20.480  25.319  1.00  0.00    -0.237 OA
ATOM     81  O   UNL A   1      44.496  22.034  23.700  1.00  0.00    -0.744 OA
ENDBRANCH  77  78
ENDBRANCH  45  70
BRANCH  57  82
ATOM     82  C   UNL A   1      47.279  27.904  33.055  1.00  0.00     0.058 A 
ATOM     83  C   UNL A   1      48.443  28.545  32.603  1.00  0.00     0.135 A 
ATOM     84  C   UNL A   1      47.402  27.017  34.138  1.00  0.00     0.135 A 
ATOM     85  F   UNL A   1      48.386  29.399  31.569  1.00  0.00    -0.206 F 
ATOM     86  C   UNL A   1      49.683  28.296  33.185  1.00  0.00     0.059 A 
ATOM     87  C   UNL A   1      48.625  26.778  34.756  1.00  0.00     0.059 A 
ATOM     88  F   UNL A   1      46.319  26.384  34.619  1.00  0.00    -0.206 F 
ATOM     89  C   UNL A   1      49.763  27.414  34.263  1.00  0.00     0.060 A 
BRANCH  89  90
ATOM     90  S   UNL A   1      51.372  27.126  35.031  1.00  0.00     0.124 S 
ATOM     91  O   UNL A   1      51.374  25.674  35.174  1.00  0.00    -0.237 OA
ATOM     92  O   UNL A   1      52.293  27.666  34.036  1.00  0.00    -0.237 OA
ATOM     93  O   UNL A   1      51.294  27.879  36.279  1.00  0.00    -0.744 OA
ENDBRANCH  89  90
ENDBRANCH  57  82
ENDBRANCH  31  32
ENDBRANCH  24  26
ENDBRANCH  23  24
ENDBRANCH   1  23
TORSDOF 17
ENDMDL
MODEL 3
REMARK VINA RESULT:     -10.7      5.160     10.593
REMARK SMILES Cc1cc(F)cc(N[C@H](C(=O)OCCOC(=O)c2ccc(-c3c4nc(c(-c5c(F)cc(S(=O)(=O)[O-])cc5F)c5ccc([nH]5)c(-c5c(F)cc(S(=O)(=O)[O-])cc5F)c5nc(c(-c6c(F)cc(S(=O)(=O)[O-])cc6F)c6ccc3[nH]6)C=C5)C=C4)cc2)c2cc(Br)cs2)c1
REMARK SMILES IDX 14 1 13 2 12 3 10 4 11 5 9 6 8 7 7 9 1 10 2 11 3 12 90 13
REMARK SMILES IDX 4 14 5 15 6 16 84 17 85 18 89 19 86 20 88 21 87 22 15 23
REMARK SMILES IDX 16 24 17 25 18 26 19 27 83 28 20 29 82 30 21 31 22 32 23 33
REMARK SMILES IDX 76 34 24 35 81 36 75 37 77 38 25 39 80 40 74 41 73 42 26 44
REMARK SMILES IDX 60 45 39 46 59 47 40 48 43 49 58 50 78 51 41 52 42 53 57 55
REMARK SMILES IDX 79 56 44 57 27 58 28 59 37 60 29 61 30 62 36 63 38 64 31 65
REMARK SMILES IDX 32 66 33 67 34 68 35 69 61 70 62 71 71 72 63 73 64 74 70 75
REMARK SMILES IDX 72 76 65 77 66 78 67 79 68 80 69 81 45 82 46 83 55 84 47 85
REMARK SMILES IDX 48 86 54 87 56 88 49 89 50 90 51 91 52 92 53 93
REMARK H PARENT 8 8 77 43 43 54
REMARK Flexibility Score: inf
ROOT
ATOM      1  C   UNL A   1      39.385  22.682  26.156  1.00  0.00     0.275 C 
ENDROOT
BRANCH   1   2
ATOM      2  C   UNL A   1      37.992  22.180  25.762  1.00  0.00     0.274 C 
BRANCH   2   3
ATOM      3  O   UNL A   1      37.077  23.263  25.527  1.00  0.00    -0.460 OA
BRANCH   3   4
ATOM      4  C   UNL A   1      36.196  23.082  24.488  1.00  0.00     0.334 C 
ATOM      5  O   UNL A   1      36.566  22.904  23.333  1.00  0.00    -0.249 OA
BRANCH   4   6
ATOM      6  C   UNL A   1      34.718  23.062  24.993  1.00  0.00     0.231 C 
BRANCH   6   7
ATOM      7  N   UNL A   1      33.931  24.103  24.300  1.00  0.00    -0.368 N 
ATOM      8  H   UNL A   1      33.895  24.064  23.316  1.00  0.00     0.161 HD
BRANCH   7   9
ATOM      9  C   UNL A   1      33.242  25.128  24.922  1.00  0.00     0.038 A 
ATOM     10  C   UNL A   1      34.166  28.368  26.730  1.00  0.00     0.044 C 
ATOM     11  C   UNL A   1      33.364  27.226  26.186  1.00  0.00    -0.046 A 
ATOM     12  C   UNL A   1      32.007  27.120  26.492  1.00  0.00     0.042 A 
ATOM     13  C   UNL A   1      33.970  26.222  25.413  1.00  0.00     0.029 A 
ATOM     14  C   UNL A   1      31.276  26.051  25.998  1.00  0.00     0.125 A 
ATOM     15  F   UNL A   1      29.974  25.945  26.300  1.00  0.00    -0.207 F 
ATOM     16  C   UNL A   1      31.874  25.074  25.215  1.00  0.00     0.065 A 
ENDBRANCH   7   9
ENDBRANCH   6   7
BRANCH   6  17
ATOM     17  C   UNL A   1      34.135  21.640  24.974  1.00  0.00     0.039 A 
ATOM     18  C   UNL A   1      34.785  20.413  24.922  1.00  0.00     0.033 A 
ATOM     19  S   UNL A   1      32.421  21.377  25.056  1.00  0.00    -0.145 S 
ATOM     20  C   UNL A   1      33.895  19.350  24.639  1.00  0.00     0.029 A 
ATOM     21  C   UNL A   1      32.581  19.735  24.611  1.00  0.00     0.080 A 
ATOM     22  Br  UNL A   1      34.515  17.606  24.282  1.00  0.00    -0.050 Br
ENDBRANCH   6  17
ENDBRANCH   4   6
ENDBRANCH   3   4
ENDBRANCH   2   3
ENDBRANCH   1   2
BRANCH   1  23
ATOM     23  O   UNL A   1      39.332  23.841  27.009  1.00  0.00    -0.458 OA
BRANCH  23  24
ATOM     24  C   UNL A   1      40.220  24.821  26.701  1.00  0.00     0.338 C 
ATOM     25  O   UNL A   1      40.778  24.988  25.631  1.00  0.00    -0.246 OA
BRANCH  24  26
ATOM     26  C   UNL A   1      40.290  25.806  27.800  1.00  0.00     0.060 A 
ATOM     27  C   UNL A   1      39.285  25.756  28.773  1.00  0.00     0.016 A 
ATOM     28  C   UNL A   1      41.293  26.775  27.873  1.00  0.00     0.016 A 
ATOM     29  C   UNL A   1      39.284  26.661  29.829  1.00  0.00     0.010 A 
ATOM     30  C   UNL A   1      41.280  27.698  28.924  1.00  0.00     0.010 A 
ATOM     31  C   UNL A   1      40.271  27.649  29.902  1.00  0.00    -0.014 A 
BRANCH  31  32
ATOM     32  C   UNL A   1      40.180  28.682  30.958  1.00  0.00     0.031 A 
ATOM     33  C   UNL A   1      41.081  28.590  32.156  1.00  0.00     0.074 A 
ATOM     34  C   UNL A   1      39.331  29.717  30.818  1.00  0.00     0.049 A 
ATOM     35  N   UNL A   1      41.162  29.380  33.193  1.00  0.00    -0.248 NA
ATOM     36  C   UNL A   1      42.020  27.457  32.184  1.00  0.00     0.031 C 
ATOM     37  C   UNL A   1      38.446  29.933  29.674  1.00  0.00     0.029 A 
ATOM     38  N   UNL A   1      39.075  30.780  31.647  1.00  0.00    -0.354 N 
ATOM     39  C   UNL A   1      42.156  28.843  34.001  1.00  0.00     0.074 A 
ATOM     40  C   UNL A   1      42.629  27.641  33.347  1.00  0.00     0.031 C 
ATOM     41  C   UNL A   1      37.737  31.056  29.878  1.00  0.00     0.029 A 
ATOM     42  C   UNL A   1      38.092  31.619  31.179  1.00  0.00     0.049 A 
ATOM     43  H   UNL A   1      39.552  30.928  32.496  1.00  0.00     0.167 HD
ATOM     44  C   UNL A   1      42.635  29.316  35.176  1.00  0.00     0.037 A 
ATOM     45  C   UNL A   1      37.530  32.703  31.749  1.00  0.00     0.037 A 
ATOM     46  C   UNL A   1      42.149  30.508  35.822  1.00  0.00     0.049 A 
ATOM     47  C   UNL A   1      38.026  33.164  33.097  1.00  0.00     0.074 A 
ATOM     48  C   UNL A   1      42.569  31.074  37.013  1.00  0.00     0.029 A 
ATOM     49  N   UNL A   1      41.126  31.312  35.338  1.00  0.00    -0.354 N 
ATOM     50  N   UNL A   1      38.979  32.657  33.844  1.00  0.00    -0.248 NA
ATOM     51  C   UNL A   1      37.375  34.348  33.675  1.00  0.00     0.031 C 
ATOM     52  C   UNL A   1      41.763  32.185  37.278  1.00  0.00     0.029 A 
ATOM     53  C   UNL A   1      40.886  32.354  36.219  1.00  0.00     0.049 A 
ATOM     54  H   UNL A   1      40.643  31.164  34.493  1.00  0.00     0.167 HD
ATOM     55  C   UNL A   1      39.068  33.483  34.961  1.00  0.00     0.074 A 
ATOM     56  C   UNL A   1      38.075  34.524  34.789  1.00  0.00     0.031 C 
ATOM     57  C   UNL A   1      39.900  33.392  36.028  1.00  0.00     0.037 A 
BRANCH  44  58
ATOM     58  C   UNL A   1      43.717  28.523  35.857  1.00  0.00     0.058 A 
ATOM     59  C   UNL A   1      43.424  27.460  36.727  1.00  0.00     0.135 A 
ATOM     60  C   UNL A   1      45.070  28.811  35.613  1.00  0.00     0.135 A 
ATOM     61  F   UNL A   1      42.148  27.152  37.012  1.00  0.00    -0.206 F 
ATOM     62  C   UNL A   1      44.431  26.729  37.349  1.00  0.00     0.059 A 
ATOM     63  C   UNL A   1      46.093  28.076  36.201  1.00  0.00     0.059 A 
ATOM     64  F   UNL A   1      45.409  29.820  34.794  1.00  0.00    -0.206 F 
ATOM     65  C   UNL A   1      45.763  27.045  37.079  1.00  0.00     0.060 A 
BRANCH  65  66
ATOM     66  S   UNL A   1      47.058  26.087  37.894  1.00  0.00     0.124 S 
ATOM     67  O   UNL A   1      48.243  26.888  37.599  1.00  0.00    -0.237 OA
ATOM     68  O   UNL A   1      46.621  26.094  39.286  1.00  0.00    -0.237 OA
ATOM     69  O   UNL A   1      46.997  24.791  37.227  1.00  0.00    -0.744 OA
ENDBRANCH  65  66
ENDBRANCH  44  58
BRANCH  45  70
ATOM     70  C   UNL A   1      36.426  33.420  31.056  1.00  0.00     0.058 A 
ATOM     71  C   UNL A   1      35.108  33.366  31.533  1.00  0.00     0.135 A 
ATOM     72  C   UNL A   1      36.667  34.171  29.894  1.00  0.00     0.135 A 
ATOM     73  F   UNL A   1      34.823  32.653  32.634  1.00  0.00    -0.206 F 
ATOM     74  C   UNL A   1      34.067  34.012  30.875  1.00  0.00     0.059 A 
ATOM     75  C   UNL A   1      35.648  34.850  29.234  1.00  0.00     0.059 A 
ATOM     76  F   UNL A   1      37.911  34.263  29.398  1.00  0.00    -0.206 F 
ATOM     77  C   UNL A   1      34.347  34.754  29.726  1.00  0.00     0.060 A 
BRANCH  77  78
ATOM     78  S   UNL A   1      32.992  35.615  28.898  1.00  0.00     0.124 S 
ATOM     79  O   UNL A   1      33.706  36.671  28.188  1.00  0.00    -0.237 OA
ATOM     80  O   UNL A   1      32.421  34.559  28.068  1.00  0.00    -0.237 OA
ATOM     81  O   UNL A   1      32.150  36.059  30.005  1.00  0.00    -0.744 OA
ENDBRANCH  77  78
ENDBRANCH  45  70
BRANCH  57  82
ATOM     82  C   UNL A   1      39.819  34.475  37.073  1.00  0.00     0.058 A 
ATOM     83  C   UNL A   1      39.011  34.352  38.213  1.00  0.00     0.135 A 
ATOM     84  C   UNL A   1      40.607  35.632  36.953  1.00  0.00     0.135 A 
ATOM     85  F   UNL A   1      38.234  33.270  38.378  1.00  0.00    -0.206 F 
ATOM     86  C   UNL A   1      38.967  35.348  39.185  1.00  0.00     0.059 A 
ATOM     87  C   UNL A   1      40.604  36.626  37.926  1.00  0.00     0.059 A 
ATOM     88  F   UNL A   1      41.408  35.797  35.887  1.00  0.00    -0.206 F 
ATOM     89  C   UNL A   1      39.770  36.480  39.034  1.00  0.00     0.060 A 
BRANCH  89  90
ATOM     90  S   UNL A   1      39.729  37.750  40.317  1.00  0.00     0.124 S 
ATOM     91  O   UNL A   1      38.779  38.704  39.756  1.00  0.00    -0.237 OA
ATOM     92  O   UNL A   1      39.265  37.002  41.480  1.00  0.00    -0.237 OA
ATOM     93  O   UNL A   1      41.113  38.210  40.386  1.00  0.00    -0.744 OA
ENDBRANCH  89  90
ENDBRANCH  57  82
ENDBRANCH  31  32
ENDBRANCH  24  26
ENDBRANCH  23  24
ENDBRANCH   1  23
TORSDOF 17
ENDMDL
