MODEL 1
REMARK VINA RESULT:     -11.3      0.000      0.000
REMARK SMILES CC1(C)[C@H](C(=O)Nc2ccc(C(=O)NCCc3ccccc3)cc2)[C@H]1C(=O)OCCOC(=O)c1ccc(-c2c3nc(c(-c4c(F)cc(S(=O)(=O)[O-])cc4F)c4ccc([nH]4)c(-c4c(F)cc(S(=O)(=O)[O-])cc4F)c4nc(c(-c5c(F)cc(S(=O)(=O)[O-])cc5F)c5ccc2[nH]5)C=C4)C=C3)cc1
REMARK SMILES IDX 28 1 26 2 27 3 25 4 1 5 2 6 3 7 4 8 5 9 6 10 7 11 8 13 9 14
REMARK SMILES IDX 24 15 10 16 23 17 11 18 12 19 13 20 14 21 15 23 16 24 17 25
REMARK SMILES IDX 18 26 22 27 19 28 21 29 20 30 29 31 30 32 31 33 32 34 33 35
REMARK SMILES IDX 34 36 35 37 99 38 36 39 98 40 37 41 38 42 39 43 92 44 40 45
REMARK SMILES IDX 97 46 91 47 93 48 41 49 96 50 90 51 89 52 42 54 76 55 55 56
REMARK SMILES IDX 75 57 56 58 59 59 74 60 94 61 57 62 58 63 73 65 95 66 60 67
REMARK SMILES IDX 43 68 44 69 53 70 45 71 46 72 52 73 54 74 47 75 48 76 49 77
REMARK SMILES IDX 50 78 51 79 77 80 78 81 87 82 79 83 80 84 86 85 88 86 81 87
REMARK SMILES IDX 82 88 83 89 84 90 85 91 61 92 62 93 71 94 63 95 64 96 70 97
REMARK SMILES IDX 72 98 65 99 66 100 67 101 68 102 69 103
REMARK H PARENT 7 12 14 22 93 53 59 64
REMARK Flexibility Score: inf
ROOT
ATOM      1  O   UNL A   1      38.481  22.241  25.707  1.00  0.00    -0.462 OA
ENDROOT
BRANCH   1   2
ATOM      2  C   UNL A   1      37.560  23.211  25.914  1.00  0.00     0.310 C 
ATOM      3  O   UNL A   1      37.773  24.338  26.335  1.00  0.00    -0.252 OA
BRANCH   2   4
ATOM      4  C   UNL A   1      36.220  22.820  25.435  1.00  0.00     0.118 C 
ATOM      5  C   UNL A   1      36.798  22.981  22.854  1.00  0.00     0.013 C 
ATOM      6  C   UNL A   1      35.803  22.779  23.974  1.00  0.00    -0.009 C 
ATOM      7  C   UNL A   1      34.494  23.463  23.683  1.00  0.00     0.013 C 
ATOM      8  C   UNL A   1      35.979  21.486  24.786  1.00  0.00     0.100 C 
BRANCH   8   9
ATOM      9  C   UNL A   1      34.908  20.534  25.225  1.00  0.00     0.228 C 
ATOM     10  O   UNL A   1      34.860  19.428  24.697  1.00  0.00    -0.274 OA
ATOM     11  N   UNL A   1      34.209  20.828  26.373  1.00  0.00    -0.326 N 
ATOM     12  H   UNL A   1      34.555  20.471  27.223  1.00  0.00     0.169 HD
BRANCH  11  13
ATOM     13  C   UNL A   1      33.038  21.601  26.422  1.00  0.00     0.041 A 
ATOM     14  C   UNL A   1      32.970  22.666  27.319  1.00  0.00     0.027 A 
ATOM     15  C   UNL A   1      31.964  21.358  25.563  1.00  0.00     0.027 A 
ATOM     16  C   UNL A   1      31.928  23.593  27.209  1.00  0.00     0.016 A 
ATOM     17  C   UNL A   1      30.930  22.286  25.445  1.00  0.00     0.016 A 
ATOM     18  C   UNL A   1      30.969  23.457  26.199  1.00  0.00     0.039 A 
BRANCH  18  19
ATOM     19  C   UNL A   1      30.037  24.581  25.968  1.00  0.00     0.251 C 
ATOM     20  O   UNL A   1      29.265  24.903  26.864  1.00  0.00    -0.269 OA
ATOM     21  N   UNL A   1      30.080  25.310  24.807  1.00  0.00    -0.352 N 
ATOM     22  H   UNL A   1      29.420  26.038  24.765  1.00  0.00     0.163 HD
BRANCH  21  23
ATOM     23  C   UNL A   1      30.923  25.206  23.621  1.00  0.00     0.121 C 
BRANCH  23  24
ATOM     24  C   UNL A   1      31.607  26.540  23.287  1.00  0.00     0.057 C 
BRANCH  24  25
ATOM     25  C   UNL A   1      32.181  27.196  24.521  1.00  0.00    -0.046 A 
ATOM     26  C   UNL A   1      33.363  26.711  25.099  1.00  0.00     0.004 A 
ATOM     27  C   UNL A   1      31.500  28.248  25.148  1.00  0.00     0.004 A 
ATOM     28  C   UNL A   1      33.837  27.251  26.296  1.00  0.00     0.000 A 
ATOM     29  C   UNL A   1      31.974  28.783  26.345  1.00  0.00     0.000 A 
ATOM     30  C   UNL A   1      33.136  28.278  26.925  1.00  0.00     0.000 A 
ENDBRANCH  24  25
ENDBRANCH  23  24
ENDBRANCH  21  23
ENDBRANCH  18  19
ENDBRANCH  11  13
ENDBRANCH   8   9
ENDBRANCH   2   4
ENDBRANCH   1   2
BRANCH   1  31
ATOM     31  C   UNL A   1      39.532  22.117  26.678  1.00  0.00     0.274 C 
BRANCH  31  32
ATOM     32  C   UNL A   1      40.801  22.770  26.126  1.00  0.00     0.275 C 
BRANCH  32  33
ATOM     33  O   UNL A   1      40.719  24.206  26.225  1.00  0.00    -0.458 OA
BRANCH  33  34
ATOM     34  C   UNL A   1      41.912  24.847  26.263  1.00  0.00     0.338 C 
ATOM     35  O   UNL A   1      42.794  24.829  25.422  1.00  0.00    -0.246 OA
BRANCH  34  36
ATOM     36  C   UNL A   1      41.969  25.708  27.451  1.00  0.00     0.060 A 
ATOM     37  C   UNL A   1      41.144  25.384  28.521  1.00  0.00     0.016 A 
ATOM     38  C   UNL A   1      42.712  26.888  27.467  1.00  0.00     0.016 A 
ATOM     39  C   UNL A   1      40.999  26.271  29.579  1.00  0.00     0.010 A 
ATOM     40  C   UNL A   1      42.596  27.760  28.561  1.00  0.00     0.010 A 
ATOM     41  C   UNL A   1      41.705  27.479  29.613  1.00  0.00    -0.014 A 
BRANCH  41  42
ATOM     42  C   UNL A   1      41.440  28.445  30.718  1.00  0.00     0.031 A 
ATOM     43  C   UNL A   1      42.344  28.486  31.926  1.00  0.00     0.074 A 
ATOM     44  C   UNL A   1      40.437  29.341  30.611  1.00  0.00     0.049 A 
ATOM     45  N   UNL A   1      42.223  29.182  33.027  1.00  0.00    -0.248 NA
ATOM     46  C   UNL A   1      43.529  27.613  31.898  1.00  0.00     0.031 C 
ATOM     47  C   UNL A   1      39.514  29.448  29.478  1.00  0.00     0.029 A 
ATOM     48  N   UNL A   1      40.036  30.347  31.456  1.00  0.00    -0.354 N 
ATOM     49  C   UNL A   1      43.294  28.812  33.834  1.00  0.00     0.074 A 
ATOM     50  C   UNL A   1      44.039  27.806  33.107  1.00  0.00     0.031 C 
ATOM     51  C   UNL A   1      38.685  30.484  29.679  1.00  0.00     0.029 A 
ATOM     52  C   UNL A   1      38.965  31.069  30.987  1.00  0.00     0.049 A 
ATOM     53  H   UNL A   1      40.474  30.532  32.318  1.00  0.00     0.167 HD
ATOM     54  C   UNL A   1      43.629  29.271  35.065  1.00  0.00     0.037 A 
ATOM     55  C   UNL A   1      38.261  32.071  31.552  1.00  0.00     0.037 A 
ATOM     56  C   UNL A   1      42.923  30.318  35.760  1.00  0.00     0.049 A 
ATOM     57  C   UNL A   1      38.640  32.551  32.926  1.00  0.00     0.074 A 
ATOM     58  C   UNL A   1      43.184  30.850  37.012  1.00  0.00     0.029 A 
ATOM     59  N   UNL A   1      41.834  31.013  35.253  1.00  0.00    -0.354 N 
ATOM     60  N   UNL A   1      39.613  32.140  33.703  1.00  0.00    -0.248 NA
ATOM     61  C   UNL A   1      37.817  33.622  33.506  1.00  0.00     0.031 C 
ATOM     62  C   UNL A   1      42.233  31.842  37.276  1.00  0.00     0.029 A 
ATOM     63  C   UNL A   1      41.403  31.957  36.171  1.00  0.00     0.049 A 
ATOM     64  H   UNL A   1      41.428  30.858  34.369  1.00  0.00     0.167 HD
ATOM     65  C   UNL A   1      39.532  32.912  34.855  1.00  0.00     0.074 A 
ATOM     66  C   UNL A   1      38.422  33.825  34.669  1.00  0.00     0.031 C 
ATOM     67  C   UNL A   1      40.303  32.865  35.969  1.00  0.00     0.037 A 
BRANCH  54  68
ATOM     68  C   UNL A   1      44.796  28.621  35.759  1.00  0.00     0.058 A 
ATOM     69  C   UNL A   1      44.640  27.502  36.589  1.00  0.00     0.135 A 
ATOM     70  C   UNL A   1      46.098  29.113  35.560  1.00  0.00     0.135 A 
ATOM     71  F   UNL A   1      43.419  27.000  36.832  1.00  0.00    -0.206 F 
ATOM     72  C   UNL A   1      45.731  26.911  37.221  1.00  0.00     0.059 A 
ATOM     73  C   UNL A   1      47.205  28.523  36.165  1.00  0.00     0.059 A 
ATOM     74  F   UNL A   1      46.305  30.181  34.773  1.00  0.00    -0.206 F 
ATOM     75  C   UNL A   1      47.008  27.431  37.008  1.00  0.00     0.060 A 
BRANCH  75  76
ATOM     76  S   UNL A   1      48.404  26.659  37.854  1.00  0.00     0.124 S 
ATOM     77  O   UNL A   1      47.825  25.383  38.267  1.00  0.00    -0.237 OA
ATOM     78  O   UNL A   1      49.407  26.582  36.797  1.00  0.00    -0.237 OA
ATOM     79  O   UNL A   1      48.705  27.590  38.936  1.00  0.00    -0.744 OA
ENDBRANCH  75  76
ENDBRANCH  54  68
BRANCH  55  80
ATOM     80  C   UNL A   1      37.106  32.666  30.827  1.00  0.00     0.058 A 
ATOM     81  C   UNL A   1      37.294  33.639  29.835  1.00  0.00     0.135 A 
ATOM     82  C   UNL A   1      35.791  32.257  31.101  1.00  0.00     0.135 A 
ATOM     83  F   UNL A   1      38.530  34.071  29.544  1.00  0.00    -0.206 F 
ATOM     84  C   UNL A   1      36.219  34.191  29.144  1.00  0.00     0.059 A 
ATOM     85  C   UNL A   1      34.704  32.773  30.405  1.00  0.00     0.059 A 
ATOM     86  F   UNL A   1      35.558  31.319  32.032  1.00  0.00    -0.206 F 
ATOM     87  C   UNL A   1      34.927  33.748  29.433  1.00  0.00     0.060 A 
BRANCH  87  88
ATOM     88  S   UNL A   1      33.543  34.420  28.488  1.00  0.00     0.124 S 
ATOM     89  O   UNL A   1      32.619  34.799  29.551  1.00  0.00    -0.237 OA
ATOM     90  O   UNL A   1      34.169  35.519  27.761  1.00  0.00    -0.237 OA
ATOM     91  O   UNL A   1      33.125  33.291  27.662  1.00  0.00    -0.744 OA
ENDBRANCH  87  88
ENDBRANCH  55  80
BRANCH  67  92
ATOM     92  C   UNL A   1      39.994  33.851  37.061  1.00  0.00     0.058 A 
ATOM     93  C   UNL A   1      39.148  33.523  38.132  1.00  0.00     0.135 A 
ATOM     94  C   UNL A   1      40.579  35.127  37.054  1.00  0.00     0.135 A 
ATOM     95  F   UNL A   1      38.558  32.318  38.182  1.00  0.00    -0.206 F 
ATOM     96  C   UNL A   1      38.873  34.435  39.146  1.00  0.00     0.059 A 
ATOM     97  C   UNL A   1      40.337  36.047  38.070  1.00  0.00     0.059 A 
ATOM     98  F   UNL A   1      41.404  35.488  36.058  1.00  0.00    -0.206 F 
ATOM     99  C   UNL A   1      39.471  35.696  39.105  1.00  0.00     0.060 A 
BRANCH  99 100
ATOM    100  S   UNL A   1      39.125  36.864  40.438  1.00  0.00     0.124 S 
ATOM    101  O   UNL A   1      40.463  37.113  40.965  1.00  0.00    -0.237 OA
ATOM    102  O   UNL A   1      38.507  37.979  39.728  1.00  0.00    -0.237 OA
ATOM    103  O   UNL A   1      38.231  36.118  41.319  1.00  0.00    -0.744 OA
ENDBRANCH  99 100
ENDBRANCH  67  92
ENDBRANCH  41  42
ENDBRANCH  34  36
ENDBRANCH  33  34
ENDBRANCH  32  33
ENDBRANCH  31  32
ENDBRANCH   1  31
TORSDOF 20
ENDMDL
MODEL 2
REMARK VINA RESULT:     -11.0      0.443      7.929
REMARK SMILES CC1(C)[C@H](C(=O)Nc2ccc(C(=O)NCCc3ccccc3)cc2)[C@H]1C(=O)OCCOC(=O)c1ccc(-c2c3nc(c(-c4c(F)cc(S(=O)(=O)[O-])cc4F)c4ccc([nH]4)c(-c4c(F)cc(S(=O)(=O)[O-])cc4F)c4nc(c(-c5c(F)cc(S(=O)(=O)[O-])cc5F)c5ccc2[nH]5)C=C4)C=C3)cc1
REMARK SMILES IDX 28 1 26 2 27 3 25 4 1 5 2 6 3 7 4 8 5 9 6 10 7 11 8 13 9 14
REMARK SMILES IDX 24 15 10 16 23 17 11 18 12 19 13 20 14 21 15 23 16 24 17 25
REMARK SMILES IDX 18 26 22 27 19 28 21 29 20 30 29 31 30 32 31 33 32 34 33 35
REMARK SMILES IDX 34 36 35 37 99 38 36 39 98 40 37 41 38 42 39 43 92 44 40 45
REMARK SMILES IDX 97 46 91 47 93 48 41 49 96 50 90 51 89 52 42 54 76 55 55 56
REMARK SMILES IDX 75 57 56 58 59 59 74 60 94 61 57 62 58 63 73 65 95 66 60 67
REMARK SMILES IDX 43 68 44 69 53 70 45 71 46 72 52 73 54 74 47 75 48 76 49 77
REMARK SMILES IDX 50 78 51 79 77 80 78 81 87 82 79 83 80 84 86 85 88 86 81 87
REMARK SMILES IDX 82 88 83 89 84 90 85 91 61 92 62 93 71 94 63 95 64 96 70 97
REMARK SMILES IDX 72 98 65 99 66 100 67 101 68 102 69 103
REMARK H PARENT 7 12 14 22 93 53 59 64
REMARK Flexibility Score: inf
ROOT
ATOM      1  O   UNL A   1      38.626  22.412  25.709  1.00  0.00    -0.462 OA
ENDROOT
BRANCH   1   2
ATOM      2  C   UNL A   1      37.645  23.308  25.964  1.00  0.00     0.310 C 
ATOM      3  O   UNL A   1      37.782  24.418  26.458  1.00  0.00    -0.252 OA
BRANCH   2   4
ATOM      4  C   UNL A   1      36.336  22.867  25.442  1.00  0.00     0.118 C 
ATOM      5  C   UNL A   1      37.025  22.942  22.885  1.00  0.00     0.013 C 
ATOM      6  C   UNL A   1      35.986  22.760  23.967  1.00  0.00    -0.009 C 
ATOM      7  C   UNL A   1      34.676  23.400  23.592  1.00  0.00     0.013 C 
ATOM      8  C   UNL A   1      36.154  21.504  24.836  1.00  0.00     0.100 C 
BRANCH   8   9
ATOM      9  C   UNL A   1      35.086  20.544  25.266  1.00  0.00     0.228 C 
ATOM     10  O   UNL A   1      35.060  19.432  24.748  1.00  0.00    -0.274 OA
ATOM     11  N   UNL A   1      34.363  20.840  26.399  1.00  0.00    -0.326 N 
ATOM     12  H   UNL A   1      34.698  20.496  27.258  1.00  0.00     0.169 HD
BRANCH  11  13
ATOM     13  C   UNL A   1      33.184  21.600  26.419  1.00  0.00     0.041 A 
ATOM     14  C   UNL A   1      33.073  22.651  27.330  1.00  0.00     0.027 A 
ATOM     15  C   UNL A   1      32.142  21.360  25.521  1.00  0.00     0.027 A 
ATOM     16  C   UNL A   1      32.026  23.569  27.198  1.00  0.00     0.016 A 
ATOM     17  C   UNL A   1      31.103  22.280  25.382  1.00  0.00     0.016 A 
ATOM     18  C   UNL A   1      31.103  23.439  26.154  1.00  0.00     0.039 A 
BRANCH  18  19
ATOM     19  C   UNL A   1      30.168  24.557  25.909  1.00  0.00     0.251 C 
ATOM     20  O   UNL A   1      29.475  24.962  26.834  1.00  0.00    -0.269 OA
ATOM     21  N   UNL A   1      30.124  25.189  24.692  1.00  0.00    -0.352 N 
ATOM     22  H   UNL A   1      29.470  25.924  24.645  1.00  0.00     0.163 HD
BRANCH  21  23
ATOM     23  C   UNL A   1      30.867  24.977  23.455  1.00  0.00     0.121 C 
BRANCH  23  24
ATOM     24  C   UNL A   1      31.547  26.264  22.969  1.00  0.00     0.057 C 
BRANCH  24  25
ATOM     25  C   UNL A   1      32.271  26.971  24.091  1.00  0.00    -0.046 A 
ATOM     26  C   UNL A   1      33.213  26.285  24.870  1.00  0.00     0.004 A 
ATOM     27  C   UNL A   1      31.954  28.296  24.417  1.00  0.00     0.004 A 
ATOM     28  C   UNL A   1      33.806  26.907  25.971  1.00  0.00     0.000 A 
ATOM     29  C   UNL A   1      32.545  28.913  25.519  1.00  0.00     0.000 A 
ATOM     30  C   UNL A   1      33.463  28.216  26.303  1.00  0.00     0.000 A 
ENDBRANCH  24  25
ENDBRANCH  23  24
ENDBRANCH  21  23
ENDBRANCH  18  19
ENDBRANCH  11  13
ENDBRANCH   8   9
ENDBRANCH   2   4
ENDBRANCH   1   2
BRANCH   1  31
ATOM     31  C   UNL A   1      39.664  22.280  26.692  1.00  0.00     0.274 C 
BRANCH  31  32
ATOM     32  C   UNL A   1      40.937  22.948  26.168  1.00  0.00     0.275 C 
BRANCH  32  33
ATOM     33  O   UNL A   1      40.795  24.384  26.170  1.00  0.00    -0.458 OA
BRANCH  33  34
ATOM     34  C   UNL A   1      41.960  25.074  26.203  1.00  0.00     0.338 C 
ATOM     35  O   UNL A   1      42.821  25.126  25.341  1.00  0.00    -0.246 OA
BRANCH  34  36
ATOM     36  C   UNL A   1      42.011  25.893  27.420  1.00  0.00     0.060 A 
ATOM     37  C   UNL A   1      41.253  25.477  28.508  1.00  0.00     0.016 A 
ATOM     38  C   UNL A   1      42.678  27.117  27.454  1.00  0.00     0.016 A 
ATOM     39  C   UNL A   1      41.095  26.314  29.605  1.00  0.00     0.010 A 
ATOM     40  C   UNL A   1      42.552  27.939  28.586  1.00  0.00     0.010 A 
ATOM     41  C   UNL A   1      41.725  27.563  29.659  1.00  0.00    -0.014 A 
BRANCH  41  42
ATOM     42  C   UNL A   1      41.445  28.468  30.810  1.00  0.00     0.031 A 
ATOM     43  C   UNL A   1      40.275  29.421  30.763  1.00  0.00     0.074 A 
ATOM     44  C   UNL A   1      42.189  28.390  31.933  1.00  0.00     0.049 A 
ATOM     45  N   UNL A   1      39.928  30.350  31.616  1.00  0.00    -0.248 NA
ATOM     46  C   UNL A   1      39.390  29.328  29.590  1.00  0.00     0.031 C 
ATOM     47  C   UNL A   1      43.321  27.482  32.137  1.00  0.00     0.029 A 
ATOM     48  N   UNL A   1      42.094  29.068  33.124  1.00  0.00    -0.354 N 
ATOM     49  C   UNL A   1      38.808  30.971  31.073  1.00  0.00     0.074 A 
ATOM     50  C   UNL A   1      38.551  30.332  29.800  1.00  0.00     0.031 C 
ATOM     51  C   UNL A   1      43.787  27.630  33.386  1.00  0.00     0.029 A 
ATOM     52  C   UNL A   1      43.040  28.694  34.049  1.00  0.00     0.049 A 
ATOM     53  H   UNL A   1      41.414  29.757  33.297  1.00  0.00     0.167 HD
ATOM     54  C   UNL A   1      38.060  31.977  31.590  1.00  0.00     0.037 A 
ATOM     55  C   UNL A   1      43.302  29.171  35.283  1.00  0.00     0.037 A 
ATOM     56  C   UNL A   1      38.280  32.568  32.886  1.00  0.00     0.049 A 
ATOM     57  C   UNL A   1      42.471  30.299  35.828  1.00  0.00     0.074 A 
ATOM     58  C   UNL A   1      37.577  33.594  33.495  1.00  0.00     0.029 A 
ATOM     59  N   UNL A   1      39.257  32.167  33.785  1.00  0.00    -0.354 N 
ATOM     60  N   UNL A   1      41.459  30.921  35.270  1.00  0.00    -0.248 NA
ATOM     61  C   UNL A   1      42.823  30.800  37.164  1.00  0.00     0.031 C 
ATOM     62  C   UNL A   1      38.152  33.837  34.748  1.00  0.00     0.029 A 
ATOM     63  C   UNL A   1      39.187  32.935  34.936  1.00  0.00     0.049 A 
ATOM     64  H   UNL A   1      39.906  31.443  33.628  1.00  0.00     0.167 HD
ATOM     65  C   UNL A   1      41.044  31.873  36.191  1.00  0.00     0.074 A 
ATOM     66  C   UNL A   1      41.904  31.738  37.350  1.00  0.00     0.031 C 
ATOM     67  C   UNL A   1      40.044  32.783  36.085  1.00  0.00     0.037 A 
BRANCH  54  68
ATOM     68  C   UNL A   1      36.949  32.528  30.737  1.00  0.00     0.058 A 
ATOM     69  C   UNL A   1      35.644  32.017  30.791  1.00  0.00     0.135 A 
ATOM     70  C   UNL A   1      37.193  33.610  29.873  1.00  0.00     0.135 A 
ATOM     71  F   UNL A   1      35.355  30.973  31.582  1.00  0.00    -0.206 F 
ATOM     72  C   UNL A   1      34.628  32.541  29.996  1.00  0.00     0.059 A 
ATOM     73  C   UNL A   1      36.187  34.163  29.086  1.00  0.00     0.059 A 
ATOM     74  F   UNL A   1      38.424  34.139  29.784  1.00  0.00    -0.206 F 
ATOM     75  C   UNL A   1      34.909  33.609  29.144  1.00  0.00     0.060 A 
BRANCH  75  76
ATOM     76  S   UNL A   1      33.579  34.258  28.110  1.00  0.00     0.124 S 
ATOM     77  O   UNL A   1      32.931  33.027  27.662  1.00  0.00    -0.237 OA
ATOM     78  O   UNL A   1      32.812  35.064  29.054  1.00  0.00    -0.237 OA
ATOM     79  O   UNL A   1      34.284  35.007  27.076  1.00  0.00    -0.744 OA
ENDBRANCH  75  76
ENDBRANCH  54  68
BRANCH  55  80
ATOM     80  C   UNL A   1      44.423  28.598  36.075  1.00  0.00     0.058 A 
ATOM     81  C   UNL A   1      45.728  29.101  35.960  1.00  0.00     0.135 A 
ATOM     82  C   UNL A   1      44.207  27.546  36.980  1.00  0.00     0.135 A 
ATOM     83  F   UNL A   1      45.987  30.099  35.101  1.00  0.00    -0.206 F 
ATOM     84  C   UNL A   1      46.779  28.579  36.706  1.00  0.00     0.059 A 
ATOM     85  C   UNL A   1      45.236  27.026  37.759  1.00  0.00     0.059 A 
ATOM     86  F   UNL A   1      42.976  27.037  37.138  1.00  0.00    -0.206 F 
ATOM     87  C   UNL A   1      46.522  27.544  37.607  1.00  0.00     0.060 A 
BRANCH  87  88
ATOM     88  S   UNL A   1      47.877  26.914  38.622  1.00  0.00     0.124 S 
ATOM     89  O   UNL A   1      48.882  26.609  37.611  1.00  0.00    -0.237 OA
ATOM     90  O   UNL A   1      48.166  28.051  39.491  1.00  0.00    -0.237 OA
ATOM     91  O   UNL A   1      47.284  25.761  39.292  1.00  0.00    -0.744 OA
ENDBRANCH  87  88
ENDBRANCH  55  80
BRANCH  67  92
ATOM     92  C   UNL A   1      39.803  33.682  37.267  1.00  0.00     0.058 A 
ATOM     93  C   UNL A   1      40.470  34.909  37.406  1.00  0.00     0.135 A 
ATOM     94  C   UNL A   1      38.870  33.326  38.253  1.00  0.00     0.135 A 
ATOM     95  F   UNL A   1      41.377  35.292  36.494  1.00  0.00    -0.206 F 
ATOM     96  C   UNL A   1      40.237  35.742  38.495  1.00  0.00     0.059 A 
ATOM     97  C   UNL A   1      38.604  34.155  39.339  1.00  0.00     0.059 A 
ATOM     98  F   UNL A   1      38.198  32.167  38.162  1.00  0.00    -0.206 F 
ATOM     99  C   UNL A   1      39.303  35.355  39.458  1.00  0.00     0.060 A 
BRANCH  99 100
ATOM    100  S   UNL A   1      38.992  36.454  40.857  1.00  0.00     0.124 S 
ATOM    101  O   UNL A   1      37.960  35.721  41.583  1.00  0.00    -0.237 OA
ATOM    102  O   UNL A   1      40.298  36.518  41.505  1.00  0.00    -0.237 OA
ATOM    103  O   UNL A   1      38.553  37.694  40.222  1.00  0.00    -0.744 OA
ENDBRANCH  99 100
ENDBRANCH  67  92
ENDBRANCH  41  42
ENDBRANCH  34  36
ENDBRANCH  33  34
ENDBRANCH  32  33
ENDBRANCH  31  32
ENDBRANCH   1  31
TORSDOF 20
ENDMDL
MODEL 3
REMARK VINA RESULT:     -10.2      4.739      8.082
REMARK SMILES CC1(C)[C@H](C(=O)Nc2ccc(C(=O)NCCc3ccccc3)cc2)[C@H]1C(=O)OCCOC(=O)c1ccc(-c2c3nc(c(-c4c(F)cc(S(=O)(=O)[O-])cc4F)c4ccc([nH]4)c(-c4c(F)cc(S(=O)(=O)[O-])cc4F)c4nc(c(-c5c(F)cc(S(=O)(=O)[O-])cc5F)c5ccc2[nH]5)C=C4)C=C3)cc1
REMARK SMILES IDX 28 1 26 2 27 3 25 4 1 5 2 6 3 7 4 8 5 9 6 10 7 11 8 13 9 14
REMARK SMILES IDX 24 15 10 16 23 17 11 18 12 19 13 20 14 21 15 23 16 24 17 25
REMARK SMILES IDX 18 26 22 27 19 28 21 29 20 30 29 31 30 32 31 33 32 34 33 35
REMARK SMILES IDX 34 36 35 37 99 38 36 39 98 40 37 41 38 42 39 43 92 44 40 45
REMARK SMILES IDX 97 46 91 47 93 48 41 49 96 50 90 51 89 52 42 54 76 55 55 56
REMARK SMILES IDX 75 57 56 58 59 59 74 60 94 61 57 62 58 63 73 65 95 66 60 67
REMARK SMILES IDX 43 68 44 69 53 70 45 71 46 72 52 73 54 74 47 75 48 76 49 77
REMARK SMILES IDX 50 78 51 79 77 80 78 81 87 82 79 83 80 84 86 85 88 86 81 87
REMARK SMILES IDX 82 88 83 89 84 90 85 91 61 92 62 93 71 94 63 95 64 96 70 97
REMARK SMILES IDX 72 98 65 99 66 100 67 101 68 102 69 103
REMARK H PARENT 7 12 14 22 93 53 59 64
REMARK Flexibility Score: inf
ROOT
ATOM      1  O   UNL A   1      46.721  23.608  25.575  1.00  0.00    -0.462 OA
ENDROOT
BRANCH   1   2
ATOM      2  C   UNL A   1      46.196  24.125  26.710  1.00  0.00     0.310 C 
ATOM      3  O   UNL A   1      45.600  23.511  27.582  1.00  0.00    -0.252 OA
BRANCH   2   4
ATOM      4  C   UNL A   1      46.539  25.550  26.884  1.00  0.00     0.118 C 
ATOM      5  C   UNL A   1      49.020  25.131  27.714  1.00  0.00     0.013 C 
ATOM      6  C   UNL A   1      47.859  26.059  27.441  1.00  0.00    -0.009 C 
ATOM      7  C   UNL A   1      47.717  27.103  28.517  1.00  0.00     0.013 C 
ATOM      8  C   UNL A   1      47.499  26.243  25.958  1.00  0.00     0.100 C 
BRANCH   8   9
ATOM      9  C   UNL A   1      47.183  27.527  25.251  1.00  0.00     0.228 C 
ATOM     10  O   UNL A   1      47.931  27.894  24.350  1.00  0.00    -0.274 OA
ATOM     11  N   UNL A   1      45.943  28.089  25.446  1.00  0.00    -0.326 N 
ATOM     12  H   UNL A   1      45.223  27.836  24.824  1.00  0.00     0.169 HD
BRANCH  11  13
ATOM     13  C   UNL A   1      45.627  28.996  26.470  1.00  0.00     0.041 A 
ATOM     14  C   UNL A   1      44.401  28.877  27.123  1.00  0.00     0.027 A 
ATOM     15  C   UNL A   1      46.529  29.980  26.879  1.00  0.00     0.027 A 
ATOM     16  C   UNL A   1      44.174  29.598  28.300  1.00  0.00     0.016 A 
ATOM     17  C   UNL A   1      46.309  30.694  28.057  1.00  0.00     0.016 A 
ATOM     18  C   UNL A   1      45.176  30.426  28.821  1.00  0.00     0.039 A 
BRANCH  18  19
ATOM     19  C   UNL A   1      44.987  30.973  30.181  1.00  0.00     0.251 C 
ATOM     20  O   UNL A   1      45.801  30.689  31.052  1.00  0.00    -0.269 OA
ATOM     21  N   UNL A   1      43.966  31.847  30.458  1.00  0.00    -0.352 N 
ATOM     22  H   UNL A   1      43.942  32.152  31.393  1.00  0.00     0.163 HD
BRANCH  21  23
ATOM     23  C   UNL A   1      42.911  32.409  29.623  1.00  0.00     0.121 C 
BRANCH  23  24
ATOM     24  C   UNL A   1      42.489  33.807  30.099  1.00  0.00     0.057 C 
BRANCH  24  25
ATOM     25  C   UNL A   1      42.741  34.856  29.041  1.00  0.00    -0.046 A 
ATOM     26  C   UNL A   1      44.051  35.195  28.674  1.00  0.00     0.004 A 
ATOM     27  C   UNL A   1      41.672  35.559  28.470  1.00  0.00     0.004 A 
ATOM     28  C   UNL A   1      44.285  36.235  27.773  1.00  0.00     0.000 A 
ATOM     29  C   UNL A   1      41.909  36.600  27.573  1.00  0.00     0.000 A 
ATOM     30  C   UNL A   1      43.216  36.945  27.233  1.00  0.00     0.000 A 
ENDBRANCH  24  25
ENDBRANCH  23  24
ENDBRANCH  21  23
ENDBRANCH  18  19
ENDBRANCH  11  13
ENDBRANCH   8   9
ENDBRANCH   2   4
ENDBRANCH   1   2
BRANCH   1  31
ATOM     31  C   UNL A   1      45.901  23.645  24.397  1.00  0.00     0.274 C 
BRANCH  31  32
ATOM     32  C   UNL A   1      44.897  22.491  24.449  1.00  0.00     0.275 C 
BRANCH  32  33
ATOM     33  O   UNL A   1      43.547  22.987  24.348  1.00  0.00    -0.458 OA
BRANCH  33  34
ATOM     34  C   UNL A   1      42.687  22.501  25.274  1.00  0.00     0.338 C 
ATOM     35  O   UNL A   1      42.273  21.359  25.381  1.00  0.00    -0.246 OA
BRANCH  34  36
ATOM     36  C   UNL A   1      42.388  23.545  26.263  1.00  0.00     0.060 A 
ATOM     37  C   UNL A   1      42.776  24.845  25.962  1.00  0.00     0.016 A 
ATOM     38  C   UNL A   1      41.864  23.239  27.517  1.00  0.00     0.016 A 
ATOM     39  C   UNL A   1      42.712  25.831  26.937  1.00  0.00     0.010 A 
ATOM     40  C   UNL A   1      41.759  24.251  28.485  1.00  0.00     0.010 A 
ATOM     41  C   UNL A   1      42.220  25.552  28.217  1.00  0.00    -0.014 A 
BRANCH  41  42
ATOM     42  C   UNL A   1      42.265  26.617  29.261  1.00  0.00     0.031 A 
ATOM     43  C   UNL A   1      43.423  26.688  30.226  1.00  0.00     0.074 A 
ATOM     44  C   UNL A   1      41.311  27.570  29.301  1.00  0.00     0.049 A 
ATOM     45  N   UNL A   1      43.593  27.473  31.259  1.00  0.00    -0.248 NA
ATOM     46  C   UNL A   1      44.524  25.735  30.014  1.00  0.00     0.031 C 
ATOM     47  C   UNL A   1      40.159  27.653  28.399  1.00  0.00     0.029 A 
ATOM     48  N   UNL A   1      41.166  28.664  30.119  1.00  0.00    -0.354 N 
ATOM     49  C   UNL A   1      44.801  27.093  31.836  1.00  0.00     0.074 A 
ATOM     50  C   UNL A   1      45.307  25.985  31.055  1.00  0.00     0.031 C 
ATOM     51  C   UNL A   1      39.452  28.757  28.685  1.00  0.00     0.029 A 
ATOM     52  C   UNL A   1      40.053  29.421  29.838  1.00  0.00     0.049 A 
ATOM     53  H   UNL A   1      41.799  28.884  30.839  1.00  0.00     0.167 HD
ATOM     54  C   UNL A   1      45.432  27.622  32.913  1.00  0.00     0.037 A 
ATOM     55  C   UNL A   1      39.550  30.510  30.453  1.00  0.00     0.037 A 
ATOM     56  C   UNL A   1      44.958  28.766  33.650  1.00  0.00     0.049 A 
ATOM     57  C   UNL A   1      40.257  31.067  31.657  1.00  0.00     0.074 A 
ATOM     58  C   UNL A   1      45.526  29.373  34.758  1.00  0.00     0.029 A 
ATOM     59  N   UNL A   1      43.819  29.494  33.338  1.00  0.00    -0.354 N 
ATOM     60  N   UNL A   1      41.361  30.650  32.230  1.00  0.00    -0.248 NA
ATOM     61  C   UNL A   1      39.645  32.235  32.307  1.00  0.00     0.031 C 
ATOM     62  C   UNL A   1      44.712  30.447  35.136  1.00  0.00     0.029 A 
ATOM     63  C   UNL A   1      43.658  30.533  34.240  1.00  0.00     0.049 A 
ATOM     64  H   UNL A   1      43.213  29.300  32.587  1.00  0.00     0.167 HD
ATOM     65  C   UNL A   1      41.585  31.513  33.296  1.00  0.00     0.074 A 
ATOM     66  C   UNL A   1      40.510  32.484  33.281  1.00  0.00     0.031 C 
ATOM     67  C   UNL A   1      42.588  31.498  34.208  1.00  0.00     0.037 A 
BRANCH  54  68
ATOM     68  C   UNL A   1      46.692  26.947  33.383  1.00  0.00     0.058 A 
ATOM     69  C   UNL A   1      47.959  27.318  32.908  1.00  0.00     0.135 A 
ATOM     70  C   UNL A   1      46.629  25.929  34.350  1.00  0.00     0.135 A 
ATOM     71  F   UNL A   1      48.080  28.270  31.970  1.00  0.00    -0.206 F 
ATOM     72  C   UNL A   1      49.115  26.685  33.355  1.00  0.00     0.059 A 
ATOM     73  C   UNL A   1      47.774  25.297  34.827  1.00  0.00     0.059 A 
ATOM     74  F   UNL A   1      45.442  25.535  34.841  1.00  0.00    -0.206 F 
ATOM     75  C   UNL A   1      49.013  25.673  34.310  1.00  0.00     0.060 A 
BRANCH  75  76
ATOM     76  S   UNL A   1      50.525  24.853  34.860  1.00  0.00     0.124 S 
ATOM     77  O   UNL A   1      50.117  23.451  34.851  1.00  0.00    -0.237 OA
ATOM     78  O   UNL A   1      51.483  25.236  33.827  1.00  0.00    -0.237 OA
ATOM     79  O   UNL A   1      50.765  25.428  36.179  1.00  0.00    -0.744 OA
ENDBRANCH  75  76
ENDBRANCH  54  68
BRANCH  55  80
ATOM     80  C   UNL A   1      38.291  31.126  29.955  1.00  0.00     0.058 A 
ATOM     81  C   UNL A   1      37.056  30.477  30.098  1.00  0.00     0.135 A 
ATOM     82  C   UNL A   1      38.297  32.390  29.341  1.00  0.00     0.135 A 
ATOM     83  F   UNL A   1      36.999  29.264  30.668  1.00  0.00    -0.206 F 
ATOM     84  C   UNL A   1      35.873  31.053  29.645  1.00  0.00     0.059 A 
ATOM     85  C   UNL A   1      37.124  32.998  28.906  1.00  0.00     0.059 A 
ATOM     86  F   UNL A   1      39.450  33.059  29.191  1.00  0.00    -0.206 F 
ATOM     87  C   UNL A   1      35.917  32.317  29.054  1.00  0.00     0.060 A 
BRANCH  87  88
ATOM     88  S   UNL A   1      34.371  33.089  28.529  1.00  0.00     0.124 S 
ATOM     89  O   UNL A   1      33.619  31.937  28.044  1.00  0.00    -0.237 OA
ATOM     90  O   UNL A   1      33.890  33.692  29.767  1.00  0.00    -0.237 OA
ATOM     91  O   UNL A   1      34.803  34.037  27.507  1.00  0.00    -0.744 OA
ENDBRANCH  87  88
ENDBRANCH  55  80
BRANCH  67  92
ATOM     92  C   UNL A   1      42.588  32.585  35.247  1.00  0.00     0.058 A 
ATOM     93  C   UNL A   1      43.241  33.809  35.033  1.00  0.00     0.135 A 
ATOM     94  C   UNL A   1      41.897  32.413  36.457  1.00  0.00     0.135 A 
ATOM     95  F   UNL A   1      43.923  34.021  33.896  1.00  0.00    -0.206 F 
ATOM     96  C   UNL A   1      43.231  34.815  35.993  1.00  0.00     0.059 A 
ATOM     97  C   UNL A   1      41.853  33.415  37.421  1.00  0.00     0.059 A 
ATOM     98  F   UNL A   1      41.247  31.265  36.707  1.00  0.00    -0.206 F 
ATOM     99  C   UNL A   1      42.535  34.608  37.186  1.00  0.00     0.060 A 
BRANCH  99 100
ATOM    100  S   UNL A   1      42.508  35.929  38.417  1.00  0.00     0.124 S 
ATOM    101  O   UNL A   1      43.930  36.228  38.558  1.00  0.00    -0.237 OA
ATOM    102  O   UNL A   1      41.708  36.957  37.758  1.00  0.00    -0.237 OA
ATOM    103  O   UNL A   1      41.880  35.301  39.575  1.00  0.00    -0.744 OA
ENDBRANCH  99 100
ENDBRANCH  67  92
ENDBRANCH  41  42
ENDBRANCH  34  36
ENDBRANCH  33  34
ENDBRANCH  32  33
ENDBRANCH  31  32
ENDBRANCH   1  31
TORSDOF 20
ENDMDL
