MODEL 1
REMARK VINA RESULT:     -11.2      0.000      0.000
REMARK SMILES Cc1c(Cl)cccc1-c1cccc(Cl)c1C(=O)OCCOC(=O)c1ccc(-c2c3nc(c(-c4c(F)cc(S(=O)(=O)[O-])cc4F)c4ccc([nH]4)c(-c4c(F)cc(S(=O)(=O)[O-])cc4F)c4nc(c(-c5c(F)cc(S(=O)(=O)[O-])cc5F)c5ccc2[nH]5)C=C4)C=C3)cc1
REMARK SMILES IDX 20 1 19 2 18 3 16 4 17 5 15 6 9 7 10 8 11 9 13 10 12 11
REMARK SMILES IDX 14 12 8 13 1 14 2 15 3 16 4 17 5 18 7 19 6 20 21 21 22 22
REMARK SMILES IDX 23 23 24 24 25 25 89 26 26 27 88 28 27 29 28 30 29 31 82 32
REMARK SMILES IDX 30 33 87 34 81 35 83 36 31 37 86 38 80 39 79 40 32 42 66 43
REMARK SMILES IDX 45 44 65 45 46 46 49 47 64 48 84 49 47 50 48 51 63 53 85 54
REMARK SMILES IDX 50 55 33 56 34 57 43 58 35 59 36 60 42 61 44 62 37 63 38 64
REMARK SMILES IDX 39 65 40 66 41 67 67 68 68 69 77 70 69 71 70 72 76 73 78 74
REMARK SMILES IDX 71 75 72 76 73 77 74 78 75 79 51 80 52 81 61 82 53 83 54 84
REMARK SMILES IDX 60 85 62 86 55 87 56 88 57 89 58 90 59 91
REMARK H PARENT 83 41 49 52
REMARK Flexibility Score: inf
ROOT
ATOM      1  C   UNL A   1      32.455  28.548  27.656  1.00  0.00     0.275 C 
ENDROOT
BRANCH   1   2
ATOM      2  C   UNL A   1      31.753  27.724  26.577  1.00  0.00     0.275 C 
BRANCH   2   3
ATOM      3  O   UNL A   1      32.574  26.612  26.165  1.00  0.00    -0.458 OA
BRANCH   3   4
ATOM      4  C   UNL A   1      31.941  25.547  25.611  1.00  0.00     0.340 C 
ATOM      5  O   UNL A   1      31.348  24.675  26.226  1.00  0.00    -0.246 OA
BRANCH   4   6
ATOM      6  C   UNL A   1      32.088  25.587  24.126  1.00  0.00     0.086 A 
ATOM      7  C   UNL A   1      33.179  24.939  23.489  1.00  0.00    -0.002 A 
ATOM      8  C   UNL A   1      33.385  25.195  22.114  1.00  0.00     0.010 A 
ATOM      9  C   UNL A   1      32.525  26.012  21.381  1.00  0.00     0.002 A 
ATOM     10  C   UNL A   1      31.139  26.269  23.341  1.00  0.00     0.056 A 
ATOM     11  C   UNL A   1      31.384  26.517  21.987  1.00  0.00     0.021 A 
ATOM     12  Cl  UNL A   1      29.597  26.787  23.933  1.00  0.00    -0.083 Cl
BRANCH   7  13
ATOM     13  C   UNL A   1      34.083  23.973  24.175  1.00  0.00    -0.013 A 
ATOM     14  C   UNL A   1      32.851  21.896  23.274  1.00  0.00     0.046 C 
ATOM     15  C   UNL A   1      33.930  22.558  24.102  1.00  0.00    -0.025 A 
ATOM     16  C   UNL A   1      34.795  21.741  24.862  1.00  0.00     0.044 A 
ATOM     17  Cl  UNL A   1      34.595  20.023  24.942  1.00  0.00    -0.084 Cl
ATOM     18  C   UNL A   1      35.846  22.287  25.601  1.00  0.00     0.021 A 
ATOM     19  C   UNL A   1      35.158  24.490  24.933  1.00  0.00     0.009 A 
ATOM     20  C   UNL A   1      36.040  23.660  25.622  1.00  0.00     0.002 A 
ENDBRANCH   7  13
ENDBRANCH   4   6
ENDBRANCH   3   4
ENDBRANCH   2   3
ENDBRANCH   1   2
BRANCH   1  21
ATOM     21  O   UNL A   1      33.836  28.744  27.309  1.00  0.00    -0.458 OA
BRANCH  21  22
ATOM     22  C   UNL A   1      34.343  29.944  27.682  1.00  0.00     0.338 C 
ATOM     23  O   UNL A   1      33.741  30.992  27.838  1.00  0.00    -0.246 OA
BRANCH  22  24
ATOM     24  C   UNL A   1      35.741  29.756  28.089  1.00  0.00     0.060 A 
ATOM     25  C   UNL A   1      36.707  29.950  27.107  1.00  0.00     0.016 A 
ATOM     26  C   UNL A   1      36.103  29.325  29.362  1.00  0.00     0.016 A 
ATOM     27  C   UNL A   1      38.049  29.717  27.379  1.00  0.00     0.010 A 
ATOM     28  C   UNL A   1      37.458  29.100  29.642  1.00  0.00     0.010 A 
ATOM     29  C   UNL A   1      38.441  29.289  28.650  1.00  0.00    -0.014 A 
BRANCH  29  30
ATOM     30  C   UNL A   1      39.867  28.960  28.894  1.00  0.00     0.031 A 
ATOM     31  C   UNL A   1      40.777  30.007  29.473  1.00  0.00     0.074 A 
ATOM     32  C   UNL A   1      40.334  27.719  28.652  1.00  0.00     0.049 A 
ATOM     33  N   UNL A   1      42.071  29.976  29.648  1.00  0.00    -0.248 NA
ATOM     34  C   UNL A   1      40.139  31.259  29.915  1.00  0.00     0.031 C 
ATOM     35  C   UNL A   1      39.530  26.590  28.179  1.00  0.00     0.029 A 
ATOM     36  N   UNL A   1      41.599  27.198  28.774  1.00  0.00    -0.354 N 
ATOM     37  C   UNL A   1      42.411  31.212  30.183  1.00  0.00     0.074 A 
ATOM     38  C   UNL A   1      41.186  31.975  30.297  1.00  0.00     0.031 C 
ATOM     39  C   UNL A   1      40.320  25.512  28.050  1.00  0.00     0.029 A 
ATOM     40  C   UNL A   1      41.696  25.888  28.362  1.00  0.00     0.049 A 
ATOM     41  H   UNL A   1      42.363  27.712  29.122  1.00  0.00     0.167 HD
ATOM     42  C   UNL A   1      43.635  31.666  30.544  1.00  0.00     0.037 A 
ATOM     43  C   UNL A   1      42.776  25.097  28.207  1.00  0.00     0.037 A 
ATOM     44  C   UNL A   1      44.841  30.885  30.446  1.00  0.00     0.049 A 
ATOM     45  C   UNL A   1      44.138  25.653  28.535  1.00  0.00     0.074 A 
ATOM     46  C   UNL A   1      46.133  31.251  30.784  1.00  0.00     0.029 A 
ATOM     47  N   UNL A   1      44.907  29.580  29.977  1.00  0.00    -0.354 N 
ATOM     48  N   UNL A   1      44.455  26.837  29.004  1.00  0.00    -0.248 NA
ATOM     49  C   UNL A   1      45.290  24.771  28.302  1.00  0.00     0.031 C 
ATOM     50  C   UNL A   1      46.986  30.188  30.467  1.00  0.00     0.029 A 
ATOM     51  C   UNL A   1      46.220  29.136  29.992  1.00  0.00     0.049 A 
ATOM     52  H   UNL A   1      44.134  29.048  29.679  1.00  0.00     0.167 HD
ATOM     53  C   UNL A   1      45.840  26.834  29.144  1.00  0.00     0.074 A 
ATOM     54  C   UNL A   1      46.296  25.524  28.725  1.00  0.00     0.031 C 
ATOM     55  C   UNL A   1      46.657  27.825  29.578  1.00  0.00     0.037 A 
BRANCH  42  56
ATOM     56  C   UNL A   1      43.741  33.087  31.026  1.00  0.00     0.058 A 
ATOM     57  C   UNL A   1      43.632  33.429  32.383  1.00  0.00     0.135 A 
ATOM     58  C   UNL A   1      43.986  34.124  30.110  1.00  0.00     0.135 A 
ATOM     59  F   UNL A   1      43.378  32.482  33.300  1.00  0.00    -0.206 F 
ATOM     60  C   UNL A   1      43.740  34.749  32.812  1.00  0.00     0.059 A 
ATOM     61  C   UNL A   1      44.127  35.447  30.519  1.00  0.00     0.059 A 
ATOM     62  F   UNL A   1      44.094  33.856  28.799  1.00  0.00    -0.206 F 
ATOM     63  C   UNL A   1      43.989  35.750  31.872  1.00  0.00     0.060 A 
BRANCH  63  64
ATOM     64  S   UNL A   1      44.133  37.456  32.445  1.00  0.00     0.124 S 
ATOM     65  O   UNL A   1      43.147  37.487  33.521  1.00  0.00    -0.237 OA
ATOM     66  O   UNL A   1      45.529  37.526  32.865  1.00  0.00    -0.237 OA
ATOM     67  O   UNL A   1      43.796  38.244  31.264  1.00  0.00    -0.744 OA
ENDBRANCH  63  64
ENDBRANCH  42  56
BRANCH  43  68
ATOM     68  C   UNL A   1      42.622  23.717  27.669  1.00  0.00     0.058 A 
ATOM     69  C   UNL A   1      42.496  22.611  28.522  1.00  0.00     0.135 A 
ATOM     70  C   UNL A   1      42.602  23.477  26.285  1.00  0.00     0.135 A 
ATOM     71  F   UNL A   1      42.524  22.782  29.853  1.00  0.00    -0.206 F 
ATOM     72  C   UNL A   1      42.370  21.317  28.024  1.00  0.00     0.059 A 
ATOM     73  C   UNL A   1      42.444  22.197  25.763  1.00  0.00     0.059 A 
ATOM     74  F   UNL A   1      42.715  24.499  25.422  1.00  0.00    -0.206 F 
ATOM     75  C   UNL A   1      42.341  21.120  26.642  1.00  0.00     0.060 A 
BRANCH  75  76
ATOM     76  S   UNL A   1      42.138  19.443  26.007  1.00  0.00     0.124 S 
ATOM     77  O   UNL A   1      43.000  19.467  24.831  1.00  0.00    -0.237 OA
ATOM     78  O   UNL A   1      42.610  18.633  27.126  1.00  0.00    -0.237 OA
ATOM     79  O   UNL A   1      40.706  19.354  25.738  1.00  0.00    -0.744 OA
ENDBRANCH  75  76
ENDBRANCH  43  68
BRANCH  55  80
ATOM     80  C   UNL A   1      48.129  27.521  29.662  1.00  0.00     0.058 A 
ATOM     81  C   UNL A   1      49.016  27.859  28.628  1.00  0.00     0.135 A 
ATOM     82  C   UNL A   1      48.665  26.930  30.818  1.00  0.00     0.135 A 
ATOM     83  F   UNL A   1      48.557  28.420  27.498  1.00  0.00    -0.206 F 
ATOM     84  C   UNL A   1      50.380  27.598  28.726  1.00  0.00     0.059 A 
ATOM     85  C   UNL A   1      50.030  26.691  30.951  1.00  0.00     0.059 A 
ATOM     86  F   UNL A   1      47.864  26.597  31.841  1.00  0.00    -0.206 F 
ATOM     87  C   UNL A   1      50.877  27.017  29.894  1.00  0.00     0.060 A 
BRANCH  87  88
ATOM     88  S   UNL A   1      52.653  26.716  30.022  1.00  0.00     0.124 S 
ATOM     89  O   UNL A   1      53.158  28.055  30.308  1.00  0.00    -0.237 OA
ATOM     90  O   UNL A   1      52.728  25.761  31.123  1.00  0.00    -0.237 OA
ATOM     91  O   UNL A   1      53.003  26.180  28.711  1.00  0.00    -0.744 OA
ENDBRANCH  87  88
ENDBRANCH  55  80
ENDBRANCH  29  30
ENDBRANCH  22  24
ENDBRANCH  21  22
ENDBRANCH   1  21
TORSDOF 15
ENDMDL
MODEL 2
REMARK VINA RESULT:     -11.0      5.143     10.597
REMARK SMILES Cc1c(Cl)cccc1-c1cccc(Cl)c1C(=O)OCCOC(=O)c1ccc(-c2c3nc(c(-c4c(F)cc(S(=O)(=O)[O-])cc4F)c4ccc([nH]4)c(-c4c(F)cc(S(=O)(=O)[O-])cc4F)c4nc(c(-c5c(F)cc(S(=O)(=O)[O-])cc5F)c5ccc2[nH]5)C=C4)C=C3)cc1
REMARK SMILES IDX 20 1 19 2 18 3 16 4 17 5 15 6 9 7 10 8 11 9 13 10 12 11
REMARK SMILES IDX 14 12 8 13 1 14 2 15 3 16 4 17 5 18 7 19 6 20 21 21 22 22
REMARK SMILES IDX 23 23 24 24 25 25 89 26 26 27 88 28 27 29 28 30 29 31 82 32
REMARK SMILES IDX 30 33 87 34 81 35 83 36 31 37 86 38 80 39 79 40 32 42 66 43
REMARK SMILES IDX 45 44 65 45 46 46 49 47 64 48 84 49 47 50 48 51 63 53 85 54
REMARK SMILES IDX 50 55 33 56 34 57 43 58 35 59 36 60 42 61 44 62 37 63 38 64
REMARK SMILES IDX 39 65 40 66 41 67 67 68 68 69 77 70 69 71 70 72 76 73 78 74
REMARK SMILES IDX 71 75 72 76 73 77 74 78 75 79 51 80 52 81 61 82 53 83 54 84
REMARK SMILES IDX 60 85 62 86 55 87 56 88 57 89 58 90 59 91
REMARK H PARENT 83 41 49 52
REMARK Flexibility Score: inf
ROOT
ATOM      1  C   UNL A   1      38.254  23.221  26.156  1.00  0.00     0.275 C 
ENDROOT
BRANCH   1   2
ATOM      2  C   UNL A   1      37.500  23.262  24.827  1.00  0.00     0.275 C 
BRANCH   2   3
ATOM      3  O   UNL A   1      36.085  23.081  25.035  1.00  0.00    -0.458 OA
BRANCH   3   4
ATOM      4  C   UNL A   1      35.327  22.817  23.939  1.00  0.00     0.340 C 
ATOM      5  O   UNL A   1      35.715  22.851  22.783  1.00  0.00    -0.246 OA
BRANCH   4   6
ATOM      6  C   UNL A   1      33.932  22.490  24.357  1.00  0.00     0.086 A 
ATOM      7  C   UNL A   1      32.897  23.456  24.242  1.00  0.00    -0.002 A 
ATOM      8  C   UNL A   1      31.655  23.164  24.852  1.00  0.00     0.010 A 
ATOM      9  C   UNL A   1      31.421  21.954  25.502  1.00  0.00     0.002 A 
ATOM     10  C   UNL A   1      33.629  21.213  24.865  1.00  0.00     0.056 A 
ATOM     11  C   UNL A   1      32.395  20.966  25.476  1.00  0.00     0.021 A 
ATOM     12  Cl  UNL A   1      34.686  19.848  24.729  1.00  0.00    -0.083 Cl
BRANCH   7  13
ATOM     13  C   UNL A   1      33.033  24.728  23.479  1.00  0.00    -0.013 A 
ATOM     14  C   UNL A   1      33.907  26.066  25.501  1.00  0.00     0.046 C 
ATOM     15  C   UNL A   1      33.478  25.953  24.055  1.00  0.00    -0.025 A 
ATOM     16  C   UNL A   1      33.486  27.116  23.255  1.00  0.00     0.044 A 
ATOM     17  Cl  UNL A   1      33.881  28.672  23.907  1.00  0.00    -0.084 Cl
ATOM     18  C   UNL A   1      33.158  27.068  21.899  1.00  0.00     0.021 A 
ATOM     19  C   UNL A   1      32.708  24.716  22.103  1.00  0.00     0.009 A 
ATOM     20  C   UNL A   1      32.786  25.865  21.318  1.00  0.00     0.002 A 
ENDBRANCH   7  13
ENDBRANCH   4   6
ENDBRANCH   3   4
ENDBRANCH   2   3
ENDBRANCH   1   2
BRANCH   1  21
ATOM     21  O   UNL A   1      38.767  24.526  26.475  1.00  0.00    -0.458 OA
BRANCH  21  22
ATOM     22  C   UNL A   1      40.071  24.542  26.842  1.00  0.00     0.338 C 
ATOM     23  O   UNL A   1      41.001  23.960  26.312  1.00  0.00    -0.246 OA
BRANCH  22  24
ATOM     24  C   UNL A   1      40.252  25.560  27.883  1.00  0.00     0.060 A 
ATOM     25  C   UNL A   1      39.263  25.638  28.857  1.00  0.00     0.016 A 
ATOM     26  C   UNL A   1      41.307  26.468  27.873  1.00  0.00     0.016 A 
ATOM     27  C   UNL A   1      39.308  26.622  29.836  1.00  0.00     0.010 A 
ATOM     28  C   UNL A   1      41.362  27.455  28.866  1.00  0.00     0.010 A 
ATOM     29  C   UNL A   1      40.359  27.543  29.852  1.00  0.00    -0.014 A 
BRANCH  29  30
ATOM     30  C   UNL A   1      40.343  28.641  30.851  1.00  0.00     0.031 A 
ATOM     31  C   UNL A   1      41.314  28.609  31.997  1.00  0.00     0.074 A 
ATOM     32  C   UNL A   1      39.505  29.686  30.705  1.00  0.00     0.049 A 
ATOM     33  N   UNL A   1      41.390  29.390  33.042  1.00  0.00    -0.248 NA
ATOM     34  C   UNL A   1      42.341  27.554  31.959  1.00  0.00     0.031 C 
ATOM     35  C   UNL A   1      38.580  29.879  29.586  1.00  0.00     0.029 A 
ATOM     36  N   UNL A   1      39.295  30.785  31.501  1.00  0.00    -0.354 N 
ATOM     37  C   UNL A   1      42.443  28.901  33.806  1.00  0.00     0.074 A 
ATOM     38  C   UNL A   1      42.973  27.750  33.106  1.00  0.00     0.031 C 
ATOM     39  C   UNL A   1      37.904  31.025  29.768  1.00  0.00     0.029 A 
ATOM     40  C   UNL A   1      38.293  31.611  31.047  1.00  0.00     0.049 A 
ATOM     41  H   UNL A   1      39.812  30.965  32.320  1.00  0.00     0.167 HD
ATOM     42  C   UNL A   1      42.920  29.372  34.982  1.00  0.00     0.037 A 
ATOM     43  C   UNL A   1      37.721  32.689  31.618  1.00  0.00     0.037 A 
ATOM     44  C   UNL A   1      42.395  30.535  35.653  1.00  0.00     0.049 A 
ATOM     45  C   UNL A   1      38.212  33.144  32.968  1.00  0.00     0.074 A 
ATOM     46  C   UNL A   1      42.806  31.096  36.850  1.00  0.00     0.029 A 
ATOM     47  N   UNL A   1      41.347  31.316  35.186  1.00  0.00    -0.354 N 
ATOM     48  N   UNL A   1      39.183  32.653  33.702  1.00  0.00    -0.248 NA
ATOM     49  C   UNL A   1      37.523  34.292  33.574  1.00  0.00     0.031 C 
ATOM     50  C   UNL A   1      41.970  32.181  37.135  1.00  0.00     0.029 A 
ATOM     51  C   UNL A   1      41.080  32.337  36.084  1.00  0.00     0.049 A 
ATOM     52  H   UNL A   1      40.865  31.166  34.341  1.00  0.00     0.167 HD
ATOM     53  C   UNL A   1      39.236  33.445  34.844  1.00  0.00     0.074 A 
ATOM     54  C   UNL A   1      38.210  34.457  34.696  1.00  0.00     0.031 C 
ATOM     55  C   UNL A   1      40.058  33.342  35.918  1.00  0.00     0.037 A 
BRANCH  42  56
ATOM     56  C   UNL A   1      44.028  28.603  35.647  1.00  0.00     0.058 A 
ATOM     57  C   UNL A   1      43.779  27.563  36.556  1.00  0.00     0.135 A 
ATOM     58  C   UNL A   1      45.369  28.897  35.343  1.00  0.00     0.135 A 
ATOM     59  F   UNL A   1      42.520  27.253  36.901  1.00  0.00    -0.206 F 
ATOM     60  C   UNL A   1      44.819  26.858  37.156  1.00  0.00     0.059 A 
ATOM     61  C   UNL A   1      46.422  28.185  35.907  1.00  0.00     0.059 A 
ATOM     62  F   UNL A   1      45.665  29.885  34.484  1.00  0.00    -0.206 F 
ATOM     63  C   UNL A   1      46.137  27.176  36.824  1.00  0.00     0.060 A 
BRANCH  63  64
ATOM     64  S   UNL A   1      47.473  26.246  37.606  1.00  0.00     0.124 S 
ATOM     65  O   UNL A   1      47.445  25.000  36.846  1.00  0.00    -0.237 OA
ATOM     66  O   UNL A   1      48.629  27.104  37.370  1.00  0.00    -0.237 OA
ATOM     67  O   UNL A   1      47.047  26.140  38.998  1.00  0.00    -0.744 OA
ENDBRANCH  63  64
ENDBRANCH  42  56
BRANCH  43  68
ATOM     68  C   UNL A   1      36.586  33.379  30.944  1.00  0.00     0.058 A 
ATOM     69  C   UNL A   1      35.268  33.234  31.402  1.00  0.00     0.135 A 
ATOM     70  C   UNL A   1      36.798  34.198  29.823  1.00  0.00     0.135 A 
ATOM     71  F   UNL A   1      35.007  32.452  32.461  1.00  0.00    -0.206 F 
ATOM     72  C   UNL A   1      34.201  33.862  30.765  1.00  0.00     0.059 A 
ATOM     73  C   UNL A   1      35.753  34.862  29.189  1.00  0.00     0.059 A 
ATOM     74  F   UNL A   1      38.039  34.375  29.344  1.00  0.00    -0.206 F 
ATOM     75  C   UNL A   1      34.454  34.678  29.661  1.00  0.00     0.060 A 
BRANCH  75  76
ATOM     76  S   UNL A   1      33.069  35.518  28.866  1.00  0.00     0.124 S 
ATOM     77  O   UNL A   1      32.477  34.437  28.086  1.00  0.00    -0.237 OA
ATOM     78  O   UNL A   1      32.290  35.977  30.012  1.00  0.00    -0.237 OA
ATOM     79  O   UNL A   1      33.714  36.575  28.092  1.00  0.00    -0.744 OA
ENDBRANCH  75  76
ENDBRANCH  43  68
BRANCH  55  80
ATOM     80  C   UNL A   1      39.913  34.375  37.003  1.00  0.00     0.058 A 
ATOM     81  C   UNL A   1      40.571  35.613  36.941  1.00  0.00     0.135 A 
ATOM     82  C   UNL A   1      39.060  34.141  38.094  1.00  0.00     0.135 A 
ATOM     83  F   UNL A   1      41.404  35.887  35.924  1.00  0.00    -0.206 F 
ATOM     84  C   UNL A   1      40.409  36.573  37.936  1.00  0.00     0.059 A 
ATOM     85  C   UNL A   1      38.857  35.100  39.082  1.00  0.00     0.059 A 
ATOM     86  F   UNL A   1      38.397  32.979  38.197  1.00  0.00    -0.206 F 
ATOM     87  C   UNL A   1      39.546  36.308  39.001  1.00  0.00     0.060 A 
BRANCH  87  88
ATOM     88  S   UNL A   1      39.319  37.576  40.266  1.00  0.00     0.124 S 
ATOM     89  O   UNL A   1      40.654  38.157  40.344  1.00  0.00    -0.237 OA
ATOM     90  O   UNL A   1      38.290  38.425  39.674  1.00  0.00    -0.237 OA
ATOM     91  O   UNL A   1      38.895  36.816  41.438  1.00  0.00    -0.744 OA
ENDBRANCH  87  88
ENDBRANCH  55  80
ENDBRANCH  29  30
ENDBRANCH  22  24
ENDBRANCH  21  22
ENDBRANCH   1  21
TORSDOF 15
ENDMDL
MODEL 3
REMARK VINA RESULT:     -11.0      2.483      3.567
REMARK SMILES Cc1c(Cl)cccc1-c1cccc(Cl)c1C(=O)OCCOC(=O)c1ccc(-c2c3nc(c(-c4c(F)cc(S(=O)(=O)[O-])cc4F)c4ccc([nH]4)c(-c4c(F)cc(S(=O)(=O)[O-])cc4F)c4nc(c(-c5c(F)cc(S(=O)(=O)[O-])cc5F)c5ccc2[nH]5)C=C4)C=C3)cc1
REMARK SMILES IDX 20 1 19 2 18 3 16 4 17 5 15 6 9 7 10 8 11 9 13 10 12 11
REMARK SMILES IDX 14 12 8 13 1 14 2 15 3 16 4 17 5 18 7 19 6 20 21 21 22 22
REMARK SMILES IDX 23 23 24 24 25 25 89 26 26 27 88 28 27 29 28 30 29 31 82 32
REMARK SMILES IDX 30 33 87 34 81 35 83 36 31 37 86 38 80 39 79 40 32 42 66 43
REMARK SMILES IDX 45 44 65 45 46 46 49 47 64 48 84 49 47 50 48 51 63 53 85 54
REMARK SMILES IDX 50 55 33 56 34 57 43 58 35 59 36 60 42 61 44 62 37 63 38 64
REMARK SMILES IDX 39 65 40 66 41 67 67 68 68 69 77 70 69 71 70 72 76 73 78 74
REMARK SMILES IDX 71 75 72 76 73 77 74 78 75 79 51 80 52 81 61 82 53 83 54 84
REMARK SMILES IDX 60 85 62 86 55 87 56 88 57 89 58 90 59 91
REMARK H PARENT 83 41 49 52
REMARK Flexibility Score: inf
ROOT
ATOM      1  C   UNL A   1      34.351  30.260  27.762  1.00  0.00     0.275 C 
ENDROOT
BRANCH   1   2
ATOM      2  C   UNL A   1      34.284  29.261  26.607  1.00  0.00     0.275 C 
BRANCH   2   3
ATOM      3  O   UNL A   1      33.581  28.066  27.002  1.00  0.00    -0.458 OA
BRANCH   3   4
ATOM      4  C   UNL A   1      32.224  28.115  26.996  1.00  0.00     0.340 C 
ATOM      5  O   UNL A   1      31.512  28.184  27.986  1.00  0.00    -0.246 OA
BRANCH   4   6
ATOM      6  C   UNL A   1      31.721  28.056  25.592  1.00  0.00     0.086 A 
ATOM      7  C   UNL A   1      31.581  26.810  24.926  1.00  0.00    -0.002 A 
ATOM      8  C   UNL A   1      31.312  26.834  23.537  1.00  0.00     0.010 A 
ATOM      9  C   UNL A   1      31.137  28.029  22.842  1.00  0.00     0.002 A 
ATOM     10  C   UNL A   1      31.377  29.242  24.916  1.00  0.00     0.056 A 
ATOM     11  C   UNL A   1      31.133  29.229  23.539  1.00  0.00     0.021 A 
ATOM     12  Cl  UNL A   1      31.158  30.768  25.704  1.00  0.00    -0.083 Cl
BRANCH   7  13
ATOM     13  C   UNL A   1      31.651  25.491  25.613  1.00  0.00    -0.013 A 
ATOM     14  C   UNL A   1      34.204  25.271  25.331  1.00  0.00     0.046 C 
ATOM     15  C   UNL A   1      32.858  24.754  25.789  1.00  0.00    -0.025 A 
ATOM     16  C   UNL A   1      32.793  23.473  26.381  1.00  0.00     0.044 A 
ATOM     17  Cl  UNL A   1      34.186  22.452  26.509  1.00  0.00    -0.084 Cl
ATOM     18  C   UNL A   1      31.592  22.963  26.876  1.00  0.00     0.021 A 
ATOM     19  C   UNL A   1      30.454  24.943  26.126  1.00  0.00     0.009 A 
ATOM     20  C   UNL A   1      30.425  23.705  26.766  1.00  0.00     0.002 A 
ENDBRANCH   7  13
ENDBRANCH   4   6
ENDBRANCH   3   4
ENDBRANCH   2   3
ENDBRANCH   1   2
BRANCH   1  21
ATOM     21  O   UNL A   1      35.269  29.795  28.765  1.00  0.00    -0.458 OA
BRANCH  21  22
ATOM     22  C   UNL A   1      36.231  30.688  29.102  1.00  0.00     0.338 C 
ATOM     23  O   UNL A   1      36.096  31.738  29.704  1.00  0.00    -0.246 OA
BRANCH  22  24
ATOM     24  C   UNL A   1      37.543  30.095  28.811  1.00  0.00     0.060 A 
ATOM     25  C   UNL A   1      38.387  29.888  29.897  1.00  0.00     0.016 A 
ATOM     26  C   UNL A   1      37.976  29.823  27.516  1.00  0.00     0.016 A 
ATOM     27  C   UNL A   1      39.676  29.407  29.709  1.00  0.00     0.010 A 
ATOM     28  C   UNL A   1      39.272  29.326  27.325  1.00  0.00     0.010 A 
ATOM     29  C   UNL A   1      40.135  29.121  28.420  1.00  0.00    -0.014 A 
BRANCH  29  30
ATOM     30  C   UNL A   1      41.543  28.692  28.233  1.00  0.00     0.031 A 
ATOM     31  C   UNL A   1      42.644  29.710  28.333  1.00  0.00     0.074 A 
ATOM     32  C   UNL A   1      41.841  27.393  28.030  1.00  0.00     0.049 A 
ATOM     33  N   UNL A   1      43.919  29.580  28.083  1.00  0.00    -0.248 NA
ATOM     34  C   UNL A   1      42.252  31.058  28.778  1.00  0.00     0.031 C 
ATOM     35  C   UNL A   1      40.871  26.297  28.006  1.00  0.00     0.029 A 
ATOM     36  N   UNL A   1      43.047  26.774  27.807  1.00  0.00    -0.354 N 
ATOM     37  C   UNL A   1      44.479  30.833  28.300  1.00  0.00     0.074 A 
ATOM     38  C   UNL A   1      43.401  31.714  28.696  1.00  0.00     0.031 C 
ATOM     39  C   UNL A   1      41.519  25.143  27.780  1.00  0.00     0.029 A 
ATOM     40  C   UNL A   1      42.936  25.423  27.574  1.00  0.00     0.049 A 
ATOM     41  H   UNL A   1      43.907  27.252  27.813  1.00  0.00     0.167 HD
ATOM     42  C   UNL A   1      45.774  31.210  28.177  1.00  0.00     0.037 A 
ATOM     43  C   UNL A   1      43.863  24.522  27.190  1.00  0.00     0.037 A 
ATOM     44  C   UNL A   1      46.838  30.314  27.805  1.00  0.00     0.049 A 
ATOM     45  C   UNL A   1      45.282  24.984  26.978  1.00  0.00     0.074 A 
ATOM     46  C   UNL A   1      48.185  30.595  27.651  1.00  0.00     0.029 A 
ATOM     47  N   UNL A   1      46.680  28.963  27.528  1.00  0.00    -0.354 N 
ATOM     48  N   UNL A   1      45.795  26.179  27.148  1.00  0.00    -0.248 NA
ATOM     49  C   UNL A   1      46.245  23.978  26.511  1.00  0.00     0.031 C 
ATOM     50  C   UNL A   1      48.830  29.429  27.227  1.00  0.00     0.029 A 
ATOM     51  C   UNL A   1      47.899  28.404  27.178  1.00  0.00     0.049 A 
ATOM     52  H   UNL A   1      45.826  28.474  27.574  1.00  0.00     0.167 HD
ATOM     53  C   UNL A   1      47.145  26.064  26.831  1.00  0.00     0.074 A 
ATOM     54  C   UNL A   1      47.370  24.678  26.475  1.00  0.00     0.031 C 
ATOM     55  C   UNL A   1      48.108  27.019  26.833  1.00  0.00     0.037 A 
BRANCH  42  56
ATOM     56  C   UNL A   1      46.104  32.662  28.395  1.00  0.00     0.058 A 
ATOM     57  C   UNL A   1      46.031  33.611  27.364  1.00  0.00     0.135 A 
ATOM     58  C   UNL A   1      46.475  33.113  29.674  1.00  0.00     0.135 A 
ATOM     59  F   UNL A   1      45.703  33.233  26.119  1.00  0.00    -0.206 F 
ATOM     60  C   UNL A   1      46.334  34.951  27.587  1.00  0.00     0.059 A 
ATOM     61  C   UNL A   1      46.752  34.453  29.926  1.00  0.00     0.059 A 
ATOM     62  F   UNL A   1      46.566  32.248  30.696  1.00  0.00    -0.206 F 
ATOM     63  C   UNL A   1      46.693  35.363  28.872  1.00  0.00     0.060 A 
BRANCH  63  64
ATOM     64  S   UNL A   1      47.075  37.106  29.145  1.00  0.00     0.124 S 
ATOM     65  O   UNL A   1      46.497  37.721  27.955  1.00  0.00    -0.237 OA
ATOM     66  O   UNL A   1      46.384  37.383  30.400  1.00  0.00    -0.237 OA
ATOM     67  O   UNL A   1      48.533  37.129  29.216  1.00  0.00    -0.744 OA
ENDBRANCH  63  64
ENDBRANCH  42  56
BRANCH  43  68
ATOM     68  C   UNL A   1      43.471  23.109  26.930  1.00  0.00     0.058 A 
ATOM     69  C   UNL A   1      43.394  22.601  25.625  1.00  0.00     0.135 A 
ATOM     70  C   UNL A   1      43.161  22.237  27.987  1.00  0.00     0.135 A 
ATOM     71  F   UNL A   1      43.666  23.397  24.578  1.00  0.00    -0.206 F 
ATOM     72  C   UNL A   1      43.010  21.287  25.375  1.00  0.00     0.059 A 
ATOM     73  C   UNL A   1      42.806  20.910  27.764  1.00  0.00     0.059 A 
ATOM     74  F   UNL A   1      43.221  22.668  29.256  1.00  0.00    -0.206 F 
ATOM     75  C   UNL A   1      42.722  20.447  26.452  1.00  0.00     0.060 A 
BRANCH  75  76
ATOM     76  S   UNL A   1      42.263  18.733  26.119  1.00  0.00     0.124 S 
ATOM     77  O   UNL A   1      43.176  18.390  25.035  1.00  0.00    -0.237 OA
ATOM     78  O   UNL A   1      42.527  18.091  27.402  1.00  0.00    -0.237 OA
ATOM     79  O   UNL A   1      40.853  18.827  25.751  1.00  0.00    -0.744 OA
ENDBRANCH  75  76
ENDBRANCH  43  68
BRANCH  55  80
ATOM     80  C   UNL A   1      49.507  26.592  26.478  1.00  0.00     0.058 A 
ATOM     81  C   UNL A   1      50.362  25.997  27.419  1.00  0.00     0.135 A 
ATOM     82  C   UNL A   1      49.978  26.734  25.162  1.00  0.00     0.135 A 
ATOM     83  F   UNL A   1      49.965  25.842  28.692  1.00  0.00    -0.206 F 
ATOM     84  C   UNL A   1      51.645  25.580  27.074  1.00  0.00     0.059 A 
ATOM     85  C   UNL A   1      51.244  26.294  24.788  1.00  0.00     0.059 A 
ATOM     86  F   UNL A   1      49.199  27.287  24.220  1.00  0.00    -0.206 F 
ATOM     87  C   UNL A   1      52.075  25.730  25.754  1.00  0.00     0.060 A 
BRANCH  87  88
ATOM     88  S   UNL A   1      53.728  25.154  25.313  1.00  0.00     0.124 S 
ATOM     89  O   UNL A   1      54.537  25.734  26.380  1.00  0.00    -0.237 OA
ATOM     90  O   UNL A   1      53.573  23.703  25.352  1.00  0.00    -0.237 OA
ATOM     91  O   UNL A   1      53.943  25.718  23.984  1.00  0.00    -0.744 OA
ENDBRANCH  87  88
ENDBRANCH  55  80
ENDBRANCH  29  30
ENDBRANCH  22  24
ENDBRANCH  21  22
ENDBRANCH   1  21
TORSDOF 15
ENDMDL
