MODEL 1
REMARK VINA RESULT:     -11.9      0.000      0.000
REMARK SMILES O=C(CCOc1cc(-c2ccncc2)nc(-c2ccc(C(F)(F)F)cc2)n1)OCCOC(=O)c1ccc(-c2c3nc(c(-c4c(F)cc(S(=O)(=O)[O-])cc4F)c4ccc([nH]4)c(-c4c(F)cc(S(=O)(=O)[O-])cc4F)c4nc(c(-c5c(F)cc(S(=O)(=O)[O-])cc5F)c5ccc2[nH]5)C=C4)C=C3)cc1
REMARK SMILES IDX 29 1 28 2 2 3 1 4 3 5 4 6 5 7 6 8 7 9 27 10 8 11 16 12 15 13
REMARK SMILES IDX 9 14 10 15 14 16 11 17 13 18 12 19 17 20 18 21 26 22 19 23
REMARK SMILES IDX 25 24 20 25 21 26 22 27 23 28 24 29 30 30 31 31 32 32 33 33
REMARK SMILES IDX 34 34 35 35 99 36 36 37 98 38 37 39 38 40 39 41 92 42 40 43
REMARK SMILES IDX 97 44 91 45 93 46 41 47 96 48 90 49 89 50 42 52 76 53 55 54
REMARK SMILES IDX 75 55 56 56 59 57 74 58 94 59 57 60 58 61 73 63 95 64 60 65
REMARK SMILES IDX 43 66 44 67 53 68 45 69 46 70 52 71 54 72 47 73 48 74 49 75
REMARK SMILES IDX 50 76 51 77 77 78 78 79 87 80 79 81 80 82 86 83 88 84 81 85
REMARK SMILES IDX 82 86 83 87 84 88 85 89 61 90 62 91 71 92 63 93 64 94 70 95
REMARK SMILES IDX 72 96 65 97 66 98 67 99 68 100 69 101
REMARK H PARENT 93 51 59 62
REMARK Flexibility Score: inf
ROOT
ATOM      1  C   UNL A   1      43.098  22.065  25.534  1.00  0.00     0.274 C 
ENDROOT
BRANCH   1   2
ATOM      2  O   UNL A   1      41.725  21.619  25.527  1.00  0.00    -0.462 OA
BRANCH   2   3
ATOM      3  C   UNL A   1      40.960  21.357  26.611  1.00  0.00     0.309 C 
ATOM      4  O   UNL A   1      41.068  20.274  27.185  1.00  0.00    -0.252 OA
BRANCH   3   5
ATOM      5  C   UNL A   1      40.123  22.443  27.218  1.00  0.00     0.164 C 
BRANCH   5   6
ATOM      6  C   UNL A   1      38.869  22.655  26.374  1.00  0.00     0.243 C 
BRANCH   6   7
ATOM      7  O   UNL A   1      38.422  21.467  25.721  1.00  0.00    -0.477 OA
BRANCH   7   8
ATOM      8  C   UNL A   1      37.130  21.362  25.300  1.00  0.00     0.217 A 
ATOM      9  C   UNL A   1      36.519  20.233  24.820  1.00  0.00     0.097 A 
ATOM     10  N   UNL A   1      36.456  22.503  25.457  1.00  0.00    -0.193 NA
ATOM     11  C   UNL A   1      35.137  20.245  24.801  1.00  0.00     0.078 A 
ATOM     12  C   UNL A   1      35.146  22.484  25.160  1.00  0.00     0.163 A 
ATOM     13  N   UNL A   1      34.422  21.373  24.952  1.00  0.00    -0.228 NA
BRANCH  11  14
ATOM     14  C   UNL A   1      34.397  18.981  24.753  1.00  0.00     0.003 A 
ATOM     15  C   UNL A   1      33.085  18.924  25.245  1.00  0.00     0.030 A 
ATOM     16  C   UNL A   1      34.996  17.788  24.345  1.00  0.00     0.030 A 
ATOM     17  C   UNL A   1      32.446  17.698  25.319  1.00  0.00     0.111 A 
ATOM     18  C   UNL A   1      34.267  16.612  24.442  1.00  0.00     0.111 A 
ATOM     19  N   UNL A   1      33.004  16.540  24.911  1.00  0.00    -0.265 NA
ENDBRANCH  11  14
BRANCH  12  20
ATOM     20  C   UNL A   1      34.594  23.750  24.667  1.00  0.00     0.019 A 
ATOM     21  C   UNL A   1      34.500  24.833  25.564  1.00  0.00     0.012 A 
ATOM     22  C   UNL A   1      34.245  23.970  23.329  1.00  0.00     0.012 A 
ATOM     23  C   UNL A   1      34.098  26.096  25.144  1.00  0.00     0.014 A 
ATOM     24  C   UNL A   1      33.822  25.238  22.903  1.00  0.00     0.014 A 
ATOM     25  C   UNL A   1      33.759  26.313  23.805  1.00  0.00     0.056 A 
BRANCH  25  26
ATOM     26  C   UNL A   1      33.363  27.701  23.371  1.00  0.00     0.416 C 
ATOM     27  F   UNL A   1      33.472  27.879  22.025  1.00  0.00    -0.166 F 
ATOM     28  F   UNL A   1      32.068  27.991  23.679  1.00  0.00    -0.166 F 
ATOM     29  F   UNL A   1      34.109  28.689  23.939  1.00  0.00    -0.166 F 
ENDBRANCH  25  26
ENDBRANCH  12  20
ENDBRANCH   7   8
ENDBRANCH   6   7
ENDBRANCH   5   6
ENDBRANCH   3   5
ENDBRANCH   2   3
ENDBRANCH   1   2
BRANCH   1  30
ATOM     30  C   UNL A   1      43.159  23.532  25.119  1.00  0.00     0.275 C 
BRANCH  30  31
ATOM     31  O   UNL A   1      42.892  24.356  26.265  1.00  0.00    -0.458 OA
BRANCH  31  32
ATOM     32  C   UNL A   1      42.095  25.431  26.016  1.00  0.00     0.338 C 
ATOM     33  O   UNL A   1      41.421  25.623  25.023  1.00  0.00    -0.246 OA
BRANCH  32  34
ATOM     34  C   UNL A   1      42.001  26.232  27.257  1.00  0.00     0.060 A 
ATOM     35  C   UNL A   1      40.990  25.914  28.174  1.00  0.00     0.016 A 
ATOM     36  C   UNL A   1      42.913  27.253  27.538  1.00  0.00     0.016 A 
ATOM     37  C   UNL A   1      40.875  26.630  29.362  1.00  0.00     0.010 A 
ATOM     38  C   UNL A   1      42.785  27.986  28.717  1.00  0.00     0.010 A 
ATOM     39  C   UNL A   1      41.745  27.697  29.616  1.00  0.00    -0.014 A 
BRANCH  39  40
ATOM     40  C   UNL A   1      41.414  28.657  30.689  1.00  0.00     0.031 A 
ATOM     41  C   UNL A   1      42.227  28.595  31.953  1.00  0.00     0.074 A 
ATOM     42  C   UNL A   1      40.435  29.566  30.541  1.00  0.00     0.049 A 
ATOM     43  N   UNL A   1      42.138  29.323  33.033  1.00  0.00    -0.248 NA
ATOM     44  C   UNL A   1      43.282  27.567  32.001  1.00  0.00     0.031 C 
ATOM     45  C   UNL A   1      39.594  29.722  29.354  1.00  0.00     0.029 A 
ATOM     46  N   UNL A   1      39.978  30.526  31.406  1.00  0.00    -0.354 N 
ATOM     47  C   UNL A   1      43.140  28.858  33.878  1.00  0.00     0.074 A 
ATOM     48  C   UNL A   1      43.789  27.753  33.209  1.00  0.00     0.031 C 
ATOM     49  C   UNL A   1      38.706  30.708  29.578  1.00  0.00     0.029 A 
ATOM     50  C   UNL A   1      38.912  31.245  30.922  1.00  0.00     0.049 A 
ATOM     51  H   UNL A   1      40.378  30.686  32.292  1.00  0.00     0.167 HD
ATOM     52  C   UNL A   1      43.500  29.325  35.096  1.00  0.00     0.037 A 
ATOM     53  C   UNL A   1      38.185  32.216  31.509  1.00  0.00     0.037 A 
ATOM     54  C   UNL A   1      42.830  30.403  35.769  1.00  0.00     0.049 A 
ATOM     55  C   UNL A   1      38.568  32.682  32.891  1.00  0.00     0.074 A 
ATOM     56  C   UNL A   1      43.093  30.939  37.016  1.00  0.00     0.029 A 
ATOM     57  N   UNL A   1      41.753  31.106  35.248  1.00  0.00    -0.354 N 
ATOM     58  N   UNL A   1      39.535  32.254  33.669  1.00  0.00    -0.248 NA
ATOM     59  C   UNL A   1      37.773  33.773  33.469  1.00  0.00     0.031 C 
ATOM     60  C   UNL A   1      42.154  31.947  37.263  1.00  0.00     0.029 A 
ATOM     61  C   UNL A   1      41.334  32.066  36.152  1.00  0.00     0.049 A 
ATOM     62  H   UNL A   1      41.347  30.946  34.365  1.00  0.00     0.167 HD
ATOM     63  C   UNL A   1      39.479  33.039  34.816  1.00  0.00     0.074 A 
ATOM     64  C   UNL A   1      38.393  33.979  34.623  1.00  0.00     0.031 C 
ATOM     65  C   UNL A   1      40.251  32.992  35.931  1.00  0.00     0.037 A 
BRANCH  52  66
ATOM     66  C   UNL A   1      44.666  28.658  35.767  1.00  0.00     0.058 A 
ATOM     67  C   UNL A   1      45.984  29.086  35.533  1.00  0.00     0.135 A 
ATOM     68  C   UNL A   1      44.471  27.587  36.651  1.00  0.00     0.135 A 
ATOM     69  F   UNL A   1      46.227  30.088  34.675  1.00  0.00    -0.206 F 
ATOM     70  C   UNL A   1      47.069  28.461  36.137  1.00  0.00     0.059 A 
ATOM     71  C   UNL A   1      45.541  26.962  37.286  1.00  0.00     0.059 A 
ATOM     72  F   UNL A   1      43.232  27.132  36.899  1.00  0.00    -0.206 F 
ATOM     73  C   UNL A   1      46.836  27.398  37.012  1.00  0.00     0.060 A 
BRANCH  73  74
ATOM     74  S   UNL A   1      48.255  26.599  37.792  1.00  0.00     0.124 S 
ATOM     75  O   UNL A   1      47.599  25.660  38.697  1.00  0.00    -0.237 OA
ATOM     76  O   UNL A   1      48.945  26.004  36.653  1.00  0.00    -0.237 OA
ATOM     77  O   UNL A   1      48.955  27.705  38.438  1.00  0.00    -0.744 OA
ENDBRANCH  73  74
ENDBRANCH  52  66
BRANCH  53  78
ATOM     78  C   UNL A   1      37.021  32.812  30.800  1.00  0.00     0.058 A 
ATOM     79  C   UNL A   1      37.188  33.813  29.833  1.00  0.00     0.135 A 
ATOM     80  C   UNL A   1      35.711  32.402  31.095  1.00  0.00     0.135 A 
ATOM     81  F   UNL A   1      38.420  34.245  29.523  1.00  0.00    -0.206 F 
ATOM     82  C   UNL A   1      36.100  34.406  29.199  1.00  0.00     0.059 A 
ATOM     83  C   UNL A   1      34.608  32.962  30.457  1.00  0.00     0.059 A 
ATOM     84  F   UNL A   1      35.495  31.437  32.003  1.00  0.00    -0.206 F 
ATOM     85  C   UNL A   1      34.812  33.973  29.520  1.00  0.00     0.060 A 
BRANCH  85  86
ATOM     86  S   UNL A   1      33.405  34.721  28.669  1.00  0.00     0.124 S 
ATOM     87  O   UNL A   1      32.498  34.988  29.779  1.00  0.00    -0.237 OA
ATOM     88  O   UNL A   1      34.011  35.892  28.042  1.00  0.00    -0.237 OA
ATOM     89  O   UNL A   1      32.981  33.675  27.743  1.00  0.00    -0.744 OA
ENDBRANCH  85  86
ENDBRANCH  53  78
BRANCH  65  90
ATOM     90  C   UNL A   1      39.969  34.001  37.007  1.00  0.00     0.058 A 
ATOM     91  C   UNL A   1      39.191  33.682  38.131  1.00  0.00     0.135 A 
ATOM     92  C   UNL A   1      40.512  35.294  36.930  1.00  0.00     0.135 A 
ATOM     93  F   UNL A   1      38.647  32.461  38.251  1.00  0.00    -0.206 F 
ATOM     94  C   UNL A   1      38.933  34.620  39.125  1.00  0.00     0.059 A 
ATOM     95  C   UNL A   1      40.290  36.240  37.925  1.00  0.00     0.059 A 
ATOM     96  F   UNL A   1      41.277  35.645  35.883  1.00  0.00    -0.206 F 
ATOM     97  C   UNL A   1      39.485  35.899  39.011  1.00  0.00     0.060 A 
BRANCH  97  98
ATOM     98  S   UNL A   1      39.152  37.106  40.310  1.00  0.00     0.124 S 
ATOM     99  O   UNL A   1      38.532  38.188  39.553  1.00  0.00    -0.237 OA
ATOM    100  O   UNL A   1      38.265  36.369  41.205  1.00  0.00    -0.237 OA
ATOM    101  O   UNL A   1      40.477  37.395  40.851  1.00  0.00    -0.744 OA
ENDBRANCH  97  98
ENDBRANCH  65  90
ENDBRANCH  39  40
ENDBRANCH  32  34
ENDBRANCH  31  32
ENDBRANCH  30  31
ENDBRANCH   1  30
TORSDOF 20
ENDMDL
MODEL 2
REMARK VINA RESULT:     -11.5      2.500      3.979
REMARK SMILES O=C(CCOc1cc(-c2ccncc2)nc(-c2ccc(C(F)(F)F)cc2)n1)OCCOC(=O)c1ccc(-c2c3nc(c(-c4c(F)cc(S(=O)(=O)[O-])cc4F)c4ccc([nH]4)c(-c4c(F)cc(S(=O)(=O)[O-])cc4F)c4nc(c(-c5c(F)cc(S(=O)(=O)[O-])cc5F)c5ccc2[nH]5)C=C4)C=C3)cc1
REMARK SMILES IDX 29 1 28 2 2 3 1 4 3 5 4 6 5 7 6 8 7 9 27 10 8 11 16 12 15 13
REMARK SMILES IDX 9 14 10 15 14 16 11 17 13 18 12 19 17 20 18 21 26 22 19 23
REMARK SMILES IDX 25 24 20 25 21 26 22 27 23 28 24 29 30 30 31 31 32 32 33 33
REMARK SMILES IDX 34 34 35 35 99 36 36 37 98 38 37 39 38 40 39 41 92 42 40 43
REMARK SMILES IDX 97 44 91 45 93 46 41 47 96 48 90 49 89 50 42 52 76 53 55 54
REMARK SMILES IDX 75 55 56 56 59 57 74 58 94 59 57 60 58 61 73 63 95 64 60 65
REMARK SMILES IDX 43 66 44 67 53 68 45 69 46 70 52 71 54 72 47 73 48 74 49 75
REMARK SMILES IDX 50 76 51 77 77 78 78 79 87 80 79 81 80 82 86 83 88 84 81 85
REMARK SMILES IDX 82 86 83 87 84 88 85 89 61 90 62 91 71 92 63 93 64 94 70 95
REMARK SMILES IDX 72 96 65 97 66 98 67 99 68 100 69 101
REMARK H PARENT 93 51 59 62
REMARK Flexibility Score: inf
ROOT
ATOM      1  C   UNL A   1      43.073  21.211  25.968  1.00  0.00     0.274 C 
ENDROOT
BRANCH   1   2
ATOM      2  O   UNL A   1      41.660  21.428  25.773  1.00  0.00    -0.462 OA
BRANCH   2   3
ATOM      3  C   UNL A   1      40.694  21.326  26.713  1.00  0.00     0.309 C 
ATOM      4  O   UNL A   1      40.788  20.470  27.592  1.00  0.00    -0.252 OA
BRANCH   3   5
ATOM      5  C   UNL A   1      39.613  22.363  26.794  1.00  0.00     0.164 C 
BRANCH   5   6
ATOM      6  C   UNL A   1      38.559  22.088  25.725  1.00  0.00     0.243 C 
BRANCH   6   7
ATOM      7  O   UNL A   1      37.680  23.192  25.505  1.00  0.00    -0.477 OA
BRANCH   7   8
ATOM      8  C   UNL A   1      36.331  23.018  25.581  1.00  0.00     0.217 A 
ATOM      9  C   UNL A   1      35.429  23.879  26.148  1.00  0.00     0.097 A 
ATOM     10  N   UNL A   1      35.933  21.901  24.969  1.00  0.00    -0.193 NA
ATOM     11  C   UNL A   1      34.104  23.701  25.796  1.00  0.00     0.078 A 
ATOM     12  C   UNL A   1      34.610  21.679  24.901  1.00  0.00     0.163 A 
ATOM     13  N   UNL A   1      33.664  22.589  25.182  1.00  0.00    -0.228 NA
BRANCH  11  14
ATOM     14  C   UNL A   1      33.150  24.801  25.961  1.00  0.00     0.003 A 
ATOM     15  C   UNL A   1      31.775  24.529  25.999  1.00  0.00     0.030 A 
ATOM     16  C   UNL A   1      33.554  26.137  25.959  1.00  0.00     0.030 A 
ATOM     17  C   UNL A   1      30.880  25.585  26.019  1.00  0.00     0.111 A 
ATOM     18  C   UNL A   1      32.581  27.125  25.997  1.00  0.00     0.111 A 
ATOM     19  N   UNL A   1      31.254  26.880  26.036  1.00  0.00    -0.265 NA
ENDBRANCH  11  14
BRANCH  12  20
ATOM     20  C   UNL A   1      34.208  20.269  24.896  1.00  0.00     0.019 A 
ATOM     21  C   UNL A   1      35.176  19.299  24.567  1.00  0.00     0.012 A 
ATOM     22  C   UNL A   1      32.940  19.826  25.293  1.00  0.00     0.012 A 
ATOM     23  C   UNL A   1      34.904  17.938  24.653  1.00  0.00     0.014 A 
ATOM     24  C   UNL A   1      32.655  18.455  25.365  1.00  0.00     0.014 A 
ATOM     25  C   UNL A   1      33.640  17.501  25.059  1.00  0.00     0.056 A 
BRANCH  25  26
ATOM     26  C   UNL A   1      33.386  16.020  25.179  1.00  0.00     0.416 C 
ATOM     27  F   UNL A   1      32.418  15.728  26.091  1.00  0.00    -0.166 F 
ATOM     28  F   UNL A   1      32.966  15.469  24.005  1.00  0.00    -0.166 F 
ATOM     29  F   UNL A   1      34.481  15.303  25.555  1.00  0.00    -0.166 F 
ENDBRANCH  25  26
ENDBRANCH  12  20
ENDBRANCH   7   8
ENDBRANCH   6   7
ENDBRANCH   5   6
ENDBRANCH   3   5
ENDBRANCH   2   3
ENDBRANCH   1   2
BRANCH   1  30
ATOM     30  C   UNL A   1      43.794  22.555  26.014  1.00  0.00     0.275 C 
BRANCH  30  31
ATOM     31  O   UNL A   1      42.904  23.546  26.551  1.00  0.00    -0.458 OA
BRANCH  31  32
ATOM     32  C   UNL A   1      43.104  24.805  26.072  1.00  0.00     0.338 C 
ATOM     33  O   UNL A   1      43.495  25.108  24.963  1.00  0.00    -0.246 OA
BRANCH  32  34
ATOM     34  C   UNL A   1      42.548  25.764  27.054  1.00  0.00     0.060 A 
ATOM     35  C   UNL A   1      43.098  27.052  27.104  1.00  0.00     0.016 A 
ATOM     36  C   UNL A   1      41.479  25.420  27.886  1.00  0.00     0.016 A 
ATOM     37  C   UNL A   1      42.595  27.991  28.000  1.00  0.00     0.010 A 
ATOM     38  C   UNL A   1      40.991  26.351  28.800  1.00  0.00     0.010 A 
ATOM     39  C   UNL A   1      41.569  27.628  28.881  1.00  0.00    -0.014 A 
BRANCH  39  40
ATOM     40  C   UNL A   1      41.277  28.495  30.042  1.00  0.00     0.031 A 
ATOM     41  C   UNL A   1      42.118  28.314  31.275  1.00  0.00     0.074 A 
ATOM     42  C   UNL A   1      40.307  29.424  29.997  1.00  0.00     0.049 A 
ATOM     43  N   UNL A   1      42.065  28.946  32.417  1.00  0.00    -0.248 NA
ATOM     44  C   UNL A   1      43.159  27.273  31.209  1.00  0.00     0.031 C 
ATOM     45  C   UNL A   1      39.441  29.693  28.849  1.00  0.00     0.029 A 
ATOM     46  N   UNL A   1      39.884  30.311  30.953  1.00  0.00    -0.354 N 
ATOM     47  C   UNL A   1      43.079  28.398  33.193  1.00  0.00     0.074 A 
ATOM     48  C   UNL A   1      43.697  27.348  32.415  1.00  0.00     0.031 C 
ATOM     49  C   UNL A   1      38.572  30.666  29.179  1.00  0.00     0.029 A 
ATOM     50  C   UNL A   1      38.816  31.081  30.559  1.00  0.00     0.049 A 
ATOM     51  H   UNL A   1      40.306  30.389  31.840  1.00  0.00     0.167 HD
ATOM     52  C   UNL A   1      43.474  28.753  34.437  1.00  0.00     0.037 A 
ATOM     53  C   UNL A   1      38.117  32.006  31.246  1.00  0.00     0.037 A 
ATOM     54  C   UNL A   1      42.834  29.776  35.218  1.00  0.00     0.049 A 
ATOM     55  C   UNL A   1      38.538  32.346  32.653  1.00  0.00     0.074 A 
ATOM     56  C   UNL A   1      43.134  30.199  36.499  1.00  0.00     0.029 A 
ATOM     57  N   UNL A   1      41.756  30.535  34.786  1.00  0.00    -0.354 N 
ATOM     58  N   UNL A   1      39.517  31.841  33.368  1.00  0.00    -0.248 NA
ATOM     59  C   UNL A   1      37.771  33.392  33.343  1.00  0.00     0.031 C 
ATOM     60  C   UNL A   1      42.215  31.193  36.856  1.00  0.00     0.029 A 
ATOM     61  C   UNL A   1      41.370  31.417  35.779  1.00  0.00     0.049 A 
ATOM     62  H   UNL A   1      41.327  30.457  33.903  1.00  0.00     0.167 HD
ATOM     63  C   UNL A   1      39.498  32.524  34.579  1.00  0.00     0.074 A 
ATOM     64  C   UNL A   1      38.422  33.490  34.494  1.00  0.00     0.031 C 
ATOM     65  C   UNL A   1      40.296  32.371  35.666  1.00  0.00     0.037 A 
BRANCH  52  66
ATOM     66  C   UNL A   1      44.646  28.017  35.020  1.00  0.00     0.058 A 
ATOM     67  C   UNL A   1      45.959  28.487  34.849  1.00  0.00     0.135 A 
ATOM     68  C   UNL A   1      44.462  26.838  35.755  1.00  0.00     0.135 A 
ATOM     69  F   UNL A   1      46.192  29.596  34.130  1.00  0.00    -0.206 F 
ATOM     70  C   UNL A   1      47.051  27.800  35.370  1.00  0.00     0.059 A 
ATOM     71  C   UNL A   1      45.537  26.146  36.306  1.00  0.00     0.059 A 
ATOM     72  F   UNL A   1      43.228  26.340  35.937  1.00  0.00    -0.206 F 
ATOM     73  C   UNL A   1      46.828  26.629  36.096  1.00  0.00     0.060 A 
BRANCH  73  74
ATOM     74  S   UNL A   1      48.254  25.750  36.770  1.00  0.00     0.124 S 
ATOM     75  O   UNL A   1      48.771  25.079  35.581  1.00  0.00    -0.237 OA
ATOM     76  O   UNL A   1      49.075  26.838  37.292  1.00  0.00    -0.237 OA
ATOM     77  O   UNL A   1      47.666  24.873  37.778  1.00  0.00    -0.744 OA
ENDBRANCH  73  74
ENDBRANCH  52  66
BRANCH  53  78
ATOM     78  C   UNL A   1      36.944  32.675  30.620  1.00  0.00     0.058 A 
ATOM     79  C   UNL A   1      37.103  33.759  29.743  1.00  0.00     0.135 A 
ATOM     80  C   UNL A   1      35.636  32.252  30.905  1.00  0.00     0.135 A 
ATOM     81  F   UNL A   1      38.332  34.205  29.446  1.00  0.00    -0.206 F 
ATOM     82  C   UNL A   1      36.007  34.416  29.190  1.00  0.00     0.059 A 
ATOM     83  C   UNL A   1      34.526  32.879  30.346  1.00  0.00     0.059 A 
ATOM     84  F   UNL A   1      35.429  31.212  31.727  1.00  0.00    -0.206 F 
ATOM     85  C   UNL A   1      34.722  33.969  29.500  1.00  0.00     0.060 A 
BRANCH  85  86
ATOM     86  S   UNL A   1      33.306  34.804  28.752  1.00  0.00     0.124 S 
ATOM     87  O   UNL A   1      32.466  35.059  29.916  1.00  0.00    -0.237 OA
ATOM     88  O   UNL A   1      33.927  35.976  28.141  1.00  0.00    -0.237 OA
ATOM     89  O   UNL A   1      32.796  33.813  27.808  1.00  0.00    -0.744 OA
ENDBRANCH  85  86
ENDBRANCH  53  78
BRANCH  65  90
ATOM     90  C   UNL A   1      40.053  33.286  36.833  1.00  0.00     0.058 A 
ATOM     91  C   UNL A   1      40.776  34.477  36.999  1.00  0.00     0.135 A 
ATOM     92  C   UNL A   1      39.059  32.984  37.777  1.00  0.00     0.135 A 
ATOM     93  F   UNL A   1      41.738  34.810  36.124  1.00  0.00    -0.206 F 
ATOM     94  C   UNL A   1      40.546  35.321  38.079  1.00  0.00     0.059 A 
ATOM     95  C   UNL A   1      38.793  33.827  38.852  1.00  0.00     0.059 A 
ATOM     96  F   UNL A   1      38.327  31.865  37.656  1.00  0.00    -0.206 F 
ATOM     97  C   UNL A   1      39.554  34.985  39.004  1.00  0.00     0.060 A 
BRANCH  97  98
ATOM     98  S   UNL A   1      39.257  36.092  40.398  1.00  0.00     0.124 S 
ATOM     99  O   UNL A   1      38.261  35.344  41.158  1.00  0.00    -0.237 OA
ATOM    100  O   UNL A   1      40.579  36.190  41.009  1.00  0.00    -0.237 OA
ATOM    101  O   UNL A   1      38.775  37.315  39.763  1.00  0.00    -0.744 OA
ENDBRANCH  97  98
ENDBRANCH  65  90
ENDBRANCH  39  40
ENDBRANCH  32  34
ENDBRANCH  31  32
ENDBRANCH  30  31
ENDBRANCH   1  30
TORSDOF 20
ENDMDL
MODEL 3
REMARK VINA RESULT:     -11.4      1.587      2.443
REMARK SMILES O=C(CCOc1cc(-c2ccncc2)nc(-c2ccc(C(F)(F)F)cc2)n1)OCCOC(=O)c1ccc(-c2c3nc(c(-c4c(F)cc(S(=O)(=O)[O-])cc4F)c4ccc([nH]4)c(-c4c(F)cc(S(=O)(=O)[O-])cc4F)c4nc(c(-c5c(F)cc(S(=O)(=O)[O-])cc5F)c5ccc2[nH]5)C=C4)C=C3)cc1
REMARK SMILES IDX 29 1 28 2 2 3 1 4 3 5 4 6 5 7 6 8 7 9 27 10 8 11 16 12 15 13
REMARK SMILES IDX 9 14 10 15 14 16 11 17 13 18 12 19 17 20 18 21 26 22 19 23
REMARK SMILES IDX 25 24 20 25 21 26 22 27 23 28 24 29 30 30 31 31 32 32 33 33
REMARK SMILES IDX 34 34 35 35 99 36 36 37 98 38 37 39 38 40 39 41 92 42 40 43
REMARK SMILES IDX 97 44 91 45 93 46 41 47 96 48 90 49 89 50 42 52 76 53 55 54
REMARK SMILES IDX 75 55 56 56 59 57 74 58 94 59 57 60 58 61 73 63 95 64 60 65
REMARK SMILES IDX 43 66 44 67 53 68 45 69 46 70 52 71 54 72 47 73 48 74 49 75
REMARK SMILES IDX 50 76 51 77 77 78 78 79 87 80 79 81 80 82 86 83 88 84 81 85
REMARK SMILES IDX 82 86 83 87 84 88 85 89 61 90 62 91 71 92 63 93 64 94 70 95
REMARK SMILES IDX 72 96 65 97 66 98 67 99 68 100 69 101
REMARK H PARENT 93 51 59 62
REMARK Flexibility Score: inf
ROOT
ATOM      1  C   UNL A   1      40.055  21.945  26.947  1.00  0.00     0.274 C 
ENDROOT
BRANCH   1   2
ATOM      2  O   UNL A   1      39.418  21.428  25.759  1.00  0.00    -0.462 OA
BRANCH   2   3
ATOM      3  C   UNL A   1      38.151  21.672  25.357  1.00  0.00     0.309 C 
ATOM      4  O   UNL A   1      37.318  20.767  25.389  1.00  0.00    -0.252 OA
BRANCH   3   5
ATOM      5  C   UNL A   1      37.717  23.074  25.048  1.00  0.00     0.164 C 
BRANCH   5   6
ATOM      6  C   UNL A   1      36.733  23.552  26.112  1.00  0.00     0.243 C 
BRANCH   6   7
ATOM      7  O   UNL A   1      35.747  24.450  25.603  1.00  0.00    -0.477 OA
BRANCH   7   8
ATOM      8  C   UNL A   1      34.551  23.971  25.158  1.00  0.00     0.217 A 
ATOM      9  C   UNL A   1      34.323  22.741  24.599  1.00  0.00     0.097 A 
ATOM     10  N   UNL A   1      33.554  24.830  25.377  1.00  0.00    -0.193 NA
ATOM     11  C   UNL A   1      33.007  22.319  24.561  1.00  0.00     0.078 A 
ATOM     12  C   UNL A   1      32.314  24.419  25.062  1.00  0.00     0.163 A 
ATOM     13  N   UNL A   1      31.974  23.153  24.773  1.00  0.00    -0.228 NA
BRANCH  11  14
ATOM     14  C   UNL A   1      32.702  20.892  24.423  1.00  0.00     0.003 A 
ATOM     15  C   UNL A   1      32.898  20.030  25.512  1.00  0.00     0.030 A 
ATOM     16  C   UNL A   1      32.337  20.329  23.199  1.00  0.00     0.030 A 
ATOM     17  C   UNL A   1      32.737  18.667  25.329  1.00  0.00     0.111 A 
ATOM     18  C   UNL A   1      32.183  18.953  23.121  1.00  0.00     0.111 A 
ATOM     19  N   UNL A   1      32.366  18.110  24.159  1.00  0.00    -0.265 NA
ENDBRANCH  11  14
BRANCH  12  20
ATOM     20  C   UNL A   1      31.389  25.476  24.641  1.00  0.00     0.019 A 
ATOM     21  C   UNL A   1      31.821  26.815  24.726  1.00  0.00     0.012 A 
ATOM     22  C   UNL A   1      30.135  25.224  24.072  1.00  0.00     0.012 A 
ATOM     23  C   UNL A   1      31.048  27.864  24.239  1.00  0.00     0.014 A 
ATOM     24  C   UNL A   1      29.344  26.280  23.595  1.00  0.00     0.014 A 
ATOM     25  C   UNL A   1      29.802  27.606  23.662  1.00  0.00     0.056 A 
BRANCH  25  26
ATOM     26  C   UNL A   1      29.003  28.758  23.110  1.00  0.00     0.416 C 
ATOM     27  F   UNL A   1      27.659  28.555  23.201  1.00  0.00    -0.166 F 
ATOM     28  F   UNL A   1      29.247  29.924  23.772  1.00  0.00    -0.166 F 
ATOM     29  F   UNL A   1      29.251  29.019  21.796  1.00  0.00    -0.166 F 
ENDBRANCH  25  26
ENDBRANCH  12  20
ENDBRANCH   7   8
ENDBRANCH   6   7
ENDBRANCH   5   6
ENDBRANCH   3   5
ENDBRANCH   2   3
ENDBRANCH   1   2
BRANCH   1  30
ATOM     30  C   UNL A   1      41.009  23.073  26.564  1.00  0.00     0.275 C 
BRANCH  30  31
ATOM     31  O   UNL A   1      40.276  24.305  26.496  1.00  0.00    -0.458 OA
BRANCH  31  32
ATOM     32  C   UNL A   1      41.043  25.409  26.273  1.00  0.00     0.338 C 
ATOM     33  O   UNL A   1      41.509  25.768  25.211  1.00  0.00    -0.246 OA
BRANCH  32  34
ATOM     34  C   UNL A   1      41.030  26.233  27.502  1.00  0.00     0.060 A 
ATOM     35  C   UNL A   1      39.953  26.084  28.387  1.00  0.00     0.016 A 
ATOM     36  C   UNL A   1      42.076  27.110  27.804  1.00  0.00     0.016 A 
ATOM     37  C   UNL A   1      39.908  26.827  29.564  1.00  0.00     0.010 A 
ATOM     38  C   UNL A   1      42.020  27.872  28.970  1.00  0.00     0.010 A 
ATOM     39  C   UNL A   1      40.920  27.755  29.836  1.00  0.00    -0.014 A 
BRANCH  39  40
ATOM     40  C   UNL A   1      40.702  28.770  30.888  1.00  0.00     0.031 A 
ATOM     41  C   UNL A   1      41.539  28.671  32.133  1.00  0.00     0.074 A 
ATOM     42  C   UNL A   1      39.802  29.757  30.735  1.00  0.00     0.049 A 
ATOM     43  N   UNL A   1      41.542  29.434  33.194  1.00  0.00    -0.248 NA
ATOM     44  C   UNL A   1      42.500  27.556  32.188  1.00  0.00     0.031 C 
ATOM     45  C   UNL A   1      38.948  29.953  29.564  1.00  0.00     0.029 A 
ATOM     46  N   UNL A   1      39.454  30.777  31.582  1.00  0.00    -0.354 N 
ATOM     47  C   UNL A   1      42.520  28.907  34.028  1.00  0.00     0.074 A 
ATOM     48  C   UNL A   1      43.053  27.731  33.378  1.00  0.00     0.031 C 
ATOM     49  C   UNL A   1      38.155  31.020  29.779  1.00  0.00     0.029 A 
ATOM     50  C   UNL A   1      38.442  31.573  31.101  1.00  0.00     0.049 A 
ATOM     51  H   UNL A   1      39.888  30.926  32.453  1.00  0.00     0.167 HD
ATOM     52  C   UNL A   1      42.951  29.374  35.223  1.00  0.00     0.037 A 
ATOM     53  C   UNL A   1      37.818  32.621  31.676  1.00  0.00     0.037 A 
ATOM     54  C   UNL A   1      42.395  30.524  35.879  1.00  0.00     0.049 A 
ATOM     55  C   UNL A   1      38.276  33.089  33.034  1.00  0.00     0.074 A 
ATOM     56  C   UNL A   1      42.736  31.070  37.103  1.00  0.00     0.029 A 
ATOM     57  N   UNL A   1      41.371  31.305  35.362  1.00  0.00    -0.354 N 
ATOM     58  N   UNL A   1      39.221  32.599  33.802  1.00  0.00    -0.248 NA
ATOM     59  C   UNL A   1      37.594  34.262  33.597  1.00  0.00     0.031 C 
ATOM     60  C   UNL A   1      41.895  32.163  37.341  1.00  0.00     0.029 A 
ATOM     61  C   UNL A   1      41.060  32.323  36.246  1.00  0.00     0.049 A 
ATOM     62  H   UNL A   1      40.930  31.157  34.494  1.00  0.00     0.167 HD
ATOM     63  C   UNL A   1      39.263  33.419  34.926  1.00  0.00     0.074 A 
ATOM     64  C   UNL A   1      38.260  34.444  34.730  1.00  0.00     0.031 C 
ATOM     65  C   UNL A   1      40.058  33.334  36.023  1.00  0.00     0.037 A 
BRANCH  52  66
ATOM     66  C   UNL A   1      44.072  28.626  35.887  1.00  0.00     0.058 A 
ATOM     67  C   UNL A   1      45.414  28.960  35.645  1.00  0.00     0.135 A 
ATOM     68  C   UNL A   1      43.807  27.570  36.771  1.00  0.00     0.135 A 
ATOM     69  F   UNL A   1      45.722  29.944  34.785  1.00  0.00    -0.206 F 
ATOM     70  C   UNL A   1      46.457  28.259  36.242  1.00  0.00     0.059 A 
ATOM     71  C   UNL A   1      44.834  26.870  37.398  1.00  0.00     0.059 A 
ATOM     72  F   UNL A   1      42.541  27.203  37.026  1.00  0.00    -0.206 F 
ATOM     73  C   UNL A   1      46.155  27.214  37.117  1.00  0.00     0.060 A 
BRANCH  73  74
ATOM     74  S   UNL A   1      47.518  26.316  37.888  1.00  0.00     0.124 S 
ATOM     75  O   UNL A   1      46.986  24.958  37.929  1.00  0.00    -0.237 OA
ATOM     76  O   UNL A   1      48.612  26.540  36.948  1.00  0.00    -0.237 OA
ATOM     77  O   UNL A   1      47.666  26.971  39.185  1.00  0.00    -0.744 OA
ENDBRANCH  73  74
ENDBRANCH  52  66
BRANCH  53  78
ATOM     78  C   UNL A   1      36.692  33.297  30.976  1.00  0.00     0.058 A 
ATOM     79  C   UNL A   1      35.364  33.118  31.387  1.00  0.00     0.135 A 
ATOM     80  C   UNL A   1      36.927  34.124  29.865  1.00  0.00     0.135 A 
ATOM     81  F   UNL A   1      35.089  32.331  32.438  1.00  0.00    -0.206 F 
ATOM     82  C   UNL A   1      34.304  33.713  30.709  1.00  0.00     0.059 A 
ATOM     83  C   UNL A   1      35.885  34.748  29.186  1.00  0.00     0.059 A 
ATOM     84  F   UNL A   1      38.181  34.339  29.439  1.00  0.00    -0.206 F 
ATOM     85  C   UNL A   1      34.575  34.526  29.607  1.00  0.00     0.060 A 
BRANCH  85  86
ATOM     86  S   UNL A   1      33.198  35.323  28.753  1.00  0.00     0.124 S 
ATOM     87  O   UNL A   1      33.891  36.310  27.934  1.00  0.00    -0.237 OA
ATOM     88  O   UNL A   1      32.593  34.206  28.034  1.00  0.00    -0.237 OA
ATOM     89  O   UNL A   1      32.394  35.861  29.847  1.00  0.00    -0.744 OA
ENDBRANCH  85  86
ENDBRANCH  53  78
BRANCH  65  90
ATOM     90  C   UNL A   1      39.892  34.394  37.075  1.00  0.00     0.058 A 
ATOM     91  C   UNL A   1      40.582  35.614  37.007  1.00  0.00     0.135 A 
ATOM     92  C   UNL A   1      39.006  34.199  38.147  1.00  0.00     0.135 A 
ATOM     93  F   UNL A   1      41.442  35.848  36.004  1.00  0.00    -0.206 F 
ATOM     94  C   UNL A   1      40.424  36.592  37.983  1.00  0.00     0.059 A 
ATOM     95  C   UNL A   1      38.812  35.174  39.120  1.00  0.00     0.059 A 
ATOM     96  F   UNL A   1      38.310  33.055  38.250  1.00  0.00    -0.206 F 
ATOM     97  C   UNL A   1      39.539  36.361  39.039  1.00  0.00     0.060 A 
BRANCH  97  98
ATOM     98  S   UNL A   1      39.335  37.640  40.295  1.00  0.00     0.124 S 
ATOM     99  O   UNL A   1      40.678  38.205  40.359  1.00  0.00    -0.237 OA
ATOM    100  O   UNL A   1      38.312  38.500  39.706  1.00  0.00    -0.237 OA
ATOM    101  O   UNL A   1      38.911  36.891  41.474  1.00  0.00    -0.744 OA
ENDBRANCH  97  98
ENDBRANCH  65  90
ENDBRANCH  39  40
ENDBRANCH  32  34
ENDBRANCH  31  32
ENDBRANCH  30  31
ENDBRANCH   1  30
TORSDOF 20
ENDMDL
