MODEL 1
REMARK VINA RESULT:     -12.1      0.000      0.000
REMARK SMILES O=C(OCCOC(=O)c1nc2c(F)cccc2s1)c1ccc(-c2c3nc(c(-c4c(F)cc(S(=O)(=O)[O-])cc4F)c4ccc([nH]4)c(-c4c(F)cc(S(=O)(=O)[O-])cc4F)c4nc(c(-c5c(F)cc(S(=O)(=O)[O-])cc5F)c5ccc2[nH]5)C=C4)C=C3)cc1
REMARK SMILES IDX 3 1 2 2 1 3 19 4 20 5 84 6 21 7 83 8 22 9 23 10 24 11 77 12
REMARK SMILES IDX 25 13 82 14 76 15 78 16 26 17 81 18 75 19 74 20 27 22 61 23
REMARK SMILES IDX 40 24 60 25 41 26 44 27 59 28 79 29 42 30 43 31 58 33 80 34
REMARK SMILES IDX 45 35 28 36 29 37 38 38 30 39 31 40 37 41 39 42 32 43 33 44
REMARK SMILES IDX 34 45 35 46 36 47 62 48 63 49 72 50 64 51 65 52 71 53 73 54
REMARK SMILES IDX 66 55 67 56 68 57 69 58 70 59 46 60 47 61 56 62 48 63 49 64
REMARK SMILES IDX 55 65 57 66 50 67 51 68 52 69 53 70 54 71 4 72 5 73 6 74
REMARK SMILES IDX 7 75 8 76 9 77 10 78 18 79 11 80 17 81 12 82 16 83 13 84
REMARK SMILES IDX 14 85 15 86
REMARK H PARENT 78 21 44 32
REMARK Flexibility Score: inf
ROOT
ATOM      1  O   UNL A   1      40.211  20.948  27.070  1.00  0.00    -0.458 OA
ENDROOT
BRANCH   1   2
ATOM      2  C   UNL A   1      39.485  21.970  26.562  1.00  0.00     0.338 C 
ATOM      3  O   UNL A   1      38.455  21.804  25.925  1.00  0.00    -0.246 OA
BRANCH   2   4
ATOM      4  C   UNL A   1      39.928  23.298  27.056  1.00  0.00     0.060 A 
ATOM      5  C   UNL A   1      41.073  23.449  27.844  1.00  0.00     0.016 A 
ATOM      6  C   UNL A   1      39.158  24.424  26.728  1.00  0.00     0.016 A 
ATOM      7  C   UNL A   1      41.410  24.690  28.354  1.00  0.00     0.010 A 
ATOM      8  C   UNL A   1      39.488  25.673  27.249  1.00  0.00     0.010 A 
ATOM      9  C   UNL A   1      40.602  25.793  28.081  1.00  0.00    -0.014 A 
BRANCH   9  10
ATOM     10  C   UNL A   1      41.031  27.059  28.656  1.00  0.00     0.031 A 
ATOM     11  C   UNL A   1      42.268  27.649  28.076  1.00  0.00     0.074 A 
ATOM     12  C   UNL A   1      40.345  27.698  29.621  1.00  0.00     0.049 A 
ATOM     13  N   UNL A   1      43.405  27.871  28.653  1.00  0.00    -0.248 NA
ATOM     14  C   UNL A   1      42.253  27.957  26.639  1.00  0.00     0.031 C 
ATOM     15  C   UNL A   1      38.986  27.416  30.089  1.00  0.00     0.029 A 
ATOM     16  N   UNL A   1      40.696  28.812  30.322  1.00  0.00    -0.354 N 
ATOM     17  C   UNL A   1      44.186  28.540  27.711  1.00  0.00     0.074 A 
ATOM     18  C   UNL A   1      43.482  28.441  26.457  1.00  0.00     0.031 C 
ATOM     19  C   UNL A   1      38.557  28.456  30.836  1.00  0.00     0.029 A 
ATOM     20  C   UNL A   1      39.643  29.409  30.999  1.00  0.00     0.049 A 
ATOM     21  H   UNL A   1      41.617  29.163  30.346  1.00  0.00     0.167 HD
ATOM     22  C   UNL A   1      45.250  29.311  28.066  1.00  0.00     0.037 A 
ATOM     23  C   UNL A   1      39.648  30.637  31.572  1.00  0.00     0.037 A 
ATOM     24  C   UNL A   1      45.740  28.983  29.380  1.00  0.00     0.049 A 
ATOM     25  C   UNL A   1      41.065  31.010  31.824  1.00  0.00     0.074 A 
ATOM     26  C   UNL A   1      46.226  27.837  29.980  1.00  0.00     0.029 A 
ATOM     27  N   UNL A   1      45.490  29.859  30.406  1.00  0.00    -0.354 N 
ATOM     28  N   UNL A   1      41.844  30.420  32.691  1.00  0.00    -0.248 NA
ATOM     29  C   UNL A   1      41.748  31.823  30.830  1.00  0.00     0.031 C 
ATOM     30  C   UNL A   1      45.787  27.911  31.334  1.00  0.00     0.029 A 
ATOM     31  C   UNL A   1      45.087  29.108  31.481  1.00  0.00     0.049 A 
ATOM     32  H   UNL A   1      45.583  30.838  30.377  1.00  0.00     0.167 HD
ATOM     33  C   UNL A   1      43.107  30.457  32.120  1.00  0.00     0.074 A 
ATOM     34  C   UNL A   1      43.005  31.426  31.035  1.00  0.00     0.031 C 
ATOM     35  C   UNL A   1      44.046  29.507  32.403  1.00  0.00     0.037 A 
BRANCH  22  36
ATOM     36  C   UNL A   1      45.628  30.597  27.364  1.00  0.00     0.058 A 
ATOM     37  C   UNL A   1      46.966  30.812  26.972  1.00  0.00     0.135 A 
ATOM     38  C   UNL A   1      44.794  31.738  27.331  1.00  0.00     0.135 A 
ATOM     39  F   UNL A   1      47.851  29.802  26.972  1.00  0.00    -0.206 F 
ATOM     40  C   UNL A   1      47.457  32.080  26.653  1.00  0.00     0.059 A 
ATOM     41  C   UNL A   1      45.250  32.998  26.962  1.00  0.00     0.059 A 
ATOM     42  F   UNL A   1      43.524  31.707  27.751  1.00  0.00    -0.206 F 
ATOM     43  C   UNL A   1      46.593  33.170  26.672  1.00  0.00     0.060 A 
BRANCH  43  44
ATOM     44  S   UNL A   1      47.246  34.826  26.398  1.00  0.00     0.124 S 
ATOM     45  O   UNL A   1      46.016  35.600  26.264  1.00  0.00    -0.237 OA
ATOM     46  O   UNL A   1      48.017  35.054  27.615  1.00  0.00    -0.237 OA
ATOM     47  O   UNL A   1      48.036  34.676  25.181  1.00  0.00    -0.744 OA
ENDBRANCH  43  44
ENDBRANCH  22  36
BRANCH  23  48
ATOM     48  C   UNL A   1      38.542  31.630  31.590  1.00  0.00     0.058 A 
ATOM     49  C   UNL A   1      37.942  32.069  30.395  1.00  0.00     0.135 A 
ATOM     50  C   UNL A   1      37.862  31.962  32.780  1.00  0.00     0.135 A 
ATOM     51  F   UNL A   1      38.504  31.780  29.211  1.00  0.00    -0.206 F 
ATOM     52  C   UNL A   1      36.718  32.746  30.379  1.00  0.00     0.059 A 
ATOM     53  C   UNL A   1      36.652  32.652  32.791  1.00  0.00     0.059 A 
ATOM     54  F   UNL A   1      38.304  31.543  33.975  1.00  0.00    -0.206 F 
ATOM     55  C   UNL A   1      36.069  33.015  31.585  1.00  0.00     0.060 A 
BRANCH  55  56
ATOM     56  S   UNL A   1      34.409  33.727  31.563  1.00  0.00     0.124 S 
ATOM     57  O   UNL A   1      34.663  35.099  31.990  1.00  0.00    -0.237 OA
ATOM     58  O   UNL A   1      34.021  33.556  30.167  1.00  0.00    -0.237 OA
ATOM     59  O   UNL A   1      33.672  32.903  32.518  1.00  0.00    -0.744 OA
ENDBRANCH  55  56
ENDBRANCH  23  48
BRANCH  35  60
ATOM     60  C   UNL A   1      43.840  28.618  33.600  1.00  0.00     0.058 A 
ATOM     61  C   UNL A   1      44.248  28.946  34.903  1.00  0.00     0.135 A 
ATOM     62  C   UNL A   1      43.026  27.484  33.445  1.00  0.00     0.135 A 
ATOM     63  F   UNL A   1      44.942  30.067  35.146  1.00  0.00    -0.206 F 
ATOM     64  C   UNL A   1      43.877  28.170  36.003  1.00  0.00     0.059 A 
ATOM     65  C   UNL A   1      42.621  26.712  34.531  1.00  0.00     0.059 A 
ATOM     66  F   UNL A   1      42.556  27.153  32.231  1.00  0.00    -0.206 F 
ATOM     67  C   UNL A   1      43.052  27.061  35.809  1.00  0.00     0.060 A 
BRANCH  67  68
ATOM     68  S   UNL A   1      42.465  26.143  37.250  1.00  0.00     0.124 S 
ATOM     69  O   UNL A   1      42.604  24.758  36.812  1.00  0.00    -0.237 OA
ATOM     70  O   UNL A   1      43.388  26.573  38.297  1.00  0.00    -0.237 OA
ATOM     71  O   UNL A   1      41.091  26.610  37.416  1.00  0.00    -0.744 OA
ENDBRANCH  67  68
ENDBRANCH  35  60
ENDBRANCH   9  10
ENDBRANCH   2   4
ENDBRANCH   1   2
BRANCH   1  72
ATOM     72  C   UNL A   1      40.538  19.814  26.240  1.00  0.00     0.275 C 
BRANCH  72  73
ATOM     73  C   UNL A   1      41.967  19.283  26.313  1.00  0.00     0.275 C 
BRANCH  73  74
ATOM     74  O   UNL A   1      42.560  19.185  25.009  1.00  0.00    -0.457 OA
BRANCH  74  75
ATOM     75  C   UNL A   1      43.925  19.278  24.969  1.00  0.00     0.367 C 
ATOM     76  O   UNL A   1      44.692  18.310  24.912  1.00  0.00    -0.243 OA
BRANCH  75  77
ATOM     77  C   UNL A   1      44.332  20.654  25.113  1.00  0.00     0.203 A 
ATOM     78  N   UNL A   1      43.507  21.681  25.115  1.00  0.00    -0.226 NA
ATOM     79  S   UNL A   1      46.001  21.019  25.178  1.00  0.00    -0.107 S 
ATOM     80  C   UNL A   1      44.238  22.865  25.134  1.00  0.00     0.118 A 
ATOM     81  C   UNL A   1      45.627  22.700  25.149  1.00  0.00     0.058 A 
ATOM     82  C   UNL A   1      43.735  24.184  25.119  1.00  0.00     0.150 A 
ATOM     83  C   UNL A   1      46.513  23.792  25.133  1.00  0.00     0.021 A 
ATOM     84  F   UNL A   1      42.414  24.411  25.105  1.00  0.00    -0.205 F 
ATOM     85  C   UNL A   1      44.602  25.280  25.102  1.00  0.00     0.041 A 
ATOM     86  C   UNL A   1      45.978  25.084  25.104  1.00  0.00     0.005 A 
ENDBRANCH  75  77
ENDBRANCH  74  75
ENDBRANCH  73  74
ENDBRANCH  72  73
ENDBRANCH   1  72
TORSDOF 14
ENDMDL
MODEL 2
REMARK VINA RESULT:     -11.7      2.335     11.427
REMARK SMILES O=C(OCCOC(=O)c1nc2c(F)cccc2s1)c1ccc(-c2c3nc(c(-c4c(F)cc(S(=O)(=O)[O-])cc4F)c4ccc([nH]4)c(-c4c(F)cc(S(=O)(=O)[O-])cc4F)c4nc(c(-c5c(F)cc(S(=O)(=O)[O-])cc5F)c5ccc2[nH]5)C=C4)C=C3)cc1
REMARK SMILES IDX 3 1 2 2 1 3 19 4 20 5 84 6 21 7 83 8 22 9 23 10 24 11 77 12
REMARK SMILES IDX 25 13 82 14 76 15 78 16 26 17 81 18 75 19 74 20 27 22 61 23
REMARK SMILES IDX 40 24 60 25 41 26 44 27 59 28 79 29 42 30 43 31 58 33 80 34
REMARK SMILES IDX 45 35 28 36 29 37 38 38 30 39 31 40 37 41 39 42 32 43 33 44
REMARK SMILES IDX 34 45 35 46 36 47 62 48 63 49 72 50 64 51 65 52 71 53 73 54
REMARK SMILES IDX 66 55 67 56 68 57 69 58 70 59 46 60 47 61 56 62 48 63 49 64
REMARK SMILES IDX 55 65 57 66 50 67 51 68 52 69 53 70 54 71 4 72 5 73 6 74
REMARK SMILES IDX 7 75 8 76 9 77 10 78 18 79 11 80 17 81 12 82 16 83 13 84
REMARK SMILES IDX 14 85 15 86
REMARK H PARENT 78 21 44 32
REMARK Flexibility Score: inf
ROOT
ATOM      1  O   UNL A   1      34.395  33.214  29.240  1.00  0.00    -0.458 OA
ENDROOT
BRANCH   1   2
ATOM      2  C   UNL A   1      34.558  32.070  28.533  1.00  0.00     0.338 C 
ATOM      3  O   UNL A   1      33.812  31.737  27.623  1.00  0.00    -0.246 OA
BRANCH   2   4
ATOM      4  C   UNL A   1      35.852  31.397  28.810  1.00  0.00     0.060 A 
ATOM      5  C   UNL A   1      37.001  32.117  29.151  1.00  0.00     0.016 A 
ATOM      6  C   UNL A   1      35.912  30.000  28.709  1.00  0.00     0.016 A 
ATOM      7  C   UNL A   1      38.208  31.463  29.322  1.00  0.00     0.010 A 
ATOM      8  C   UNL A   1      37.129  29.339  28.870  1.00  0.00     0.010 A 
ATOM      9  C   UNL A   1      38.276  30.080  29.152  1.00  0.00    -0.014 A 
BRANCH   9  10
ATOM     10  C   UNL A   1      39.584  29.475  29.353  1.00  0.00     0.031 A 
ATOM     11  C   UNL A   1      39.990  29.262  30.769  1.00  0.00     0.074 A 
ATOM     12  C   UNL A   1      40.375  29.082  28.338  1.00  0.00     0.049 A 
ATOM     13  N   UNL A   1      40.979  29.791  31.414  1.00  0.00    -0.248 NA
ATOM     14  C   UNL A   1      39.127  28.402  31.591  1.00  0.00     0.031 C 
ATOM     15  C   UNL A   1      40.017  28.949  26.924  1.00  0.00     0.029 A 
ATOM     16  N   UNL A   1      41.656  28.620  28.384  1.00  0.00    -0.354 N 
ATOM     17  C   UNL A   1      40.990  29.174  32.665  1.00  0.00     0.074 A 
ATOM     18  C   UNL A   1      39.756  28.438  32.765  1.00  0.00     0.031 C 
ATOM     19  C   UNL A   1      40.983  28.246  26.293  1.00  0.00     0.029 A 
ATOM     20  C   UNL A   1      42.072  27.990  27.221  1.00  0.00     0.049 A 
ATOM     21  H   UNL A   1      42.235  28.724  29.175  1.00  0.00     0.167 HD
ATOM     22  C   UNL A   1      42.106  29.137  33.445  1.00  0.00     0.037 A 
ATOM     23  C   UNL A   1      43.190  27.239  27.069  1.00  0.00     0.037 A 
ATOM     24  C   UNL A   1      43.054  30.156  33.079  1.00  0.00     0.049 A 
ATOM     25  C   UNL A   1      44.141  27.626  28.144  1.00  0.00     0.074 A 
ATOM     26  C   UNL A   1      43.020  31.535  32.998  1.00  0.00     0.029 A 
ATOM     27  N   UNL A   1      44.197  29.777  32.420  1.00  0.00    -0.354 N 
ATOM     28  N   UNL A   1      44.732  28.787  28.229  1.00  0.00    -0.248 NA
ATOM     29  C   UNL A   1      44.160  26.830  29.362  1.00  0.00     0.031 C 
ATOM     30  C   UNL A   1      43.864  31.865  31.898  1.00  0.00     0.029 A 
ATOM     31  C   UNL A   1      44.382  30.671  31.397  1.00  0.00     0.049 A 
ATOM     32  H   UNL A   1      44.775  29.011  32.640  1.00  0.00     0.167 HD
ATOM     33  C   UNL A   1      44.838  29.036  29.589  1.00  0.00     0.074 A 
ATOM     34  C   UNL A   1      44.573  27.754  30.231  1.00  0.00     0.031 C 
ATOM     35  C   UNL A   1      44.866  30.309  30.082  1.00  0.00     0.037 A 
BRANCH  22  36
ATOM     36  C   UNL A   1      42.486  27.957  34.312  1.00  0.00     0.058 A 
ATOM     37  C   UNL A   1      42.574  28.116  35.711  1.00  0.00     0.135 A 
ATOM     38  C   UNL A   1      43.052  26.767  33.799  1.00  0.00     0.135 A 
ATOM     39  F   UNL A   1      42.078  29.212  36.308  1.00  0.00    -0.206 F 
ATOM     40  C   UNL A   1      43.247  27.203  36.526  1.00  0.00     0.059 A 
ATOM     41  C   UNL A   1      43.676  25.818  34.601  1.00  0.00     0.059 A 
ATOM     42  F   UNL A   1      43.116  26.514  32.486  1.00  0.00    -0.206 F 
ATOM     43  C   UNL A   1      43.813  26.068  35.956  1.00  0.00     0.060 A 
BRANCH  43  44
ATOM     44  S   UNL A   1      44.799  24.959  36.976  1.00  0.00     0.124 S 
ATOM     45  O   UNL A   1      46.144  25.468  36.734  1.00  0.00    -0.237 OA
ATOM     46  O   UNL A   1      44.252  25.203  38.307  1.00  0.00    -0.237 OA
ATOM     47  O   UNL A   1      44.508  23.643  36.417  1.00  0.00    -0.744 OA
ENDBRANCH  43  44
ENDBRANCH  22  36
BRANCH  23  48
ATOM     48  C   UNL A   1      43.339  25.989  26.277  1.00  0.00     0.058 A 
ATOM     49  C   UNL A   1      44.454  25.788  25.443  1.00  0.00     0.135 A 
ATOM     50  C   UNL A   1      42.543  24.853  26.529  1.00  0.00     0.135 A 
ATOM     51  F   UNL A   1      45.283  26.807  25.166  1.00  0.00    -0.206 F 
ATOM     52  C   UNL A   1      44.789  24.528  24.936  1.00  0.00     0.059 A 
ATOM     53  C   UNL A   1      42.845  23.592  26.019  1.00  0.00     0.059 A 
ATOM     54  F   UNL A   1      41.491  24.908  27.359  1.00  0.00    -0.206 F 
ATOM     55  C   UNL A   1      43.988  23.430  25.248  1.00  0.00     0.060 A 
BRANCH  55  56
ATOM     56  S   UNL A   1      44.511  21.775  24.747  1.00  0.00     0.124 S 
ATOM     57  O   UNL A   1      44.531  21.893  23.292  1.00  0.00    -0.237 OA
ATOM     58  O   UNL A   1      45.813  21.656  25.394  1.00  0.00    -0.237 OA
ATOM     59  O   UNL A   1      43.467  20.909  25.288  1.00  0.00    -0.744 OA
ENDBRANCH  55  56
ENDBRANCH  23  48
BRANCH  35  60
ATOM     60  C   UNL A   1      45.135  31.447  29.135  1.00  0.00     0.058 A 
ATOM     61  C   UNL A   1      46.420  31.853  28.740  1.00  0.00     0.135 A 
ATOM     62  C   UNL A   1      44.043  32.014  28.458  1.00  0.00     0.135 A 
ATOM     63  F   UNL A   1      47.515  31.287  29.267  1.00  0.00    -0.206 F 
ATOM     64  C   UNL A   1      46.611  32.795  27.727  1.00  0.00     0.059 A 
ATOM     65  C   UNL A   1      44.211  32.933  27.426  1.00  0.00     0.059 A 
ATOM     66  F   UNL A   1      42.792  31.622  28.751  1.00  0.00    -0.206 F 
ATOM     67  C   UNL A   1      45.500  33.321  27.066  1.00  0.00     0.060 A 
BRANCH  67  68
ATOM     68  S   UNL A   1      45.758  34.433  25.666  1.00  0.00     0.124 S 
ATOM     69  O   UNL A   1      45.356  35.723  26.218  1.00  0.00    -0.237 OA
ATOM     70  O   UNL A   1      47.184  34.275  25.396  1.00  0.00    -0.237 OA
ATOM     71  O   UNL A   1      44.876  33.894  24.634  1.00  0.00    -0.744 OA
ENDBRANCH  67  68
ENDBRANCH  35  60
ENDBRANCH   9  10
ENDBRANCH   2   4
ENDBRANCH   1   2
BRANCH   1  72
ATOM     72  C   UNL A   1      33.539  34.259  28.732  1.00  0.00     0.275 C 
BRANCH  72  73
ATOM     73  C   UNL A   1      33.248  35.435  29.659  1.00  0.00     0.275 C 
BRANCH  73  74
ATOM     74  O   UNL A   1      32.849  34.992  30.965  1.00  0.00    -0.457 OA
BRANCH  74  75
ATOM     75  C   UNL A   1      33.552  35.524  32.012  1.00  0.00     0.367 C 
ATOM     76  O   UNL A   1      33.307  36.617  32.536  1.00  0.00    -0.243 OA
BRANCH  75  77
ATOM     77  C   UNL A   1      34.673  34.678  32.337  1.00  0.00     0.203 A 
ATOM     78  N   UNL A   1      35.936  35.015  32.172  1.00  0.00    -0.226 NA
ATOM     79  S   UNL A   1      34.376  33.083  32.877  1.00  0.00    -0.107 S 
ATOM     80  C   UNL A   1      36.750  33.923  32.456  1.00  0.00     0.118 A 
ATOM     81  C   UNL A   1      36.069  32.764  32.841  1.00  0.00     0.058 A 
ATOM     82  C   UNL A   1      38.158  33.859  32.377  1.00  0.00     0.150 A 
ATOM     83  C   UNL A   1      36.737  31.560  33.128  1.00  0.00     0.021 A 
ATOM     84  F   UNL A   1      38.871  34.936  32.015  1.00  0.00    -0.205 F 
ATOM     85  C   UNL A   1      38.838  32.671  32.658  1.00  0.00     0.041 A 
ATOM     86  C   UNL A   1      38.131  31.531  33.025  1.00  0.00     0.005 A 
ENDBRANCH  75  77
ENDBRANCH  74  75
ENDBRANCH  73  74
ENDBRANCH  72  73
ENDBRANCH   1  72
TORSDOF 14
ENDMDL
MODEL 3
REMARK VINA RESULT:     -11.7      1.780      2.612
REMARK SMILES O=C(OCCOC(=O)c1nc2c(F)cccc2s1)c1ccc(-c2c3nc(c(-c4c(F)cc(S(=O)(=O)[O-])cc4F)c4ccc([nH]4)c(-c4c(F)cc(S(=O)(=O)[O-])cc4F)c4nc(c(-c5c(F)cc(S(=O)(=O)[O-])cc5F)c5ccc2[nH]5)C=C4)C=C3)cc1
REMARK SMILES IDX 3 1 2 2 1 3 19 4 20 5 84 6 21 7 83 8 22 9 23 10 24 11 77 12
REMARK SMILES IDX 25 13 82 14 76 15 78 16 26 17 81 18 75 19 74 20 27 22 61 23
REMARK SMILES IDX 40 24 60 25 41 26 44 27 59 28 79 29 42 30 43 31 58 33 80 34
REMARK SMILES IDX 45 35 28 36 29 37 38 38 30 39 31 40 37 41 39 42 32 43 33 44
REMARK SMILES IDX 34 45 35 46 36 47 62 48 63 49 72 50 64 51 65 52 71 53 73 54
REMARK SMILES IDX 66 55 67 56 68 57 69 58 70 59 46 60 47 61 56 62 48 63 49 64
REMARK SMILES IDX 55 65 57 66 50 67 51 68 52 69 53 70 54 71 4 72 5 73 6 74
REMARK SMILES IDX 7 75 8 76 9 77 10 78 18 79 11 80 17 81 12 82 16 83 13 84
REMARK SMILES IDX 14 85 15 86
REMARK H PARENT 78 21 44 32
REMARK Flexibility Score: inf
ROOT
ATOM      1  O   UNL A   1      42.661  20.060  25.391  1.00  0.00    -0.458 OA
ENDROOT
BRANCH   1   2
ATOM      2  C   UNL A   1      42.257  20.281  26.664  1.00  0.00     0.338 C 
ATOM      3  O   UNL A   1      42.078  19.382  27.472  1.00  0.00    -0.246 OA
BRANCH   2   4
ATOM      4  C   UNL A   1      42.287  21.717  27.040  1.00  0.00     0.060 A 
ATOM      5  C   UNL A   1      42.630  22.136  28.329  1.00  0.00     0.016 A 
ATOM      6  C   UNL A   1      41.945  22.669  26.068  1.00  0.00     0.016 A 
ATOM      7  C   UNL A   1      42.569  23.476  28.666  1.00  0.00     0.010 A 
ATOM      8  C   UNL A   1      41.871  24.019  26.408  1.00  0.00     0.010 A 
ATOM      9  C   UNL A   1      42.161  24.411  27.714  1.00  0.00    -0.014 A 
BRANCH   9  10
ATOM     10  C   UNL A   1      42.127  25.798  28.155  1.00  0.00     0.031 A 
ATOM     11  C   UNL A   1      43.291  26.634  27.755  1.00  0.00     0.074 A 
ATOM     12  C   UNL A   1      41.096  26.325  28.840  1.00  0.00     0.049 A 
ATOM     13  N   UNL A   1      44.169  27.211  28.512  1.00  0.00    -0.248 NA
ATOM     14  C   UNL A   1      43.551  26.778  26.316  1.00  0.00     0.031 C 
ATOM     15  C   UNL A   1      39.772  25.740  29.055  1.00  0.00     0.029 A 
ATOM     16  N   UNL A   1      40.993  27.559  29.410  1.00  0.00    -0.354 N 
ATOM     17  C   UNL A   1      44.973  27.964  27.656  1.00  0.00     0.074 A 
ATOM     18  C   UNL A   1      44.637  27.551  26.317  1.00  0.00     0.031 C 
ATOM     19  C   UNL A   1      38.940  26.699  29.520  1.00  0.00     0.029 A 
ATOM     20  C   UNL A   1      39.698  27.919  29.748  1.00  0.00     0.049 A 
ATOM     21  H   UNL A   1      41.771  28.144  29.566  1.00  0.00     0.167 HD
ATOM     22  C   UNL A   1      45.706  29.024  28.095  1.00  0.00     0.037 A 
ATOM     23  C   UNL A   1      39.273  29.155  30.103  1.00  0.00     0.037 A 
ATOM     24  C   UNL A   1      45.927  28.976  29.517  1.00  0.00     0.049 A 
ATOM     25  C   UNL A   1      40.457  29.918  30.580  1.00  0.00     0.074 A 
ATOM     26  C   UNL A   1      46.511  28.070  30.382  1.00  0.00     0.029 A 
ATOM     27  N   UNL A   1      45.236  29.853  30.315  1.00  0.00    -0.354 N 
ATOM     28  N   UNL A   1      41.120  29.650  31.673  1.00  0.00    -0.248 NA
ATOM     29  C   UNL A   1      41.147  30.777  29.631  1.00  0.00     0.031 C 
ATOM     30  C   UNL A   1      45.753  28.162  31.586  1.00  0.00     0.029 A 
ATOM     31  C   UNL A   1      44.775  29.137  31.389  1.00  0.00     0.049 A 
ATOM     32  H   UNL A   1      45.099  30.814  30.148  1.00  0.00     0.167 HD
ATOM     33  C   UNL A   1      42.438  29.965  31.378  1.00  0.00     0.074 A 
ATOM     34  C   UNL A   1      42.374  30.754  30.154  1.00  0.00     0.031 C 
ATOM     35  C   UNL A   1      43.478  29.336  31.999  1.00  0.00     0.037 A 
BRANCH  22  36
ATOM     36  C   UNL A   1      45.926  30.285  27.289  1.00  0.00     0.058 A 
ATOM     37  C   UNL A   1      47.224  30.828  27.180  1.00  0.00     0.135 A 
ATOM     38  C   UNL A   1      44.876  31.134  26.872  1.00  0.00     0.135 A 
ATOM     39  F   UNL A   1      48.298  30.114  27.554  1.00  0.00    -0.206 F 
ATOM     40  C   UNL A   1      47.453  32.143  26.769  1.00  0.00     0.059 A 
ATOM     41  C   UNL A   1      45.087  32.427  26.406  1.00  0.00     0.059 A 
ATOM     42  F   UNL A   1      43.588  30.790  26.991  1.00  0.00    -0.206 F 
ATOM     43  C   UNL A   1      46.373  32.940  26.405  1.00  0.00     0.060 A 
BRANCH  43  44
ATOM     44  S   UNL A   1      46.645  34.676  26.007  1.00  0.00     0.124 S 
ATOM     45  O   UNL A   1      47.029  35.210  27.309  1.00  0.00    -0.237 OA
ATOM     46  O   UNL A   1      47.706  34.596  25.009  1.00  0.00    -0.237 OA
ATOM     47  O   UNL A   1      45.347  35.110  25.501  1.00  0.00    -0.744 OA
ENDBRANCH  43  44
ENDBRANCH  22  36
BRANCH  23  48
ATOM     48  C   UNL A   1      37.992  29.813  29.732  1.00  0.00     0.058 A 
ATOM     49  C   UNL A   1      37.218  30.488  30.694  1.00  0.00     0.135 A 
ATOM     50  C   UNL A   1      37.636  30.036  28.386  1.00  0.00     0.135 A 
ATOM     51  F   UNL A   1      37.497  30.354  32.000  1.00  0.00    -0.206 F 
ATOM     52  C   UNL A   1      36.191  31.370  30.341  1.00  0.00     0.059 A 
ATOM     53  C   UNL A   1      36.605  30.895  28.010  1.00  0.00     0.059 A 
ATOM     54  F   UNL A   1      38.341  29.498  27.380  1.00  0.00    -0.206 F 
ATOM     55  C   UNL A   1      35.906  31.583  28.992  1.00  0.00     0.060 A 
BRANCH  55  56
ATOM     56  S   UNL A   1      34.707  32.851  28.525  1.00  0.00     0.124 S 
ATOM     57  O   UNL A   1      34.321  33.394  29.824  1.00  0.00    -0.237 OA
ATOM     58  O   UNL A   1      35.505  33.731  27.679  1.00  0.00    -0.237 OA
ATOM     59  O   UNL A   1      33.667  32.097  27.831  1.00  0.00    -0.744 OA
ENDBRANCH  55  56
ENDBRANCH  23  48
BRANCH  35  60
ATOM     60  C   UNL A   1      43.205  28.552  33.254  1.00  0.00     0.058 A 
ATOM     61  C   UNL A   1      43.051  29.130  34.525  1.00  0.00     0.135 A 
ATOM     62  C   UNL A   1      42.897  27.187  33.125  1.00  0.00     0.135 A 
ATOM     63  F   UNL A   1      43.229  30.446  34.709  1.00  0.00    -0.206 F 
ATOM     64  C   UNL A   1      42.626  28.380  35.623  1.00  0.00     0.059 A 
ATOM     65  C   UNL A   1      42.444  26.428  34.201  1.00  0.00     0.059 A 
ATOM     66  F   UNL A   1      42.970  26.592  31.923  1.00  0.00    -0.206 F 
ATOM     67  C   UNL A   1      42.312  27.032  35.449  1.00  0.00     0.060 A 
BRANCH  67  68
ATOM     68  S   UNL A   1      41.632  26.103  36.842  1.00  0.00     0.124 S 
ATOM     69  O   UNL A   1      42.810  25.888  37.675  1.00  0.00    -0.237 OA
ATOM     70  O   UNL A   1      40.634  27.025  37.379  1.00  0.00    -0.237 OA
ATOM     71  O   UNL A   1      41.082  24.903  36.216  1.00  0.00    -0.744 OA
ENDBRANCH  67  68
ENDBRANCH  35  60
ENDBRANCH   9  10
ENDBRANCH   2   4
ENDBRANCH   1   2
BRANCH   1  72
ATOM     72  C   UNL A   1      43.783  19.190  25.132  1.00  0.00     0.275 C 
BRANCH  72  73
ATOM     73  C   UNL A   1      44.931  19.758  24.303  1.00  0.00     0.275 C 
BRANCH  73  74
ATOM     74  O   UNL A   1      45.467  20.953  24.893  1.00  0.00    -0.457 OA
BRANCH  74  75
ATOM     75  C   UNL A   1      45.144  22.122  24.261  1.00  0.00     0.367 C 
ATOM     76  O   UNL A   1      44.454  22.198  23.238  1.00  0.00    -0.243 OA
BRANCH  75  77
ATOM     77  C   UNL A   1      45.811  23.231  24.898  1.00  0.00     0.203 A 
ATOM     78  N   UNL A   1      46.515  24.145  24.263  1.00  0.00    -0.226 NA
ATOM     79  S   UNL A   1      45.797  23.333  26.605  1.00  0.00    -0.107 S 
ATOM     80  C   UNL A   1      47.130  24.985  25.186  1.00  0.00     0.118 A 
ATOM     81  C   UNL A   1      46.869  24.679  26.526  1.00  0.00     0.058 A 
ATOM     82  C   UNL A   1      47.988  26.073  24.918  1.00  0.00     0.150 A 
ATOM     83  C   UNL A   1      47.441  25.404  27.586  1.00  0.00     0.021 A 
ATOM     84  F   UNL A   1      48.278  26.419  23.655  1.00  0.00    -0.205 F 
ATOM     85  C   UNL A   1      48.565  26.803  25.959  1.00  0.00     0.041 A 
ATOM     86  C   UNL A   1      48.296  26.467  27.282  1.00  0.00     0.005 A 
ENDBRANCH  75  77
ENDBRANCH  74  75
ENDBRANCH  73  74
ENDBRANCH  72  73
ENDBRANCH   1  72
TORSDOF 14
ENDMDL
