MODEL 1
REMARK VINA RESULT:     -11.1      0.000      0.000
REMARK SMILES Cn1cc(C(=O)NCCc2ccccc2)c(C(=O)OCCOC(=O)c2ccc(-c3c4nc(c(-c5c(F)cc(S(=O)(=O)[O-])cc5F)c5ccc([nH]5)c(-c5c(F)cc(S(=O)(=O)[O-])cc5F)c5nc(c(-c6c(F)cc(S(=O)(=O)[O-])cc6F)c6ccc3[nH]6)C=C5)C=C4)cc2)n1
REMARK SMILES IDX 20 1 19 2 17 3 18 4 16 5 1 6 2 7 3 8 91 9 4 10 5 11 6 12
REMARK SMILES IDX 7 13 8 15 9 16 10 17 11 18 15 19 12 20 14 21 13 22 21 23
REMARK SMILES IDX 22 24 23 25 24 26 25 27 26 28 90 29 27 30 89 31 28 32 29 33
REMARK SMILES IDX 30 34 83 35 31 36 88 37 82 38 84 39 32 40 87 41 81 42 80 43
REMARK SMILES IDX 33 45 67 46 46 47 66 48 47 49 50 50 65 51 85 52 48 53 49 54
REMARK SMILES IDX 64 56 86 57 51 58 34 59 35 60 44 61 36 62 37 63 43 64 45 65
REMARK SMILES IDX 38 66 39 67 40 68 41 69 42 70 68 71 69 72 78 73 70 74 71 75
REMARK SMILES IDX 77 76 79 77 72 78 73 79 74 80 75 81 76 82 52 83 53 84 62 85
REMARK SMILES IDX 54 86 55 87 61 88 63 89 56 90 57 91 58 92 59 93 60 94
REMARK H PARENT 7 14 84 44 50 55
REMARK Flexibility Score: inf
ROOT
ATOM      1  C   UNL A   1      37.736  22.451  25.612  1.00  0.00     0.275 C 
ENDROOT
BRANCH   1   2
ATOM      2  O   UNL A   1      37.081  23.723  25.471  1.00  0.00    -0.457 OA
BRANCH   2   3
ATOM      3  C   UNL A   1      35.958  23.765  24.690  1.00  0.00     0.359 C 
ATOM      4  O   UNL A   1      35.911  23.383  23.530  1.00  0.00    -0.244 OA
BRANCH   3   5
ATOM      5  C   UNL A   1      34.778  24.193  25.463  1.00  0.00     0.183 A 
ATOM      6  C   UNL A   1      32.404  26.689  26.060  1.00  0.00     0.173 C 
ATOM      7  N   UNL A   1      33.183  25.473  26.024  1.00  0.00    -0.274 N 
ATOM      8  C   UNL A   1      32.816  24.244  26.484  1.00  0.00     0.123 A 
ATOM      9  N   UNL A   1      34.396  25.486  25.470  1.00  0.00    -0.165 NA
ATOM     10  C   UNL A   1      33.890  23.400  26.261  1.00  0.00     0.092 A 
BRANCH  10  11
ATOM     11  C   UNL A   1      34.129  22.031  26.682  1.00  0.00     0.255 C 
ATOM     12  O   UNL A   1      34.480  21.752  27.829  1.00  0.00    -0.269 OA
ATOM     13  N   UNL A   1      33.879  20.970  25.857  1.00  0.00    -0.352 N 
ATOM     14  H   UNL A   1      33.995  20.098  26.297  1.00  0.00     0.163 HD
BRANCH  13  15
ATOM     15  C   UNL A   1      33.479  20.860  24.464  1.00  0.00     0.121 C 
BRANCH  15  16
ATOM     16  C   UNL A   1      32.348  19.837  24.287  1.00  0.00     0.057 C 
BRANCH  16  17
ATOM     17  C   UNL A   1      32.878  18.431  24.458  1.00  0.00    -0.046 A 
ATOM     18  C   UNL A   1      33.597  17.818  23.423  1.00  0.00     0.004 A 
ATOM     19  C   UNL A   1      32.570  17.685  25.606  1.00  0.00     0.004 A 
ATOM     20  C   UNL A   1      33.970  16.477  23.520  1.00  0.00     0.000 A 
ATOM     21  C   UNL A   1      32.928  16.340  25.693  1.00  0.00     0.000 A 
ATOM     22  C   UNL A   1      33.624  15.735  24.648  1.00  0.00     0.000 A 
ENDBRANCH  16  17
ENDBRANCH  15  16
ENDBRANCH  13  15
ENDBRANCH  10  11
ENDBRANCH   3   5
ENDBRANCH   2   3
ENDBRANCH   1   2
BRANCH   1  23
ATOM     23  C   UNL A   1      39.090  22.638  26.302  1.00  0.00     0.275 C 
BRANCH  23  24
ATOM     24  O   UNL A   1      39.121  23.878  27.038  1.00  0.00    -0.458 OA
BRANCH  24  25
ATOM     25  C   UNL A   1      40.188  24.671  26.781  1.00  0.00     0.338 C 
ATOM     26  O   UNL A   1      40.884  24.678  25.779  1.00  0.00    -0.246 OA
BRANCH  25  27
ATOM     27  C   UNL A   1      40.327  25.659  27.861  1.00  0.00     0.060 A 
ATOM     28  C   UNL A   1      39.338  25.677  28.842  1.00  0.00     0.016 A 
ATOM     29  C   UNL A   1      41.352  26.603  27.880  1.00  0.00     0.016 A 
ATOM     30  C   UNL A   1      39.349  26.639  29.844  1.00  0.00     0.010 A 
ATOM     31  C   UNL A   1      41.371  27.570  28.896  1.00  0.00     0.010 A 
ATOM     32  C   UNL A   1      40.362  27.602  29.876  1.00  0.00    -0.014 A 
BRANCH  32  33
ATOM     33  C   UNL A   1      40.320  28.669  30.907  1.00  0.00     0.031 A 
ATOM     34  C   UNL A   1      41.278  28.624  32.065  1.00  0.00     0.074 A 
ATOM     35  C   UNL A   1      39.456  29.694  30.781  1.00  0.00     0.049 A 
ATOM     36  N   UNL A   1      41.350  29.408  33.109  1.00  0.00    -0.248 NA
ATOM     37  C   UNL A   1      42.293  27.558  32.044  1.00  0.00     0.031 C 
ATOM     38  C   UNL A   1      38.517  29.876  29.672  1.00  0.00     0.029 A 
ATOM     39  N   UNL A   1      39.229  30.778  31.590  1.00  0.00    -0.354 N 
ATOM     40  C   UNL A   1      42.392  28.915  33.884  1.00  0.00     0.074 A 
ATOM     41  C   UNL A   1      42.922  27.759  33.193  1.00  0.00     0.031 C 
ATOM     42  C   UNL A   1      37.818  31.006  29.869  1.00  0.00     0.029 A 
ATOM     43  C   UNL A   1      38.223  31.600  31.140  1.00  0.00     0.049 A 
ATOM     44  H   UNL A   1      39.739  30.953  32.414  1.00  0.00     0.167 HD
ATOM     45  C   UNL A   1      42.861  29.385  35.064  1.00  0.00     0.037 A 
ATOM     46  C   UNL A   1      37.668  32.691  31.703  1.00  0.00     0.037 A 
ATOM     47  C   UNL A   1      42.345  30.552  35.731  1.00  0.00     0.049 A 
ATOM     48  C   UNL A   1      38.180  33.169  33.035  1.00  0.00     0.074 A 
ATOM     49  C   UNL A   1      42.758  31.113  36.929  1.00  0.00     0.029 A 
ATOM     50  N   UNL A   1      41.310  31.344  35.256  1.00  0.00    -0.354 N 
ATOM     51  N   UNL A   1      39.150  32.677  33.770  1.00  0.00    -0.248 NA
ATOM     52  C   UNL A   1      37.518  34.343  33.621  1.00  0.00     0.031 C 
ATOM     53  C   UNL A   1      41.950  32.224  37.192  1.00  0.00     0.029 A 
ATOM     54  C   UNL A   1      41.060  32.379  36.142  1.00  0.00     0.049 A 
ATOM     55  H   UNL A   1      40.823  31.191  34.414  1.00  0.00     0.167 HD
ATOM     56  C   UNL A   1      39.225  33.490  34.894  1.00  0.00     0.074 A 
ATOM     57  C   UNL A   1      38.213  34.515  34.737  1.00  0.00     0.031 C 
ATOM     58  C   UNL A   1      40.054  33.396  35.962  1.00  0.00     0.037 A 
BRANCH  45  59
ATOM     59  C   UNL A   1      43.970  28.621  35.728  1.00  0.00     0.058 A 
ATOM     60  C   UNL A   1      43.714  27.582  36.636  1.00  0.00     0.135 A 
ATOM     61  C   UNL A   1      45.310  28.906  35.418  1.00  0.00     0.135 A 
ATOM     62  F   UNL A   1      42.452  27.282  36.981  1.00  0.00    -0.206 F 
ATOM     63  C   UNL A   1      44.749  26.861  37.225  1.00  0.00     0.059 A 
ATOM     64  C   UNL A   1      46.359  28.185  35.980  1.00  0.00     0.059 A 
ATOM     65  F   UNL A   1      45.610  29.893  34.559  1.00  0.00    -0.206 F 
ATOM     66  C   UNL A   1      46.068  27.171  36.890  1.00  0.00     0.060 A 
BRANCH  66  67
ATOM     67  S   UNL A   1      47.401  26.219  37.653  1.00  0.00     0.124 S 
ATOM     68  O   UNL A   1      46.652  25.313  38.518  1.00  0.00    -0.237 OA
ATOM     69  O   UNL A   1      48.045  25.601  36.498  1.00  0.00    -0.237 OA
ATOM     70  O   UNL A   1      48.193  27.234  38.340  1.00  0.00    -0.744 OA
ENDBRANCH  66  67
ENDBRANCH  45  59
BRANCH  46  71
ATOM     71  C   UNL A   1      36.541  33.387  31.028  1.00  0.00     0.058 A 
ATOM     72  C   UNL A   1      36.750  34.154  29.873  1.00  0.00     0.135 A 
ATOM     73  C   UNL A   1      35.233  33.301  31.528  1.00  0.00     0.135 A 
ATOM     74  F   UNL A   1      37.983  34.276  29.361  1.00  0.00    -0.206 F 
ATOM     75  C   UNL A   1      35.703  34.826  29.246  1.00  0.00     0.059 A 
ATOM     76  C   UNL A   1      34.167  33.943  30.906  1.00  0.00     0.059 A 
ATOM     77  F   UNL A   1      34.980  32.572  32.627  1.00  0.00    -0.206 F 
ATOM     78  C   UNL A   1      34.415  34.715  29.772  1.00  0.00     0.060 A 
BRANCH  78  79
ATOM     79  S   UNL A   1      33.056  35.561  28.937  1.00  0.00     0.124 S 
ATOM     80  O   UNL A   1      32.274  36.045  30.068  1.00  0.00    -0.237 OA
ATOM     81  O   UNL A   1      33.754  36.581  28.160  1.00  0.00    -0.237 OA
ATOM     82  O   UNL A   1      32.437  34.500  28.148  1.00  0.00    -0.744 OA
ENDBRANCH  78  79
ENDBRANCH  46  71
BRANCH  58  83
ATOM     83  C   UNL A   1      39.924  34.444  37.030  1.00  0.00     0.058 A 
ATOM     84  C   UNL A   1      40.667  35.634  36.983  1.00  0.00     0.135 A 
ATOM     85  C   UNL A   1      39.012  34.277  38.083  1.00  0.00     0.135 A 
ATOM     86  F   UNL A   1      41.556  35.837  35.999  1.00  0.00    -0.206 F 
ATOM     87  C   UNL A   1      40.523  36.616  37.958  1.00  0.00     0.059 A 
ATOM     88  C   UNL A   1      38.835  35.256  39.056  1.00  0.00     0.059 A 
ATOM     89  F   UNL A   1      38.272  33.161  38.166  1.00  0.00    -0.206 F 
ATOM     90  C   UNL A   1      39.604  36.417  38.991  1.00  0.00     0.060 A 
BRANCH  90  91
ATOM     91  S   UNL A   1      39.398  37.713  40.232  1.00  0.00     0.124 S 
ATOM     92  O   UNL A   1      40.659  38.437  40.111  1.00  0.00    -0.237 OA
ATOM     93  O   UNL A   1      38.213  38.420  39.756  1.00  0.00    -0.237 OA
ATOM     94  O   UNL A   1      39.216  36.967  41.473  1.00  0.00    -0.744 OA
ENDBRANCH  90  91
ENDBRANCH  58  83
ENDBRANCH  32  33
ENDBRANCH  25  27
ENDBRANCH  24  25
ENDBRANCH  23  24
ENDBRANCH   1  23
TORSDOF 18
ENDMDL
MODEL 2
REMARK VINA RESULT:     -11.1      5.154     10.996
REMARK SMILES Cn1cc(C(=O)NCCc2ccccc2)c(C(=O)OCCOC(=O)c2ccc(-c3c4nc(c(-c5c(F)cc(S(=O)(=O)[O-])cc5F)c5ccc([nH]5)c(-c5c(F)cc(S(=O)(=O)[O-])cc5F)c5nc(c(-c6c(F)cc(S(=O)(=O)[O-])cc6F)c6ccc3[nH]6)C=C5)C=C4)cc2)n1
REMARK SMILES IDX 20 1 19 2 17 3 18 4 16 5 1 6 2 7 3 8 91 9 4 10 5 11 6 12
REMARK SMILES IDX 7 13 8 15 9 16 10 17 11 18 15 19 12 20 14 21 13 22 21 23
REMARK SMILES IDX 22 24 23 25 24 26 25 27 26 28 90 29 27 30 89 31 28 32 29 33
REMARK SMILES IDX 30 34 83 35 31 36 88 37 82 38 84 39 32 40 87 41 81 42 80 43
REMARK SMILES IDX 33 45 67 46 46 47 66 48 47 49 50 50 65 51 85 52 48 53 49 54
REMARK SMILES IDX 64 56 86 57 51 58 34 59 35 60 44 61 36 62 37 63 43 64 45 65
REMARK SMILES IDX 38 66 39 67 40 68 41 69 42 70 68 71 69 72 78 73 70 74 71 75
REMARK SMILES IDX 77 76 79 77 72 78 73 79 74 80 75 81 76 82 52 83 53 84 62 85
REMARK SMILES IDX 54 86 55 87 61 88 63 89 56 90 57 91 58 92 59 93 60 94
REMARK H PARENT 7 14 84 44 50 55
REMARK Flexibility Score: inf
ROOT
ATOM      1  C   UNL A   1      33.027  29.479  25.515  1.00  0.00     0.275 C 
ENDROOT
BRANCH   1   2
ATOM      2  O   UNL A   1      33.828  28.294  25.381  1.00  0.00    -0.457 OA
BRANCH   2   3
ATOM      3  C   UNL A   1      33.653  27.545  24.250  1.00  0.00     0.359 C 
ATOM      4  O   UNL A   1      33.796  27.970  23.112  1.00  0.00    -0.244 OA
BRANCH   3   5
ATOM      5  C   UNL A   1      33.411  26.127  24.572  1.00  0.00     0.183 A 
ATOM      6  C   UNL A   1      34.654  22.860  24.566  1.00  0.00     0.173 C 
ATOM      7  N   UNL A   1      33.885  24.067  24.752  1.00  0.00    -0.274 N 
ATOM      8  C   UNL A   1      32.833  24.254  25.598  1.00  0.00     0.123 A 
ATOM      9  N   UNL A   1      34.207  25.164  24.065  1.00  0.00    -0.165 NA
ATOM     10  C   UNL A   1      32.400  25.556  25.413  1.00  0.00     0.092 A 
BRANCH  10  11
ATOM     11  C   UNL A   1      31.232  26.253  25.920  1.00  0.00     0.255 C 
ATOM     12  O   UNL A   1      31.167  26.659  27.081  1.00  0.00    -0.269 OA
ATOM     13  N   UNL A   1      30.184  26.587  25.109  1.00  0.00    -0.352 N 
ATOM     14  H   UNL A   1      29.503  27.136  25.558  1.00  0.00     0.163 HD
BRANCH  13  15
ATOM     15  C   UNL A   1      29.864  26.297  23.721  1.00  0.00     0.121 C 
BRANCH  15  16
ATOM     16  C   UNL A   1      30.316  27.436  22.795  1.00  0.00     0.057 C 
BRANCH  16  17
ATOM     17  C   UNL A   1      29.414  28.639  22.961  1.00  0.00    -0.046 A 
ATOM     18  C   UNL A   1      29.956  29.880  23.324  1.00  0.00     0.004 A 
ATOM     19  C   UNL A   1      28.021  28.509  22.856  1.00  0.00     0.004 A 
ATOM     20  C   UNL A   1      29.118  30.958  23.612  1.00  0.00     0.000 A 
ATOM     21  C   UNL A   1      27.186  29.584  23.161  1.00  0.00     0.000 A 
ATOM     22  C   UNL A   1      27.735  30.806  23.544  1.00  0.00     0.000 A 
ENDBRANCH  16  17
ENDBRANCH  15  16
ENDBRANCH  13  15
ENDBRANCH  10  11
ENDBRANCH   3   5
ENDBRANCH   2   3
ENDBRANCH   1   2
BRANCH   1  23
ATOM     23  C   UNL A   1      32.589  29.648  26.972  1.00  0.00     0.275 C 
BRANCH  23  24
ATOM     24  O   UNL A   1      33.685  29.382  27.869  1.00  0.00    -0.458 OA
BRANCH  24  25
ATOM     25  C   UNL A   1      34.475  30.447  28.141  1.00  0.00     0.338 C 
ATOM     26  O   UNL A   1      34.125  31.594  28.366  1.00  0.00    -0.246 OA
BRANCH  25  27
ATOM     27  C   UNL A   1      35.870  29.997  28.266  1.00  0.00     0.060 A 
ATOM     28  C   UNL A   1      36.285  29.544  29.517  1.00  0.00     0.016 A 
ATOM     29  C   UNL A   1      36.780  30.087  27.215  1.00  0.00     0.016 A 
ATOM     30  C   UNL A   1      37.609  29.188  29.740  1.00  0.00     0.010 A 
ATOM     31  C   UNL A   1      38.115  29.720  27.434  1.00  0.00     0.010 A 
ATOM     32  C   UNL A   1      38.541  29.281  28.702  1.00  0.00    -0.014 A 
BRANCH  32  33
ATOM     33  C   UNL A   1      39.966  28.969  28.973  1.00  0.00     0.031 A 
ATOM     34  C   UNL A   1      40.843  30.001  29.626  1.00  0.00     0.074 A 
ATOM     35  C   UNL A   1      40.457  27.751  28.676  1.00  0.00     0.049 A 
ATOM     36  N   UNL A   1      42.126  29.957  29.873  1.00  0.00    -0.248 NA
ATOM     37  C   UNL A   1      40.189  31.245  30.062  1.00  0.00     0.031 C 
ATOM     38  C   UNL A   1      39.689  26.649  28.093  1.00  0.00     0.029 A 
ATOM     39  N   UNL A   1      41.719  27.234  28.826  1.00  0.00    -0.354 N 
ATOM     40  C   UNL A   1      42.441  31.176  30.462  1.00  0.00     0.074 A 
ATOM     41  C   UNL A   1      41.215  31.941  30.532  1.00  0.00     0.031 C 
ATOM     42  C   UNL A   1      40.495  25.586  27.937  1.00  0.00     0.029 A 
ATOM     43  C   UNL A   1      41.845  25.946  28.362  1.00  0.00     0.049 A 
ATOM     44  H   UNL A   1      42.465  27.737  29.227  1.00  0.00     0.167 HD
ATOM     45  C   UNL A   1      43.645  31.613  30.903  1.00  0.00     0.037 A 
ATOM     46  C   UNL A   1      42.932  25.155  28.261  1.00  0.00     0.037 A 
ATOM     47  C   UNL A   1      44.855  30.834  30.854  1.00  0.00     0.049 A 
ATOM     48  C   UNL A   1      44.265  25.680  28.720  1.00  0.00     0.074 A 
ATOM     49  C   UNL A   1      46.124  31.187  31.282  1.00  0.00     0.029 A 
ATOM     50  N   UNL A   1      44.946  29.543  30.356  1.00  0.00    -0.354 N 
ATOM     51  N   UNL A   1      44.553  26.845  29.252  1.00  0.00    -0.248 NA
ATOM     52  C   UNL A   1      45.423  24.790  28.558  1.00  0.00     0.031 C 
ATOM     53  C   UNL A   1      46.988  30.121  31.012  1.00  0.00     0.029 A 
ATOM     54  C   UNL A   1      46.252  29.090  30.452  1.00  0.00     0.049 A 
ATOM     55  H   UNL A   1      44.194  29.026  29.987  1.00  0.00     0.167 HD
ATOM     56  C   UNL A   1      45.920  26.821  29.502  1.00  0.00     0.074 A 
ATOM     57  C   UNL A   1      46.400  25.522  29.078  1.00  0.00     0.031 C 
ATOM     58  C   UNL A   1      46.708  27.788  30.032  1.00  0.00     0.037 A 
BRANCH  45  59
ATOM     59  C   UNL A   1      43.722  33.009  31.450  1.00  0.00     0.058 A 
ATOM     60  C   UNL A   1      43.966  34.116  30.623  1.00  0.00     0.135 A 
ATOM     61  C   UNL A   1      43.505  33.247  32.818  1.00  0.00     0.135 A 
ATOM     62  F   UNL A   1      44.198  33.943  29.313  1.00  0.00    -0.206 F 
ATOM     63  C   UNL A   1      44.008  35.410  31.136  1.00  0.00     0.059 A 
ATOM     64  C   UNL A   1      43.522  34.533  33.347  1.00  0.00     0.059 A 
ATOM     65  F   UNL A   1      43.271  32.221  33.652  1.00  0.00    -0.206 F 
ATOM     66  C   UNL A   1      43.785  35.607  32.500  1.00  0.00     0.060 A 
BRANCH  66  67
ATOM     67  S   UNL A   1      43.829  37.293  33.149  1.00  0.00     0.124 S 
ATOM     68  O   UNL A   1      42.637  37.311  33.991  1.00  0.00    -0.237 OA
ATOM     69  O   UNL A   1      45.105  37.322  33.859  1.00  0.00    -0.237 OA
ATOM     70  O   UNL A   1      43.765  38.121  31.949  1.00  0.00    -0.744 OA
ENDBRANCH  66  67
ENDBRANCH  45  59
BRANCH  46  71
ATOM     71  C   UNL A   1      42.812  23.796  27.670  1.00  0.00     0.058 A 
ATOM     72  C   UNL A   1      42.489  22.686  28.463  1.00  0.00     0.135 A 
ATOM     73  C   UNL A   1      43.024  23.582  26.299  1.00  0.00     0.135 A 
ATOM     74  F   UNL A   1      42.288  22.837  29.780  1.00  0.00    -0.206 F 
ATOM     75  C   UNL A   1      42.396  21.407  27.921  1.00  0.00     0.059 A 
ATOM     76  C   UNL A   1      42.913  22.317  25.730  1.00  0.00     0.059 A 
ATOM     77  F   UNL A   1      43.328  24.614  25.496  1.00  0.00    -0.206 F 
ATOM     78  C   UNL A   1      42.612  21.233  26.553  1.00  0.00     0.060 A 
BRANCH  78  79
ATOM     79  S   UNL A   1      42.457  19.577  25.849  1.00  0.00     0.124 S 
ATOM     80  O   UNL A   1      42.826  18.741  26.985  1.00  0.00    -0.237 OA
ATOM     81  O   UNL A   1      41.052  19.535  25.455  1.00  0.00    -0.237 OA
ATOM     82  O   UNL A   1      43.408  19.595  24.741  1.00  0.00    -0.744 OA
ENDBRANCH  78  79
ENDBRANCH  46  71
BRANCH  58  83
ATOM     83  C   UNL A   1      48.164  27.468  30.213  1.00  0.00     0.058 A 
ATOM     84  C   UNL A   1      48.622  26.737  31.319  1.00  0.00     0.135 A 
ATOM     85  C   UNL A   1      49.103  27.855  29.244  1.00  0.00     0.135 A 
ATOM     86  F   UNL A   1      47.765  26.349  32.275  1.00  0.00    -0.206 F 
ATOM     87  C   UNL A   1      49.968  26.417  31.468  1.00  0.00     0.059 A 
ATOM     88  C   UNL A   1      50.449  27.527  29.361  1.00  0.00     0.059 A 
ATOM     89  F   UNL A   1      48.711  28.548  28.163  1.00  0.00    -0.206 F 
ATOM     90  C   UNL A   1      50.874  26.817  30.484  1.00  0.00     0.060 A 
BRANCH  90  91
ATOM     91  S   UNL A   1      52.613  26.366  30.668  1.00  0.00     0.124 S 
ATOM     92  O   UNL A   1      52.527  25.240  31.591  1.00  0.00    -0.237 OA
ATOM     93  O   UNL A   1      53.001  26.037  29.300  1.00  0.00    -0.237 OA
ATOM     94  O   UNL A   1      53.221  27.578  31.209  1.00  0.00    -0.744 OA
ENDBRANCH  90  91
ENDBRANCH  58  83
ENDBRANCH  32  33
ENDBRANCH  25  27
ENDBRANCH  24  25
ENDBRANCH  23  24
ENDBRANCH   1  23
TORSDOF 18
ENDMDL
MODEL 3
REMARK VINA RESULT:     -10.9      3.364      5.635
REMARK SMILES Cn1cc(C(=O)NCCc2ccccc2)c(C(=O)OCCOC(=O)c2ccc(-c3c4nc(c(-c5c(F)cc(S(=O)(=O)[O-])cc5F)c5ccc([nH]5)c(-c5c(F)cc(S(=O)(=O)[O-])cc5F)c5nc(c(-c6c(F)cc(S(=O)(=O)[O-])cc6F)c6ccc3[nH]6)C=C5)C=C4)cc2)n1
REMARK SMILES IDX 20 1 19 2 17 3 18 4 16 5 1 6 2 7 3 8 91 9 4 10 5 11 6 12
REMARK SMILES IDX 7 13 8 15 9 16 10 17 11 18 15 19 12 20 14 21 13 22 21 23
REMARK SMILES IDX 22 24 23 25 24 26 25 27 26 28 90 29 27 30 89 31 28 32 29 33
REMARK SMILES IDX 30 34 83 35 31 36 88 37 82 38 84 39 32 40 87 41 81 42 80 43
REMARK SMILES IDX 33 45 67 46 46 47 66 48 47 49 50 50 65 51 85 52 48 53 49 54
REMARK SMILES IDX 64 56 86 57 51 58 34 59 35 60 44 61 36 62 37 63 43 64 45 65
REMARK SMILES IDX 38 66 39 67 40 68 41 69 42 70 68 71 69 72 78 73 70 74 71 75
REMARK SMILES IDX 77 76 79 77 72 78 73 79 74 80 75 81 76 82 52 83 53 84 62 85
REMARK SMILES IDX 54 86 55 87 61 88 63 89 56 90 57 91 58 92 59 93 60 94
REMARK H PARENT 7 14 84 44 50 55
REMARK Flexibility Score: inf
ROOT
ATOM      1  C   UNL A   1      35.117  23.824  25.805  1.00  0.00     0.275 C 
ENDROOT
BRANCH   1   2
ATOM      2  O   UNL A   1      34.446  24.524  24.745  1.00  0.00    -0.457 OA
BRANCH   2   3
ATOM      3  C   UNL A   1      33.234  25.089  25.036  1.00  0.00     0.359 C 
ATOM      4  O   UNL A   1      32.217  24.454  25.274  1.00  0.00    -0.244 OA
BRANCH   3   5
ATOM      5  C   UNL A   1      33.338  26.553  25.170  1.00  0.00     0.183 A 
ATOM      6  C   UNL A   1      34.529  29.254  27.043  1.00  0.00     0.173 C 
ATOM      7  N   UNL A   1      33.959  28.385  26.041  1.00  0.00    -0.274 N 
ATOM      8  C   UNL A   1      33.642  28.705  24.755  1.00  0.00     0.123 A 
ATOM      9  N   UNL A   1      33.714  27.108  26.340  1.00  0.00    -0.165 NA
ATOM     10  C   UNL A   1      33.101  27.565  24.184  1.00  0.00     0.092 A 
BRANCH  10  11
ATOM     11  C   UNL A   1      32.451  27.358  22.902  1.00  0.00     0.255 C 
ATOM     12  O   UNL A   1      33.022  26.806  21.962  1.00  0.00    -0.269 OA
ATOM     13  N   UNL A   1      31.135  27.673  22.704  1.00  0.00    -0.352 N 
ATOM     14  H   UNL A   1      30.797  27.397  21.822  1.00  0.00     0.163 HD
BRANCH  13  15
ATOM     15  C   UNL A   1      30.131  28.332  23.522  1.00  0.00     0.121 C 
BRANCH  15  16
ATOM     16  C   UNL A   1      28.825  28.542  22.743  1.00  0.00     0.057 C 
BRANCH  16  17
ATOM     17  C   UNL A   1      28.577  30.017  22.517  1.00  0.00    -0.046 A 
ATOM     18  C   UNL A   1      28.208  30.483  21.248  1.00  0.00     0.004 A 
ATOM     19  C   UNL A   1      28.813  30.947  23.541  1.00  0.00     0.004 A 
ATOM     20  C   UNL A   1      28.111  31.853  21.000  1.00  0.00     0.000 A 
ATOM     21  C   UNL A   1      28.732  32.316  23.285  1.00  0.00     0.000 A 
ATOM     22  C   UNL A   1      28.387  32.768  22.014  1.00  0.00     0.000 A 
ENDBRANCH  16  17
ENDBRANCH  15  16
ENDBRANCH  13  15
ENDBRANCH  10  11
ENDBRANCH   3   5
ENDBRANCH   2   3
ENDBRANCH   1   2
BRANCH   1  23
ATOM     23  C   UNL A   1      36.284  23.013  25.235  1.00  0.00     0.275 C 
BRANCH  23  24
ATOM     24  O   UNL A   1      37.487  23.806  25.199  1.00  0.00    -0.458 OA
BRANCH  24  25
ATOM     25  C   UNL A   1      38.522  23.312  25.919  1.00  0.00     0.338 C 
ATOM     26  O   UNL A   1      38.987  22.185  25.874  1.00  0.00    -0.246 OA
BRANCH  25  27
ATOM     27  C   UNL A   1      39.127  24.398  26.705  1.00  0.00     0.060 A 
ATOM     28  C   UNL A   1      38.745  24.510  28.039  1.00  0.00     0.016 A 
ATOM     29  C   UNL A   1      39.987  25.338  26.140  1.00  0.00     0.016 A 
ATOM     30  C   UNL A   1      39.201  25.562  28.824  1.00  0.00     0.010 A 
ATOM     31  C   UNL A   1      40.457  26.395  26.930  1.00  0.00     0.010 A 
ATOM     32  C   UNL A   1      40.056  26.522  28.274  1.00  0.00    -0.014 A 
BRANCH  32  33
ATOM     33  C   UNL A   1      40.475  27.681  29.100  1.00  0.00     0.031 A 
ATOM     34  C   UNL A   1      41.812  27.661  29.787  1.00  0.00     0.074 A 
ATOM     35  C   UNL A   1      39.679  28.763  29.197  1.00  0.00     0.049 A 
ATOM     36  N   UNL A   1      42.329  28.531  30.615  1.00  0.00    -0.248 NA
ATOM     37  C   UNL A   1      42.686  26.512  29.502  1.00  0.00     0.031 C 
ATOM     38  C   UNL A   1      38.385  28.922  28.529  1.00  0.00     0.029 A 
ATOM     39  N   UNL A   1      39.842  29.935  29.890  1.00  0.00    -0.354 N 
ATOM     40  C   UNL A   1      43.570  28.022  30.976  1.00  0.00     0.074 A 
ATOM     41  C   UNL A   1      43.730  26.763  30.280  1.00  0.00     0.031 C 
ATOM     42  C   UNL A   1      37.874  30.123  28.844  1.00  0.00     0.029 A 
ATOM     43  C   UNL A   1      38.778  30.797  29.773  1.00  0.00     0.049 A 
ATOM     44  H   UNL A   1      40.645  30.141  30.422  1.00  0.00     0.167 HD
ATOM     45  C   UNL A   1      44.491  28.559  31.812  1.00  0.00     0.037 A 
ATOM     46  C   UNL A   1      38.542  31.982  30.369  1.00  0.00     0.037 A 
ATOM     47  C   UNL A   1      44.336  29.825  32.479  1.00  0.00     0.049 A 
ATOM     48  C   UNL A   1      39.563  32.536  31.326  1.00  0.00     0.074 A 
ATOM     49  C   UNL A   1      45.216  30.457  33.341  1.00  0.00     0.029 A 
ATOM     50  N   UNL A   1      43.234  30.657  32.353  1.00  0.00    -0.354 N 
ATOM     51  N   UNL A   1      40.722  32.031  31.677  1.00  0.00    -0.248 NA
ATOM     52  C   UNL A   1      39.242  33.815  31.975  1.00  0.00     0.031 C 
ATOM     53  C   UNL A   1      44.630  31.657  33.761  1.00  0.00     0.029 A 
ATOM     54  C   UNL A   1      43.404  31.790  33.131  1.00  0.00     0.049 A 
ATOM     55  H   UNL A   1      42.446  30.470  31.793  1.00  0.00     0.167 HD
ATOM     56  C   UNL A   1      41.275  32.938  32.574  1.00  0.00     0.074 A 
ATOM     57  C   UNL A   1      40.332  34.030  32.701  1.00  0.00     0.031 C 
ATOM     58  C   UNL A   1      42.456  32.871  33.236  1.00  0.00     0.037 A 
BRANCH  45  59
ATOM     59  C   UNL A   1      45.738  27.765  32.078  1.00  0.00     0.058 A 
ATOM     60  C   UNL A   1      45.826  26.860  33.147  1.00  0.00     0.135 A 
ATOM     61  C   UNL A   1      46.847  27.881  31.223  1.00  0.00     0.135 A 
ATOM     62  F   UNL A   1      44.802  26.725  34.004  1.00  0.00    -0.206 F 
ATOM     63  C   UNL A   1      46.976  26.108  33.368  1.00  0.00     0.059 A 
ATOM     64  C   UNL A   1      47.999  27.125  31.415  1.00  0.00     0.059 A 
ATOM     65  F   UNL A   1      46.815  28.735  30.188  1.00  0.00    -0.206 F 
ATOM     66  C   UNL A   1      48.058  26.248  32.496  1.00  0.00     0.060 A 
BRANCH  66  67
ATOM     67  S   UNL A   1      49.539  25.257  32.789  1.00  0.00     0.124 S 
ATOM     68  O   UNL A   1      48.993  24.135  33.545  1.00  0.00    -0.237 OA
ATOM     69  O   UNL A   1      49.983  24.949  31.433  1.00  0.00    -0.237 OA
ATOM     70  O   UNL A   1      50.408  26.159  33.539  1.00  0.00    -0.744 OA
ENDBRANCH  66  67
ENDBRANCH  45  59
BRANCH  46  71
ATOM     71  C   UNL A   1      37.271  32.708  30.108  1.00  0.00     0.058 A 
ATOM     72  C   UNL A   1      36.130  32.478  30.890  1.00  0.00     0.135 A 
ATOM     73  C   UNL A   1      37.173  33.644  29.067  1.00  0.00     0.135 A 
ATOM     74  F   UNL A   1      36.170  31.585  31.890  1.00  0.00    -0.206 F 
ATOM     75  C   UNL A   1      34.930  33.138  30.639  1.00  0.00     0.059 A 
ATOM     76  C   UNL A   1      35.992  34.334  28.812  1.00  0.00     0.059 A 
ATOM     77  F   UNL A   1      38.240  33.906  28.296  1.00  0.00    -0.206 F 
ATOM     78  C   UNL A   1      34.872  34.064  29.596  1.00  0.00     0.060 A 
BRANCH  78  79
ATOM     79  S   UNL A   1      33.322  34.942  29.295  1.00  0.00     0.124 S 
ATOM     80  O   UNL A   1      32.732  34.958  30.628  1.00  0.00    -0.237 OA
ATOM     81  O   UNL A   1      33.787  36.229  28.787  1.00  0.00    -0.237 OA
ATOM     82  O   UNL A   1      32.646  34.098  28.314  1.00  0.00    -0.744 OA
ENDBRANCH  78  79
ENDBRANCH  46  71
BRANCH  58  83
ATOM     83  C   UNL A   1      42.809  34.024  34.132  1.00  0.00     0.058 A 
ATOM     84  C   UNL A   1      42.443  34.039  35.486  1.00  0.00     0.135 A 
ATOM     85  C   UNL A   1      43.563  35.101  33.640  1.00  0.00     0.135 A 
ATOM     86  F   UNL A   1      41.717  33.036  36.002  1.00  0.00    -0.206 F 
ATOM     87  C   UNL A   1      42.798  35.095  36.320  1.00  0.00     0.059 A 
ATOM     88  C   UNL A   1      43.947  36.156  34.461  1.00  0.00     0.059 A 
ATOM     89  F   UNL A   1      43.945  35.127  32.354  1.00  0.00    -0.206 F 
ATOM     90  C   UNL A   1      43.550  36.150  35.798  1.00  0.00     0.060 A 
BRANCH  90  91
ATOM     91  S   UNL A   1      44.035  37.498  36.896  1.00  0.00     0.124 S 
ATOM     92  O   UNL A   1      42.998  37.430  37.920  1.00  0.00    -0.237 OA
ATOM     93  O   UNL A   1      45.372  37.094  37.320  1.00  0.00    -0.237 OA
ATOM     94  O   UNL A   1      43.990  38.673  36.030  1.00  0.00    -0.744 OA
ENDBRANCH  90  91
ENDBRANCH  58  83
ENDBRANCH  32  33
ENDBRANCH  25  27
ENDBRANCH  24  25
ENDBRANCH  23  24
ENDBRANCH   1  23
TORSDOF 18
ENDMDL
