MODEL 1
REMARK VINA RESULT:     -11.4      0.000      0.000
REMARK SMILES C[C@]1(CNC(=O)N[C@H]2CC[C@@H](C(=O)OCCOC(=O)c3ccc(-c4c5nc(c(-c6c(F)cc(S(=O)(=O)[O-])cc6F)c6ccc([nH]6)c(-c6c(F)cc(S(=O)(=O)[O-])cc6F)c6nc(c(-c7c(F)cc(S(=O)(=O)[O-])cc7F)c7ccc4[nH]7)C=C6)C=C5)cc3)CC2)CCCO1
REMARK SMILES IDX 15 1 14 2 12 3 13 4 11 5 8 6 9 7 87 8 10 9 86 10 7 11 4 12
REMARK SMILES IDX 5 13 6 15 3 17 2 18 1 19 88 20 91 21 89 22 90 23 16 24 17 25
REMARK SMILES IDX 18 26 19 27 20 28 21 29 85 30 22 31 84 32 23 33 24 34 25 35
REMARK SMILES IDX 78 36 26 37 83 38 77 39 79 40 27 41 82 42 76 43 75 44 28 46
REMARK SMILES IDX 62 47 41 48 61 49 42 50 45 51 60 52 80 53 43 54 44 55 59 57
REMARK SMILES IDX 81 58 46 59 29 60 30 61 39 62 31 63 32 64 38 65 40 66 33 67
REMARK SMILES IDX 34 68 35 69 36 70 37 71 63 72 64 73 73 74 65 75 66 76 72 77
REMARK SMILES IDX 74 78 67 79 68 80 69 81 70 82 71 83 47 84 48 85 57 86 49 87
REMARK SMILES IDX 50 88 56 89 58 90 51 91 52 92 53 93 54 94 55 95
REMARK H PARENT 4 14 7 16 79 45 45 56
REMARK Flexibility Score: inf
ROOT
ATOM      1  C   UNL A   1      32.395  30.341  25.957  1.00  0.00     0.274 C 
ENDROOT
BRANCH   1   2
ATOM      2  O   UNL A   1      32.602  29.489  24.816  1.00  0.00    -0.462 OA
BRANCH   2   3
ATOM      3  C   UNL A   1      31.532  28.878  24.250  1.00  0.00     0.309 C 
ATOM      4  O   UNL A   1      30.426  29.382  24.120  1.00  0.00    -0.252 OA
BRANCH   3   5
ATOM      5  C   UNL A   1      31.873  27.466  23.770  1.00  0.00     0.099 C 
ATOM      6  C   UNL A   1      30.745  25.071  25.186  1.00  0.00     0.083 C 
ATOM      7  C   UNL A   1      29.852  25.891  24.233  1.00  0.00     0.026 C 
ATOM      8  C   UNL A   1      31.677  26.063  25.844  1.00  0.00     0.026 C 
ATOM      9  C   UNL A   1      30.670  26.696  23.205  1.00  0.00     0.017 C 
ATOM     10  C   UNL A   1      32.624  26.656  24.822  1.00  0.00     0.017 C 
BRANCH   6  11
ATOM     11  N   UNL A   1      29.981  24.352  26.195  1.00  0.00    -0.335 N 
ATOM     12  N   UNL A   1      31.161  22.313  26.508  1.00  0.00    -0.335 N 
ATOM     13  C   UNL A   1      30.206  23.195  26.845  1.00  0.00     0.315 C 
ATOM     14  H   UNL A   1      31.498  21.804  27.282  1.00  0.00     0.165 HD
ATOM     15  O   UNL A   1      29.517  22.962  27.842  1.00  0.00    -0.249 OA
ATOM     16  H   UNL A   1      29.141  24.796  26.450  1.00  0.00     0.165 HD
BRANCH  12  17
ATOM     17  C   UNL A   1      31.820  21.935  25.255  1.00  0.00     0.152 C 
BRANCH  17  18
ATOM     18  C   UNL A   1      33.315  22.376  25.157  1.00  0.00     0.083 C 
ATOM     19  C   UNL A   1      33.524  23.066  23.798  1.00  0.00     0.044 C 
ATOM     20  C   UNL A   1      33.834  23.289  26.276  1.00  0.00     0.039 C 
ATOM     21  O   UNL A   1      34.182  21.210  25.180  1.00  0.00    -0.373 OA
ATOM     22  C   UNL A   1      35.303  22.954  26.340  1.00  0.00     0.031 C 
ATOM     23  C   UNL A   1      35.257  21.461  26.107  1.00  0.00     0.161 C 
ENDBRANCH  17  18
ENDBRANCH  12  17
ENDBRANCH   6  11
ENDBRANCH   3   5
ENDBRANCH   2   3
ENDBRANCH   1   2
BRANCH   1  24
ATOM     24  C   UNL A   1      32.426  29.493  27.229  1.00  0.00     0.275 C 
BRANCH  24  25
ATOM     25  O   UNL A   1      33.792  29.250  27.614  1.00  0.00    -0.458 OA
BRANCH  25  26
ATOM     26  C   UNL A   1      34.473  30.310  28.105  1.00  0.00     0.338 C 
ATOM     27  O   UNL A   1      34.033  31.396  28.434  1.00  0.00    -0.246 OA
BRANCH  26  28
ATOM     28  C   UNL A   1      35.875  29.909  28.292  1.00  0.00     0.060 A 
ATOM     29  C   UNL A   1      36.284  29.447  29.546  1.00  0.00     0.016 A 
ATOM     30  C   UNL A   1      36.789  30.035  27.246  1.00  0.00     0.016 A 
ATOM     31  C   UNL A   1      37.619  29.114  29.764  1.00  0.00     0.010 A 
ATOM     32  C   UNL A   1      38.125  29.686  27.462  1.00  0.00     0.010 A 
ATOM     33  C   UNL A   1      38.549  29.235  28.724  1.00  0.00    -0.014 A 
BRANCH  33  34
ATOM     34  C   UNL A   1      39.978  28.923  28.964  1.00  0.00     0.031 A 
ATOM     35  C   UNL A   1      40.894  29.989  29.495  1.00  0.00     0.074 A 
ATOM     36  C   UNL A   1      40.448  27.691  28.698  1.00  0.00     0.049 A 
ATOM     37  N   UNL A   1      42.188  29.954  29.672  1.00  0.00    -0.248 NA
ATOM     38  C   UNL A   1      40.268  31.267  29.872  1.00  0.00     0.031 C 
ATOM     39  C   UNL A   1      39.645  26.568  28.211  1.00  0.00     0.029 A 
ATOM     40  N   UNL A   1      41.718  27.180  28.785  1.00  0.00    -0.354 N 
ATOM     41  C   UNL A   1      42.538  31.207  30.159  1.00  0.00     0.074 A 
ATOM     42  C   UNL A   1      41.320  31.987  30.234  1.00  0.00     0.031 C 
ATOM     43  C   UNL A   1      40.444  25.503  28.036  1.00  0.00     0.029 A 
ATOM     44  C   UNL A   1      41.818  25.879  28.353  1.00  0.00     0.049 A 
ATOM     45  H   UNL A   1      42.485  27.695  29.126  1.00  0.00     0.167 HD
ATOM     46  C   UNL A   1      43.763  31.662  30.513  1.00  0.00     0.037 A 
ATOM     47  C   UNL A   1      42.900  25.092  28.198  1.00  0.00     0.037 A 
ATOM     48  C   UNL A   1      44.967  30.874  30.441  1.00  0.00     0.049 A 
ATOM     49  C   UNL A   1      44.259  25.636  28.550  1.00  0.00     0.074 A 
ATOM     50  C   UNL A   1      46.256  31.236  30.792  1.00  0.00     0.029 A 
ATOM     51  N   UNL A   1      45.031  29.564  29.989  1.00  0.00    -0.354 N 
ATOM     52  N   UNL A   1      44.576  26.823  29.014  1.00  0.00    -0.248 NA
ATOM     53  C   UNL A   1      45.405  24.739  28.358  1.00  0.00     0.031 C 
ATOM     54  C   UNL A   1      47.104  30.160  30.511  1.00  0.00     0.029 A 
ATOM     55  C   UNL A   1      46.338  29.110  30.031  1.00  0.00     0.049 A 
ATOM     56  H   UNL A   1      44.260  29.034  29.681  1.00  0.00     0.167 HD
ATOM     57  C   UNL A   1      45.955  26.806  29.189  1.00  0.00     0.074 A 
ATOM     58  C   UNL A   1      46.409  25.489  28.792  1.00  0.00     0.031 C 
ATOM     59  C   UNL A   1      46.772  27.791  29.638  1.00  0.00     0.037 A 
BRANCH  46  60
ATOM     60  C   UNL A   1      43.869  33.087  30.980  1.00  0.00     0.058 A 
ATOM     61  C   UNL A   1      44.071  34.147  30.083  1.00  0.00     0.135 A 
ATOM     62  C   UNL A   1      43.739  33.399  32.344  1.00  0.00     0.135 A 
ATOM     63  F   UNL A   1      44.220  33.903  28.771  1.00  0.00    -0.206 F 
ATOM     64  C   UNL A   1      44.167  35.464  30.523  1.00  0.00     0.059 A 
ATOM     65  C   UNL A   1      43.806  34.711  32.803  1.00  0.00     0.059 A 
ATOM     66  F   UNL A   1      43.547  32.423  33.245  1.00  0.00    -0.206 F 
ATOM     67  C   UNL A   1      44.036  35.735  31.886  1.00  0.00     0.060 A 
BRANCH  67  68
ATOM     68  S   UNL A   1      44.167  37.448  32.442  1.00  0.00     0.124 S 
ATOM     69  O   UNL A   1      45.563  37.510  32.863  1.00  0.00    -0.237 OA
ATOM     70  O   UNL A   1      43.835  38.195  31.233  1.00  0.00    -0.237 OA
ATOM     71  O   UNL A   1      43.183  37.532  33.518  1.00  0.00    -0.744 OA
ENDBRANCH  67  68
ENDBRANCH  46  60
BRANCH  47  72
ATOM     72  C   UNL A   1      42.743  23.713  27.666  1.00  0.00     0.058 A 
ATOM     73  C   UNL A   1      42.555  22.622  28.526  1.00  0.00     0.135 A 
ATOM     74  C   UNL A   1      42.764  23.461  26.284  1.00  0.00     0.135 A 
ATOM     75  F   UNL A   1      42.537  22.811  29.854  1.00  0.00    -0.206 F 
ATOM     76  C   UNL A   1      42.403  21.327  28.039  1.00  0.00     0.059 A 
ATOM     77  C   UNL A   1      42.590  22.179  25.772  1.00  0.00     0.059 A 
ATOM     78  F   UNL A   1      42.931  24.472  25.418  1.00  0.00    -0.206 F 
ATOM     79  C   UNL A   1      42.419  21.117  26.659  1.00  0.00     0.060 A 
BRANCH  79  80
ATOM     80  S   UNL A   1      42.168  19.442  26.034  1.00  0.00     0.124 S 
ATOM     81  O   UNL A   1      42.630  18.637  27.159  1.00  0.00    -0.237 OA
ATOM     82  O   UNL A   1      40.731  19.419  25.780  1.00  0.00    -0.237 OA
ATOM     83  O   UNL A   1      43.007  19.400  24.841  1.00  0.00    -0.744 OA
ENDBRANCH  79  80
ENDBRANCH  47  72
BRANCH  59  84
ATOM     84  C   UNL A   1      48.235  27.473  29.760  1.00  0.00     0.058 A 
ATOM     85  C   UNL A   1      49.159  27.862  28.777  1.00  0.00     0.135 A 
ATOM     86  C   UNL A   1      48.726  26.816  30.899  1.00  0.00     0.135 A 
ATOM     87  F   UNL A   1      48.740  28.487  27.665  1.00  0.00    -0.206 F 
ATOM     88  C   UNL A   1      50.517  27.591  28.911  1.00  0.00     0.059 A 
ATOM     89  C   UNL A   1      50.083  26.557  31.065  1.00  0.00     0.059 A 
ATOM     90  F   UNL A   1      47.885  26.431  31.873  1.00  0.00    -0.206 F 
ATOM     91  C   UNL A   1      50.969  26.940  30.060  1.00  0.00     0.060 A 
BRANCH  91  92
ATOM     92  S   UNL A   1      52.738  26.625  30.239  1.00  0.00     0.124 S 
ATOM     93  O   UNL A   1      53.253  27.968  30.484  1.00  0.00    -0.237 OA
ATOM     94  O   UNL A   1      52.780  25.711  31.377  1.00  0.00    -0.237 OA
ATOM     95  O   UNL A   1      53.109  26.035  28.956  1.00  0.00    -0.744 OA
ENDBRANCH  91  92
ENDBRANCH  59  84
ENDBRANCH  33  34
ENDBRANCH  26  28
ENDBRANCH  25  26
ENDBRANCH  24  25
ENDBRANCH   1  24
TORSDOF 17
ENDMDL
MODEL 2
REMARK VINA RESULT:     -11.1      4.954     10.615
REMARK SMILES C[C@]1(CNC(=O)N[C@H]2CC[C@@H](C(=O)OCCOC(=O)c3ccc(-c4c5nc(c(-c6c(F)cc(S(=O)(=O)[O-])cc6F)c6ccc([nH]6)c(-c6c(F)cc(S(=O)(=O)[O-])cc6F)c6nc(c(-c7c(F)cc(S(=O)(=O)[O-])cc7F)c7ccc4[nH]7)C=C6)C=C5)cc3)CC2)CCCO1
REMARK SMILES IDX 15 1 14 2 12 3 13 4 11 5 8 6 9 7 87 8 10 9 86 10 7 11 4 12
REMARK SMILES IDX 5 13 6 15 3 17 2 18 1 19 88 20 91 21 89 22 90 23 16 24 17 25
REMARK SMILES IDX 18 26 19 27 20 28 21 29 85 30 22 31 84 32 23 33 24 34 25 35
REMARK SMILES IDX 78 36 26 37 83 38 77 39 79 40 27 41 82 42 76 43 75 44 28 46
REMARK SMILES IDX 62 47 41 48 61 49 42 50 45 51 60 52 80 53 43 54 44 55 59 57
REMARK SMILES IDX 81 58 46 59 29 60 30 61 39 62 31 63 32 64 38 65 40 66 33 67
REMARK SMILES IDX 34 68 35 69 36 70 37 71 63 72 64 73 73 74 65 75 66 76 72 77
REMARK SMILES IDX 74 78 67 79 68 80 69 81 70 82 71 83 47 84 48 85 57 86 49 87
REMARK SMILES IDX 50 88 56 89 58 90 51 91 52 92 53 93 54 94 55 95
REMARK H PARENT 4 14 7 16 79 45 45 56
REMARK Flexibility Score: inf
ROOT
ATOM      1  C   UNL A   1      39.339  21.514  26.107  1.00  0.00     0.274 C 
ENDROOT
BRANCH   1   2
ATOM      2  O   UNL A   1      38.071  22.176  25.951  1.00  0.00    -0.462 OA
BRANCH   2   3
ATOM      3  C   UNL A   1      37.220  21.744  24.988  1.00  0.00     0.309 C 
ATOM      4  O   UNL A   1      37.154  20.596  24.575  1.00  0.00    -0.252 OA
BRANCH   3   5
ATOM      5  C   UNL A   1      36.323  22.874  24.475  1.00  0.00     0.099 C 
ATOM      6  C   UNL A   1      33.613  23.325  25.685  1.00  0.00     0.083 C 
ATOM      7  C   UNL A   1      34.877  23.781  26.441  1.00  0.00     0.026 C 
ATOM      8  C   UNL A   1      33.997  22.058  24.954  1.00  0.00     0.026 C 
ATOM      9  C   UNL A   1      36.083  23.989  25.504  1.00  0.00     0.017 C 
ATOM     10  C   UNL A   1      35.018  22.358  23.877  1.00  0.00     0.017 C 
BRANCH   6  11
ATOM     11  N   UNL A   1      32.487  23.073  26.572  1.00  0.00    -0.335 N 
ATOM     12  N   UNL A   1      31.172  25.050  26.457  1.00  0.00    -0.335 N 
ATOM     13  C   UNL A   1      31.371  23.778  26.840  1.00  0.00     0.315 C 
ATOM     14  H   UNL A   1      30.220  25.257  26.310  1.00  0.00     0.165 HD
ATOM     15  O   UNL A   1      30.461  23.194  27.435  1.00  0.00    -0.249 OA
ATOM     16  H   UNL A   1      32.553  22.226  27.069  1.00  0.00     0.165 HD
BRANCH  12  17
ATOM     17  C   UNL A   1      32.045  26.200  26.206  1.00  0.00     0.152 C 
BRANCH  17  18
ATOM     18  C   UNL A   1      32.225  26.551  24.694  1.00  0.00     0.083 C 
ATOM     19  C   UNL A   1      31.569  27.919  24.438  1.00  0.00     0.044 C 
ATOM     20  C   UNL A   1      33.664  26.570  24.163  1.00  0.00     0.039 C 
ATOM     21  O   UNL A   1      31.524  25.582  23.870  1.00  0.00    -0.373 OA
ATOM     22  C   UNL A   1      33.498  26.210  22.708  1.00  0.00     0.031 C 
ATOM     23  C   UNL A   1      32.403  25.173  22.803  1.00  0.00     0.161 C 
ENDBRANCH  17  18
ENDBRANCH  12  17
ENDBRANCH   6  11
ENDBRANCH   3   5
ENDBRANCH   2   3
ENDBRANCH   1   2
BRANCH   1  24
ATOM     24  C   UNL A   1      40.189  22.289  27.114  1.00  0.00     0.275 C 
BRANCH  24  25
ATOM     25  O   UNL A   1      39.841  23.685  27.066  1.00  0.00    -0.458 OA
BRANCH  25  26
ATOM     26  C   UNL A   1      40.856  24.548  26.835  1.00  0.00     0.338 C 
ATOM     27  O   UNL A   1      41.614  24.576  25.882  1.00  0.00    -0.246 OA
BRANCH  26  28
ATOM     28  C   UNL A   1      40.850  25.562  27.899  1.00  0.00     0.060 A 
ATOM     29  C   UNL A   1      39.708  25.703  28.693  1.00  0.00     0.016 A 
ATOM     30  C   UNL A   1      41.951  26.400  28.079  1.00  0.00     0.016 A 
ATOM     31  C   UNL A   1      39.657  26.694  29.670  1.00  0.00     0.010 A 
ATOM     32  C   UNL A   1      41.903  27.384  29.071  1.00  0.00     0.010 A 
ATOM     33  C   UNL A   1      40.753  27.543  29.863  1.00  0.00    -0.014 A 
BRANCH  33  34
ATOM     34  C   UNL A   1      40.686  28.626  30.873  1.00  0.00     0.031 A 
ATOM     35  C   UNL A   1      41.602  28.592  32.063  1.00  0.00     0.074 A 
ATOM     36  C   UNL A   1      39.800  29.628  30.723  1.00  0.00     0.049 A 
ATOM     37  N   UNL A   1      41.630  29.377  33.107  1.00  0.00    -0.248 NA
ATOM     38  C   UNL A   1      42.619  27.528  32.080  1.00  0.00     0.031 C 
ATOM     39  C   UNL A   1      38.883  29.782  29.592  1.00  0.00     0.029 A 
ATOM     40  N   UNL A   1      39.514  30.698  31.533  1.00  0.00    -0.354 N 
ATOM     41  C   UNL A   1      42.649  28.893  33.918  1.00  0.00     0.074 A 
ATOM     42  C   UNL A   1      43.206  27.734  33.251  1.00  0.00     0.031 C 
ATOM     43  C   UNL A   1      38.133  30.879  29.783  1.00  0.00     0.029 A 
ATOM     44  C   UNL A   1      38.481  31.477  31.069  1.00  0.00     0.049 A 
ATOM     45  H   UNL A   1      40.003  30.890  32.365  1.00  0.00     0.167 HD
ATOM     46  C   UNL A   1      43.082  29.375  35.107  1.00  0.00     0.037 A 
ATOM     47  C   UNL A   1      37.864  32.533  31.633  1.00  0.00     0.037 A 
ATOM     48  C   UNL A   1      42.525  30.534  35.757  1.00  0.00     0.049 A 
ATOM     49  C   UNL A   1      38.328  33.020  32.979  1.00  0.00     0.074 A 
ATOM     50  C   UNL A   1      42.903  31.114  36.956  1.00  0.00     0.029 A 
ATOM     51  N   UNL A   1      41.473  31.291  35.262  1.00  0.00    -0.354 N 
ATOM     52  N   UNL A   1      39.296  32.555  33.734  1.00  0.00    -0.248 NA
ATOM     53  C   UNL A   1      37.619  34.171  33.551  1.00  0.00     0.031 C 
ATOM     54  C   UNL A   1      42.051  32.195  37.206  1.00  0.00     0.029 A 
ATOM     55  C   UNL A   1      41.174  32.320  36.140  1.00  0.00     0.049 A 
ATOM     56  H   UNL A   1      41.006  31.122  34.412  1.00  0.00     0.167 HD
ATOM     57  C   UNL A   1      39.325  33.371  34.859  1.00  0.00     0.074 A 
ATOM     58  C   UNL A   1      38.286  34.364  34.681  1.00  0.00     0.031 C 
ATOM     59  C   UNL A   1      40.139  33.304  35.943  1.00  0.00     0.037 A 
BRANCH  46  60
ATOM     60  C   UNL A   1      44.189  28.631  35.799  1.00  0.00     0.058 A 
ATOM     61  C   UNL A   1      43.931  27.585  36.699  1.00  0.00     0.135 A 
ATOM     62  C   UNL A   1      45.532  28.952  35.537  1.00  0.00     0.135 A 
ATOM     63  F   UNL A   1      42.666  27.250  36.999  1.00  0.00    -0.206 F 
ATOM     64  C   UNL A   1      44.962  26.901  37.335  1.00  0.00     0.059 A 
ATOM     65  C   UNL A   1      46.580  28.263  36.142  1.00  0.00     0.059 A 
ATOM     66  F   UNL A   1      45.836  29.945  34.687  1.00  0.00    -0.206 F 
ATOM     67  C   UNL A   1      46.284  27.250  37.051  1.00  0.00     0.060 A 
BRANCH  67  68
ATOM     68  S   UNL A   1      47.611  26.355  37.887  1.00  0.00     0.124 S 
ATOM     69  O   UNL A   1      48.067  27.350  38.853  1.00  0.00    -0.237 OA
ATOM     70  O   UNL A   1      46.908  25.205  38.447  1.00  0.00    -0.237 OA
ATOM     71  O   UNL A   1      48.547  26.051  36.809  1.00  0.00    -0.744 OA
ENDBRANCH  67  68
ENDBRANCH  46  60
BRANCH  47  72
ATOM     72  C   UNL A   1      36.728  33.187  30.933  1.00  0.00     0.058 A 
ATOM     73  C   UNL A   1      35.405  32.981  31.350  1.00  0.00     0.135 A 
ATOM     74  C   UNL A   1      36.942  34.044  29.841  1.00  0.00     0.135 A 
ATOM     75  F   UNL A   1      35.148  32.164  32.383  1.00  0.00    -0.206 F 
ATOM     76  C   UNL A   1      34.333  33.591  30.705  1.00  0.00     0.059 A 
ATOM     77  C   UNL A   1      35.890  34.685  29.196  1.00  0.00     0.059 A 
ATOM     78  F   UNL A   1      38.191  34.283  29.409  1.00  0.00    -0.206 F 
ATOM     79  C   UNL A   1      34.587  34.445  29.630  1.00  0.00     0.060 A 
BRANCH  79  80
ATOM     80  S   UNL A   1      33.195  35.273  28.833  1.00  0.00     0.124 S 
ATOM     81  O   UNL A   1      32.638  34.196  28.024  1.00  0.00    -0.237 OA
ATOM     82  O   UNL A   1      32.391  35.694  29.977  1.00  0.00    -0.237 OA
ATOM     83  O   UNL A   1      33.830  36.357  28.091  1.00  0.00    -0.744 OA
ENDBRANCH  79  80
ENDBRANCH  47  72
BRANCH  59  84
ATOM     84  C   UNL A   1      39.963  34.354  37.004  1.00  0.00     0.058 A 
ATOM     85  C   UNL A   1      40.634  35.585  36.942  1.00  0.00     0.135 A 
ATOM     86  C   UNL A   1      39.072  34.144  38.069  1.00  0.00     0.135 A 
ATOM     87  F   UNL A   1      41.502  35.833  35.949  1.00  0.00    -0.206 F 
ATOM     88  C   UNL A   1      40.443  36.565  37.912  1.00  0.00     0.059 A 
ATOM     89  C   UNL A   1      38.847  35.120  39.035  1.00  0.00     0.059 A 
ATOM     90  F   UNL A   1      38.399  32.987  38.168  1.00  0.00    -0.206 F 
ATOM     91  C   UNL A   1      39.546  36.323  38.953  1.00  0.00     0.060 A 
BRANCH  91  92
ATOM     92  S   UNL A   1      39.280  37.615  40.186  1.00  0.00     0.124 S 
ATOM     93  O   UNL A   1      40.582  38.273  40.210  1.00  0.00    -0.237 OA
ATOM     94  O   UNL A   1      38.189  38.387  39.600  1.00  0.00    -0.237 OA
ATOM     95  O   UNL A   1      38.932  36.867  41.391  1.00  0.00    -0.744 OA
ENDBRANCH  91  92
ENDBRANCH  59  84
ENDBRANCH  33  34
ENDBRANCH  26  28
ENDBRANCH  25  26
ENDBRANCH  24  25
ENDBRANCH   1  24
TORSDOF 17
ENDMDL
MODEL 3
REMARK VINA RESULT:     -11.1      5.334     10.103
REMARK SMILES C[C@]1(CNC(=O)N[C@H]2CC[C@@H](C(=O)OCCOC(=O)c3ccc(-c4c5nc(c(-c6c(F)cc(S(=O)(=O)[O-])cc6F)c6ccc([nH]6)c(-c6c(F)cc(S(=O)(=O)[O-])cc6F)c6nc(c(-c7c(F)cc(S(=O)(=O)[O-])cc7F)c7ccc4[nH]7)C=C6)C=C5)cc3)CC2)CCCO1
REMARK SMILES IDX 15 1 14 2 12 3 13 4 11 5 8 6 9 7 87 8 10 9 86 10 7 11 4 12
REMARK SMILES IDX 5 13 6 15 3 17 2 18 1 19 88 20 91 21 89 22 90 23 16 24 17 25
REMARK SMILES IDX 18 26 19 27 20 28 21 29 85 30 22 31 84 32 23 33 24 34 25 35
REMARK SMILES IDX 78 36 26 37 83 38 77 39 79 40 27 41 82 42 76 43 75 44 28 46
REMARK SMILES IDX 62 47 41 48 61 49 42 50 45 51 60 52 80 53 43 54 44 55 59 57
REMARK SMILES IDX 81 58 46 59 29 60 30 61 39 62 31 63 32 64 38 65 40 66 33 67
REMARK SMILES IDX 34 68 35 69 36 70 37 71 63 72 64 73 73 74 65 75 66 76 72 77
REMARK SMILES IDX 74 78 67 79 68 80 69 81 70 82 71 83 47 84 48 85 57 86 49 87
REMARK SMILES IDX 50 88 56 89 58 90 51 91 52 92 53 93 54 94 55 95
REMARK H PARENT 4 14 7 16 79 45 45 56
REMARK Flexibility Score: inf
ROOT
ATOM      1  C   UNL A   1      40.412  22.360  27.154  1.00  0.00     0.274 C 
ENDROOT
BRANCH   1   2
ATOM      2  O   UNL A   1      39.375  21.892  26.275  1.00  0.00    -0.462 OA
BRANCH   2   3
ATOM      3  C   UNL A   1      38.357  22.727  25.957  1.00  0.00     0.309 C 
ATOM      4  O   UNL A   1      38.115  23.783  26.523  1.00  0.00    -0.252 OA
BRANCH   3   5
ATOM      5  C   UNL A   1      37.536  22.199  24.778  1.00  0.00     0.099 C 
ATOM      6  C   UNL A   1      34.537  22.328  24.843  1.00  0.00     0.083 C 
ATOM      7  C   UNL A   1      35.354  23.603  24.555  1.00  0.00     0.026 C 
ATOM      8  C   UNL A   1      35.356  21.518  25.823  1.00  0.00     0.026 C 
ATOM      9  C   UNL A   1      36.765  23.292  24.021  1.00  0.00     0.017 C 
ATOM     10  C   UNL A   1      36.633  21.033  25.170  1.00  0.00     0.017 C 
BRANCH   6  11
ATOM     11  N   UNL A   1      33.223  22.614  25.401  1.00  0.00    -0.335 N 
ATOM     12  N   UNL A   1      31.936  20.668  24.949  1.00  0.00    -0.335 N 
ATOM     13  C   UNL A   1      32.115  21.862  25.536  1.00  0.00     0.315 C 
ATOM     14  H   UNL A   1      31.351  20.071  25.470  1.00  0.00     0.165 HD
ATOM     15  O   UNL A   1      31.232  22.284  26.288  1.00  0.00    -0.249 OA
ATOM     16  H   UNL A   1      33.128  23.531  25.744  1.00  0.00     0.165 HD
BRANCH  12  17
ATOM     17  C   UNL A   1      32.414  20.046  23.710  1.00  0.00     0.152 C 
BRANCH  17  18
ATOM     18  C   UNL A   1      32.747  18.525  23.842  1.00  0.00     0.083 C 
ATOM     19  C   UNL A   1      32.420  17.844  22.502  1.00  0.00     0.044 C 
ATOM     20  C   UNL A   1      34.182  18.173  24.255  1.00  0.00     0.039 C 
ATOM     21  O   UNL A   1      31.897  17.914  24.849  1.00  0.00    -0.373 OA
ATOM     22  C   UNL A   1      34.019  16.856  24.972  1.00  0.00     0.031 C 
ATOM     23  C   UNL A   1      32.720  17.098  25.705  1.00  0.00     0.161 C 
ENDBRANCH  17  18
ENDBRANCH  12  17
ENDBRANCH   6  11
ENDBRANCH   3   5
ENDBRANCH   2   3
ENDBRANCH   1   2
BRANCH   1  24
ATOM     24  C   UNL A   1      41.577  22.894  26.319  1.00  0.00     0.275 C 
BRANCH  24  25
ATOM     25  O   UNL A   1      42.164  24.031  26.981  1.00  0.00    -0.458 OA
BRANCH  25  26
ATOM     26  C   UNL A   1      41.842  25.245  26.482  1.00  0.00     0.338 C 
ATOM     27  O   UNL A   1      41.714  25.566  25.314  1.00  0.00    -0.246 OA
BRANCH  26  28
ATOM     28  C   UNL A   1      41.552  26.144  27.608  1.00  0.00     0.060 A 
ATOM     29  C   UNL A   1      42.415  27.213  27.860  1.00  0.00     0.016 A 
ATOM     30  C   UNL A   1      40.457  25.901  28.438  1.00  0.00     0.016 A 
ATOM     31  C   UNL A   1      42.193  28.044  28.955  1.00  0.00     0.010 A 
ATOM     32  C   UNL A   1      40.226  26.745  29.528  1.00  0.00     0.010 A 
ATOM     33  C   UNL A   1      41.098  27.814  29.798  1.00  0.00    -0.014 A 
BRANCH  33  34
ATOM     34  C   UNL A   1      40.883  28.671  30.988  1.00  0.00     0.031 A 
ATOM     35  C   UNL A   1      39.819  29.731  30.959  1.00  0.00     0.074 A 
ATOM     36  C   UNL A   1      41.646  28.501  32.083  1.00  0.00     0.049 A 
ATOM     37  N   UNL A   1      39.543  30.650  31.847  1.00  0.00    -0.248 NA
ATOM     38  C   UNL A   1      38.954  29.763  29.769  1.00  0.00     0.031 C 
ATOM     39  C   UNL A   1      42.687  27.483  32.237  1.00  0.00     0.029 A 
ATOM     40  N   UNL A   1      41.675  29.190  33.269  1.00  0.00    -0.354 N 
ATOM     41  C   UNL A   1      38.489  31.384  31.317  1.00  0.00     0.074 A 
ATOM     42  C   UNL A   1      38.186  30.813  30.021  1.00  0.00     0.031 C 
ATOM     43  C   UNL A   1      43.256  27.618  33.445  1.00  0.00     0.029 A 
ATOM     44  C   UNL A   1      42.656  28.759  34.130  1.00  0.00     0.049 A 
ATOM     45  H   UNL A   1      41.052  29.922  33.483  1.00  0.00     0.167 HD
ATOM     46  C   UNL A   1      37.834  32.435  31.865  1.00  0.00     0.037 A 
ATOM     47  C   UNL A   1      43.047  29.250  35.323  1.00  0.00     0.037 A 
ATOM     48  C   UNL A   1      38.140  32.989  33.159  1.00  0.00     0.049 A 
ATOM     49  C   UNL A   1      42.338  30.451  35.889  1.00  0.00     0.074 A 
ATOM     50  C   UNL A   1      37.526  34.043  33.812  1.00  0.00     0.029 A 
ATOM     51  N   UNL A   1      39.147  32.533  33.998  1.00  0.00    -0.354 N 
ATOM     52  N   UNL A   1      41.340  31.134  35.379  1.00  0.00    -0.248 NA
ATOM     53  C   UNL A   1      42.806  30.949  37.188  1.00  0.00     0.031 C 
ATOM     54  C   UNL A   1      38.188  34.252  35.026  1.00  0.00     0.029 A 
ATOM     55  C   UNL A   1      39.184  33.296  35.153  1.00  0.00     0.049 A 
ATOM     56  H   UNL A   1      39.748  31.778  33.802  1.00  0.00     0.167 HD
ATOM     57  C   UNL A   1      41.048  32.128  36.306  1.00  0.00     0.074 A 
ATOM     58  C   UNL A   1      41.967  31.950  37.411  1.00  0.00     0.031 C 
ATOM     59  C   UNL A   1      40.103  33.101  36.247  1.00  0.00     0.037 A 
BRANCH  46  60
ATOM     60  C   UNL A   1      36.743  33.076  31.053  1.00  0.00     0.058 A 
ATOM     61  C   UNL A   1      37.026  33.914  29.964  1.00  0.00     0.135 A 
ATOM     62  C   UNL A   1      35.394  32.825  31.354  1.00  0.00     0.135 A 
ATOM     63  F   UNL A   1      38.298  34.202  29.644  1.00  0.00    -0.206 F 
ATOM     64  C   UNL A   1      36.010  34.503  29.217  1.00  0.00     0.059 A 
ATOM     65  C   UNL A   1      34.362  33.383  30.604  1.00  0.00     0.059 A 
ATOM     66  F   UNL A   1      35.068  32.032  32.386  1.00  0.00    -0.206 F 
ATOM     67  C   UNL A   1      34.681  34.233  29.547  1.00  0.00     0.060 A 
BRANCH  67  68
ATOM     68  S   UNL A   1      33.374  35.008  28.571  1.00  0.00     0.124 S 
ATOM     69  O   UNL A   1      34.126  36.011  27.824  1.00  0.00    -0.237 OA
ATOM     70  O   UNL A   1      32.862  33.887  27.789  1.00  0.00    -0.237 OA
ATOM     71  O   UNL A   1      32.460  35.532  29.582  1.00  0.00    -0.744 OA
ENDBRANCH  67  68
ENDBRANCH  46  60
BRANCH  47  72
ATOM     72  C   UNL A   1      44.178  28.617  36.049  1.00  0.00     0.058 A 
ATOM     73  C   UNL A   1      43.966  27.552  36.934  1.00  0.00     0.135 A 
ATOM     74  C   UNL A   1      45.499  29.057  35.861  1.00  0.00     0.135 A 
ATOM     75  F   UNL A   1      42.721  27.101  37.155  1.00  0.00    -0.206 F 
ATOM     76  C   UNL A   1      45.018  26.949  37.617  1.00  0.00     0.059 A 
ATOM     77  C   UNL A   1      46.571  28.455  36.512  1.00  0.00     0.059 A 
ATOM     78  F   UNL A   1      45.758  30.067  35.015  1.00  0.00    -0.206 F 
ATOM     79  C   UNL A   1      46.318  27.406  37.396  1.00  0.00     0.060 A 
BRANCH  79  80
ATOM     80  S   UNL A   1      47.683  26.584  38.246  1.00  0.00     0.124 S 
ATOM     81  O   UNL A   1      47.020  26.076  39.441  1.00  0.00    -0.237 OA
ATOM     82  O   UNL A   1      48.095  25.581  37.268  1.00  0.00    -0.237 OA
ATOM     83  O   UNL A   1      48.640  27.664  38.465  1.00  0.00    -0.744 OA
ENDBRANCH  79  80
ENDBRANCH  47  72
BRANCH  59  84
ATOM     84  C   UNL A   1      39.991  34.026  37.426  1.00  0.00     0.058 A 
ATOM     85  C   UNL A   1      40.670  35.253  37.469  1.00  0.00     0.135 A 
ATOM     86  C   UNL A   1      39.152  33.701  38.505  1.00  0.00     0.135 A 
ATOM     87  F   UNL A   1      41.489  35.607  36.466  1.00  0.00    -0.206 F 
ATOM     88  C   UNL A   1      40.536  36.119  38.550  1.00  0.00     0.059 A 
ATOM     89  C   UNL A   1      38.985  34.563  39.585  1.00  0.00     0.059 A 
ATOM     90  F   UNL A   1      38.473  32.542  38.509  1.00  0.00    -0.206 F 
ATOM     91  C   UNL A   1      39.691  35.765  39.602  1.00  0.00     0.060 A 
BRANCH  91  92
ATOM     92  S   UNL A   1      39.499  36.912  40.984  1.00  0.00     0.124 S 
ATOM     93  O   UNL A   1      38.735  37.991  40.367  1.00  0.00    -0.237 OA
ATOM     94  O   UNL A   1      38.778  36.104  41.963  1.00  0.00    -0.237 OA
ATOM     95  O   UNL A   1      40.875  37.242  41.344  1.00  0.00    -0.744 OA
ENDBRANCH  91  92
ENDBRANCH  59  84
ENDBRANCH  33  34
ENDBRANCH  26  28
ENDBRANCH  25  26
ENDBRANCH  24  25
ENDBRANCH   1  24
TORSDOF 17
ENDMDL
