MODEL 1
REMARK VINA RESULT:     -11.0      0.000      0.000
REMARK SMILES O=C(OCCOC(=O)c1cn(C[C@@H]2CCS(=O)(=O)C2)c(=O)[nH]c1=O)c1ccc(-c2c3nc(c(-c4c(F)cc(S(=O)(=O)[O-])cc4F)c4ccc([nH]4)c(-c4c(F)cc(S(=O)(=O)[O-])cc4F)c4nc(c(-c5c(F)cc(S(=O)(=O)[O-])cc5F)c5ccc2[nH]5)C=C4)C=C3)cc1
REMARK SMILES IDX 4 1 3 2 2 3 1 4 25 5 26 6 90 7 27 8 89 9 28 10 29 11 30 12
REMARK SMILES IDX 83 13 31 14 88 15 82 16 84 17 32 18 87 19 81 20 80 21 33 23
REMARK SMILES IDX 67 24 46 25 66 26 47 27 50 28 65 29 85 30 48 31 49 32 64 34
REMARK SMILES IDX 86 35 51 36 34 37 35 38 44 39 36 40 37 41 43 42 45 43 38 44
REMARK SMILES IDX 39 45 40 46 41 47 42 48 68 49 69 50 78 51 70 52 71 53 77 54
REMARK SMILES IDX 79 55 72 56 73 57 74 58 75 59 76 60 52 61 53 62 62 63 54 64
REMARK SMILES IDX 55 65 61 66 63 67 56 68 57 69 58 70 59 71 60 72 5 73 6 74
REMARK SMILES IDX 7 75 8 76 9 77 10 78 23 79 11 80 22 81 24 82 20 83 21 85
REMARK SMILES IDX 12 86 13 87 14 88 19 89 15 90 16 91 17 92 18 93
REMARK H PARENT 84 22 50 33 22 84
REMARK Flexibility Score: inf
ROOT
ATOM      1  C   UNL A   1      34.453  33.165  28.008  1.00  0.00     0.275 C 
ENDROOT
BRANCH   1   2
ATOM      2  O   UNL A   1      33.750  31.953  28.320  1.00  0.00    -0.458 OA
BRANCH   2   3
ATOM      3  C   UNL A   1      34.178  30.731  27.900  1.00  0.00     0.338 C 
ATOM      4  O   UNL A   1      33.404  29.902  27.440  1.00  0.00    -0.246 OA
BRANCH   3   5
ATOM      5  C   UNL A   1      35.546  30.315  28.314  1.00  0.00     0.060 A 
ATOM      6  C   UNL A   1      36.486  30.147  27.296  1.00  0.00     0.016 A 
ATOM      7  C   UNL A   1      35.946  30.119  29.641  1.00  0.00     0.016 A 
ATOM      8  C   UNL A   1      37.766  29.675  27.597  1.00  0.00     0.010 A 
ATOM      9  C   UNL A   1      37.234  29.652  29.943  1.00  0.00     0.010 A 
ATOM     10  C   UNL A   1      38.155  29.400  28.923  1.00  0.00    -0.014 A 
BRANCH  10  11
ATOM     11  C   UNL A   1      39.580  29.084  29.209  1.00  0.00     0.031 A 
ATOM     12  C   UNL A   1      40.175  27.704  29.081  1.00  0.00     0.074 A 
ATOM     13  C   UNL A   1      40.373  30.127  29.528  1.00  0.00     0.049 A 
ATOM     14  N   UNL A   1      41.427  27.383  28.869  1.00  0.00    -0.248 NA
ATOM     15  C   UNL A   1      39.276  26.539  29.134  1.00  0.00     0.031 C 
ATOM     16  C   UNL A   1      39.901  31.500  29.750  1.00  0.00     0.029 A 
ATOM     17  N   UNL A   1      41.725  30.206  29.714  1.00  0.00    -0.354 N 
ATOM     18  C   UNL A   1      41.450  26.011  28.627  1.00  0.00     0.074 A 
ATOM     19  C   UNL A   1      40.098  25.537  28.818  1.00  0.00     0.031 C 
ATOM     20  C   UNL A   1      40.949  32.284  30.031  1.00  0.00     0.029 A 
ATOM     21  C   UNL A   1      42.156  31.468  30.043  1.00  0.00     0.049 A 
ATOM     22  H   UNL A   1      42.330  29.436  29.622  1.00  0.00     0.167 HD
ATOM     23  C   UNL A   1      42.511  25.263  28.229  1.00  0.00     0.037 A 
ATOM     24  C   UNL A   1      43.387  31.917  30.346  1.00  0.00     0.037 A 
ATOM     25  C   UNL A   1      43.870  25.739  28.276  1.00  0.00     0.049 A 
ATOM     26  C   UNL A   1      44.540  30.968  30.221  1.00  0.00     0.074 A 
ATOM     27  C   UNL A   1      45.028  25.055  27.951  1.00  0.00     0.029 A 
ATOM     28  N   UNL A   1      44.258  26.973  28.776  1.00  0.00    -0.354 N 
ATOM     29  N   UNL A   1      44.540  29.744  29.749  1.00  0.00    -0.248 NA
ATOM     30  C   UNL A   1      45.853  31.448  30.665  1.00  0.00     0.031 C 
ATOM     31  C   UNL A   1      46.117  25.840  28.340  1.00  0.00     0.029 A 
ATOM     32  C   UNL A   1      45.637  27.032  28.861  1.00  0.00     0.049 A 
ATOM     33  H   UNL A   1      43.644  27.699  29.032  1.00  0.00     0.167 HD
ATOM     34  C   UNL A   1      45.858  29.315  29.815  1.00  0.00     0.074 A 
ATOM     35  C   UNL A   1      46.626  30.409  30.375  1.00  0.00     0.031 C 
ATOM     36  C   UNL A   1      46.383  28.124  29.436  1.00  0.00     0.037 A 
BRANCH  23  37
ATOM     37  C   UNL A   1      42.308  23.866  27.697  1.00  0.00     0.058 A 
ATOM     38  C   UNL A   1      42.247  23.654  26.306  1.00  0.00     0.135 A 
ATOM     39  C   UNL A   1      42.393  22.730  28.513  1.00  0.00     0.135 A 
ATOM     40  F   UNL A   1      42.307  24.690  25.458  1.00  0.00    -0.206 F 
ATOM     41  C   UNL A   1      42.205  22.381  25.748  1.00  0.00     0.059 A 
ATOM     42  C   UNL A   1      42.391  21.441  27.973  1.00  0.00     0.059 A 
ATOM     43  F   UNL A   1      42.522  22.867  29.841  1.00  0.00    -0.206 F 
ATOM     44  C   UNL A   1      42.278  21.277  26.590  1.00  0.00     0.060 A 
BRANCH  44  45
ATOM     45  S   UNL A   1      42.297  19.630  25.845  1.00  0.00     0.124 S 
ATOM     46  O   UNL A   1      40.924  19.525  25.361  1.00  0.00    -0.237 OA
ATOM     47  O   UNL A   1      43.322  19.758  24.816  1.00  0.00    -0.237 OA
ATOM     48  O   UNL A   1      42.639  18.761  26.965  1.00  0.00    -0.744 OA
ENDBRANCH  44  45
ENDBRANCH  23  37
BRANCH  24  49
ATOM     49  C   UNL A   1      43.550  33.309  30.832  1.00  0.00     0.058 A 
ATOM     50  C   UNL A   1      43.550  33.624  32.195  1.00  0.00     0.135 A 
ATOM     51  C   UNL A   1      43.770  34.355  29.917  1.00  0.00     0.135 A 
ATOM     52  F   UNL A   1      43.343  32.662  33.107  1.00  0.00    -0.206 F 
ATOM     53  C   UNL A   1      43.761  34.927  32.639  1.00  0.00     0.059 A 
ATOM     54  C   UNL A   1      44.012  35.657  30.335  1.00  0.00     0.059 A 
ATOM     55  F   UNL A   1      43.794  34.102  28.599  1.00  0.00    -0.206 F 
ATOM     56  C   UNL A   1      43.996  35.935  31.699  1.00  0.00     0.060 A 
BRANCH  56  57
ATOM     57  S   UNL A   1      44.314  37.613  32.283  1.00  0.00     0.124 S 
ATOM     58  O   UNL A   1      45.763  37.593  32.451  1.00  0.00    -0.237 OA
ATOM     59  O   UNL A   1      43.809  38.423  31.178  1.00  0.00    -0.237 OA
ATOM     60  O   UNL A   1      43.536  37.692  33.516  1.00  0.00    -0.744 OA
ENDBRANCH  56  57
ENDBRANCH  24  49
BRANCH  36  61
ATOM     61  C   UNL A   1      47.857  27.925  29.622  1.00  0.00     0.058 A 
ATOM     62  C   UNL A   1      48.364  27.280  30.759  1.00  0.00     0.135 A 
ATOM     63  C   UNL A   1      48.759  28.290  28.610  1.00  0.00     0.135 A 
ATOM     64  F   UNL A   1      47.541  26.922  31.757  1.00  0.00    -0.206 F 
ATOM     65  C   UNL A   1      49.718  26.999  30.886  1.00  0.00     0.059 A 
ATOM     66  C   UNL A   1      50.113  27.993  28.702  1.00  0.00     0.059 A 
ATOM     67  F   UNL A   1      48.318  28.902  27.499  1.00  0.00    -0.206 F 
ATOM     68  C   UNL A   1      50.583  27.348  29.845  1.00  0.00     0.060 A 
BRANCH  68  69
ATOM     69  S   UNL A   1      52.325  26.901  29.991  1.00  0.00     0.124 S 
ATOM     70  O   UNL A   1      52.940  28.198  30.254  1.00  0.00    -0.237 OA
ATOM     71  O   UNL A   1      52.311  25.966  31.112  1.00  0.00    -0.237 OA
ATOM     72  O   UNL A   1      52.633  26.310  28.692  1.00  0.00    -0.744 OA
ENDBRANCH  68  69
ENDBRANCH  36  61
ENDBRANCH  10  11
ENDBRANCH   3   5
ENDBRANCH   2   3
ENDBRANCH   1   2
BRANCH   1  73
ATOM     73  C   UNL A   1      33.619  34.437  28.215  1.00  0.00     0.275 C 
BRANCH  73  74
ATOM     74  O   UNL A   1      32.910  34.440  29.463  1.00  0.00    -0.458 OA
BRANCH  74  75
ATOM     75  C   UNL A   1      32.956  35.617  30.155  1.00  0.00     0.345 C 
ATOM     76  O   UNL A   1      32.393  36.651  29.833  1.00  0.00    -0.246 OA
BRANCH  75  77
ATOM     77  C   UNL A   1      33.708  35.416  31.405  1.00  0.00     0.141 A 
ATOM     78  C   UNL A   1      34.474  34.331  31.589  1.00  0.00     0.112 A 
ATOM     79  C   UNL A   1      33.573  36.366  32.524  1.00  0.00     0.268 A 
ATOM     80  N   UNL A   1      35.079  34.050  32.809  1.00  0.00    -0.299 N 
ATOM     81  N   UNL A   1      34.156  35.991  33.703  1.00  0.00    -0.273 N 
ATOM     82  O   UNL A   1      32.894  37.386  32.455  1.00  0.00    -0.268 OA
ATOM     83  C   UNL A   1      34.837  34.832  33.929  1.00  0.00     0.328 A 
ATOM     84  H   UNL A   1      34.075  36.617  34.459  1.00  0.00     0.175 HD
ATOM     85  O   UNL A   1      35.177  34.531  35.070  1.00  0.00    -0.248 OA
BRANCH  80  86
ATOM     86  C   UNL A   1      35.839  32.820  32.970  1.00  0.00     0.131 C 
BRANCH  86  87
ATOM     87  C   UNL A   1      37.193  32.702  32.263  1.00  0.00     0.025 C 
ATOM     88  C   UNL A   1      38.242  31.796  32.914  1.00  0.00     0.022 C 
ATOM     89  C   UNL A   1      37.880  34.029  31.959  1.00  0.00     0.142 C 
ATOM     90  C   UNL A   1      39.084  32.618  33.881  1.00  0.00     0.137 C 
ATOM     91  S   UNL A   1      39.019  34.303  33.303  1.00  0.00     0.150 S 
ATOM     92  O   UNL A   1      38.366  35.117  34.310  1.00  0.00    -0.229 OA
ATOM     93  O   UNL A   1      40.313  34.666  32.765  1.00  0.00    -0.229 OA
ENDBRANCH  86  87
ENDBRANCH  80  86
ENDBRANCH  75  77
ENDBRANCH  74  75
ENDBRANCH  73  74
ENDBRANCH   1  73
TORSDOF 16
ENDMDL
MODEL 2
REMARK VINA RESULT:     -10.8      4.807     13.274
REMARK SMILES O=C(OCCOC(=O)c1cn(C[C@@H]2CCS(=O)(=O)C2)c(=O)[nH]c1=O)c1ccc(-c2c3nc(c(-c4c(F)cc(S(=O)(=O)[O-])cc4F)c4ccc([nH]4)c(-c4c(F)cc(S(=O)(=O)[O-])cc4F)c4nc(c(-c5c(F)cc(S(=O)(=O)[O-])cc5F)c5ccc2[nH]5)C=C4)C=C3)cc1
REMARK SMILES IDX 4 1 3 2 2 3 1 4 25 5 26 6 90 7 27 8 89 9 28 10 29 11 30 12
REMARK SMILES IDX 83 13 31 14 88 15 82 16 84 17 32 18 87 19 81 20 80 21 33 23
REMARK SMILES IDX 67 24 46 25 66 26 47 27 50 28 65 29 85 30 48 31 49 32 64 34
REMARK SMILES IDX 86 35 51 36 34 37 35 38 44 39 36 40 37 41 43 42 45 43 38 44
REMARK SMILES IDX 39 45 40 46 41 47 42 48 68 49 69 50 78 51 70 52 71 53 77 54
REMARK SMILES IDX 79 55 72 56 73 57 74 58 75 59 76 60 52 61 53 62 62 63 54 64
REMARK SMILES IDX 55 65 61 66 63 67 56 68 57 69 58 70 59 71 60 72 5 73 6 74
REMARK SMILES IDX 7 75 8 76 9 77 10 78 23 79 11 80 22 81 24 82 20 83 21 85
REMARK SMILES IDX 12 86 13 87 14 88 19 89 15 90 16 91 17 92 18 93
REMARK H PARENT 84 22 50 33 22 84
REMARK Flexibility Score: inf
ROOT
ATOM      1  C   UNL A   1      41.638  22.269  27.956  1.00  0.00     0.275 C 
ENDROOT
BRANCH   1   2
ATOM      2  O   UNL A   1      41.416  23.292  26.972  1.00  0.00    -0.458 OA
BRANCH   2   3
ATOM      3  C   UNL A   1      40.349  24.134  27.023  1.00  0.00     0.338 C 
ATOM      4  O   UNL A   1      39.453  24.087  26.190  1.00  0.00    -0.246 OA
BRANCH   3   5
ATOM      5  C   UNL A   1      40.464  25.318  27.918  1.00  0.00     0.060 A 
ATOM      6  C   UNL A   1      39.334  25.653  28.665  1.00  0.00     0.016 A 
ATOM      7  C   UNL A   1      41.628  26.081  28.077  1.00  0.00     0.016 A 
ATOM      8  C   UNL A   1      39.336  26.800  29.463  1.00  0.00     0.010 A 
ATOM      9  C   UNL A   1      41.632  27.229  28.884  1.00  0.00     0.010 A 
ATOM     10  C   UNL A   1      40.479  27.618  29.569  1.00  0.00    -0.014 A 
BRANCH  10  11
ATOM     11  C   UNL A   1      40.492  28.715  30.574  1.00  0.00     0.031 A 
ATOM     12  C   UNL A   1      39.681  29.980  30.444  1.00  0.00     0.074 A 
ATOM     13  C   UNL A   1      41.225  28.501  31.684  1.00  0.00     0.049 A 
ATOM     14  N   UNL A   1      39.267  30.773  31.401  1.00  0.00    -0.248 NA
ATOM     15  C   UNL A   1      39.221  30.391  29.107  1.00  0.00     0.031 C 
ATOM     16  C   UNL A   1      42.108  27.347  31.896  1.00  0.00     0.029 A 
ATOM     17  N   UNL A   1      41.346  29.227  32.837  1.00  0.00    -0.354 N 
ATOM     18  C   UNL A   1      38.394  31.685  30.812  1.00  0.00     0.074 A 
ATOM     19  C   UNL A   1      38.413  31.415  29.392  1.00  0.00     0.031 C 
ATOM     20  C   UNL A   1      42.668  27.439  33.108  1.00  0.00     0.029 A 
ATOM     21  C   UNL A   1      42.215  28.669  33.743  1.00  0.00     0.049 A 
ATOM     22  H   UNL A   1      40.859  30.066  33.001  1.00  0.00     0.167 HD
ATOM     23  C   UNL A   1      37.623  32.610  31.439  1.00  0.00     0.037 A 
ATOM     24  C   UNL A   1      42.623  29.112  34.946  1.00  0.00     0.037 A 
ATOM     25  C   UNL A   1      37.813  32.987  32.817  1.00  0.00     0.049 A 
ATOM     26  C   UNL A   1      41.989  30.352  35.498  1.00  0.00     0.074 A 
ATOM     27  C   UNL A   1      37.130  33.948  33.543  1.00  0.00     0.029 A 
ATOM     28  N   UNL A   1      38.820  32.503  33.637  1.00  0.00    -0.354 N 
ATOM     29  N   UNL A   1      40.987  31.043  35.008  1.00  0.00    -0.248 NA
ATOM     30  C   UNL A   1      42.530  30.877  36.757  1.00  0.00     0.031 C 
ATOM     31  C   UNL A   1      37.784  34.108  34.768  1.00  0.00     0.029 A 
ATOM     32  C   UNL A   1      38.841  33.213  34.824  1.00  0.00     0.049 A 
ATOM     33  H   UNL A   1      39.429  31.764  33.409  1.00  0.00     0.167 HD
ATOM     34  C   UNL A   1      40.760  32.071  35.912  1.00  0.00     0.074 A 
ATOM     35  C   UNL A   1      41.730  31.912  36.976  1.00  0.00     0.031 C 
ATOM     36  C   UNL A   1      39.825  33.051  35.866  1.00  0.00     0.037 A 
BRANCH  23  37
ATOM     37  C   UNL A   1      36.498  33.297  30.705  1.00  0.00     0.058 A 
ATOM     38  C   UNL A   1      35.167  33.079  31.113  1.00  0.00     0.135 A 
ATOM     39  C   UNL A   1      36.720  34.314  29.769  1.00  0.00     0.135 A 
ATOM     40  F   UNL A   1      34.893  32.222  32.106  1.00  0.00    -0.206 F 
ATOM     41  C   UNL A   1      34.099  33.787  30.575  1.00  0.00     0.059 A 
ATOM     42  C   UNL A   1      35.666  35.065  29.241  1.00  0.00     0.059 A 
ATOM     43  F   UNL A   1      37.971  34.615  29.391  1.00  0.00    -0.206 F 
ATOM     44  C   UNL A   1      34.357  34.781  29.637  1.00  0.00     0.060 A 
BRANCH  44  45
ATOM     45  S   UNL A   1      32.965  35.743  29.002  1.00  0.00     0.124 S 
ATOM     46  O   UNL A   1      33.658  36.875  28.395  1.00  0.00    -0.237 OA
ATOM     47  O   UNL A   1      32.335  34.814  28.070  1.00  0.00    -0.237 OA
ATOM     48  O   UNL A   1      32.192  36.045  30.201  1.00  0.00    -0.744 OA
ENDBRANCH  44  45
ENDBRANCH  23  37
BRANCH  24  49
ATOM     49  C   UNL A   1      43.708  28.388  35.652  1.00  0.00     0.058 A 
ATOM     50  C   UNL A   1      45.059  28.658  35.411  1.00  0.00     0.135 A 
ATOM     51  C   UNL A   1      43.395  27.439  36.642  1.00  0.00     0.135 A 
ATOM     52  F   UNL A   1      45.409  29.555  34.476  1.00  0.00    -0.206 F 
ATOM     53  C   UNL A   1      46.066  28.012  36.123  1.00  0.00     0.059 A 
ATOM     54  C   UNL A   1      44.380  26.802  37.386  1.00  0.00     0.059 A 
ATOM     55  F   UNL A   1      42.113  27.155  36.921  1.00  0.00    -0.206 F 
ATOM     56  C   UNL A   1      45.713  27.089  37.113  1.00  0.00     0.060 A 
BRANCH  56  57
ATOM     57  S   UNL A   1      47.023  26.288  38.064  1.00  0.00     0.124 S 
ATOM     58  O   UNL A   1      46.627  26.609  39.430  1.00  0.00    -0.237 OA
ATOM     59  O   UNL A   1      46.879  24.891  37.666  1.00  0.00    -0.237 OA
ATOM     60  O   UNL A   1      48.235  26.948  37.586  1.00  0.00    -0.744 OA
ENDBRANCH  56  57
ENDBRANCH  24  49
BRANCH  36  61
ATOM     61  C   UNL A   1      39.804  34.044  36.989  1.00  0.00     0.058 A 
ATOM     62  C   UNL A   1      40.365  35.320  36.838  1.00  0.00     0.135 A 
ATOM     63  C   UNL A   1      39.130  33.753  38.185  1.00  0.00     0.135 A 
ATOM     64  F   UNL A   1      41.029  35.640  35.716  1.00  0.00    -0.206 F 
ATOM     65  C   UNL A   1      40.255  36.279  37.838  1.00  0.00     0.059 A 
ATOM     66  C   UNL A   1      38.982  34.705  39.185  1.00  0.00     0.059 A 
ATOM     67  F   UNL A   1      38.570  32.547  38.369  1.00  0.00    -0.206 F 
ATOM     68  C   UNL A   1      39.550  35.966  39.003  1.00  0.00     0.060 A 
BRANCH  68  69
ATOM     69  S   UNL A   1      39.346  37.250  40.253  1.00  0.00     0.124 S 
ATOM     70  O   UNL A   1      40.733  37.562  40.582  1.00  0.00    -0.237 OA
ATOM     71  O   UNL A   1      38.620  38.282  39.519  1.00  0.00    -0.237 OA
ATOM     72  O   UNL A   1      38.584  36.582  41.304  1.00  0.00    -0.744 OA
ENDBRANCH  68  69
ENDBRANCH  36  61
ENDBRANCH  10  11
ENDBRANCH   3   5
ENDBRANCH   2   3
ENDBRANCH   1   2
BRANCH   1  73
ATOM     73  C   UNL A   1      40.827  20.989  27.715  1.00  0.00     0.275 C 
BRANCH  73  74
ATOM     74  O   UNL A   1      41.655  19.846  27.456  1.00  0.00    -0.458 OA
BRANCH  74  75
ATOM     75  C   UNL A   1      41.915  19.603  26.137  1.00  0.00     0.345 C 
ATOM     76  O   UNL A   1      41.075  19.386  25.278  1.00  0.00    -0.246 OA
BRANCH  75  77
ATOM     77  C   UNL A   1      43.359  19.746  25.892  1.00  0.00     0.141 A 
ATOM     78  C   UNL A   1      43.871  20.883  25.400  1.00  0.00     0.112 A 
ATOM     79  C   UNL A   1      44.274  18.610  26.107  1.00  0.00     0.268 A 
ATOM     80  N   UNL A   1      45.207  20.995  25.031  1.00  0.00    -0.299 N 
ATOM     81  N   UNL A   1      45.559  18.784  25.670  1.00  0.00    -0.273 N 
ATOM     82  O   UNL A   1      43.903  17.529  26.551  1.00  0.00    -0.268 OA
ATOM     83  C   UNL A   1      46.056  19.898  25.062  1.00  0.00     0.328 A 
ATOM     84  H   UNL A   1      46.182  18.034  25.809  1.00  0.00     0.175 HD
ATOM     85  O   UNL A   1      47.180  19.878  24.568  1.00  0.00    -0.248 OA
BRANCH  80  86
ATOM     86  C   UNL A   1      45.689  22.231  24.434  1.00  0.00     0.131 C 
BRANCH  86  87
ATOM     87  C   UNL A   1      46.296  23.295  25.353  1.00  0.00     0.025 C 
ATOM     88  C   UNL A   1      45.919  23.234  26.835  1.00  0.00     0.022 C 
ATOM     89  C   UNL A   1      46.082  24.736  24.901  1.00  0.00     0.142 C 
ATOM     90  C   UNL A   1      44.673  24.077  27.071  1.00  0.00     0.137 C 
ATOM     91  S   UNL A   1      44.647  25.314  25.788  1.00  0.00     0.150 S 
ATOM     92  O   UNL A   1      43.473  25.106  24.964  1.00  0.00    -0.229 OA
ATOM     93  O   UNL A   1      44.936  26.606  26.373  1.00  0.00    -0.229 OA
ENDBRANCH  86  87
ENDBRANCH  80  86
ENDBRANCH  75  77
ENDBRANCH  74  75
ENDBRANCH  73  74
ENDBRANCH   1  73
TORSDOF 16
ENDMDL
MODEL 3
REMARK VINA RESULT:     -10.6      2.791     11.066
REMARK SMILES O=C(OCCOC(=O)c1cn(C[C@@H]2CCS(=O)(=O)C2)c(=O)[nH]c1=O)c1ccc(-c2c3nc(c(-c4c(F)cc(S(=O)(=O)[O-])cc4F)c4ccc([nH]4)c(-c4c(F)cc(S(=O)(=O)[O-])cc4F)c4nc(c(-c5c(F)cc(S(=O)(=O)[O-])cc5F)c5ccc2[nH]5)C=C4)C=C3)cc1
REMARK SMILES IDX 4 1 3 2 2 3 1 4 25 5 26 6 90 7 27 8 89 9 28 10 29 11 30 12
REMARK SMILES IDX 83 13 31 14 88 15 82 16 84 17 32 18 87 19 81 20 80 21 33 23
REMARK SMILES IDX 67 24 46 25 66 26 47 27 50 28 65 29 85 30 48 31 49 32 64 34
REMARK SMILES IDX 86 35 51 36 34 37 35 38 44 39 36 40 37 41 43 42 45 43 38 44
REMARK SMILES IDX 39 45 40 46 41 47 42 48 68 49 69 50 78 51 70 52 71 53 77 54
REMARK SMILES IDX 79 55 72 56 73 57 74 58 75 59 76 60 52 61 53 62 62 63 54 64
REMARK SMILES IDX 55 65 61 66 63 67 56 68 57 69 58 70 59 71 60 72 5 73 6 74
REMARK SMILES IDX 7 75 8 76 9 77 10 78 23 79 11 80 22 81 24 82 20 83 21 85
REMARK SMILES IDX 12 86 13 87 14 88 19 89 15 90 16 91 17 92 18 93
REMARK H PARENT 84 22 50 33 22 84
REMARK Flexibility Score: inf
ROOT
ATOM      1  C   UNL A   1      39.337  20.733  25.654  1.00  0.00     0.275 C 
ENDROOT
BRANCH   1   2
ATOM      2  O   UNL A   1      39.700  22.116  25.791  1.00  0.00    -0.458 OA
BRANCH   2   3
ATOM      3  C   UNL A   1      38.790  23.085  26.083  1.00  0.00     0.338 C 
ATOM      4  O   UNL A   1      37.673  23.089  25.581  1.00  0.00    -0.246 OA
BRANCH   3   5
ATOM      5  C   UNL A   1      39.297  24.305  26.767  1.00  0.00     0.060 A 
ATOM      6  C   UNL A   1      38.946  24.464  28.109  1.00  0.00     0.016 A 
ATOM      7  C   UNL A   1      40.118  25.267  26.167  1.00  0.00     0.016 A 
ATOM      8  C   UNL A   1      39.311  25.625  28.795  1.00  0.00     0.010 A 
ATOM      9  C   UNL A   1      40.491  26.429  26.858  1.00  0.00     0.010 A 
ATOM     10  C   UNL A   1      40.073  26.636  28.174  1.00  0.00    -0.014 A 
BRANCH  10  11
ATOM     11  C   UNL A   1      40.595  27.757  29.001  1.00  0.00     0.031 A 
ATOM     12  C   UNL A   1      41.970  27.772  29.620  1.00  0.00     0.074 A 
ATOM     13  C   UNL A   1      39.795  28.835  29.123  1.00  0.00     0.049 A 
ATOM     14  N   UNL A   1      42.688  28.812  29.964  1.00  0.00    -0.248 NA
ATOM     15  C   UNL A   1      42.664  26.490  29.834  1.00  0.00     0.031 C 
ATOM     16  C   UNL A   1      38.416  28.914  28.627  1.00  0.00     0.029 A 
ATOM     17  N   UNL A   1      40.017  30.062  29.686  1.00  0.00    -0.354 N 
ATOM     18  C   UNL A   1      43.951  28.331  30.299  1.00  0.00     0.074 A 
ATOM     19  C   UNL A   1      43.878  26.889  30.216  1.00  0.00     0.031 C 
ATOM     20  C   UNL A   1      37.920  30.128  28.898  1.00  0.00     0.029 A 
ATOM     21  C   UNL A   1      38.928  30.897  29.614  1.00  0.00     0.049 A 
ATOM     22  H   UNL A   1      40.870  30.320  30.101  1.00  0.00     0.167 HD
ATOM     23  C   UNL A   1      45.060  29.059  30.588  1.00  0.00     0.037 A 
ATOM     24  C   UNL A   1      38.753  32.141  30.095  1.00  0.00     0.037 A 
ATOM     25  C   UNL A   1      45.020  30.470  30.878  1.00  0.00     0.049 A 
ATOM     26  C   UNL A   1      39.923  32.831  30.728  1.00  0.00     0.074 A 
ATOM     27  C   UNL A   1      46.068  31.301  31.236  1.00  0.00     0.029 A 
ATOM     28  N   UNL A   1      43.862  31.229  30.951  1.00  0.00    -0.354 N 
ATOM     29  N   UNL A   1      41.168  32.423  30.799  1.00  0.00    -0.248 NA
ATOM     30  C   UNL A   1      39.676  34.139  31.344  1.00  0.00     0.031 C 
ATOM     31  C   UNL A   1      45.531  32.535  31.614  1.00  0.00     0.029 A 
ATOM     32  C   UNL A   1      44.156  32.488  31.444  1.00  0.00     0.049 A 
ATOM     33  H   UNL A   1      42.964  30.919  30.692  1.00  0.00     0.167 HD
ATOM     34  C   UNL A   1      41.860  33.436  31.446  1.00  0.00     0.074 A 
ATOM     35  C   UNL A   1      40.895  34.475  31.747  1.00  0.00     0.031 C 
ATOM     36  C   UNL A   1      43.179  33.503  31.752  1.00  0.00     0.037 A 
BRANCH  23  37
ATOM     37  C   UNL A   1      46.422  28.409  30.610  1.00  0.00     0.058 A 
ATOM     38  C   UNL A   1      46.850  27.735  31.770  1.00  0.00     0.135 A 
ATOM     39  C   UNL A   1      47.201  28.255  29.457  1.00  0.00     0.135 A 
ATOM     40  F   UNL A   1      46.085  27.720  32.870  1.00  0.00    -0.206 F 
ATOM     41  C   UNL A   1      48.028  26.997  31.810  1.00  0.00     0.059 A 
ATOM     42  C   UNL A   1      48.369  27.487  29.462  1.00  0.00     0.059 A 
ATOM     43  F   UNL A   1      46.810  28.816  28.303  1.00  0.00    -0.206 F 
ATOM     44  C   UNL A   1      48.784  26.877  30.649  1.00  0.00     0.060 A 
BRANCH  44  45
ATOM     45  S   UNL A   1      50.272  25.853  30.696  1.00  0.00     0.124 S 
ATOM     46  O   UNL A   1      51.308  26.870  30.854  1.00  0.00    -0.237 OA
ATOM     47  O   UNL A   1      50.037  25.004  31.859  1.00  0.00    -0.237 OA
ATOM     48  O   UNL A   1      50.250  25.171  29.408  1.00  0.00    -0.744 OA
ENDBRANCH  44  45
ENDBRANCH  23  37
BRANCH  24  49
ATOM     49  C   UNL A   1      37.406  32.760  30.022  1.00  0.00     0.058 A 
ATOM     50  C   UNL A   1      36.413  32.489  30.970  1.00  0.00     0.135 A 
ATOM     51  C   UNL A   1      37.113  33.696  29.014  1.00  0.00     0.135 A 
ATOM     52  F   UNL A   1      36.644  31.603  31.951  1.00  0.00    -0.206 F 
ATOM     53  C   UNL A   1      35.174  33.121  30.922  1.00  0.00     0.059 A 
ATOM     54  C   UNL A   1      35.895  34.361  28.962  1.00  0.00     0.059 A 
ATOM     55  F   UNL A   1      38.038  34.001  28.090  1.00  0.00    -0.206 F 
ATOM     56  C   UNL A   1      34.928  34.060  29.915  1.00  0.00     0.060 A 
BRANCH  56  57
ATOM     57  S   UNL A   1      33.335  34.909  29.886  1.00  0.00     0.124 S 
ATOM     58  O   UNL A   1      32.916  34.789  31.277  1.00  0.00    -0.237 OA
ATOM     59  O   UNL A   1      33.710  36.249  29.444  1.00  0.00    -0.237 OA
ATOM     60  O   UNL A   1      32.559  34.133  28.923  1.00  0.00    -0.744 OA
ENDBRANCH  56  57
ENDBRANCH  24  49
BRANCH  36  61
ATOM     61  C   UNL A   1      43.665  34.730  32.463  1.00  0.00     0.058 A 
ATOM     62  C   UNL A   1      43.982  35.899  31.757  1.00  0.00     0.135 A 
ATOM     63  C   UNL A   1      43.717  34.767  33.865  1.00  0.00     0.135 A 
ATOM     64  F   UNL A   1      43.958  35.908  30.415  1.00  0.00    -0.206 F 
ATOM     65  C   UNL A   1      44.332  37.069  32.420  1.00  0.00     0.059 A 
ATOM     66  C   UNL A   1      44.035  35.934  34.549  1.00  0.00     0.059 A 
ATOM     67  F   UNL A   1      43.413  33.674  34.582  1.00  0.00    -0.206 F 
ATOM     68  C   UNL A   1      44.342  37.080  33.817  1.00  0.00     0.060 A 
BRANCH  68  69
ATOM     69  S   UNL A   1      44.716  38.630  34.660  1.00  0.00     0.124 S 
ATOM     70  O   UNL A   1      43.818  39.558  33.981  1.00  0.00    -0.237 OA
ATOM     71  O   UNL A   1      44.378  38.317  36.045  1.00  0.00    -0.237 OA
ATOM     72  O   UNL A   1      46.139  38.825  34.396  1.00  0.00    -0.744 OA
ENDBRANCH  68  69
ENDBRANCH  36  61
ENDBRANCH  10  11
ENDBRANCH   3   5
ENDBRANCH   2   3
ENDBRANCH   1   2
BRANCH   1  73
ATOM     73  C   UNL A   1      40.280  19.768  26.385  1.00  0.00     0.275 C 
BRANCH  73  74
ATOM     74  O   UNL A   1      41.330  19.272  25.542  1.00  0.00    -0.458 OA
BRANCH  74  75
ATOM     75  C   UNL A   1      42.559  19.185  26.135  1.00  0.00     0.345 C 
ATOM     76  O   UNL A   1      42.903  18.324  26.928  1.00  0.00    -0.246 OA
BRANCH  75  77
ATOM     77  C   UNL A   1      43.437  20.233  25.589  1.00  0.00     0.141 A 
ATOM     78  C   UNL A   1      43.156  21.533  25.758  1.00  0.00     0.112 A 
ATOM     79  C   UNL A   1      44.610  19.879  24.770  1.00  0.00     0.268 A 
ATOM     80  N   UNL A   1      43.890  22.537  25.135  1.00  0.00    -0.299 N 
ATOM     81  N   UNL A   1      45.247  20.920  24.152  1.00  0.00    -0.273 N 
ATOM     82  O   UNL A   1      44.949  18.720  24.556  1.00  0.00    -0.268 OA
ATOM     83  C   UNL A   1      44.894  22.234  24.226  1.00  0.00     0.328 A 
ATOM     84  H   UNL A   1      46.034  20.699  23.603  1.00  0.00     0.175 HD
ATOM     85  O   UNL A   1      45.441  23.060  23.500  1.00  0.00    -0.248 OA
BRANCH  80  86
ATOM     86  C   UNL A   1      43.492  23.927  25.296  1.00  0.00     0.131 C 
BRANCH  86  87
ATOM     87  C   UNL A   1      43.736  24.602  26.650  1.00  0.00     0.025 C 
ATOM     88  C   UNL A   1      44.286  26.030  26.626  1.00  0.00     0.022 C 
ATOM     89  C   UNL A   1      44.606  23.808  27.619  1.00  0.00     0.142 C 
ATOM     90  C   UNL A   1      45.808  25.982  26.641  1.00  0.00     0.137 C 
ATOM     91  S   UNL A   1      46.260  24.443  27.418  1.00  0.00     0.150 S 
ATOM     92  O   UNL A   1      46.961  23.621  26.451  1.00  0.00    -0.229 OA
ATOM     93  O   UNL A   1      46.826  24.721  28.721  1.00  0.00    -0.229 OA
ENDBRANCH  86  87
ENDBRANCH  80  86
ENDBRANCH  75  77
ENDBRANCH  74  75
ENDBRANCH  73  74
ENDBRANCH   1  73
TORSDOF 16
ENDMDL
