MODEL 1
REMARK VINA RESULT:     -10.5      0.000      0.000
REMARK SMILES CC(C)[C@@H](CNC(=O)NC[C@@]1(C)CCCO1)C(=O)OCCOC(=O)c1ccc(-c2c3nc(c(-c4c(F)cc(S(=O)(=O)[O-])cc4F)c4ccc([nH]4)c(-c4c(F)cc(S(=O)(=O)[O-])cc4F)c4nc(c(-c5c(F)cc(S(=O)(=O)[O-])cc5F)c5ccc2[nH]5)C=C4)C=C3)cc1
REMARK SMILES IDX 20 1 19 2 17 3 18 4 4 5 2 6 1 7 3 8 5 9 6 10 7 11 8 13 9 14
REMARK SMILES IDX 10 16 11 17 12 18 13 19 16 20 14 21 15 22 21 23 22 24 23 25
REMARK SMILES IDX 24 26 25 27 26 28 90 29 27 30 89 31 28 32 29 33 30 34 83 35
REMARK SMILES IDX 31 36 88 37 82 38 84 39 32 40 87 41 81 42 80 43 33 45 67 46
REMARK SMILES IDX 46 47 66 48 47 49 50 50 65 51 85 52 48 53 49 54 64 56 86 57
REMARK SMILES IDX 51 58 34 59 35 60 44 61 36 62 37 63 43 64 45 65 38 66 39 67
REMARK SMILES IDX 40 68 41 69 42 70 68 71 69 72 78 73 70 74 71 75 77 76 79 77
REMARK SMILES IDX 72 78 73 79 74 80 75 81 76 82 52 83 53 84 62 85 54 86 55 87
REMARK SMILES IDX 61 88 63 89 56 90 57 91 58 92 59 93 60 94
REMARK H PARENT 6 12 9 15 84 44 50 55
REMARK Flexibility Score: inf
ROOT
ATOM      1  C   UNL A   1      36.546  22.200  24.014  1.00  0.00     0.274 C 
ENDROOT
BRANCH   1   2
ATOM      2  O   UNL A   1      35.275  21.666  24.429  1.00  0.00    -0.462 OA
BRANCH   2   3
ATOM      3  C   UNL A   1      35.295  20.358  24.785  1.00  0.00     0.311 C 
ATOM      4  O   UNL A   1      36.288  19.764  25.197  1.00  0.00    -0.252 OA
BRANCH   3   5
ATOM      5  C   UNL A   1      33.979  19.635  24.562  1.00  0.00     0.121 C 
BRANCH   5   6
ATOM      6  C   UNL A   1      33.998  18.090  24.684  1.00  0.00    -0.001 C 
ATOM      7  C   UNL A   1      32.821  17.574  25.525  1.00  0.00     0.008 C 
ATOM      8  C   UNL A   1      33.917  17.426  23.301  1.00  0.00     0.008 C 
ENDBRANCH   5   6
BRANCH   5   9
ATOM      9  C   UNL A   1      32.950  20.349  25.445  1.00  0.00     0.133 C 
BRANCH   9  10
ATOM     10  N   UNL A   1      33.528  21.004  26.599  1.00  0.00    -0.337 N 
ATOM     11  C   UNL A   1      33.137  21.998  27.399  1.00  0.00     0.314 C 
ATOM     12  H   UNL A   1      34.404  20.632  26.850  1.00  0.00     0.165 HD
ATOM     13  O   UNL A   1      33.866  22.263  28.360  1.00  0.00    -0.249 OA
ATOM     14  N   UNL A   1      32.028  22.717  27.247  1.00  0.00    -0.335 N 
ATOM     15  H   UNL A   1      31.896  23.316  28.017  1.00  0.00     0.165 HD
BRANCH  14  16
ATOM     16  C   UNL A   1      30.947  22.881  26.277  1.00  0.00     0.152 C 
BRANCH  16  17
ATOM     17  C   UNL A   1      31.050  24.187  25.448  1.00  0.00     0.083 C 
ATOM     18  C   UNL A   1      30.845  23.873  23.960  1.00  0.00     0.044 C 
ATOM     19  C   UNL A   1      30.078  25.274  25.912  1.00  0.00     0.039 C 
ATOM     20  O   UNL A   1      32.378  24.762  25.564  1.00  0.00    -0.373 OA
ATOM     21  C   UNL A   1      30.832  26.548  25.626  1.00  0.00     0.031 C 
ATOM     22  C   UNL A   1      32.244  26.133  25.970  1.00  0.00     0.161 C 
ENDBRANCH  16  17
ENDBRANCH  14  16
ENDBRANCH   9  10
ENDBRANCH   5   9
ENDBRANCH   3   5
ENDBRANCH   2   3
ENDBRANCH   1   2
BRANCH   1  23
ATOM     23  C   UNL A   1      37.064  23.273  24.973  1.00  0.00     0.275 C 
BRANCH  23  24
ATOM     24  O   UNL A   1      37.742  22.682  26.096  1.00  0.00    -0.458 OA
BRANCH  24  25
ATOM     25  C   UNL A   1      39.074  22.901  26.158  1.00  0.00     0.338 C 
ATOM     26  O   UNL A   1      39.967  22.165  25.765  1.00  0.00    -0.246 OA
BRANCH  25  27
ATOM     27  C   UNL A   1      39.340  24.190  26.809  1.00  0.00     0.060 A 
ATOM     28  C   UNL A   1      40.184  25.130  26.211  1.00  0.00     0.016 A 
ATOM     29  C   UNL A   1      38.834  24.404  28.090  1.00  0.00     0.016 A 
ATOM     30  C   UNL A   1      40.544  26.287  26.900  1.00  0.00     0.010 A 
ATOM     31  C   UNL A   1      39.176  25.571  28.770  1.00  0.00     0.010 A 
ATOM     32  C   UNL A   1      40.048  26.509  28.188  1.00  0.00    -0.014 A 
BRANCH  32  33
ATOM     33  C   UNL A   1      40.470  27.679  28.987  1.00  0.00     0.031 A 
ATOM     34  C   UNL A   1      41.725  27.586  29.804  1.00  0.00     0.074 A 
ATOM     35  C   UNL A   1      39.695  28.777  29.042  1.00  0.00     0.049 A 
ATOM     36  N   UNL A   1      42.131  28.344  30.786  1.00  0.00    -0.248 NA
ATOM     37  C   UNL A   1      42.638  26.478  29.475  1.00  0.00     0.031 C 
ATOM     38  C   UNL A   1      38.490  29.003  28.244  1.00  0.00     0.029 A 
ATOM     39  N   UNL A   1      39.790  29.893  29.834  1.00  0.00    -0.354 N 
ATOM     40  C   UNL A   1      43.323  27.783  31.224  1.00  0.00     0.074 A 
ATOM     41  C   UNL A   1      43.582  26.627  30.393  1.00  0.00     0.031 C 
ATOM     42  C   UNL A   1      37.936  30.170  28.611  1.00  0.00     0.029 A 
ATOM     43  C   UNL A   1      38.713  30.738  29.711  1.00  0.00     0.049 A 
ATOM     44  H   UNL A   1      40.552  30.070  30.431  1.00  0.00     0.167 HD
ATOM     45  C   UNL A   1      44.118  28.194  32.241  1.00  0.00     0.037 A 
ATOM     46  C   UNL A   1      38.362  31.813  30.444  1.00  0.00     0.037 A 
ATOM     47  C   UNL A   1      43.848  29.353  33.047  1.00  0.00     0.049 A 
ATOM     48  C   UNL A   1      39.228  32.224  31.601  1.00  0.00     0.074 A 
ATOM     49  C   UNL A   1      44.579  29.857  34.109  1.00  0.00     0.029 A 
ATOM     50  N   UNL A   1      42.758  30.196  32.875  1.00  0.00    -0.354 N 
ATOM     51  N   UNL A   1      40.330  31.664  32.042  1.00  0.00    -0.248 NA
ATOM     52  C   UNL A   1      38.800  33.398  32.372  1.00  0.00     0.031 C 
ATOM     53  C   UNL A   1      43.918  30.991  34.594  1.00  0.00     0.029 A 
ATOM     54  C   UNL A   1      42.794  31.212  33.813  1.00  0.00     0.049 A 
ATOM     55  H   UNL A   1      42.063  30.086  32.188  1.00  0.00     0.167 HD
ATOM     56  C   UNL A   1      40.740  32.431  33.126  1.00  0.00     0.074 A 
ATOM     57  C   UNL A   1      39.767  33.494  33.276  1.00  0.00     0.031 C 
ATOM     58  C   UNL A   1      41.824  32.272  33.924  1.00  0.00     0.037 A 
BRANCH  45  59
ATOM     59  C   UNL A   1      45.324  27.361  32.560  1.00  0.00     0.058 A 
ATOM     60  C   UNL A   1      45.225  26.166  33.288  1.00  0.00     0.135 A 
ATOM     61  C   UNL A   1      46.595  27.753  32.111  1.00  0.00     0.135 A 
ATOM     62  F   UNL A   1      44.035  25.757  33.757  1.00  0.00    -0.206 F 
ATOM     63  C   UNL A   1      46.348  25.398  33.580  1.00  0.00     0.059 A 
ATOM     64  C   UNL A   1      47.730  26.991  32.374  1.00  0.00     0.059 A 
ATOM     65  F   UNL A   1      46.744  28.891  31.415  1.00  0.00    -0.206 F 
ATOM     66  C   UNL A   1      47.598  25.822  33.123  1.00  0.00     0.060 A 
BRANCH  66  67
ATOM     67  S   UNL A   1      49.050  24.821  33.509  1.00  0.00     0.124 S 
ATOM     68  O   UNL A   1      49.612  24.601  32.179  1.00  0.00    -0.237 OA
ATOM     69  O   UNL A   1      49.819  25.703  34.382  1.00  0.00    -0.237 OA
ATOM     70  O   UNL A   1      48.485  23.641  34.156  1.00  0.00    -0.744 OA
ENDBRANCH  66  67
ENDBRANCH  45  59
BRANCH  46  71
ATOM     71  C   UNL A   1      37.109  32.543  30.124  1.00  0.00     0.058 A 
ATOM     72  C   UNL A   1      35.915  32.251  30.796  1.00  0.00     0.135 A 
ATOM     73  C   UNL A   1      37.089  33.571  29.167  1.00  0.00     0.135 A 
ATOM     74  F   UNL A   1      35.885  31.271  31.712  1.00  0.00    -0.206 F 
ATOM     75  C   UNL A   1      34.741  32.949  30.531  1.00  0.00     0.059 A 
ATOM     76  C   UNL A   1      35.933  34.297  28.900  1.00  0.00     0.059 A 
ATOM     77  F   UNL A   1      38.211  33.897  28.506  1.00  0.00    -0.206 F 
ATOM     78  C   UNL A   1      34.762  33.974  29.584  1.00  0.00     0.060 A 
BRANCH  78  79
ATOM     79  S   UNL A   1      33.253  34.925  29.297  1.00  0.00     0.124 S 
ATOM     80  O   UNL A   1      32.642  34.910  30.621  1.00  0.00    -0.237 OA
ATOM     81  O   UNL A   1      33.777  36.211  28.851  1.00  0.00    -0.237 OA
ATOM     82  O   UNL A   1      32.561  34.150  28.271  1.00  0.00    -0.744 OA
ENDBRANCH  78  79
ENDBRANCH  46  71
BRANCH  58  83
ATOM     83  C   UNL A   1      42.052  33.295  34.998  1.00  0.00     0.058 A 
ATOM     84  C   UNL A   1      42.779  34.467  34.751  1.00  0.00     0.135 A 
ATOM     85  C   UNL A   1      41.451  33.140  36.257  1.00  0.00     0.135 A 
ATOM     86  F   UNL A   1      43.377  34.655  33.564  1.00  0.00    -0.206 F 
ATOM     87  C   UNL A   1      42.900  35.459  35.719  1.00  0.00     0.059 A 
ATOM     88  C   UNL A   1      41.545  34.125  37.233  1.00  0.00     0.059 A 
ATOM     89  F   UNL A   1      40.739  32.035  36.534  1.00  0.00    -0.206 F 
ATOM     90  C   UNL A   1      42.273  35.281  36.954  1.00  0.00     0.060 A 
BRANCH  90  91
ATOM     91  S   UNL A   1      42.370  36.606  38.177  1.00  0.00     0.124 S 
ATOM     92  O   UNL A   1      42.949  35.909  39.321  1.00  0.00    -0.237 OA
ATOM     93  O   UNL A   1      43.239  37.579  37.520  1.00  0.00    -0.237 OA
ATOM     94  O   UNL A   1      40.980  37.024  38.334  1.00  0.00    -0.744 OA
ENDBRANCH  90  91
ENDBRANCH  58  83
ENDBRANCH  32  33
ENDBRANCH  25  27
ENDBRANCH  24  25
ENDBRANCH  23  24
ENDBRANCH   1  23
TORSDOF 19
ENDMDL
MODEL 2
REMARK VINA RESULT:     -10.4      5.483     10.957
REMARK SMILES CC(C)[C@@H](CNC(=O)NC[C@@]1(C)CCCO1)C(=O)OCCOC(=O)c1ccc(-c2c3nc(c(-c4c(F)cc(S(=O)(=O)[O-])cc4F)c4ccc([nH]4)c(-c4c(F)cc(S(=O)(=O)[O-])cc4F)c4nc(c(-c5c(F)cc(S(=O)(=O)[O-])cc5F)c5ccc2[nH]5)C=C4)C=C3)cc1
REMARK SMILES IDX 20 1 19 2 17 3 18 4 4 5 2 6 1 7 3 8 5 9 6 10 7 11 8 13 9 14
REMARK SMILES IDX 10 16 11 17 12 18 13 19 16 20 14 21 15 22 21 23 22 24 23 25
REMARK SMILES IDX 24 26 25 27 26 28 90 29 27 30 89 31 28 32 29 33 30 34 83 35
REMARK SMILES IDX 31 36 88 37 82 38 84 39 32 40 87 41 81 42 80 43 33 45 67 46
REMARK SMILES IDX 46 47 66 48 47 49 50 50 65 51 85 52 48 53 49 54 64 56 86 57
REMARK SMILES IDX 51 58 34 59 35 60 44 61 36 62 37 63 43 64 45 65 38 66 39 67
REMARK SMILES IDX 40 68 41 69 42 70 68 71 69 72 78 73 70 74 71 75 77 76 79 77
REMARK SMILES IDX 72 78 73 79 74 80 75 81 76 82 52 83 53 84 62 85 54 86 55 87
REMARK SMILES IDX 61 88 63 89 56 90 57 91 58 92 59 93 60 94
REMARK H PARENT 6 12 9 15 84 44 50 55
REMARK Flexibility Score: inf
ROOT
ATOM      1  C   UNL A   1      33.156  29.994  27.529  1.00  0.00     0.274 C 
ENDROOT
BRANCH   1   2
ATOM      2  O   UNL A   1      32.182  29.297  26.729  1.00  0.00    -0.462 OA
BRANCH   2   3
ATOM      3  C   UNL A   1      31.849  28.064  27.184  1.00  0.00     0.311 C 
ATOM      4  O   UNL A   1      31.453  27.825  28.321  1.00  0.00    -0.252 OA
BRANCH   3   5
ATOM      5  C   UNL A   1      32.076  26.951  26.176  1.00  0.00     0.121 C 
BRANCH   5   6
ATOM      6  C   UNL A   1      31.671  25.519  26.610  1.00  0.00    -0.001 C 
ATOM      7  C   UNL A   1      30.366  25.072  25.933  1.00  0.00     0.008 C 
ATOM      8  C   UNL A   1      32.763  24.502  26.248  1.00  0.00     0.008 C 
ENDBRANCH   5   6
BRANCH   5   9
ATOM      9  C   UNL A   1      31.458  27.438  24.862  1.00  0.00     0.133 C 
BRANCH   9  10
ATOM     10  N   UNL A   1      32.394  28.123  23.996  1.00  0.00    -0.337 N 
ATOM     11  C   UNL A   1      32.283  28.783  22.842  1.00  0.00     0.314 C 
ATOM     12  H   UNL A   1      33.317  28.096  24.336  1.00  0.00     0.165 HD
ATOM     13  O   UNL A   1      33.306  29.318  22.403  1.00  0.00    -0.249 OA
ATOM     14  N   UNL A   1      31.164  28.915  22.136  1.00  0.00    -0.335 N 
ATOM     15  H   UNL A   1      31.301  29.534  21.382  1.00  0.00     0.165 HD
BRANCH  14  16
ATOM     16  C   UNL A   1      29.791  28.415  22.146  1.00  0.00     0.152 C 
BRANCH  16  17
ATOM     17  C   UNL A   1      28.735  29.507  22.456  1.00  0.00     0.083 C 
ATOM     18  C   UNL A   1      27.449  28.850  22.979  1.00  0.00     0.044 C 
ATOM     19  C   UNL A   1      29.237  30.571  23.435  1.00  0.00     0.039 C 
ATOM     20  O   UNL A   1      28.365  30.219  21.246  1.00  0.00    -0.373 OA
ATOM     21  C   UNL A   1      28.517  31.816  22.982  1.00  0.00     0.031 C 
ATOM     22  C   UNL A   1      28.527  31.626  21.482  1.00  0.00     0.161 C 
ENDBRANCH  16  17
ENDBRANCH  14  16
ENDBRANCH   9  10
ENDBRANCH   5   9
ENDBRANCH   3   5
ENDBRANCH   2   3
ENDBRANCH   1   2
BRANCH   1  23
ATOM     23  C   UNL A   1      34.559  29.406  27.375  1.00  0.00     0.275 C 
BRANCH  23  24
ATOM     24  O   UNL A   1      35.568  30.419  27.537  1.00  0.00    -0.458 OA
BRANCH  24  25
ATOM     25  C   UNL A   1      36.133  30.493  28.762  1.00  0.00     0.338 C 
ATOM     26  O   UNL A   1      35.583  30.763  29.819  1.00  0.00    -0.246 OA
BRANCH  25  27
ATOM     27  C   UNL A   1      37.572  30.217  28.667  1.00  0.00     0.060 A 
ATOM     28  C   UNL A   1      38.149  29.846  27.449  1.00  0.00     0.016 A 
ATOM     29  C   UNL A   1      38.326  30.211  29.840  1.00  0.00     0.016 A 
ATOM     30  C   UNL A   1      39.483  29.448  27.398  1.00  0.00     0.010 A 
ATOM     31  C   UNL A   1      39.666  29.836  29.785  1.00  0.00     0.010 A 
ATOM     32  C   UNL A   1      40.247  29.433  28.569  1.00  0.00    -0.014 A 
BRANCH  32  33
ATOM     33  C   UNL A   1      41.640  28.938  28.577  1.00  0.00     0.031 A 
ATOM     34  C   UNL A   1      42.760  29.925  28.725  1.00  0.00     0.074 A 
ATOM     35  C   UNL A   1      41.897  27.634  28.373  1.00  0.00     0.049 A 
ATOM     36  N   UNL A   1      44.032  29.777  28.472  1.00  0.00    -0.248 NA
ATOM     37  C   UNL A   1      42.391  31.265  29.213  1.00  0.00     0.031 C 
ATOM     38  C   UNL A   1      40.889  26.577  28.280  1.00  0.00     0.029 A 
ATOM     39  N   UNL A   1      43.088  26.983  28.169  1.00  0.00    -0.354 N 
ATOM     40  C   UNL A   1      44.612  31.013  28.725  1.00  0.00     0.074 A 
ATOM     41  C   UNL A   1      43.555  31.898  29.164  1.00  0.00     0.031 C 
ATOM     42  C   UNL A   1      41.501  25.414  28.003  1.00  0.00     0.029 A 
ATOM     43  C   UNL A   1      42.932  25.659  27.837  1.00  0.00     0.049 A 
ATOM     44  H   UNL A   1      43.965  27.422  28.252  1.00  0.00     0.167 HD
ATOM     45  C   UNL A   1      45.910  31.374  28.586  1.00  0.00     0.037 A 
ATOM     46  C   UNL A   1      43.832  24.763  27.390  1.00  0.00     0.037 A 
ATOM     47  C   UNL A   1      46.947  30.474  28.160  1.00  0.00     0.049 A 
ATOM     48  C   UNL A   1      45.259  25.194  27.192  1.00  0.00     0.074 A 
ATOM     49  C   UNL A   1      48.294  30.734  27.975  1.00  0.00     0.029 A 
ATOM     50  N   UNL A   1      46.752  29.134  27.854  1.00  0.00    -0.354 N 
ATOM     51  N   UNL A   1      45.794  26.376  27.388  1.00  0.00    -0.248 NA
ATOM     52  C   UNL A   1      46.201  24.181  26.698  1.00  0.00     0.031 C 
ATOM     53  C   UNL A   1      48.908  29.556  27.536  1.00  0.00     0.029 A 
ATOM     54  C   UNL A   1      47.951  28.556  27.479  1.00  0.00     0.049 A 
ATOM     55  H   UNL A   1      45.888  28.666  27.898  1.00  0.00     0.167 HD
ATOM     56  C   UNL A   1      47.139  26.243  27.065  1.00  0.00     0.074 A 
ATOM     57  C   UNL A   1      47.337  24.867  26.658  1.00  0.00     0.031 C 
ATOM     58  C   UNL A   1      48.122  27.174  27.102  1.00  0.00     0.037 A 
BRANCH  45  59
ATOM     59  C   UNL A   1      46.266  32.805  28.858  1.00  0.00     0.058 A 
ATOM     60  C   UNL A   1      46.531  33.267  30.156  1.00  0.00     0.135 A 
ATOM     61  C   UNL A   1      46.364  33.724  27.802  1.00  0.00     0.135 A 
ATOM     62  F   UNL A   1      46.431  32.433  31.204  1.00  0.00    -0.206 F 
ATOM     63  C   UNL A   1      46.860  34.597  30.401  1.00  0.00     0.059 A 
ATOM     64  C   UNL A   1      46.711  35.055  28.020  1.00  0.00     0.059 A 
ATOM     65  F   UNL A   1      46.116  33.334  26.542  1.00  0.00    -0.206 F 
ATOM     66  C   UNL A   1      46.943  35.484  29.326  1.00  0.00     0.060 A 
BRANCH  66  67
ATOM     67  S   UNL A   1      47.367  37.208  29.654  1.00  0.00     0.124 S 
ATOM     68  O   UNL A   1      46.228  37.904  29.062  1.00  0.00    -0.237 OA
ATOM     69  O   UNL A   1      47.443  37.244  31.111  1.00  0.00    -0.237 OA
ATOM     70  O   UNL A   1      48.639  37.383  28.959  1.00  0.00    -0.744 OA
ENDBRANCH  66  67
ENDBRANCH  45  59
BRANCH  46  71
ATOM     71  C   UNL A   1      43.394  23.382  27.060  1.00  0.00     0.058 A 
ATOM     72  C   UNL A   1      43.267  22.966  25.728  1.00  0.00     0.135 A 
ATOM     73  C   UNL A   1      43.129  22.442  28.069  1.00  0.00     0.135 A 
ATOM     74  F   UNL A   1      43.502  23.833  24.731  1.00  0.00    -0.206 F 
ATOM     75  C   UNL A   1      42.890  21.667  25.404  1.00  0.00     0.059 A 
ATOM     76  C   UNL A   1      42.771  21.132  27.770  1.00  0.00     0.059 A 
ATOM     77  F   UNL A   1      43.249  22.788  29.360  1.00  0.00    -0.206 F 
ATOM     78  C   UNL A   1      42.648  20.756  26.433  1.00  0.00     0.060 A 
BRANCH  78  79
ATOM     79  S   UNL A   1      42.230  19.051  26.005  1.00  0.00     0.124 S 
ATOM     80  O   UNL A   1      43.022  18.850  24.797  1.00  0.00    -0.237 OA
ATOM     81  O   UNL A   1      42.670  18.317  27.187  1.00  0.00    -0.237 OA
ATOM     82  O   UNL A   1      40.784  19.102  25.813  1.00  0.00    -0.744 OA
ENDBRANCH  78  79
ENDBRANCH  46  71
BRANCH  58  83
ATOM     83  C   UNL A   1      49.511  26.733  26.747  1.00  0.00     0.058 A 
ATOM     84  C   UNL A   1      50.400  26.253  27.719  1.00  0.00     0.135 A 
ATOM     85  C   UNL A   1      49.918  26.701  25.404  1.00  0.00     0.135 A 
ATOM     86  F   UNL A   1      50.056  26.272  29.017  1.00  0.00    -0.206 F 
ATOM     87  C   UNL A   1      51.648  25.749  27.371  1.00  0.00     0.059 A 
ATOM     88  C   UNL A   1      51.155  26.187  25.032  1.00  0.00     0.059 A 
ATOM     89  F   UNL A   1      49.097  27.145  24.439  1.00  0.00    -0.206 F 
ATOM     90  C   UNL A   1      52.013  25.714  26.024  1.00  0.00     0.060 A 
BRANCH  90  91
ATOM     91  S   UNL A   1      53.604  24.987  25.573  1.00  0.00     0.124 S 
ATOM     92  O   UNL A   1      54.356  25.132  26.816  1.00  0.00    -0.237 OA
ATOM     93  O   UNL A   1      53.236  23.622  25.210  1.00  0.00    -0.237 OA
ATOM     94  O   UNL A   1      54.056  25.824  24.464  1.00  0.00    -0.744 OA
ENDBRANCH  90  91
ENDBRANCH  58  83
ENDBRANCH  32  33
ENDBRANCH  25  27
ENDBRANCH  24  25
ENDBRANCH  23  24
ENDBRANCH   1  23
TORSDOF 19
ENDMDL
MODEL 3
REMARK VINA RESULT:     -10.3      4.112     10.017
REMARK SMILES CC(C)[C@@H](CNC(=O)NC[C@@]1(C)CCCO1)C(=O)OCCOC(=O)c1ccc(-c2c3nc(c(-c4c(F)cc(S(=O)(=O)[O-])cc4F)c4ccc([nH]4)c(-c4c(F)cc(S(=O)(=O)[O-])cc4F)c4nc(c(-c5c(F)cc(S(=O)(=O)[O-])cc5F)c5ccc2[nH]5)C=C4)C=C3)cc1
REMARK SMILES IDX 20 1 19 2 17 3 18 4 4 5 2 6 1 7 3 8 5 9 6 10 7 11 8 13 9 14
REMARK SMILES IDX 10 16 11 17 12 18 13 19 16 20 14 21 15 22 21 23 22 24 23 25
REMARK SMILES IDX 24 26 25 27 26 28 90 29 27 30 89 31 28 32 29 33 30 34 83 35
REMARK SMILES IDX 31 36 88 37 82 38 84 39 32 40 87 41 81 42 80 43 33 45 67 46
REMARK SMILES IDX 46 47 66 48 47 49 50 50 65 51 85 52 48 53 49 54 64 56 86 57
REMARK SMILES IDX 51 58 34 59 35 60 44 61 36 62 37 63 43 64 45 65 38 66 39 67
REMARK SMILES IDX 40 68 41 69 42 70 68 71 69 72 78 73 70 74 71 75 77 76 79 77
REMARK SMILES IDX 72 78 73 79 74 80 75 81 76 82 52 83 53 84 62 85 54 86 55 87
REMARK SMILES IDX 61 88 63 89 56 90 57 91 58 92 59 93 60 94
REMARK H PARENT 6 12 9 15 84 44 50 55
REMARK Flexibility Score: inf
ROOT
ATOM      1  C   UNL A   1      32.739  27.996  25.933  1.00  0.00     0.274 C 
ENDROOT
BRANCH   1   2
ATOM      2  O   UNL A   1      32.794  26.657  26.460  1.00  0.00    -0.462 OA
BRANCH   2   3
ATOM      3  C   UNL A   1      31.667  25.926  26.278  1.00  0.00     0.311 C 
ATOM      4  O   UNL A   1      30.532  26.323  26.530  1.00  0.00    -0.252 OA
BRANCH   3   5
ATOM      5  C   UNL A   1      31.919  24.509  25.794  1.00  0.00     0.121 C 
BRANCH   5   6
ATOM      6  C   UNL A   1      31.435  23.358  26.713  1.00  0.00    -0.001 C 
ATOM      7  C   UNL A   1      30.693  22.274  25.917  1.00  0.00     0.008 C 
ATOM      8  C   UNL A   1      32.618  22.691  27.431  1.00  0.00     0.008 C 
ENDBRANCH   5   6
BRANCH   5   9
ATOM      9  C   UNL A   1      31.405  24.458  24.352  1.00  0.00     0.133 C 
BRANCH   9  10
ATOM     10  N   UNL A   1      32.199  25.234  23.423  1.00  0.00    -0.337 N 
ATOM     11  C   UNL A   1      33.339  25.016  22.765  1.00  0.00     0.314 C 
ATOM     12  H   UNL A   1      31.810  26.118  23.235  1.00  0.00     0.165 HD
ATOM     13  O   UNL A   1      33.707  25.893  21.977  1.00  0.00    -0.249 OA
ATOM     14  N   UNL A   1      34.102  23.934  22.884  1.00  0.00    -0.335 N 
ATOM     15  H   UNL A   1      34.830  23.948  22.221  1.00  0.00     0.165 HD
BRANCH  14  16
ATOM     16  C   UNL A   1      34.181  22.728  23.708  1.00  0.00     0.152 C 
BRANCH  16  17
ATOM     17  C   UNL A   1      35.435  22.680  24.618  1.00  0.00     0.083 C 
ATOM     18  C   UNL A   1      35.553  23.992  25.406  1.00  0.00     0.044 C 
ATOM     19  C   UNL A   1      35.448  21.476  25.564  1.00  0.00     0.039 C 
ATOM     20  O   UNL A   1      36.643  22.574  23.820  1.00  0.00    -0.373 OA
ATOM     21  C   UNL A   1      36.918  21.166  25.697  1.00  0.00     0.031 C 
ATOM     22  C   UNL A   1      37.403  21.452  24.294  1.00  0.00     0.161 C 
ENDBRANCH  16  17
ENDBRANCH  14  16
ENDBRANCH   9  10
ENDBRANCH   5   9
ENDBRANCH   3   5
ENDBRANCH   2   3
ENDBRANCH   1   2
BRANCH   1  23
ATOM     23  C   UNL A   1      33.983  28.811  26.292  1.00  0.00     0.275 C 
BRANCH  23  24
ATOM     24  O   UNL A   1      34.146  28.908  27.718  1.00  0.00    -0.458 OA
BRANCH  24  25
ATOM     25  C   UNL A   1      34.655  30.074  28.172  1.00  0.00     0.338 C 
ATOM     26  O   UNL A   1      34.054  31.121  28.371  1.00  0.00    -0.246 OA
BRANCH  25  27
ATOM     27  C   UNL A   1      36.100  29.939  28.391  1.00  0.00     0.060 A 
ATOM     28  C   UNL A   1      37.004  30.155  27.346  1.00  0.00     0.016 A 
ATOM     29  C   UNL A   1      36.545  29.472  29.627  1.00  0.00     0.016 A 
ATOM     30  C   UNL A   1      38.359  29.886  27.525  1.00  0.00     0.010 A 
ATOM     31  C   UNL A   1      37.903  29.225  29.813  1.00  0.00     0.010 A 
ATOM     32  C   UNL A   1      38.815  29.411  28.758  1.00  0.00    -0.014 A 
BRANCH  32  33
ATOM     33  C   UNL A   1      40.229  29.032  28.966  1.00  0.00     0.031 A 
ATOM     34  C   UNL A   1      41.217  30.096  29.344  1.00  0.00     0.074 A 
ATOM     35  C   UNL A   1      40.632  27.769  28.741  1.00  0.00     0.049 A 
ATOM     36  N   UNL A   1      42.521  30.069  29.293  1.00  0.00    -0.248 NA
ATOM     37  C   UNL A   1      40.655  31.367  29.833  1.00  0.00     0.031 C 
ATOM     38  C   UNL A   1      39.752  26.642  28.433  1.00  0.00     0.029 A 
ATOM     39  N   UNL A   1      41.894  27.233  28.700  1.00  0.00    -0.354 N 
ATOM     40  C   UNL A   1      42.939  31.330  29.699  1.00  0.00     0.074 A 
ATOM     41  C   UNL A   1      41.750  32.095  30.005  1.00  0.00     0.031 C 
ATOM     42  C   UNL A   1      40.503  25.553  28.200  1.00  0.00     0.029 A 
ATOM     43  C   UNL A   1      41.914  25.924  28.280  1.00  0.00     0.049 A 
ATOM     44  H   UNL A   1      42.704  27.736  28.946  1.00  0.00     0.167 HD
ATOM     45  C   UNL A   1      44.204  31.804  29.791  1.00  0.00     0.037 A 
ATOM     46  C   UNL A   1      42.951  25.136  27.941  1.00  0.00     0.037 A 
ATOM     47  C   UNL A   1      45.373  31.022  29.493  1.00  0.00     0.049 A 
ATOM     48  C   UNL A   1      44.346  25.694  27.998  1.00  0.00     0.074 A 
ATOM     49  C   UNL A   1      46.703  31.402  29.542  1.00  0.00     0.029 A 
ATOM     50  N   UNL A   1      45.351  29.693  29.092  1.00  0.00    -0.354 N 
ATOM     51  N   UNL A   1      44.734  26.901  28.338  1.00  0.00    -0.248 NA
ATOM     52  C   UNL A   1      45.442  24.796  27.612  1.00  0.00     0.031 C 
ATOM     53  C   UNL A   1      47.483  30.309  29.149  1.00  0.00     0.029 A 
ATOM     54  C   UNL A   1      46.641  29.240  28.887  1.00  0.00     0.049 A 
ATOM     55  H   UNL A   1      44.537  29.153  28.972  1.00  0.00     0.167 HD
ATOM     56  C   UNL A   1      46.119  26.900  28.231  1.00  0.00     0.074 A 
ATOM     57  C   UNL A   1      46.503  25.574  27.792  1.00  0.00     0.031 C 
ATOM     58  C   UNL A   1      46.995  27.904  28.474  1.00  0.00     0.037 A 
BRANCH  45  59
ATOM     59  C   UNL A   1      44.381  33.239  30.189  1.00  0.00     0.058 A 
ATOM     60  C   UNL A   1      44.356  34.276  29.244  1.00  0.00     0.135 A 
ATOM     61  C   UNL A   1      44.555  33.584  31.538  1.00  0.00     0.135 A 
ATOM     62  F   UNL A   1      44.213  33.998  27.938  1.00  0.00    -0.206 F 
ATOM     63  C   UNL A   1      44.521  35.606  29.621  1.00  0.00     0.059 A 
ATOM     64  C   UNL A   1      44.702  34.909  31.941  1.00  0.00     0.059 A 
ATOM     65  F   UNL A   1      44.590  32.629  32.480  1.00  0.00    -0.206 F 
ATOM     66  C   UNL A   1      44.698  35.911  30.972  1.00  0.00     0.060 A 
BRANCH  66  67
ATOM     67  S   UNL A   1      44.914  37.638  31.450  1.00  0.00     0.124 S 
ATOM     68  O   UNL A   1      44.622  37.581  32.880  1.00  0.00    -0.237 OA
ATOM     69  O   UNL A   1      46.308  37.892  31.099  1.00  0.00    -0.237 OA
ATOM     70  O   UNL A   1      43.928  38.342  30.636  1.00  0.00    -0.744 OA
ENDBRANCH  66  67
ENDBRANCH  45  59
BRANCH  46  71
ATOM     71  C   UNL A   1      42.698  23.748  27.475  1.00  0.00     0.058 A 
ATOM     72  C   UNL A   1      42.618  23.451  26.108  1.00  0.00     0.135 A 
ATOM     73  C   UNL A   1      42.567  22.687  28.385  1.00  0.00     0.135 A 
ATOM     74  F   UNL A   1      42.728  24.435  25.202  1.00  0.00    -0.206 F 
ATOM     75  C   UNL A   1      42.414  22.152  25.656  1.00  0.00     0.059 A 
ATOM     76  C   UNL A   1      42.384  21.376  27.958  1.00  0.00     0.059 A 
ATOM     77  F   UNL A   1      42.650  22.919  29.705  1.00  0.00    -0.206 F 
ATOM     78  C   UNL A   1      42.303  21.120  26.589  1.00  0.00     0.060 A 
BRANCH  78  79
ATOM     79  S   UNL A   1      42.112  19.425  25.994  1.00  0.00     0.124 S 
ATOM     80  O   UNL A   1      42.994  19.422  24.833  1.00  0.00    -0.237 OA
ATOM     81  O   UNL A   1      42.562  18.641  27.140  1.00  0.00    -0.237 OA
ATOM     82  O   UNL A   1      40.684  19.333  25.705  1.00  0.00    -0.744 OA
ENDBRANCH  78  79
ENDBRANCH  46  71
BRANCH  58  83
ATOM     83  C   UNL A   1      48.457  27.602  28.326  1.00  0.00     0.058 A 
ATOM     84  C   UNL A   1      49.190  27.001  29.359  1.00  0.00     0.135 A 
ATOM     85  C   UNL A   1      49.103  27.830  27.101  1.00  0.00     0.135 A 
ATOM     86  F   UNL A   1      48.615  26.772  30.550  1.00  0.00    -0.206 F 
ATOM     87  C   UNL A   1      50.518  26.629  29.181  1.00  0.00     0.059 A 
ATOM     88  C   UNL A   1      50.425  27.451  26.895  1.00  0.00     0.059 A 
ATOM     89  F   UNL A   1      48.438  28.398  26.082  1.00  0.00    -0.206 F 
ATOM     90  C   UNL A   1      51.124  26.852  27.943  1.00  0.00     0.060 A 
BRANCH  90  91
ATOM     91  S   UNL A   1      52.825  26.297  27.695  1.00  0.00     0.124 S 
ATOM     92  O   UNL A   1      53.399  27.424  26.969  1.00  0.00    -0.237 OA
ATOM     93  O   UNL A   1      53.300  26.115  29.064  1.00  0.00    -0.237 OA
ATOM     94  O   UNL A   1      52.669  25.066  26.925  1.00  0.00    -0.744 OA
ENDBRANCH  90  91
ENDBRANCH  58  83
ENDBRANCH  32  33
ENDBRANCH  25  27
ENDBRANCH  24  25
ENDBRANCH  23  24
ENDBRANCH   1  23
TORSDOF 19
ENDMDL
