MODEL 1
REMARK VINA RESULT:     -10.6      0.000      0.000
REMARK SMILES C[N@H+]1CCO[C@H](C[C@@H](NC(=O)OC(C)(C)C)C(=O)OCCOC(=O)c2ccc(-c3c4nc(c(-c5c(F)cc(S(=O)(=O)[O-])cc5F)c5ccc([nH]5)c(-c5c(F)cc(S(=O)(=O)[O-])cc5F)c5nc(c(-c6c(F)cc(S(=O)(=O)[O-])cc6F)c6ccc3[nH]6)C=C5)C=C4)cc2)C1
REMARK SMILES IDX 20 1 19 2 17 3 18 4 8 5 7 6 6 7 1 8 2 9 3 10 91 11 4 13 5 14
REMARK SMILES IDX 9 15 10 16 11 18 12 19 13 20 14 21 15 22 16 23 21 24 22 25
REMARK SMILES IDX 23 26 24 27 25 28 26 29 90 30 27 31 89 32 28 33 29 34 30 35
REMARK SMILES IDX 83 36 31 37 88 38 82 39 84 40 32 41 87 42 81 43 80 44 33 46
REMARK SMILES IDX 67 47 46 48 66 49 47 50 50 51 65 52 85 53 48 54 49 55 64 57
REMARK SMILES IDX 86 58 51 59 34 60 35 61 44 62 36 63 37 64 43 65 45 66 38 67
REMARK SMILES IDX 39 68 40 69 41 70 42 71 68 72 69 73 78 74 70 75 71 76 77 77
REMARK SMILES IDX 79 78 72 79 73 80 74 81 75 82 76 83 52 84 53 85 62 86 54 87
REMARK SMILES IDX 55 88 61 89 63 90 56 91 57 92 58 93 59 94 60 95
REMARK H PARENT 2 12 9 17 84 45 50 56
REMARK Flexibility Score: inf
ROOT
ATOM      1  C   UNL A   1      37.603  22.978  25.151  1.00  0.00     0.274 C 
ENDROOT
BRANCH   1   2
ATOM      2  O   UNL A   1      36.170  22.996  25.039  1.00  0.00    -0.461 OA
BRANCH   2   3
ATOM      3  C   UNL A   1      35.649  23.022  23.779  1.00  0.00     0.328 C 
ATOM      4  O   UNL A   1      36.316  23.056  22.750  1.00  0.00    -0.250 OA
BRANCH   3   5
ATOM      5  C   UNL A   1      34.106  23.113  23.798  1.00  0.00     0.198 C 
BRANCH   5   6
ATOM      6  C   UNL A   1      33.527  23.898  22.598  1.00  0.00     0.075 C 
BRANCH   6   7
ATOM      7  C   UNL A   1      32.887  25.261  22.891  1.00  0.00     0.176 C 
ATOM      8  C   UNL A   1      30.593  27.439  22.530  1.00  0.00     0.332 C 
ATOM      9  N   UNL A   1      31.893  27.361  21.867  1.00  0.00    -0.333 N 
ATOM     10  C   UNL A   1      32.936  28.090  22.617  1.00  0.00     0.290 C 
ATOM     11  C   UNL A   1      32.340  25.974  21.631  1.00  0.00     0.294 C 
ATOM     12  H   UNL A   1      31.757  27.807  20.960  1.00  0.00     0.348 HD
ATOM     13  C   UNL A   1      33.406  27.355  23.882  1.00  0.00     0.222 C 
ATOM     14  O   UNL A   1      33.881  26.048  23.565  1.00  0.00    -0.366 OA
ENDBRANCH   6   7
ENDBRANCH   5   6
BRANCH   5  15
ATOM     15  N   UNL A   1      33.416  21.868  24.134  1.00  0.00    -0.308 N 
ATOM     16  C   UNL A   1      32.263  21.661  24.820  1.00  0.00     0.408 C 
ATOM     17  H   UNL A   1      33.858  21.050  23.811  1.00  0.00     0.168 HD
ATOM     18  O   UNL A   1      31.910  20.529  25.114  1.00  0.00    -0.225 OA
BRANCH  16  19
ATOM     19  O   UNL A   1      31.575  22.794  25.071  1.00  0.00    -0.444 OA
BRANCH  19  20
ATOM     20  C   UNL A   1      31.421  23.285  26.422  1.00  0.00     0.106 C 
ATOM     21  C   UNL A   1      30.055  22.908  27.007  1.00  0.00     0.056 C 
ATOM     22  C   UNL A   1      32.591  22.816  27.288  1.00  0.00     0.056 C 
ATOM     23  C   UNL A   1      31.478  24.816  26.310  1.00  0.00     0.056 C 
ENDBRANCH  19  20
ENDBRANCH  16  19
ENDBRANCH   5  15
ENDBRANCH   3   5
ENDBRANCH   2   3
ENDBRANCH   1   2
BRANCH   1  24
ATOM     24  C   UNL A   1      38.079  23.556  26.483  1.00  0.00     0.275 C 
BRANCH  24  25
ATOM     25  O   UNL A   1      38.844  24.757  26.289  1.00  0.00    -0.458 OA
BRANCH  25  26
ATOM     26  C   UNL A   1      40.114  24.698  26.754  1.00  0.00     0.338 C 
ATOM     27  O   UNL A   1      41.050  24.088  26.265  1.00  0.00    -0.246 OA
BRANCH  26  28
ATOM     28  C   UNL A   1      40.277  25.633  27.876  1.00  0.00     0.060 A 
ATOM     29  C   UNL A   1      39.284  25.647  28.862  1.00  0.00     0.016 A 
ATOM     30  C   UNL A   1      41.339  26.534  27.922  1.00  0.00     0.016 A 
ATOM     31  C   UNL A   1      39.333  26.574  29.892  1.00  0.00     0.010 A 
ATOM     32  C   UNL A   1      41.386  27.472  28.953  1.00  0.00     0.010 A 
ATOM     33  C   UNL A   1      40.371  27.509  29.928  1.00  0.00    -0.014 A 
BRANCH  33  34
ATOM     34  C   UNL A   1      40.330  28.600  30.923  1.00  0.00     0.031 A 
ATOM     35  C   UNL A   1      41.250  28.538  32.106  1.00  0.00     0.074 A 
ATOM     36  C   UNL A   1      39.495  29.639  30.747  1.00  0.00     0.049 A 
ATOM     37  N   UNL A   1      41.308  29.316  33.152  1.00  0.00    -0.248 NA
ATOM     38  C   UNL A   1      42.236  27.443  32.113  1.00  0.00     0.031 C 
ATOM     39  C   UNL A   1      38.606  29.822  29.599  1.00  0.00     0.029 A 
ATOM     40  N   UNL A   1      39.252  30.731  31.539  1.00  0.00    -0.354 N 
ATOM     41  C   UNL A   1      42.316  28.797  33.954  1.00  0.00     0.074 A 
ATOM     42  C   UNL A   1      42.828  27.620  33.286  1.00  0.00     0.031 C 
ATOM     43  C   UNL A   1      37.902  30.953  29.769  1.00  0.00     0.029 A 
ATOM     44  C   UNL A   1      38.253  31.543  31.058  1.00  0.00     0.049 A 
ATOM     45  H   UNL A   1      39.746  30.915  32.371  1.00  0.00     0.167 HD
ATOM     46  C   UNL A   1      42.772  29.267  35.139  1.00  0.00     0.037 A 
ATOM     47  C   UNL A   1      37.662  32.615  31.619  1.00  0.00     0.037 A 
ATOM     48  C   UNL A   1      42.249  30.445  35.782  1.00  0.00     0.049 A 
ATOM     49  C   UNL A   1      38.138  33.078  32.970  1.00  0.00     0.074 A 
ATOM     50  C   UNL A   1      42.636  31.015  36.980  1.00  0.00     0.029 A 
ATOM     51  N   UNL A   1      41.222  31.233  35.277  1.00  0.00    -0.354 N 
ATOM     52  N   UNL A   1      39.085  32.576  33.728  1.00  0.00    -0.248 NA
ATOM     53  C   UNL A   1      37.468  34.252  33.543  1.00  0.00     0.031 C 
ATOM     54  C   UNL A   1      41.807  32.115  37.227  1.00  0.00     0.029 A 
ATOM     55  C   UNL A   1      40.947  32.269  36.151  1.00  0.00     0.049 A 
ATOM     56  H   UNL A   1      40.759  31.075  34.422  1.00  0.00     0.167 HD
ATOM     57  C   UNL A   1      39.142  33.388  34.854  1.00  0.00     0.074 A 
ATOM     58  C   UNL A   1      38.143  34.422  34.671  1.00  0.00     0.031 C 
ATOM     59  C   UNL A   1      39.948  33.291  35.942  1.00  0.00     0.037 A 
BRANCH  46  60
ATOM     60  C   UNL A   1      43.858  28.487  35.828  1.00  0.00     0.058 A 
ATOM     61  C   UNL A   1      43.572  27.451  36.732  1.00  0.00     0.135 A 
ATOM     62  C   UNL A   1      45.209  28.766  35.565  1.00  0.00     0.135 A 
ATOM     63  F   UNL A   1      42.299  27.153  37.040  1.00  0.00    -0.206 F 
ATOM     64  C   UNL A   1      44.583  26.741  37.371  1.00  0.00     0.059 A 
ATOM     65  C   UNL A   1      46.238  28.048  36.168  1.00  0.00     0.059 A 
ATOM     66  F   UNL A   1      45.543  29.749  34.714  1.00  0.00    -0.206 F 
ATOM     67  C   UNL A   1      45.915  27.047  37.081  1.00  0.00     0.060 A 
BRANCH  67  68
ATOM     68  S   UNL A   1      47.215  26.114  37.918  1.00  0.00     0.124 S 
ATOM     69  O   UNL A   1      48.384  26.460  37.117  1.00  0.00    -0.237 OA
ATOM     70  O   UNL A   1      47.181  26.676  39.265  1.00  0.00    -0.237 OA
ATOM     71  O   UNL A   1      46.766  24.729  37.808  1.00  0.00    -0.744 OA
ENDBRANCH  67  68
ENDBRANCH  46  60
BRANCH  47  72
ATOM     72  C   UNL A   1      36.543  33.297  30.915  1.00  0.00     0.058 A 
ATOM     73  C   UNL A   1      35.222  33.183  31.369  1.00  0.00     0.135 A 
ATOM     74  C   UNL A   1      36.778  34.092  29.780  1.00  0.00     0.135 A 
ATOM     75  F   UNL A   1      34.944  32.428  32.443  1.00  0.00    -0.206 F 
ATOM     76  C   UNL A   1      34.170  33.820  30.717  1.00  0.00     0.059 A 
ATOM     77  C   UNL A   1      35.747  34.763  29.130  1.00  0.00     0.059 A 
ATOM     78  F   UNL A   1      38.025  34.244  29.311  1.00  0.00    -0.206 F 
ATOM     79  C   UNL A   1      34.444  34.611  29.600  1.00  0.00     0.060 A 
BRANCH  79  80
ATOM     80  S   UNL A   1      33.077  35.469  28.791  1.00  0.00     0.124 S 
ATOM     81  O   UNL A   1      33.787  36.444  27.970  1.00  0.00    -0.237 OA
ATOM     82  O   UNL A   1      32.419  34.384  28.070  1.00  0.00    -0.237 OA
ATOM     83  O   UNL A   1      32.317  36.020  29.909  1.00  0.00    -0.744 OA
ENDBRANCH  79  80
ENDBRANCH  47  72
BRANCH  59  84
ATOM     84  C   UNL A   1      39.812  34.354  36.998  1.00  0.00     0.058 A 
ATOM     85  C   UNL A   1      39.017  34.168  38.140  1.00  0.00     0.135 A 
ATOM     86  C   UNL A   1      40.530  35.557  36.888  1.00  0.00     0.135 A 
ATOM     87  F   UNL A   1      38.306  33.040  38.292  1.00  0.00    -0.206 F 
ATOM     88  C   UNL A   1      38.916  35.148  39.122  1.00  0.00     0.059 A 
ATOM     89  C   UNL A   1      40.469  36.537  37.873  1.00  0.00     0.059 A 
ATOM     90  F   UNL A   1      41.314  35.781  35.822  1.00  0.00    -0.206 F 
ATOM     91  C   UNL A   1      39.649  36.328  38.981  1.00  0.00     0.060 A 
BRANCH  91  92
ATOM     92  S   UNL A   1      39.534  37.577  40.278  1.00  0.00     0.124 S 
ATOM     93  O   UNL A   1      40.939  37.916  40.485  1.00  0.00    -0.237 OA
ATOM     94  O   UNL A   1      38.720  38.609  39.645  1.00  0.00    -0.237 OA
ATOM     95  O   UNL A   1      38.891  36.868  41.380  1.00  0.00    -0.744 OA
ENDBRANCH  91  92
ENDBRANCH  59  84
ENDBRANCH  33  34
ENDBRANCH  26  28
ENDBRANCH  25  26
ENDBRANCH  24  25
ENDBRANCH   1  24
TORSDOF 19
ENDMDL
MODEL 2
REMARK VINA RESULT:     -10.6      3.076      4.507
REMARK SMILES C[N@H+]1CCO[C@H](C[C@@H](NC(=O)OC(C)(C)C)C(=O)OCCOC(=O)c2ccc(-c3c4nc(c(-c5c(F)cc(S(=O)(=O)[O-])cc5F)c5ccc([nH]5)c(-c5c(F)cc(S(=O)(=O)[O-])cc5F)c5nc(c(-c6c(F)cc(S(=O)(=O)[O-])cc6F)c6ccc3[nH]6)C=C5)C=C4)cc2)C1
REMARK SMILES IDX 20 1 19 2 17 3 18 4 8 5 7 6 6 7 1 8 2 9 3 10 91 11 4 13 5 14
REMARK SMILES IDX 9 15 10 16 11 18 12 19 13 20 14 21 15 22 16 23 21 24 22 25
REMARK SMILES IDX 23 26 24 27 25 28 26 29 90 30 27 31 89 32 28 33 29 34 30 35
REMARK SMILES IDX 83 36 31 37 88 38 82 39 84 40 32 41 87 42 81 43 80 44 33 46
REMARK SMILES IDX 67 47 46 48 66 49 47 50 50 51 65 52 85 53 48 54 49 55 64 57
REMARK SMILES IDX 86 58 51 59 34 60 35 61 44 62 36 63 37 64 43 65 45 66 38 67
REMARK SMILES IDX 39 68 40 69 41 70 42 71 68 72 69 73 78 74 70 75 71 76 77 77
REMARK SMILES IDX 79 78 72 79 73 80 74 81 75 82 76 83 52 84 53 85 62 86 54 87
REMARK SMILES IDX 55 88 61 89 63 90 56 91 57 92 58 93 59 94 60 95
REMARK H PARENT 2 12 9 17 84 45 50 56
REMARK Flexibility Score: inf
ROOT
ATOM      1  C   UNL A   1      35.874  22.071  25.778  1.00  0.00     0.274 C 
ENDROOT
BRANCH   1   2
ATOM      2  O   UNL A   1      34.983  21.479  24.818  1.00  0.00    -0.461 OA
BRANCH   2   3
ATOM      3  C   UNL A   1      34.267  22.333  24.030  1.00  0.00     0.328 C 
ATOM      4  O   UNL A   1      34.758  23.224  23.345  1.00  0.00    -0.250 OA
BRANCH   3   5
ATOM      5  C   UNL A   1      32.745  22.114  24.183  1.00  0.00     0.198 C 
BRANCH   5   6
ATOM      6  C   UNL A   1      32.234  20.858  23.440  1.00  0.00     0.075 C 
BRANCH   6   7
ATOM      7  C   UNL A   1      32.773  19.497  23.902  1.00  0.00     0.176 C 
ATOM      8  C   UNL A   1      34.131  16.669  23.366  1.00  0.00     0.332 C 
ATOM      9  N   UNL A   1      32.713  16.989  23.513  1.00  0.00    -0.333 N 
ATOM     10  C   UNL A   1      32.271  16.891  24.919  1.00  0.00     0.290 C 
ATOM     11  C   UNL A   1      32.363  18.321  22.983  1.00  0.00     0.294 C 
ATOM     12  H   UNL A   1      32.222  16.289  22.956  1.00  0.00     0.348 HD
ATOM     13  C   UNL A   1      32.747  18.062  25.793  1.00  0.00     0.222 C 
ATOM     14  O   UNL A   1      32.318  19.310  25.251  1.00  0.00    -0.366 OA
ENDBRANCH   6   7
ENDBRANCH   5   6
BRANCH   5  15
ATOM     15  N   UNL A   1      32.224  22.307  25.536  1.00  0.00    -0.308 N 
ATOM     16  C   UNL A   1      32.310  23.379  26.365  1.00  0.00     0.408 C 
ATOM     17  H   UNL A   1      31.733  21.537  25.904  1.00  0.00     0.168 HD
ATOM     18  O   UNL A   1      31.918  23.302  27.520  1.00  0.00    -0.225 OA
BRANCH  16  19
ATOM     19  O   UNL A   1      32.802  24.484  25.768  1.00  0.00    -0.444 OA
BRANCH  19  20
ATOM     20  C   UNL A   1      31.931  25.579  25.401  1.00  0.00     0.106 C 
ATOM     21  C   UNL A   1      30.524  25.085  25.045  1.00  0.00     0.056 C 
ATOM     22  C   UNL A   1      31.931  26.641  26.502  1.00  0.00     0.056 C 
ATOM     23  C   UNL A   1      32.550  26.186  24.133  1.00  0.00     0.056 C 
ENDBRANCH  19  20
ENDBRANCH  16  19
ENDBRANCH   5  15
ENDBRANCH   3   5
ENDBRANCH   2   3
ENDBRANCH   1   2
BRANCH   1  24
ATOM     24  C   UNL A   1      37.339  21.779  25.454  1.00  0.00     0.275 C 
BRANCH  24  25
ATOM     25  O   UNL A   1      38.121  22.983  25.440  1.00  0.00    -0.458 OA
BRANCH  25  26
ATOM     26  C   UNL A   1      39.249  22.931  26.187  1.00  0.00     0.338 C 
ATOM     27  O   UNL A   1      40.081  22.039  26.204  1.00  0.00    -0.246 OA
BRANCH  26  28
ATOM     28  C   UNL A   1      39.447  24.212  26.879  1.00  0.00     0.060 A 
ATOM     29  C   UNL A   1      40.230  25.182  26.243  1.00  0.00     0.016 A 
ATOM     30  C   UNL A   1      38.943  24.431  28.159  1.00  0.00     0.016 A 
ATOM     31  C   UNL A   1      40.532  26.372  26.888  1.00  0.00     0.010 A 
ATOM     32  C   UNL A   1      39.252  25.624  28.813  1.00  0.00     0.010 A 
ATOM     33  C   UNL A   1      40.066  26.587  28.188  1.00  0.00    -0.014 A 
BRANCH  33  34
ATOM     34  C   UNL A   1      40.528  27.775  28.936  1.00  0.00     0.031 A 
ATOM     35  C   UNL A   1      41.893  27.754  29.558  1.00  0.00     0.074 A 
ATOM     36  C   UNL A   1      39.740  28.861  29.027  1.00  0.00     0.049 A 
ATOM     37  N   UNL A   1      42.457  28.628  30.346  1.00  0.00    -0.248 NA
ATOM     38  C   UNL A   1      42.734  26.583  29.255  1.00  0.00     0.031 C 
ATOM     39  C   UNL A   1      38.423  29.002  28.405  1.00  0.00     0.029 A 
ATOM     40  N   UNL A   1      39.929  30.045  29.690  1.00  0.00    -0.354 N 
ATOM     41  C   UNL A   1      43.707  28.106  30.655  1.00  0.00     0.074 A 
ATOM     42  C   UNL A   1      43.811  26.827  29.989  1.00  0.00     0.031 C 
ATOM     43  C   UNL A   1      37.915  30.203  28.729  1.00  0.00     0.029 A 
ATOM     44  C   UNL A   1      38.846  30.888  29.620  1.00  0.00     0.049 A 
ATOM     45  H   UNL A   1      40.761  30.270  30.168  1.00  0.00     0.167 HD
ATOM     46  C   UNL A   1      44.679  28.654  31.422  1.00  0.00     0.037 A 
ATOM     47  C   UNL A   1      38.620  32.061  30.243  1.00  0.00     0.037 A 
ATOM     48  C   UNL A   1      44.554  29.933  32.071  1.00  0.00     0.049 A 
ATOM     49  C   UNL A   1      39.687  32.617  31.148  1.00  0.00     0.074 A 
ATOM     50  C   UNL A   1      45.473  30.588  32.869  1.00  0.00     0.029 A 
ATOM     51  N   UNL A   1      43.434  30.753  31.996  1.00  0.00    -0.354 N 
ATOM     52  N   UNL A   1      40.863  32.113  31.444  1.00  0.00    -0.248 NA
ATOM     53  C   UNL A   1      39.399  33.898  31.804  1.00  0.00     0.031 C 
ATOM     54  C   UNL A   1      44.890  31.776  33.321  1.00  0.00     0.029 A 
ATOM     55  C   UNL A   1      43.631  31.895  32.753  1.00  0.00     0.049 A 
ATOM     56  H   UNL A   1      42.620  30.549  31.480  1.00  0.00     0.167 HD
ATOM     57  C   UNL A   1      41.465  33.029  32.298  1.00  0.00     0.074 A 
ATOM     58  C   UNL A   1      40.528  34.123  32.460  1.00  0.00     0.031 C 
ATOM     59  C   UNL A   1      42.683  32.974  32.894  1.00  0.00     0.037 A 
BRANCH  46  60
ATOM     60  C   UNL A   1      45.937  27.856  31.630  1.00  0.00     0.058 A 
ATOM     61  C   UNL A   1      46.070  26.936  32.682  1.00  0.00     0.135 A 
ATOM     62  C   UNL A   1      47.022  27.998  30.750  1.00  0.00     0.135 A 
ATOM     63  F   UNL A   1      45.074  26.772  33.568  1.00  0.00    -0.206 F 
ATOM     64  C   UNL A   1      47.241  26.208  32.872  1.00  0.00     0.059 A 
ATOM     65  C   UNL A   1      48.192  27.259  30.901  1.00  0.00     0.059 A 
ATOM     66  F   UNL A   1      46.954  28.868  29.729  1.00  0.00    -0.206 F 
ATOM     67  C   UNL A   1      48.296  26.376  31.974  1.00  0.00     0.060 A 
BRANCH  67  68
ATOM     68  S   UNL A   1      49.808  25.424  32.233  1.00  0.00     0.124 S 
ATOM     69  O   UNL A   1      50.715  26.447  32.742  1.00  0.00    -0.237 OA
ATOM     70  O   UNL A   1      49.379  24.419  33.201  1.00  0.00    -0.237 OA
ATOM     71  O   UNL A   1      50.122  24.914  30.901  1.00  0.00    -0.744 OA
ENDBRANCH  67  68
ENDBRANCH  46  60
BRANCH  47  72
ATOM     72  C   UNL A   1      37.323  32.763  30.049  1.00  0.00     0.058 A 
ATOM     73  C   UNL A   1      36.207  32.458  30.841  1.00  0.00     0.135 A 
ATOM     74  C   UNL A   1      37.179  33.767  29.077  1.00  0.00     0.135 A 
ATOM     75  F   UNL A   1      36.289  31.501  31.778  1.00  0.00    -0.206 F 
ATOM     76  C   UNL A   1      34.991  33.112  30.668  1.00  0.00     0.059 A 
ATOM     77  C   UNL A   1      35.983  34.456  28.906  1.00  0.00     0.059 A 
ATOM     78  F   UNL A   1      38.220  34.105  28.301  1.00  0.00    -0.206 F 
ATOM     79  C   UNL A   1      34.890  34.113  29.700  1.00  0.00     0.060 A 
BRANCH  79  80
ATOM     80  S   UNL A   1      33.321  34.986  29.517  1.00  0.00     0.124 S 
ATOM     81  O   UNL A   1      32.630  34.148  28.543  1.00  0.00    -0.237 OA
ATOM     82  O   UNL A   1      32.792  34.953  30.877  1.00  0.00    -0.237 OA
ATOM     83  O   UNL A   1      33.723  36.306  29.041  1.00  0.00    -0.744 OA
ENDBRANCH  79  80
ENDBRANCH  47  72
BRANCH  59  84
ATOM     84  C   UNL A   1      43.089  34.148  33.743  1.00  0.00     0.058 A 
ATOM     85  C   UNL A   1      43.721  35.275  33.197  1.00  0.00     0.135 A 
ATOM     86  C   UNL A   1      42.792  34.163  35.116  1.00  0.00     0.135 A 
ATOM     87  F   UNL A   1      44.032  35.310  31.892  1.00  0.00    -0.206 F 
ATOM     88  C   UNL A   1      44.071  36.365  33.987  1.00  0.00     0.059 A 
ATOM     89  C   UNL A   1      43.103  35.256  35.919  1.00  0.00     0.059 A 
ATOM     90  F   UNL A   1      42.177  33.116  35.688  1.00  0.00    -0.206 F 
ATOM     91  C   UNL A   1      43.755  36.348  35.347  1.00  0.00     0.060 A 
BRANCH  91  92
ATOM     92  S   UNL A   1      44.184  37.782  36.353  1.00  0.00     0.124 S 
ATOM     93  O   UNL A   1      45.590  37.524  36.649  1.00  0.00    -0.237 OA
ATOM     94  O   UNL A   1      43.922  38.892  35.442  1.00  0.00    -0.237 OA
ATOM     95  O   UNL A   1      43.276  37.685  37.492  1.00  0.00    -0.744 OA
ENDBRANCH  91  92
ENDBRANCH  59  84
ENDBRANCH  33  34
ENDBRANCH  26  28
ENDBRANCH  25  26
ENDBRANCH  24  25
ENDBRANCH   1  24
TORSDOF 19
ENDMDL
MODEL 3
REMARK VINA RESULT:     -10.5      4.912     10.349
REMARK SMILES C[N@H+]1CCO[C@H](C[C@@H](NC(=O)OC(C)(C)C)C(=O)OCCOC(=O)c2ccc(-c3c4nc(c(-c5c(F)cc(S(=O)(=O)[O-])cc5F)c5ccc([nH]5)c(-c5c(F)cc(S(=O)(=O)[O-])cc5F)c5nc(c(-c6c(F)cc(S(=O)(=O)[O-])cc6F)c6ccc3[nH]6)C=C5)C=C4)cc2)C1
REMARK SMILES IDX 20 1 19 2 17 3 18 4 8 5 7 6 6 7 1 8 2 9 3 10 91 11 4 13 5 14
REMARK SMILES IDX 9 15 10 16 11 18 12 19 13 20 14 21 15 22 16 23 21 24 22 25
REMARK SMILES IDX 23 26 24 27 25 28 26 29 90 30 27 31 89 32 28 33 29 34 30 35
REMARK SMILES IDX 83 36 31 37 88 38 82 39 84 40 32 41 87 42 81 43 80 44 33 46
REMARK SMILES IDX 67 47 46 48 66 49 47 50 50 51 65 52 85 53 48 54 49 55 64 57
REMARK SMILES IDX 86 58 51 59 34 60 35 61 44 62 36 63 37 64 43 65 45 66 38 67
REMARK SMILES IDX 39 68 40 69 41 70 42 71 68 72 69 73 78 74 70 75 71 76 77 77
REMARK SMILES IDX 79 78 72 79 73 80 74 81 75 82 76 83 52 84 53 85 62 86 54 87
REMARK SMILES IDX 55 88 61 89 63 90 56 91 57 92 58 93 59 94 60 95
REMARK H PARENT 2 12 9 17 84 45 50 56
REMARK Flexibility Score: inf
ROOT
ATOM      1  C   UNL A   1      31.874  28.768  26.747  1.00  0.00     0.274 C 
ENDROOT
BRANCH   1   2
ATOM      2  O   UNL A   1      31.848  27.782  25.702  1.00  0.00    -0.461 OA
BRANCH   2   3
ATOM      3  C   UNL A   1      30.908  26.799  25.803  1.00  0.00     0.328 C 
ATOM      4  O   UNL A   1      30.730  26.106  26.799  1.00  0.00    -0.250 OA
BRANCH   3   5
ATOM      5  C   UNL A   1      30.158  26.584  24.469  1.00  0.00     0.198 C 
BRANCH   5   6
ATOM      6  C   UNL A   1      30.588  27.576  23.363  1.00  0.00     0.075 C 
BRANCH   6   7
ATOM      7  C   UNL A   1      29.515  28.524  22.810  1.00  0.00     0.176 C 
ATOM      8  C   UNL A   1      28.593  31.174  21.306  1.00  0.00     0.332 C 
ATOM      9  N   UNL A   1      28.687  30.923  22.742  1.00  0.00    -0.333 N 
ATOM     10  C   UNL A   1      27.423  30.387  23.289  1.00  0.00     0.290 C 
ATOM     11  C   UNL A   1      29.796  30.018  23.100  1.00  0.00     0.294 C 
ATOM     12  H   UNL A   1      28.875  31.834  23.161  1.00  0.00     0.348 HD
ATOM     13  C   UNL A   1      27.177  28.914  22.928  1.00  0.00     0.222 C 
ATOM     14  O   UNL A   1      28.261  28.095  23.361  1.00  0.00    -0.366 OA
ENDBRANCH   6   7
ENDBRANCH   5   6
BRANCH   5  15
ATOM     15  N   UNL A   1      30.020  25.190  24.052  1.00  0.00    -0.308 N 
ATOM     16  C   UNL A   1      30.969  24.255  23.788  1.00  0.00     0.408 C 
ATOM     17  H   UNL A   1      29.092  24.879  23.945  1.00  0.00     0.168 HD
ATOM     18  O   UNL A   1      30.658  23.169  23.322  1.00  0.00    -0.225 OA
BRANCH  16  19
ATOM     19  O   UNL A   1      32.215  24.638  24.138  1.00  0.00    -0.444 OA
BRANCH  19  20
ATOM     20  C   UNL A   1      33.238  24.839  23.136  1.00  0.00     0.106 C 
ATOM     21  C   UNL A   1      34.344  23.784  23.241  1.00  0.00     0.056 C 
ATOM     22  C   UNL A   1      32.605  24.906  21.745  1.00  0.00     0.056 C 
ATOM     23  C   UNL A   1      33.861  26.207  23.457  1.00  0.00     0.056 C 
ENDBRANCH  19  20
ENDBRANCH  16  19
ENDBRANCH   5  15
ENDBRANCH   3   5
ENDBRANCH   2   3
ENDBRANCH   1   2
BRANCH   1  24
ATOM     24  C   UNL A   1      33.252  28.874  27.399  1.00  0.00     0.275 C 
BRANCH  24  25
ATOM     25  O   UNL A   1      33.953  30.047  26.953  1.00  0.00    -0.458 OA
BRANCH  25  26
ATOM     26  C   UNL A   1      34.605  30.719  27.930  1.00  0.00     0.338 C 
ATOM     27  O   UNL A   1      34.151  31.592  28.653  1.00  0.00    -0.246 OA
BRANCH  26  28
ATOM     28  C   UNL A   1      35.934  30.130  28.138  1.00  0.00     0.060 A 
ATOM     29  C   UNL A   1      36.239  29.646  29.415  1.00  0.00     0.016 A 
ATOM     30  C   UNL A   1      36.891  30.121  27.126  1.00  0.00     0.016 A 
ATOM     31  C   UNL A   1      37.510  29.167  29.698  1.00  0.00     0.010 A 
ATOM     32  C   UNL A   1      38.172  29.647  27.410  1.00  0.00     0.010 A 
ATOM     33  C   UNL A   1      38.491  29.190  28.703  1.00  0.00    -0.014 A 
BRANCH  33  34
ATOM     34  C   UNL A   1      39.884  28.841  29.051  1.00  0.00     0.031 A 
ATOM     35  C   UNL A   1      40.745  29.873  29.717  1.00  0.00     0.074 A 
ATOM     36  C   UNL A   1      40.352  27.607  28.793  1.00  0.00     0.049 A 
ATOM     37  N   UNL A   1      42.016  29.828  30.008  1.00  0.00    -0.248 NA
ATOM     38  C   UNL A   1      40.082  31.131  30.102  1.00  0.00     0.031 C 
ATOM     39  C   UNL A   1      39.575  26.515  28.205  1.00  0.00     0.029 A 
ATOM     40  N   UNL A   1      41.598  27.070  28.983  1.00  0.00    -0.354 N 
ATOM     41  C   UNL A   1      42.315  31.055  30.587  1.00  0.00     0.074 A 
ATOM     42  C   UNL A   1      41.097  31.835  30.584  1.00  0.00     0.031 C 
ATOM     43  C   UNL A   1      40.369  25.440  28.068  1.00  0.00     0.029 A 
ATOM     44  C   UNL A   1      41.717  25.786  28.510  1.00  0.00     0.049 A 
ATOM     45  H   UNL A   1      42.336  27.557  29.418  1.00  0.00     0.167 HD
ATOM     46  C   UNL A   1      43.501  31.484  31.079  1.00  0.00     0.037 A 
ATOM     47  C   UNL A   1      42.804  24.997  28.406  1.00  0.00     0.037 A 
ATOM     48  C   UNL A   1      44.700  30.687  31.074  1.00  0.00     0.049 A 
ATOM     49  C   UNL A   1      44.127  25.523  28.896  1.00  0.00     0.074 A 
ATOM     50  C   UNL A   1      45.955  31.017  31.548  1.00  0.00     0.029 A 
ATOM     51  N   UNL A   1      44.790  29.396  30.568  1.00  0.00    -0.354 N 
ATOM     52  N   UNL A   1      44.405  26.688  29.433  1.00  0.00    -0.248 NA
ATOM     53  C   UNL A   1      45.285  24.629  28.766  1.00  0.00     0.031 C 
ATOM     54  C   UNL A   1      46.818  29.949  31.279  1.00  0.00     0.029 A 
ATOM     55  C   UNL A   1      46.085  28.926  30.696  1.00  0.00     0.049 A 
ATOM     56  H   UNL A   1      44.041  28.891  30.175  1.00  0.00     0.167 HD
ATOM     57  C   UNL A   1      45.762  26.657  29.730  1.00  0.00     0.074 A 
ATOM     58  C   UNL A   1      46.246  25.352  29.324  1.00  0.00     0.031 C 
ATOM     59  C   UNL A   1      46.541  27.619  30.289  1.00  0.00     0.037 A 
BRANCH  46  60
ATOM     60  C   UNL A   1      43.565  32.886  31.622  1.00  0.00     0.058 A 
ATOM     61  C   UNL A   1      43.407  33.163  32.989  1.00  0.00     0.135 A 
ATOM     62  C   UNL A   1      43.809  33.970  30.762  1.00  0.00     0.135 A 
ATOM     63  F   UNL A   1      43.149  32.170  33.856  1.00  0.00    -0.206 F 
ATOM     64  C   UNL A   1      43.459  34.464  33.481  1.00  0.00     0.059 A 
ATOM     65  C   UNL A   1      43.897  35.276  31.235  1.00  0.00     0.059 A 
ATOM     66  F   UNL A   1      43.962  33.766  29.444  1.00  0.00    -0.206 F 
ATOM     67  C   UNL A   1      43.707  35.514  32.594  1.00  0.00     0.060 A 
BRANCH  67  68
ATOM     68  S   UNL A   1      43.774  37.195  33.249  1.00  0.00     0.124 S 
ATOM     69  O   UNL A   1      43.743  37.987  32.023  1.00  0.00    -0.237 OA
ATOM     70  O   UNL A   1      42.570  37.256  34.072  1.00  0.00    -0.237 OA
ATOM     71  O   UNL A   1      45.034  37.226  33.984  1.00  0.00    -0.744 OA
ENDBRANCH  67  68
ENDBRANCH  46  60
BRANCH  47  72
ATOM     72  C   UNL A   1      42.685  23.648  27.792  1.00  0.00     0.058 A 
ATOM     73  C   UNL A   1      42.787  23.470  26.405  1.00  0.00     0.135 A 
ATOM     74  C   UNL A   1      42.481  22.506  28.584  1.00  0.00     0.135 A 
ATOM     75  F   UNL A   1      42.973  24.530  25.604  1.00  0.00    -0.206 F 
ATOM     76  C   UNL A   1      42.679  22.211  25.822  1.00  0.00     0.059 A 
ATOM     77  C   UNL A   1      42.400  21.233  28.027  1.00  0.00     0.059 A 
ATOM     78  F   UNL A   1      42.387  22.619  29.917  1.00  0.00    -0.206 F 
ATOM     79  C   UNL A   1      42.489  21.098  26.643  1.00  0.00     0.060 A 
BRANCH  79  80
ATOM     80  S   UNL A   1      42.396  19.465  25.879  1.00  0.00     0.124 S 
ATOM     81  O   UNL A   1      43.245  19.640  24.706  1.00  0.00    -0.237 OA
ATOM     82  O   UNL A   1      42.929  18.604  26.930  1.00  0.00    -0.237 OA
ATOM     83  O   UNL A   1      40.971  19.301  25.607  1.00  0.00    -0.744 OA
ENDBRANCH  79  80
ENDBRANCH  47  72
BRANCH  59  84
ATOM     84  C   UNL A   1      47.986  27.280  30.533  1.00  0.00     0.058 A 
ATOM     85  C   UNL A   1      48.413  26.659  31.717  1.00  0.00     0.135 A 
ATOM     86  C   UNL A   1      48.949  27.534  29.542  1.00  0.00     0.135 A 
ATOM     87  F   UNL A   1      47.535  26.399  32.698  1.00  0.00    -0.206 F 
ATOM     88  C   UNL A   1      49.749  26.329  31.922  1.00  0.00     0.059 A 
ATOM     89  C   UNL A   1      50.284  27.182  29.713  1.00  0.00     0.059 A 
ATOM     90  F   UNL A   1      48.593  28.115  28.385  1.00  0.00    -0.206 F 
ATOM     91  C   UNL A   1      50.676  26.591  30.913  1.00  0.00     0.060 A 
BRANCH  91  92
ATOM     92  S   UNL A   1      52.399  26.128  31.180  1.00  0.00     0.124 S 
ATOM     93  O   UNL A   1      52.258  24.825  31.822  1.00  0.00    -0.237 OA
ATOM     94  O   UNL A   1      52.931  26.110  29.821  1.00  0.00    -0.237 OA
ATOM     95  O   UNL A   1      52.912  27.195  32.033  1.00  0.00    -0.744 OA
ENDBRANCH  91  92
ENDBRANCH  59  84
ENDBRANCH  33  34
ENDBRANCH  26  28
ENDBRANCH  25  26
ENDBRANCH  24  25
ENDBRANCH   1  24
TORSDOF 19
ENDMDL
