MODEL 1
REMARK VINA RESULT:     -11.3      0.000      0.000
REMARK SMILES O=C(Cc1ccccc1Nc1c(Cl)cccc1Cl)OCCOC(=O)c1ccc(-c2c3nc(c(-c4c(F)cc(S(=O)(=O)[O-])cc4F)c4ccc([nH]4)c(-c4c(F)cc(S(=O)(=O)[O-])cc4F)c4nc(c(-c5c(F)cc(S(=O)(=O)[O-])cc5F)c5ccc2[nH]5)C=C4)C=C3)cc1
REMARK SMILES IDX 20 1 19 2 2 3 1 4 3 5 4 6 5 7 9 8 6 9 8 10 7 11 10 12 11 14
REMARK SMILES IDX 12 15 17 16 13 17 14 18 16 19 18 20 15 21 21 22 22 23 23 24
REMARK SMILES IDX 24 25 25 26 26 27 90 28 27 29 89 30 28 31 29 32 30 33 83 34
REMARK SMILES IDX 31 35 88 36 82 37 84 38 32 39 87 40 81 41 80 42 33 44 67 45
REMARK SMILES IDX 46 46 66 47 47 48 50 49 65 50 85 51 48 52 49 53 64 55 86 56
REMARK SMILES IDX 51 57 34 58 35 59 44 60 36 61 37 62 43 63 45 64 38 65 39 66
REMARK SMILES IDX 40 67 41 68 42 69 68 70 69 71 78 72 70 73 71 74 77 75 79 76
REMARK SMILES IDX 72 77 73 78 74 79 75 80 76 81 52 82 53 83 62 84 54 85 55 86
REMARK SMILES IDX 61 87 63 88 56 89 57 90 58 91 59 92 60 93
REMARK H PARENT 10 13 84 43 50 54
REMARK Flexibility Score: inf
ROOT
ATOM      1  C   UNL A   1      39.563  21.757  26.447  1.00  0.00     0.274 C 
ENDROOT
BRANCH   1   2
ATOM      2  O   UNL A   1      38.628  21.974  25.367  1.00  0.00    -0.462 OA
BRANCH   2   3
ATOM      3  C   UNL A   1      37.650  22.910  25.361  1.00  0.00     0.310 C 
ATOM      4  O   UNL A   1      37.535  23.678  26.316  1.00  0.00    -0.252 OA
BRANCH   3   5
ATOM      5  C   UNL A   1      36.736  23.015  24.163  1.00  0.00     0.160 C 
BRANCH   5   6
ATOM      6  C   UNL A   1      35.430  22.252  24.224  1.00  0.00    -0.013 A 
ATOM      7  C   UNL A   1      35.366  21.001  24.867  1.00  0.00     0.006 A 
ATOM      8  C   UNL A   1      34.277  22.761  23.573  1.00  0.00     0.042 A 
ATOM      9  C   UNL A   1      34.183  20.267  24.891  1.00  0.00     0.000 A 
ATOM     10  C   UNL A   1      33.106  21.988  23.594  1.00  0.00     0.026 A 
ATOM     11  C   UNL A   1      33.056  20.757  24.249  1.00  0.00     0.002 A 
BRANCH   8  12
ATOM     12  N   UNL A   1      34.302  24.034  22.950  1.00  0.00    -0.353 N 
ATOM     13  H   UNL A   1      34.935  24.111  22.199  1.00  0.00     0.167 HD
BRANCH  12  14
ATOM     14  C   UNL A   1      33.563  25.217  23.230  1.00  0.00     0.076 A 
ATOM     15  C   UNL A   1      32.782  25.792  22.204  1.00  0.00     0.066 A 
ATOM     16  C   UNL A   1      33.494  25.832  24.492  1.00  0.00     0.066 A 
ATOM     17  Cl  UNL A   1      32.841  25.162  20.607  1.00  0.00    -0.082 Cl
ATOM     18  C   UNL A   1      31.938  26.883  22.425  1.00  0.00     0.023 A 
ATOM     19  C   UNL A   1      32.637  26.922  24.721  1.00  0.00     0.023 A 
ATOM     20  Cl  UNL A   1      34.530  25.377  25.806  1.00  0.00    -0.082 Cl
ATOM     21  C   UNL A   1      31.852  27.439  23.692  1.00  0.00     0.003 A 
ENDBRANCH  12  14
ENDBRANCH   8  12
ENDBRANCH   5   6
ENDBRANCH   3   5
ENDBRANCH   2   3
ENDBRANCH   1   2
BRANCH   1  22
ATOM     22  C   UNL A   1      40.942  22.323  26.106  1.00  0.00     0.275 C 
BRANCH  22  23
ATOM     23  O   UNL A   1      41.375  23.233  27.133  1.00  0.00    -0.458 OA
BRANCH  23  24
ATOM     24  C   UNL A   1      41.924  24.397  26.701  1.00  0.00     0.338 C 
ATOM     25  O   UNL A   1      42.442  24.594  25.616  1.00  0.00    -0.246 OA
BRANCH  24  26
ATOM     26  C   UNL A   1      41.624  25.471  27.680  1.00  0.00     0.060 A 
ATOM     27  C   UNL A   1      42.592  26.463  27.886  1.00  0.00     0.016 A 
ATOM     28  C   UNL A   1      40.405  25.537  28.361  1.00  0.00     0.016 A 
ATOM     29  C   UNL A   1      42.358  27.501  28.793  1.00  0.00     0.010 A 
ATOM     30  C   UNL A   1      40.173  26.580  29.266  1.00  0.00     0.010 A 
ATOM     31  C   UNL A   1      41.155  27.557  29.508  1.00  0.00    -0.014 A 
BRANCH  31  32
ATOM     32  C   UNL A   1      40.959  28.561  30.588  1.00  0.00     0.031 A 
ATOM     33  C   UNL A   1      41.677  28.378  31.900  1.00  0.00     0.074 A 
ATOM     34  C   UNL A   1      40.136  29.616  30.429  1.00  0.00     0.049 A 
ATOM     35  N   UNL A   1      41.622  29.109  32.983  1.00  0.00    -0.248 NA
ATOM     36  C   UNL A   1      42.592  27.228  31.998  1.00  0.00     0.031 C 
ATOM     37  C   UNL A   1      39.395  29.945  29.211  1.00  0.00     0.029 A 
ATOM     38  N   UNL A   1      39.736  30.579  31.326  1.00  0.00    -0.354 N 
ATOM     39  C   UNL A   1      42.538  28.549  33.864  1.00  0.00     0.074 A 
ATOM     40  C   UNL A   1      43.063  27.360  33.229  1.00  0.00     0.031 C 
ATOM     41  C   UNL A   1      38.542  30.951  29.474  1.00  0.00     0.029 A 
ATOM     42  C   UNL A   1      38.707  31.365  30.864  1.00  0.00     0.049 A 
ATOM     43  H   UNL A   1      40.148  30.693  32.214  1.00  0.00     0.167 HD
ATOM     44  C   UNL A   1      42.948  29.013  35.069  1.00  0.00     0.037 A 
ATOM     45  C   UNL A   1      37.965  32.295  31.496  1.00  0.00     0.037 A 
ATOM     46  C   UNL A   1      42.419  30.185  35.714  1.00  0.00     0.049 A 
ATOM     47  C   UNL A   1      38.330  32.709  32.897  1.00  0.00     0.074 A 
ATOM     48  C   UNL A   1      42.808  30.760  36.912  1.00  0.00     0.029 A 
ATOM     49  N   UNL A   1      41.375  30.954  35.224  1.00  0.00    -0.354 N 
ATOM     50  N   UNL A   1      39.265  32.229  33.681  1.00  0.00    -0.248 NA
ATOM     51  C   UNL A   1      37.575  33.828  33.479  1.00  0.00     0.031 C 
ATOM     52  C   UNL A   1      41.972  31.854  37.166  1.00  0.00     0.029 A 
ATOM     53  C   UNL A   1      41.090  31.983  36.106  1.00  0.00     0.049 A 
ATOM     54  H   UNL A   1      40.907  30.794  34.373  1.00  0.00     0.167 HD
ATOM     55  C   UNL A   1      39.253  33.028  34.820  1.00  0.00     0.074 A 
ATOM     56  C   UNL A   1      38.206  34.011  34.630  1.00  0.00     0.031 C 
ATOM     57  C   UNL A   1      40.055  32.968  35.911  1.00  0.00     0.037 A 
BRANCH  44  58
ATOM     58  C   UNL A   1      44.065  28.273  35.748  1.00  0.00     0.058 A 
ATOM     59  C   UNL A   1      43.794  27.241  36.662  1.00  0.00     0.135 A 
ATOM     60  C   UNL A   1      45.407  28.549  35.448  1.00  0.00     0.135 A 
ATOM     61  F   UNL A   1      42.527  26.948  36.995  1.00  0.00    -0.206 F 
ATOM     62  C   UNL A   1      44.816  26.518  37.267  1.00  0.00     0.059 A 
ATOM     63  C   UNL A   1      46.445  27.823  36.025  1.00  0.00     0.059 A 
ATOM     64  F   UNL A   1      45.719  29.528  34.584  1.00  0.00    -0.206 F 
ATOM     65  C   UNL A   1      46.139  26.815  36.940  1.00  0.00     0.060 A 
BRANCH  65  66
ATOM     66  S   UNL A   1      47.451  25.849  37.715  1.00  0.00     0.124 S 
ATOM     67  O   UNL A   1      48.573  26.781  37.656  1.00  0.00    -0.237 OA
ATOM     68  O   UNL A   1      46.908  25.595  39.045  1.00  0.00    -0.237 OA
ATOM     69  O   UNL A   1      47.564  24.676  36.854  1.00  0.00    -0.744 OA
ENDBRANCH  65  66
ENDBRANCH  44  58
BRANCH  45  70
ATOM     70  C   UNL A   1      36.801  32.917  30.813  1.00  0.00     0.058 A 
ATOM     71  C   UNL A   1      36.969  33.927  29.856  1.00  0.00     0.135 A 
ATOM     72  C   UNL A   1      35.491  32.543  31.149  1.00  0.00     0.135 A 
ATOM     73  F   UNL A   1      38.203  34.324  29.512  1.00  0.00    -0.206 F 
ATOM     74  C   UNL A   1      35.878  34.570  29.278  1.00  0.00     0.059 A 
ATOM     75  C   UNL A   1      34.384  33.158  30.572  1.00  0.00     0.059 A 
ATOM     76  F   UNL A   1      35.277  31.575  32.056  1.00  0.00    -0.206 F 
ATOM     77  C   UNL A   1      34.589  34.184  29.650  1.00  0.00     0.060 A 
BRANCH  77  78
ATOM     78  S   UNL A   1      33.181  35.030  28.897  1.00  0.00     0.124 S 
ATOM     79  O   UNL A   1      32.720  34.035  27.936  1.00  0.00    -0.237 OA
ATOM     80  O   UNL A   1      32.311  35.260  30.046  1.00  0.00    -0.237 OA
ATOM     81  O   UNL A   1      33.781  36.231  28.324  1.00  0.00    -0.744 OA
ENDBRANCH  77  78
ENDBRANCH  45  70
BRANCH  57  82
ATOM     82  C   UNL A   1      39.878  34.030  36.959  1.00  0.00     0.058 A 
ATOM     83  C   UNL A   1      39.117  33.812  38.118  1.00  0.00     0.135 A 
ATOM     84  C   UNL A   1      40.491  35.285  36.806  1.00  0.00     0.135 A 
ATOM     85  F   UNL A   1      38.504  32.633  38.311  1.00  0.00    -0.206 F 
ATOM     86  C   UNL A   1      38.942  34.810  39.072  1.00  0.00     0.059 A 
ATOM     87  C   UNL A   1      40.352  36.289  37.759  1.00  0.00     0.059 A 
ATOM     88  F   UNL A   1      41.240  35.545  35.722  1.00  0.00    -0.206 F 
ATOM     89  C   UNL A   1      39.559  36.048  38.881  1.00  0.00     0.060 A 
BRANCH  89  90
ATOM     90  S   UNL A   1      39.330  37.336  40.125  1.00  0.00     0.124 S 
ATOM     91  O   UNL A   1      38.656  36.600  41.188  1.00  0.00    -0.237 OA
ATOM     92  O   UNL A   1      40.702  37.746  40.409  1.00  0.00    -0.237 OA
ATOM     93  O   UNL A   1      38.516  38.333  39.436  1.00  0.00    -0.744 OA
ENDBRANCH  89  90
ENDBRANCH  57  82
ENDBRANCH  31  32
ENDBRANCH  24  26
ENDBRANCH  23  24
ENDBRANCH  22  23
ENDBRANCH   1  22
TORSDOF 17
ENDMDL
MODEL 2
REMARK VINA RESULT:     -11.1      4.622     10.438
REMARK SMILES O=C(Cc1ccccc1Nc1c(Cl)cccc1Cl)OCCOC(=O)c1ccc(-c2c3nc(c(-c4c(F)cc(S(=O)(=O)[O-])cc4F)c4ccc([nH]4)c(-c4c(F)cc(S(=O)(=O)[O-])cc4F)c4nc(c(-c5c(F)cc(S(=O)(=O)[O-])cc5F)c5ccc2[nH]5)C=C4)C=C3)cc1
REMARK SMILES IDX 20 1 19 2 2 3 1 4 3 5 4 6 5 7 9 8 6 9 8 10 7 11 10 12 11 14
REMARK SMILES IDX 12 15 17 16 13 17 14 18 16 19 18 20 15 21 21 22 22 23 23 24
REMARK SMILES IDX 24 25 25 26 26 27 90 28 27 29 89 30 28 31 29 32 30 33 83 34
REMARK SMILES IDX 31 35 88 36 82 37 84 38 32 39 87 40 81 41 80 42 33 44 67 45
REMARK SMILES IDX 46 46 66 47 47 48 50 49 65 50 85 51 48 52 49 53 64 55 86 56
REMARK SMILES IDX 51 57 34 58 35 59 44 60 36 61 37 62 43 63 45 64 38 65 39 66
REMARK SMILES IDX 40 67 41 68 42 69 68 70 69 71 78 72 70 73 71 74 77 75 79 76
REMARK SMILES IDX 72 77 73 78 74 79 75 80 76 81 52 82 53 83 62 84 54 85 55 86
REMARK SMILES IDX 61 87 63 88 56 89 57 90 58 91 59 92 60 93
REMARK H PARENT 10 13 84 43 50 54
REMARK Flexibility Score: inf
ROOT
ATOM      1  C   UNL A   1      31.891  28.849  26.317  1.00  0.00     0.274 C 
ENDROOT
BRANCH   1   2
ATOM      2  O   UNL A   1      31.818  27.600  27.040  1.00  0.00    -0.462 OA
BRANCH   2   3
ATOM      3  C   UNL A   1      32.134  26.387  26.529  1.00  0.00     0.310 C 
ATOM      4  O   UNL A   1      31.348  25.447  26.658  1.00  0.00    -0.252 OA
BRANCH   3   5
ATOM      5  C   UNL A   1      33.435  26.216  25.781  1.00  0.00     0.160 C 
BRANCH   5   6
ATOM      6  C   UNL A   1      33.344  25.842  24.317  1.00  0.00    -0.013 A 
ATOM      7  C   UNL A   1      33.264  26.843  23.330  1.00  0.00     0.006 A 
ATOM      8  C   UNL A   1      33.269  24.478  23.934  1.00  0.00     0.042 A 
ATOM      9  C   UNL A   1      33.134  26.512  21.983  1.00  0.00     0.000 A 
ATOM     10  C   UNL A   1      33.115  24.177  22.573  1.00  0.00     0.026 A 
ATOM     11  C   UNL A   1      33.052  25.180  21.606  1.00  0.00     0.002 A 
BRANCH   8  12
ATOM     12  N   UNL A   1      33.383  23.449  24.903  1.00  0.00    -0.353 N 
ATOM     13  H   UNL A   1      32.706  23.479  25.616  1.00  0.00     0.167 HD
BRANCH  12  14
ATOM     14  C   UNL A   1      34.316  22.380  25.012  1.00  0.00     0.076 A 
ATOM     15  C   UNL A   1      33.866  21.058  24.804  1.00  0.00     0.066 A 
ATOM     16  C   UNL A   1      35.692  22.545  25.249  1.00  0.00     0.066 A 
ATOM     17  Cl  UNL A   1      32.195  20.733  24.573  1.00  0.00    -0.082 Cl
ATOM     18  C   UNL A   1      34.734  19.964  24.780  1.00  0.00     0.023 A 
ATOM     19  C   UNL A   1      36.571  21.449  25.211  1.00  0.00     0.023 A 
ATOM     20  Cl  UNL A   1      36.379  24.068  25.713  1.00  0.00    -0.082 Cl
ATOM     21  C   UNL A   1      36.094  20.163  24.966  1.00  0.00     0.003 A 
ENDBRANCH  12  14
ENDBRANCH   8  12
ENDBRANCH   5   6
ENDBRANCH   3   5
ENDBRANCH   2   3
ENDBRANCH   1   2
BRANCH   1  22
ATOM     22  C   UNL A   1      32.506  29.952  27.181  1.00  0.00     0.275 C 
BRANCH  22  23
ATOM     23  O   UNL A   1      33.943  29.872  27.141  1.00  0.00    -0.458 OA
BRANCH  23  24
ATOM     24  C   UNL A   1      34.607  30.723  27.963  1.00  0.00     0.338 C 
ATOM     25  O   UNL A   1      34.134  31.682  28.549  1.00  0.00    -0.246 OA
BRANCH  24  26
ATOM     26  C   UNL A   1      35.973  30.197  28.210  1.00  0.00     0.060 A 
ATOM     27  C   UNL A   1      36.288  29.765  29.505  1.00  0.00     0.016 A 
ATOM     28  C   UNL A   1      36.923  30.087  27.190  1.00  0.00     0.016 A 
ATOM     29  C   UNL A   1      37.559  29.257  29.790  1.00  0.00     0.010 A 
ATOM     30  C   UNL A   1      38.193  29.573  27.479  1.00  0.00     0.010 A 
ATOM     31  C   UNL A   1      38.530  29.176  28.786  1.00  0.00    -0.014 A 
BRANCH  31  32
ATOM     32  C   UNL A   1      39.929  28.787  29.109  1.00  0.00     0.031 A 
ATOM     33  C   UNL A   1      40.884  29.836  29.616  1.00  0.00     0.074 A 
ATOM     34  C   UNL A   1      40.367  27.524  28.939  1.00  0.00     0.049 A 
ATOM     35  N   UNL A   1      42.151  29.724  29.922  1.00  0.00    -0.248 NA
ATOM     36  C   UNL A   1      40.334  31.188  29.819  1.00  0.00     0.031 C 
ATOM     37  C   UNL A   1      39.558  26.393  28.486  1.00  0.00     0.029 A 
ATOM     38  N   UNL A   1      41.629  26.993  29.069  1.00  0.00    -0.354 N 
ATOM     39  C   UNL A   1      42.532  30.966  30.415  1.00  0.00     0.074 A 
ATOM     40  C   UNL A   1      41.391  31.845  30.272  1.00  0.00     0.031 C 
ATOM     41  C   UNL A   1      40.362  25.340  28.257  1.00  0.00     0.029 A 
ATOM     42  C   UNL A   1      41.736  25.709  28.588  1.00  0.00     0.049 A 
ATOM     43  H   UNL A   1      42.383  27.486  29.468  1.00  0.00     0.167 HD
ATOM     44  C   UNL A   1      43.705  31.328  30.985  1.00  0.00     0.037 A 
ATOM     45  C   UNL A   1      42.819  24.928  28.411  1.00  0.00     0.037 A 
ATOM     46  C   UNL A   1      44.849  30.464  31.114  1.00  0.00     0.049 A 
ATOM     47  C   UNL A   1      44.159  25.394  28.915  1.00  0.00     0.074 A 
ATOM     48  C   UNL A   1      46.065  30.728  31.723  1.00  0.00     0.029 A 
ATOM     49  N   UNL A   1      44.927  29.175  30.613  1.00  0.00    -0.354 N 
ATOM     50  N   UNL A   1      44.480  26.540  29.464  1.00  0.00    -0.248 NA
ATOM     51  C   UNL A   1      45.273  24.439  28.823  1.00  0.00     0.031 C 
ATOM     52  C   UNL A   1      46.892  29.612  31.554  1.00  0.00     0.029 A 
ATOM     53  C   UNL A   1      46.177  28.638  30.876  1.00  0.00     0.049 A 
ATOM     54  H   UNL A   1      44.200  28.708  30.140  1.00  0.00     0.167 HD
ATOM     55  C   UNL A   1      45.814  26.420  29.842  1.00  0.00     0.074 A 
ATOM     56  C   UNL A   1      46.244  25.096  29.442  1.00  0.00     0.031 C 
ATOM     57  C   UNL A   1      46.601  27.317  30.486  1.00  0.00     0.037 A 
BRANCH  44  58
ATOM     58  C   UNL A   1      43.793  32.712  31.561  1.00  0.00     0.058 A 
ATOM     59  C   UNL A   1      43.403  32.966  32.887  1.00  0.00     0.135 A 
ATOM     60  C   UNL A   1      44.320  33.778  30.816  1.00  0.00     0.135 A 
ATOM     61  F   UNL A   1      42.879  31.985  33.637  1.00  0.00    -0.206 F 
ATOM     62  C   UNL A   1      43.518  34.232  33.449  1.00  0.00     0.059 A 
ATOM     63  C   UNL A   1      44.464  35.048  31.365  1.00  0.00     0.059 A 
ATOM     64  F   UNL A   1      44.703  33.588  29.543  1.00  0.00    -0.206 F 
ATOM     65  C   UNL A   1      44.053  35.267  32.681  1.00  0.00     0.060 A 
BRANCH  65  66
ATOM     66  S   UNL A   1      44.218  36.898  33.435  1.00  0.00     0.124 S 
ATOM     67  O   UNL A   1      45.663  36.987  33.620  1.00  0.00    -0.237 OA
ATOM     68  O   UNL A   1      43.655  37.773  32.414  1.00  0.00    -0.237 OA
ATOM     69  O   UNL A   1      43.435  36.786  34.661  1.00  0.00    -0.744 OA
ENDBRANCH  65  66
ENDBRANCH  44  58
BRANCH  45  70
ATOM     70  C   UNL A   1      42.692  23.611  27.735  1.00  0.00     0.058 A 
ATOM     71  C   UNL A   1      42.441  22.438  28.459  1.00  0.00     0.135 A 
ATOM     72  C   UNL A   1      42.873  23.500  26.347  1.00  0.00     0.135 A 
ATOM     73  F   UNL A   1      42.273  22.495  29.788  1.00  0.00    -0.206 F 
ATOM     74  C   UNL A   1      42.408  21.193  27.838  1.00  0.00     0.059 A 
ATOM     75  C   UNL A   1      42.825  22.268  25.700  1.00  0.00     0.059 A 
ATOM     76  F   UNL A   1      43.109  24.596  25.607  1.00  0.00    -0.206 F 
ATOM     77  C   UNL A   1      42.609  21.118  26.458  1.00  0.00     0.060 A 
BRANCH  77  78
ATOM     78  S   UNL A   1      42.569  19.496  25.664  1.00  0.00     0.124 S 
ATOM     79  O   UNL A   1      41.157  19.372  25.320  1.00  0.00    -0.237 OA
ATOM     80  O   UNL A   1      43.486  19.679  24.544  1.00  0.00    -0.237 OA
ATOM     81  O   UNL A   1      43.043  18.598  26.714  1.00  0.00    -0.744 OA
ENDBRANCH  77  78
ENDBRANCH  45  70
BRANCH  57  82
ATOM     82  C   UNL A   1      47.990  26.877  30.857  1.00  0.00     0.058 A 
ATOM     83  C   UNL A   1      48.244  26.098  31.996  1.00  0.00     0.135 A 
ATOM     84  C   UNL A   1      49.083  27.232  30.050  1.00  0.00     0.135 A 
ATOM     85  F   UNL A   1      47.235  25.737  32.805  1.00  0.00    -0.206 F 
ATOM     86  C   UNL A   1      49.536  25.715  32.342  1.00  0.00     0.059 A 
ATOM     87  C   UNL A   1      50.381  26.838  30.361  1.00  0.00     0.059 A 
ATOM     88  F   UNL A   1      48.897  27.967  28.941  1.00  0.00    -0.206 F 
ATOM     89  C   UNL A   1      50.599  26.095  31.520  1.00  0.00     0.060 A 
BRANCH  89  90
ATOM     90  S   UNL A   1      52.272  25.590  31.973  1.00  0.00     0.124 S 
ATOM     91  O   UNL A   1      52.564  26.497  33.077  1.00  0.00    -0.237 OA
ATOM     92  O   UNL A   1      52.091  24.188  32.337  1.00  0.00    -0.237 OA
ATOM     93  O   UNL A   1      53.038  25.818  30.751  1.00  0.00    -0.744 OA
ENDBRANCH  89  90
ENDBRANCH  57  82
ENDBRANCH  31  32
ENDBRANCH  24  26
ENDBRANCH  23  24
ENDBRANCH  22  23
ENDBRANCH   1  22
TORSDOF 17
ENDMDL
MODEL 3
REMARK VINA RESULT:     -11.0      1.205      1.654
REMARK SMILES O=C(Cc1ccccc1Nc1c(Cl)cccc1Cl)OCCOC(=O)c1ccc(-c2c3nc(c(-c4c(F)cc(S(=O)(=O)[O-])cc4F)c4ccc([nH]4)c(-c4c(F)cc(S(=O)(=O)[O-])cc4F)c4nc(c(-c5c(F)cc(S(=O)(=O)[O-])cc5F)c5ccc2[nH]5)C=C4)C=C3)cc1
REMARK SMILES IDX 20 1 19 2 2 3 1 4 3 5 4 6 5 7 9 8 6 9 8 10 7 11 10 12 11 14
REMARK SMILES IDX 12 15 17 16 13 17 14 18 16 19 18 20 15 21 21 22 22 23 23 24
REMARK SMILES IDX 24 25 25 26 26 27 90 28 27 29 89 30 28 31 29 32 30 33 83 34
REMARK SMILES IDX 31 35 88 36 82 37 84 38 32 39 87 40 81 41 80 42 33 44 67 45
REMARK SMILES IDX 46 46 66 47 47 48 50 49 65 50 85 51 48 52 49 53 64 55 86 56
REMARK SMILES IDX 51 57 34 58 35 59 44 60 36 61 37 62 43 63 45 64 38 65 39 66
REMARK SMILES IDX 40 67 41 68 42 69 68 70 69 71 78 72 70 73 71 74 77 75 79 76
REMARK SMILES IDX 72 77 73 78 74 79 75 80 76 81 52 82 53 83 62 84 54 85 55 86
REMARK SMILES IDX 61 87 63 88 56 89 57 90 58 91 59 92 60 93
REMARK H PARENT 10 13 84 43 50 54
REMARK Flexibility Score: inf
ROOT
ATOM      1  C   UNL A   1      38.274  22.312  26.263  1.00  0.00     0.274 C 
ENDROOT
BRANCH   1   2
ATOM      2  O   UNL A   1      37.604  22.257  24.984  1.00  0.00    -0.462 OA
BRANCH   2   3
ATOM      3  C   UNL A   1      36.766  23.206  24.504  1.00  0.00     0.310 C 
ATOM      4  O   UNL A   1      36.568  23.288  23.291  1.00  0.00    -0.252 OA
BRANCH   3   5
ATOM      5  C   UNL A   1      36.065  24.130  25.472  1.00  0.00     0.160 C 
BRANCH   5   6
ATOM      6  C   UNL A   1      34.786  23.625  26.103  1.00  0.00    -0.013 A 
ATOM      7  C   UNL A   1      34.824  22.590  27.058  1.00  0.00     0.006 A 
ATOM      8  C   UNL A   1      33.533  24.144  25.688  1.00  0.00     0.042 A 
ATOM      9  C   UNL A   1      33.652  22.084  27.614  1.00  0.00     0.000 A 
ATOM     10  C   UNL A   1      32.369  23.597  26.249  1.00  0.00     0.026 A 
ATOM     11  C   UNL A   1      32.425  22.582  27.204  1.00  0.00     0.002 A 
BRANCH   8  12
ATOM     12  N   UNL A   1      33.466  25.210  24.757  1.00  0.00    -0.353 N 
ATOM     13  H   UNL A   1      34.233  25.268  24.142  1.00  0.00     0.167 HD
BRANCH  12  14
ATOM     14  C   UNL A   1      32.472  26.210  24.565  1.00  0.00     0.076 A 
ATOM     15  C   UNL A   1      32.655  27.477  25.161  1.00  0.00     0.066 A 
ATOM     16  C   UNL A   1      31.333  26.055  23.755  1.00  0.00     0.066 A 
ATOM     17  Cl  UNL A   1      33.977  27.757  26.221  1.00  0.00    -0.082 Cl
ATOM     18  C   UNL A   1      31.789  28.548  24.929  1.00  0.00     0.023 A 
ATOM     19  C   UNL A   1      30.466  27.134  23.509  1.00  0.00     0.023 A 
ATOM     20  Cl  UNL A   1      30.855  24.519  23.108  1.00  0.00    -0.082 Cl
ATOM     21  C   UNL A   1      30.700  28.381  24.086  1.00  0.00     0.003 A 
ENDBRANCH  12  14
ENDBRANCH   8  12
ENDBRANCH   5   6
ENDBRANCH   3   5
ENDBRANCH   2   3
ENDBRANCH   1   2
BRANCH   1  22
ATOM     22  C   UNL A   1      39.668  22.928  26.130  1.00  0.00     0.275 C 
BRANCH  22  23
ATOM     23  O   UNL A   1      39.614  24.341  26.398  1.00  0.00    -0.458 OA
BRANCH  23  24
ATOM     24  C   UNL A   1      40.812  24.977  26.469  1.00  0.00     0.338 C 
ATOM     25  O   UNL A   1      41.716  24.911  25.654  1.00  0.00    -0.246 OA
BRANCH  24  26
ATOM     26  C   UNL A   1      40.789  25.936  27.601  1.00  0.00     0.060 A 
ATOM     27  C   UNL A   1      39.695  25.896  28.475  1.00  0.00     0.016 A 
ATOM     28  C   UNL A   1      41.833  26.837  27.834  1.00  0.00     0.016 A 
ATOM     29  C   UNL A   1      39.625  26.775  29.561  1.00  0.00     0.010 A 
ATOM     30  C   UNL A   1      41.761  27.713  28.924  1.00  0.00     0.010 A 
ATOM     31  C   UNL A   1      40.647  27.706  29.783  1.00  0.00    -0.014 A 
BRANCH  31  32
ATOM     32  C   UNL A   1      40.511  28.748  30.836  1.00  0.00     0.031 A 
ATOM     33  C   UNL A   1      41.236  28.569  32.144  1.00  0.00     0.074 A 
ATOM     34  C   UNL A   1      39.737  29.836  30.654  1.00  0.00     0.049 A 
ATOM     35  N   UNL A   1      41.228  29.333  33.206  1.00  0.00    -0.248 NA
ATOM     36  C   UNL A   1      42.097  27.380  32.265  1.00  0.00     0.031 C 
ATOM     37  C   UNL A   1      38.997  30.165  29.436  1.00  0.00     0.029 A 
ATOM     38  N   UNL A   1      39.393  30.842  31.527  1.00  0.00    -0.354 N 
ATOM     39  C   UNL A   1      42.128  28.755  34.093  1.00  0.00     0.074 A 
ATOM     40  C   UNL A   1      42.588  27.525  33.487  1.00  0.00     0.031 C 
ATOM     41  C   UNL A   1      38.195  31.217  29.679  1.00  0.00     0.029 A 
ATOM     42  C   UNL A   1      38.396  31.662  31.054  1.00  0.00     0.049 A 
ATOM     43  H   UNL A   1      39.821  30.961  32.407  1.00  0.00     0.167 HD
ATOM     44  C   UNL A   1      42.574  29.233  35.279  1.00  0.00     0.037 A 
ATOM     45  C   UNL A   1      37.707  32.644  31.667  1.00  0.00     0.037 A 
ATOM     46  C   UNL A   1      42.108  30.447  35.895  1.00  0.00     0.049 A 
ATOM     47  C   UNL A   1      38.108  33.080  33.051  1.00  0.00     0.074 A 
ATOM     48  C   UNL A   1      42.538  31.037  37.072  1.00  0.00     0.029 A 
ATOM     49  N   UNL A   1      41.096  31.251  35.395  1.00  0.00    -0.354 N 
ATOM     50  N   UNL A   1      39.028  32.578  33.839  1.00  0.00    -0.248 NA
ATOM     51  C   UNL A   1      37.413  34.249  33.608  1.00  0.00     0.031 C 
ATOM     52  C   UNL A   1      41.758  32.176  37.304  1.00  0.00     0.029 A 
ATOM     53  C   UNL A   1      40.870  32.317  36.250  1.00  0.00     0.049 A 
ATOM     54  H   UNL A   1      40.610  31.088  34.554  1.00  0.00     0.167 HD
ATOM     55  C   UNL A   1      39.068  33.410  34.954  1.00  0.00     0.074 A 
ATOM     56  C   UNL A   1      38.066  34.435  34.747  1.00  0.00     0.031 C 
ATOM     57  C   UNL A   1      39.880  33.343  36.038  1.00  0.00     0.037 A 
BRANCH  44  58
ATOM     58  C   UNL A   1      43.663  28.461  35.967  1.00  0.00     0.058 A 
ATOM     59  C   UNL A   1      43.357  27.366  36.793  1.00  0.00     0.135 A 
ATOM     60  C   UNL A   1      45.015  28.772  35.761  1.00  0.00     0.135 A 
ATOM     61  F   UNL A   1      42.079  27.037  37.035  1.00  0.00    -0.206 F 
ATOM     62  C   UNL A   1      44.356  26.615  37.403  1.00  0.00     0.059 A 
ATOM     63  C   UNL A   1      46.031  28.020  36.344  1.00  0.00     0.059 A 
ATOM     64  F   UNL A   1      45.359  29.811  34.985  1.00  0.00    -0.206 F 
ATOM     65  C   UNL A   1      45.690  26.948  37.171  1.00  0.00     0.060 A 
BRANCH  65  66
ATOM     66  S   UNL A   1      46.973  25.946  37.950  1.00  0.00     0.124 S 
ATOM     67  O   UNL A   1      48.130  26.255  37.116  1.00  0.00    -0.237 OA
ATOM     68  O   UNL A   1      47.007  26.483  39.306  1.00  0.00    -0.237 OA
ATOM     69  O   UNL A   1      46.459  24.585  37.831  1.00  0.00    -0.744 OA
ENDBRANCH  65  66
ENDBRANCH  44  58
BRANCH  45  70
ATOM     70  C   UNL A   1      36.565  33.300  30.979  1.00  0.00     0.058 A 
ATOM     71  C   UNL A   1      36.767  34.195  29.918  1.00  0.00     0.135 A 
ATOM     72  C   UNL A   1      35.247  33.080  31.410  1.00  0.00     0.135 A 
ATOM     73  F   UNL A   1      38.009  34.444  29.481  1.00  0.00    -0.206 F 
ATOM     74  C   UNL A   1      35.705  34.876  29.330  1.00  0.00     0.059 A 
ATOM     75  C   UNL A   1      34.168  33.735  30.825  1.00  0.00     0.059 A 
ATOM     76  F   UNL A   1      35.001  32.227  32.418  1.00  0.00    -0.206 F 
ATOM     77  C   UNL A   1      34.409  34.645  29.796  1.00  0.00     0.060 A 
BRANCH  77  78
ATOM     78  S   UNL A   1      33.040  35.539  29.028  1.00  0.00     0.124 S 
ATOM     79  O   UNL A   1      32.478  34.518  28.152  1.00  0.00    -0.237 OA
ATOM     80  O   UNL A   1      32.229  35.909  30.183  1.00  0.00    -0.237 OA
ATOM     81  O   UNL A   1      33.704  36.652  28.355  1.00  0.00    -0.744 OA
ENDBRANCH  77  78
ENDBRANCH  45  70
BRANCH  57  82
ATOM     82  C   UNL A   1      39.765  34.442  37.056  1.00  0.00     0.058 A 
ATOM     83  C   UNL A   1      38.946  34.324  38.189  1.00  0.00     0.135 A 
ATOM     84  C   UNL A   1      40.499  35.629  36.901  1.00  0.00     0.135 A 
ATOM     85  F   UNL A   1      38.218  33.212  38.382  1.00  0.00    -0.206 F 
ATOM     86  C   UNL A   1      38.830  35.356  39.115  1.00  0.00     0.059 A 
ATOM     87  C   UNL A   1      40.421  36.665  37.828  1.00  0.00     0.059 A 
ATOM     88  F   UNL A   1      41.309  35.792  35.842  1.00  0.00    -0.206 F 
ATOM     89  C   UNL A   1      39.568  36.526  38.923  1.00  0.00     0.060 A 
BRANCH  89  90
ATOM     90  S   UNL A   1      39.417  37.859  40.130  1.00  0.00     0.124 S 
ATOM     91  O   UNL A   1      38.255  38.582  39.625  1.00  0.00    -0.237 OA
ATOM     92  O   UNL A   1      39.216  37.131  41.380  1.00  0.00    -0.237 OA
ATOM     93  O   UNL A   1      40.692  38.562  40.021  1.00  0.00    -0.744 OA
ENDBRANCH  89  90
ENDBRANCH  57  82
ENDBRANCH  31  32
ENDBRANCH  24  26
ENDBRANCH  23  24
ENDBRANCH  22  23
ENDBRANCH   1  22
TORSDOF 17
ENDMDL
