MODEL 1
REMARK VINA RESULT:     -12.6      0.000      0.000
REMARK SMILES Cc1ccc(O[C@H](C)C(=O)Nc2ccsc2C(=O)OCCOC(=O)c2ccc(-c3c4nc(c(-c5c(F)cc(S(=O)(=O)[O-])cc5F)c5ccc([nH]5)c(-c5c(F)cc(S(=O)(=O)[O-])cc5F)c5nc(c(-c6c(F)cc(S(=O)(=O)[O-])cc6F)c6ccc3[nH]6)C=C5)C=C4)cc2)cc1
REMARK SMILES IDX 20 1 19 2 17 3 18 4 16 5 12 6 13 7 14 8 15 9 11 10 9 11
REMARK SMILES IDX 10 12 7 14 8 15 6 16 5 17 1 18 2 19 3 20 92 21 4 22 91 23
REMARK SMILES IDX 21 24 22 25 23 26 24 27 25 28 26 29 90 30 27 31 89 32 28 33
REMARK SMILES IDX 29 34 30 35 83 36 31 37 88 38 82 39 84 40 32 41 87 42 81 43
REMARK SMILES IDX 80 44 33 46 67 47 46 48 66 49 47 50 50 51 65 52 85 53 48 54
REMARK SMILES IDX 49 55 64 57 86 58 51 59 34 60 35 61 44 62 36 63 37 64 43 65
REMARK SMILES IDX 45 66 38 67 39 68 40 69 41 70 42 71 68 72 69 73 78 74 70 75
REMARK SMILES IDX 71 76 77 77 79 78 72 79 73 80 74 81 75 82 76 83 52 84 53 85
REMARK SMILES IDX 62 86 54 87 55 88 61 89 63 90 56 91 57 92 58 93 59 94 60 95
REMARK H PARENT 11 13 84 45 50 56
REMARK Flexibility Score: inf
ROOT
ATOM      1  C   UNL A   1      34.054  28.380  25.731  1.00  0.00     0.275 C 
ENDROOT
BRANCH   1   2
ATOM      2  O   UNL A   1      33.474  29.206  24.695  1.00  0.00    -0.458 OA
BRANCH   2   3
ATOM      3  C   UNL A   1      33.305  28.726  23.438  1.00  0.00     0.350 C 
ATOM      4  O   UNL A   1      34.173  28.821  22.553  1.00  0.00    -0.245 OA
BRANCH   3   5
ATOM      5  C   UNL A   1      32.030  28.065  23.321  1.00  0.00     0.136 A 
ATOM      6  C   UNL A   1      31.651  27.073  22.429  1.00  0.00     0.066 A 
ATOM      7  C   UNL A   1      30.338  26.583  22.686  1.00  0.00     0.039 A 
ATOM      8  C   UNL A   1      29.701  27.312  23.665  1.00  0.00     0.068 A 
ATOM      9  S   UNL A   1      30.701  28.547  24.290  1.00  0.00    -0.135 S 
BRANCH   6  10
ATOM     10  N   UNL A   1      32.459  26.635  21.392  1.00  0.00    -0.321 N 
ATOM     11  C   UNL A   1      32.918  25.337  21.300  1.00  0.00     0.265 C 
ATOM     12  O   UNL A   1      33.215  24.894  20.186  1.00  0.00    -0.270 OA
ATOM     13  H   UNL A   1      32.715  27.277  20.690  1.00  0.00     0.170 HD
BRANCH  11  14
ATOM     14  C   UNL A   1      33.130  24.490  22.587  1.00  0.00     0.259 C 
ATOM     15  C   UNL A   1      32.748  23.049  22.267  1.00  0.00     0.064 C 
BRANCH  14  16
ATOM     16  O   UNL A   1      34.408  24.811  23.126  1.00  0.00    -0.481 OA
BRANCH  16  17
ATOM     17  C   UNL A   1      35.307  23.992  23.729  1.00  0.00     0.120 A 
ATOM     18  C   UNL A   1      38.445  22.056  26.001  1.00  0.00     0.044 C 
ATOM     19  C   UNL A   1      37.310  22.677  25.245  1.00  0.00    -0.051 A 
ATOM     20  C   UNL A   1      37.052  22.318  23.919  1.00  0.00     0.007 A 
ATOM     21  C   UNL A   1      36.532  23.676  25.824  1.00  0.00     0.007 A 
ATOM     22  C   UNL A   1      36.049  22.960  23.174  1.00  0.00     0.047 A 
ATOM     23  C   UNL A   1      35.533  24.306  25.076  1.00  0.00     0.047 A 
ENDBRANCH  16  17
ENDBRANCH  14  16
ENDBRANCH  11  14
ENDBRANCH   6  10
ENDBRANCH   3   5
ENDBRANCH   2   3
ENDBRANCH   1   2
BRANCH   1  24
ATOM     24  C   UNL A   1      34.505  29.012  27.070  1.00  0.00     0.275 C 
BRANCH  24  25
ATOM     25  O   UNL A   1      35.858  28.821  27.549  1.00  0.00    -0.458 OA
BRANCH  25  26
ATOM     26  C   UNL A   1      36.592  29.882  27.975  1.00  0.00     0.338 C 
ATOM     27  O   UNL A   1      36.267  31.054  27.839  1.00  0.00    -0.246 OA
BRANCH  26  28
ATOM     28  C   UNL A   1      37.964  29.455  28.236  1.00  0.00     0.060 A 
ATOM     29  C   UNL A   1      38.896  29.314  27.207  1.00  0.00     0.016 A 
ATOM     30  C   UNL A   1      38.308  29.258  29.577  1.00  0.00     0.016 A 
ATOM     31  C   UNL A   1      40.210  28.997  27.523  1.00  0.00     0.010 A 
ATOM     32  C   UNL A   1      39.618  29.051  29.906  1.00  0.00     0.010 A 
ATOM     33  C   UNL A   1      40.540  28.834  28.870  1.00  0.00    -0.014 A 
BRANCH  33  34
ATOM     34  C   UNL A   1      41.565  27.896  29.284  1.00  0.00     0.031 A 
ATOM     35  C   UNL A   1      41.655  26.533  28.769  1.00  0.00     0.074 A 
ATOM     36  C   UNL A   1      42.580  28.567  29.874  1.00  0.00     0.049 A 
ATOM     37  N   UNL A   1      42.466  25.659  29.247  1.00  0.00    -0.248 NA
ATOM     38  C   UNL A   1      40.833  26.026  27.673  1.00  0.00     0.031 C 
ATOM     39  C   UNL A   1      43.984  28.245  30.024  1.00  0.00     0.029 A 
ATOM     40  N   UNL A   1      42.424  29.758  30.598  1.00  0.00    -0.354 N 
ATOM     41  C   UNL A   1      42.514  24.620  28.351  1.00  0.00     0.074 A 
ATOM     42  C   UNL A   1      41.399  24.831  27.455  1.00  0.00     0.031 C 
ATOM     43  C   UNL A   1      44.486  29.027  31.002  1.00  0.00     0.029 A 
ATOM     44  C   UNL A   1      43.362  29.726  31.626  1.00  0.00     0.049 A 
ATOM     45  H   UNL A   1      41.777  30.477  30.416  1.00  0.00     0.167 HD
ATOM     46  C   UNL A   1      43.602  23.800  28.348  1.00  0.00     0.037 A 
ATOM     47  C   UNL A   1      42.871  29.495  32.885  1.00  0.00     0.037 A 
ATOM     48  C   UNL A   1      44.566  24.216  29.367  1.00  0.00     0.049 A 
ATOM     49  C   UNL A   1      43.295  28.131  33.410  1.00  0.00     0.074 A 
ATOM     50  C   UNL A   1      45.715  24.992  29.337  1.00  0.00     0.029 A 
ATOM     51  N   UNL A   1      44.188  24.164  30.697  1.00  0.00    -0.354 N 
ATOM     52  N   UNL A   1      43.758  27.168  32.657  1.00  0.00    -0.248 NA
ATOM     53  C   UNL A   1      43.227  27.738  34.815  1.00  0.00     0.031 C 
ATOM     54  C   UNL A   1      45.995  25.431  30.666  1.00  0.00     0.029 A 
ATOM     55  C   UNL A   1      45.015  24.926  31.500  1.00  0.00     0.049 A 
ATOM     56  H   UNL A   1      43.421  23.645  31.032  1.00  0.00     0.167 HD
ATOM     57  C   UNL A   1      44.121  26.103  33.427  1.00  0.00     0.074 A 
ATOM     58  C   UNL A   1      43.723  26.489  34.771  1.00  0.00     0.031 C 
ATOM     59  C   UNL A   1      44.732  24.992  32.925  1.00  0.00     0.037 A 
BRANCH  46  60
ATOM     60  C   UNL A   1      43.883  22.838  27.224  1.00  0.00     0.058 A 
ATOM     61  C   UNL A   1      43.078  21.698  27.027  1.00  0.00     0.135 A 
ATOM     62  C   UNL A   1      44.961  22.978  26.325  1.00  0.00     0.135 A 
ATOM     63  F   UNL A   1      41.995  21.468  27.780  1.00  0.00    -0.206 F 
ATOM     64  C   UNL A   1      43.363  20.730  26.067  1.00  0.00     0.059 A 
ATOM     65  C   UNL A   1      45.290  21.999  25.379  1.00  0.00     0.059 A 
ATOM     66  F   UNL A   1      45.727  24.080  26.337  1.00  0.00    -0.206 F 
ATOM     67  C   UNL A   1      44.484  20.872  25.263  1.00  0.00     0.060 A 
BRANCH  67  68
ATOM     68  S   UNL A   1      44.869  19.558  24.087  1.00  0.00     0.124 S 
ATOM     69  O   UNL A   1      44.378  20.116  22.830  1.00  0.00    -0.237 OA
ATOM     70  O   UNL A   1      46.318  19.456  24.213  1.00  0.00    -0.237 OA
ATOM     71  O   UNL A   1      44.111  18.418  24.594  1.00  0.00    -0.744 OA
ENDBRANCH  67  68
ENDBRANCH  46  60
BRANCH  47  72
ATOM     72  C   UNL A   1      41.565  30.197  33.188  1.00  0.00     0.058 A 
ATOM     73  C   UNL A   1      41.523  31.615  33.219  1.00  0.00     0.135 A 
ATOM     74  C   UNL A   1      40.321  29.550  33.238  1.00  0.00     0.135 A 
ATOM     75  F   UNL A   1      42.669  32.319  33.190  1.00  0.00    -0.206 F 
ATOM     76  C   UNL A   1      40.330  32.345  33.212  1.00  0.00     0.059 A 
ATOM     77  C   UNL A   1      39.110  30.263  33.258  1.00  0.00     0.059 A 
ATOM     78  F   UNL A   1      40.252  28.212  33.218  1.00  0.00    -0.206 F 
ATOM     79  C   UNL A   1      39.121  31.658  33.211  1.00  0.00     0.060 A 
BRANCH  79  80
ATOM     80  S   UNL A   1      37.554  32.574  33.179  1.00  0.00     0.124 S 
ATOM     81  O   UNL A   1      37.983  33.945  33.442  1.00  0.00    -0.237 OA
ATOM     82  O   UNL A   1      37.056  32.334  31.828  1.00  0.00    -0.237 OA
ATOM     83  O   UNL A   1      36.804  31.939  34.255  1.00  0.00    -0.744 OA
ENDBRANCH  79  80
ENDBRANCH  47  72
BRANCH  59  84
ATOM     84  C   UNL A   1      45.138  23.834  33.777  1.00  0.00     0.058 A 
ATOM     85  C   UNL A   1      46.471  23.592  34.133  1.00  0.00     0.135 A 
ATOM     86  C   UNL A   1      44.191  22.862  34.164  1.00  0.00     0.135 A 
ATOM     87  F   UNL A   1      47.447  24.429  33.746  1.00  0.00    -0.206 F 
ATOM     88  C   UNL A   1      46.836  22.483  34.891  1.00  0.00     0.059 A 
ATOM     89  C   UNL A   1      44.539  21.719  34.866  1.00  0.00     0.059 A 
ATOM     90  F   UNL A   1      42.884  23.012  33.901  1.00  0.00    -0.206 F 
ATOM     91  C   UNL A   1      45.859  21.557  35.259  1.00  0.00     0.060 A 
BRANCH  91  92
ATOM     92  S   UNL A   1      46.309  20.138  36.270  1.00  0.00     0.124 S 
ATOM     93  O   UNL A   1      45.706  19.024  35.546  1.00  0.00    -0.237 OA
ATOM     94  O   UNL A   1      47.767  20.209  36.225  1.00  0.00    -0.237 OA
ATOM     95  O   UNL A   1      45.703  20.440  37.563  1.00  0.00    -0.744 OA
ENDBRANCH  91  92
ENDBRANCH  59  84
ENDBRANCH  33  34
ENDBRANCH  26  28
ENDBRANCH  25  26
ENDBRANCH  24  25
ENDBRANCH   1  24
TORSDOF 18
ENDMDL
MODEL 2
REMARK VINA RESULT:     -12.6      2.059      2.767
REMARK SMILES Cc1ccc(O[C@H](C)C(=O)Nc2ccsc2C(=O)OCCOC(=O)c2ccc(-c3c4nc(c(-c5c(F)cc(S(=O)(=O)[O-])cc5F)c5ccc([nH]5)c(-c5c(F)cc(S(=O)(=O)[O-])cc5F)c5nc(c(-c6c(F)cc(S(=O)(=O)[O-])cc6F)c6ccc3[nH]6)C=C5)C=C4)cc2)cc1
REMARK SMILES IDX 20 1 19 2 17 3 18 4 16 5 12 6 13 7 14 8 15 9 11 10 9 11
REMARK SMILES IDX 10 12 7 14 8 15 6 16 5 17 1 18 2 19 3 20 92 21 4 22 91 23
REMARK SMILES IDX 21 24 22 25 23 26 24 27 25 28 26 29 90 30 27 31 89 32 28 33
REMARK SMILES IDX 29 34 30 35 83 36 31 37 88 38 82 39 84 40 32 41 87 42 81 43
REMARK SMILES IDX 80 44 33 46 67 47 46 48 66 49 47 50 50 51 65 52 85 53 48 54
REMARK SMILES IDX 49 55 64 57 86 58 51 59 34 60 35 61 44 62 36 63 37 64 43 65
REMARK SMILES IDX 45 66 38 67 39 68 40 69 41 70 42 71 68 72 69 73 78 74 70 75
REMARK SMILES IDX 71 76 77 77 79 78 72 79 73 80 74 81 75 82 76 83 52 84 53 85
REMARK SMILES IDX 62 86 54 87 55 88 61 89 63 90 56 91 57 92 58 93 59 94 60 95
REMARK H PARENT 11 13 84 45 50 56
REMARK Flexibility Score: inf
ROOT
ATOM      1  C   UNL A   1      34.000  28.465  24.175  1.00  0.00     0.275 C 
ENDROOT
BRANCH   1   2
ATOM      2  O   UNL A   1      33.175  28.443  22.988  1.00  0.00    -0.458 OA
BRANCH   2   3
ATOM      3  C   UNL A   1      32.910  27.276  22.349  1.00  0.00     0.350 C 
ATOM      4  O   UNL A   1      33.650  26.801  21.469  1.00  0.00    -0.245 OA
BRANCH   3   5
ATOM      5  C   UNL A   1      31.711  26.676  22.877  1.00  0.00     0.136 A 
ATOM      6  C   UNL A   1      31.370  25.334  22.930  1.00  0.00     0.066 A 
ATOM      7  C   UNL A   1      30.146  25.111  23.625  1.00  0.00     0.039 A 
ATOM      8  C   UNL A   1      29.518  26.293  23.950  1.00  0.00     0.068 A 
ATOM      9  S   UNL A   1      30.425  27.652  23.453  1.00  0.00    -0.135 S 
BRANCH   6  10
ATOM     10  N   UNL A   1      32.129  24.333  22.346  1.00  0.00    -0.321 N 
ATOM     11  C   UNL A   1      32.907  23.460  23.080  1.00  0.00     0.265 C 
ATOM     12  O   UNL A   1      33.170  22.354  22.596  1.00  0.00    -0.270 OA
ATOM     13  H   UNL A   1      32.112  24.239  21.366  1.00  0.00     0.170 HD
BRANCH  11  14
ATOM     14  C   UNL A   1      33.499  23.903  24.448  1.00  0.00     0.259 C 
ATOM     15  C   UNL A   1      32.952  22.966  25.519  1.00  0.00     0.064 C 
BRANCH  14  16
ATOM     16  O   UNL A   1      34.900  24.097  24.284  1.00  0.00    -0.481 OA
BRANCH  16  17
ATOM     17  C   UNL A   1      35.923  23.325  24.731  1.00  0.00     0.120 A 
ATOM     18  C   UNL A   1      39.620  21.545  26.117  1.00  0.00     0.044 C 
ATOM     19  C   UNL A   1      38.307  22.133  25.699  1.00  0.00    -0.051 A 
ATOM     20  C   UNL A   1      37.483  21.468  24.787  1.00  0.00     0.007 A 
ATOM     21  C   UNL A   1      37.913  23.388  26.156  1.00  0.00     0.007 A 
ATOM     22  C   UNL A   1      36.295  22.054  24.319  1.00  0.00     0.047 A 
ATOM     23  C   UNL A   1      36.725  23.960  25.689  1.00  0.00     0.047 A 
ENDBRANCH  16  17
ENDBRANCH  14  16
ENDBRANCH  11  14
ENDBRANCH   6  10
ENDBRANCH   3   5
ENDBRANCH   2   3
ENDBRANCH   1   2
BRANCH   1  24
ATOM     24  C   UNL A   1      33.384  28.840  25.545  1.00  0.00     0.275 C 
BRANCH  24  25
ATOM     25  O   UNL A   1      34.129  28.618  26.766  1.00  0.00    -0.458 OA
BRANCH  25  26
ATOM     26  C   UNL A   1      34.352  29.641  27.631  1.00  0.00     0.338 C 
ATOM     27  O   UNL A   1      33.581  30.572  27.823  1.00  0.00    -0.246 OA
BRANCH  26  28
ATOM     28  C   UNL A   1      35.770  29.690  27.978  1.00  0.00     0.060 A 
ATOM     29  C   UNL A   1      36.745  30.008  27.033  1.00  0.00     0.016 A 
ATOM     30  C   UNL A   1      36.088  29.463  29.321  1.00  0.00     0.016 A 
ATOM     31  C   UNL A   1      38.067  30.131  27.440  1.00  0.00     0.010 A 
ATOM     32  C   UNL A   1      37.366  29.685  29.751  1.00  0.00     0.010 A 
ATOM     33  C   UNL A   1      38.359  29.930  28.790  1.00  0.00    -0.014 A 
BRANCH  33  34
ATOM     34  C   UNL A   1      39.627  29.363  29.208  1.00  0.00     0.031 A 
ATOM     35  C   UNL A   1      40.022  27.989  28.917  1.00  0.00     0.074 A 
ATOM     36  C   UNL A   1      40.482  30.359  29.534  1.00  0.00     0.049 A 
ATOM     37  N   UNL A   1      41.072  27.444  29.417  1.00  0.00    -0.248 NA
ATOM     38  C   UNL A   1      39.263  27.096  28.043  1.00  0.00     0.031 C 
ATOM     39  C   UNL A   1      41.928  30.418  29.541  1.00  0.00     0.029 A 
ATOM     40  N   UNL A   1      40.088  31.596  30.067  1.00  0.00    -0.354 N 
ATOM     41  C   UNL A   1      41.307  26.293  28.706  1.00  0.00     0.074 A 
ATOM     42  C   UNL A   1      40.099  26.053  27.949  1.00  0.00     0.031 C 
ATOM     43  C   UNL A   1      42.297  31.473  30.297  1.00  0.00     0.029 A 
ATOM     44  C   UNL A   1      41.091  31.990  30.947  1.00  0.00     0.049 A 
ATOM     45  H   UNL A   1      39.262  32.089  29.859  1.00  0.00     0.167 HD
ATOM     46  C   UNL A   1      42.566  25.773  28.689  1.00  0.00     0.037 A 
ATOM     47  C   UNL A   1      40.795  31.897  32.282  1.00  0.00     0.037 A 
ATOM     48  C   UNL A   1      43.478  26.598  29.482  1.00  0.00     0.049 A 
ATOM     49  C   UNL A   1      41.606  30.802  32.961  1.00  0.00     0.074 A 
ATOM     50  C   UNL A   1      44.376  27.605  29.167  1.00  0.00     0.029 A 
ATOM     51  N   UNL A   1      43.249  26.716  30.842  1.00  0.00    -0.354 N 
ATOM     52  N   UNL A   1      42.233  29.850  32.321  1.00  0.00    -0.248 NA
ATOM     53  C   UNL A   1      41.771  30.685  34.407  1.00  0.00     0.031 C 
ATOM     54  C   UNL A   1      44.653  28.348  30.355  1.00  0.00     0.029 A 
ATOM     55  C   UNL A   1      43.920  27.794  31.388  1.00  0.00     0.049 A 
ATOM     56  H   UNL A   1      42.678  26.104  31.360  1.00  0.00     0.167 HD
ATOM     57  C   UNL A   1      42.929  29.074  33.198  1.00  0.00     0.074 A 
ATOM     58  C   UNL A   1      42.569  29.607  34.502  1.00  0.00     0.031 C 
ATOM     59  C   UNL A   1      43.760  28.066  32.807  1.00  0.00     0.037 A 
BRANCH  46  60
ATOM     60  C   UNL A   1      42.984  24.706  27.711  1.00  0.00     0.058 A 
ATOM     61  C   UNL A   1      42.779  23.342  27.994  1.00  0.00     0.135 A 
ATOM     62  C   UNL A   1      43.624  24.978  26.483  1.00  0.00     0.135 A 
ATOM     63  F   UNL A   1      42.141  22.946  29.103  1.00  0.00    -0.206 F 
ATOM     64  C   UNL A   1      43.242  22.320  27.167  1.00  0.00     0.059 A 
ATOM     65  C   UNL A   1      44.134  23.969  25.656  1.00  0.00     0.059 A 
ATOM     66  F   UNL A   1      43.770  26.239  26.048  1.00  0.00    -0.206 F 
ATOM     67  C   UNL A   1      43.941  22.639  26.012  1.00  0.00     0.060 A 
BRANCH  67  68
ATOM     68  S   UNL A   1      44.598  21.291  25.008  1.00  0.00     0.124 S 
ATOM     69  O   UNL A   1      44.550  21.858  23.663  1.00  0.00    -0.237 OA
ATOM     70  O   UNL A   1      45.930  21.115  25.576  1.00  0.00    -0.237 OA
ATOM     71  O   UNL A   1      43.661  20.199  25.252  1.00  0.00    -0.744 OA
ENDBRANCH  67  68
ENDBRANCH  46  60
BRANCH  47  72
ATOM     72  C   UNL A   1      39.384  32.310  32.642  1.00  0.00     0.058 A 
ATOM     73  C   UNL A   1      39.022  33.681  32.590  1.00  0.00     0.135 A 
ATOM     74  C   UNL A   1      38.326  31.408  32.828  1.00  0.00     0.135 A 
ATOM     75  F   UNL A   1      39.974  34.620  32.429  1.00  0.00    -0.206 F 
ATOM     76  C   UNL A   1      37.696  34.125  32.631  1.00  0.00     0.059 A 
ATOM     77  C   UNL A   1      36.988  31.832  32.898  1.00  0.00     0.059 A 
ATOM     78  F   UNL A   1      38.563  30.091  32.895  1.00  0.00    -0.206 F 
ATOM     79  C   UNL A   1      36.678  33.187  32.766  1.00  0.00     0.060 A 
BRANCH  79  80
ATOM     80  S   UNL A   1      34.944  33.725  32.800  1.00  0.00     0.124 S 
ATOM     81  O   UNL A   1      34.390  33.082  31.612  1.00  0.00    -0.237 OA
ATOM     82  O   UNL A   1      34.456  33.195  34.070  1.00  0.00    -0.237 OA
ATOM     83  O   UNL A   1      35.070  35.175  32.723  1.00  0.00    -0.744 OA
ENDBRANCH  79  80
ENDBRANCH  47  72
BRANCH  59  84
ATOM     84  C   UNL A   1      44.530  27.227  33.774  1.00  0.00     0.058 A 
ATOM     85  C   UNL A   1      45.914  27.358  33.949  1.00  0.00     0.135 A 
ATOM     86  C   UNL A   1      43.898  26.176  34.473  1.00  0.00     0.135 A 
ATOM     87  F   UNL A   1      46.606  28.286  33.270  1.00  0.00    -0.206 F 
ATOM     88  C   UNL A   1      46.621  26.537  34.823  1.00  0.00     0.059 A 
ATOM     89  C   UNL A   1      44.591  25.308  35.300  1.00  0.00     0.059 A 
ATOM     90  F   UNL A   1      42.573  25.982  34.400  1.00  0.00    -0.206 F 
ATOM     91  C   UNL A   1      45.947  25.520  35.500  1.00  0.00     0.060 A 
BRANCH  91  92
ATOM     92  S   UNL A   1      46.841  24.475  36.660  1.00  0.00     0.124 S 
ATOM     93  O   UNL A   1      45.815  23.535  37.100  1.00  0.00    -0.237 OA
ATOM     94  O   UNL A   1      47.882  23.921  35.799  1.00  0.00    -0.237 OA
ATOM     95  O   UNL A   1      47.298  25.416  37.678  1.00  0.00    -0.744 OA
ENDBRANCH  91  92
ENDBRANCH  59  84
ENDBRANCH  33  34
ENDBRANCH  26  28
ENDBRANCH  25  26
ENDBRANCH  24  25
ENDBRANCH   1  24
TORSDOF 18
ENDMDL
MODEL 3
REMARK VINA RESULT:     -12.5      1.595      2.222
REMARK SMILES Cc1ccc(O[C@H](C)C(=O)Nc2ccsc2C(=O)OCCOC(=O)c2ccc(-c3c4nc(c(-c5c(F)cc(S(=O)(=O)[O-])cc5F)c5ccc([nH]5)c(-c5c(F)cc(S(=O)(=O)[O-])cc5F)c5nc(c(-c6c(F)cc(S(=O)(=O)[O-])cc6F)c6ccc3[nH]6)C=C5)C=C4)cc2)cc1
REMARK SMILES IDX 20 1 19 2 17 3 18 4 16 5 12 6 13 7 14 8 15 9 11 10 9 11
REMARK SMILES IDX 10 12 7 14 8 15 6 16 5 17 1 18 2 19 3 20 92 21 4 22 91 23
REMARK SMILES IDX 21 24 22 25 23 26 24 27 25 28 26 29 90 30 27 31 89 32 28 33
REMARK SMILES IDX 29 34 30 35 83 36 31 37 88 38 82 39 84 40 32 41 87 42 81 43
REMARK SMILES IDX 80 44 33 46 67 47 46 48 66 49 47 50 50 51 65 52 85 53 48 54
REMARK SMILES IDX 49 55 64 57 86 58 51 59 34 60 35 61 44 62 36 63 37 64 43 65
REMARK SMILES IDX 45 66 38 67 39 68 40 69 41 70 42 71 68 72 69 73 78 74 70 75
REMARK SMILES IDX 71 76 77 77 79 78 72 79 73 80 74 81 75 82 76 83 52 84 53 85
REMARK SMILES IDX 62 86 54 87 55 88 61 89 63 90 56 91 57 92 58 93 59 94 60 95
REMARK H PARENT 11 13 84 45 50 56
REMARK Flexibility Score: inf
ROOT
ATOM      1  C   UNL A   1      33.661  28.229  26.186  1.00  0.00     0.275 C 
ENDROOT
BRANCH   1   2
ATOM      2  O   UNL A   1      33.414  26.805  26.245  1.00  0.00    -0.458 OA
BRANCH   2   3
ATOM      3  C   UNL A   1      32.201  26.297  25.912  1.00  0.00     0.350 C 
ATOM      4  O   UNL A   1      31.409  25.827  26.748  1.00  0.00    -0.245 OA
BRANCH   3   5
ATOM      5  C   UNL A   1      31.970  26.440  24.497  1.00  0.00     0.136 A 
ATOM      6  C   UNL A   1      32.755  25.992  23.446  1.00  0.00     0.066 A 
ATOM      7  C   UNL A   1      32.148  26.222  22.177  1.00  0.00     0.039 A 
ATOM      8  C   UNL A   1      30.996  26.968  22.288  1.00  0.00     0.068 A 
ATOM      9  S   UNL A   1      30.637  27.345  23.914  1.00  0.00    -0.135 S 
BRANCH   6  10
ATOM     10  N   UNL A   1      34.000  25.409  23.621  1.00  0.00    -0.321 N 
ATOM     11  C   UNL A   1      34.232  24.065  23.411  1.00  0.00     0.265 C 
ATOM     12  O   UNL A   1      35.380  23.702  23.129  1.00  0.00    -0.270 OA
ATOM     13  H   UNL A   1      34.751  25.979  23.907  1.00  0.00     0.170 HD
BRANCH  11  14
ATOM     14  C   UNL A   1      33.086  23.034  23.607  1.00  0.00     0.259 C 
ATOM     15  C   UNL A   1      32.708  22.488  22.234  1.00  0.00     0.064 C 
BRANCH  14  16
ATOM     16  O   UNL A   1      33.449  22.162  24.672  1.00  0.00    -0.481 OA
BRANCH  16  17
ATOM     17  C   UNL A   1      33.487  20.805  24.686  1.00  0.00     0.120 A 
ATOM     18  C   UNL A   1      34.249  16.565  24.243  1.00  0.00     0.044 C 
ATOM     19  C   UNL A   1      33.987  18.023  24.471  1.00  0.00    -0.051 A 
ATOM     20  C   UNL A   1      32.685  18.529  24.437  1.00  0.00     0.007 A 
ATOM     21  C   UNL A   1      35.041  18.914  24.651  1.00  0.00     0.007 A 
ATOM     22  C   UNL A   1      32.438  19.907  24.559  1.00  0.00     0.047 A 
ATOM     23  C   UNL A   1      34.784  20.283  24.776  1.00  0.00     0.047 A 
ENDBRANCH  16  17
ENDBRANCH  14  16
ENDBRANCH  11  14
ENDBRANCH   6  10
ENDBRANCH   3   5
ENDBRANCH   2   3
ENDBRANCH   1   2
BRANCH   1  24
ATOM     24  C   UNL A   1      34.437  28.933  27.326  1.00  0.00     0.275 C 
BRANCH  24  25
ATOM     25  O   UNL A   1      35.882  28.856  27.383  1.00  0.00    -0.458 OA
BRANCH  25  26
ATOM     26  C   UNL A   1      36.605  29.887  27.892  1.00  0.00     0.338 C 
ATOM     27  O   UNL A   1      36.281  31.066  27.826  1.00  0.00    -0.246 OA
BRANCH  26  28
ATOM     28  C   UNL A   1      37.972  29.445  28.154  1.00  0.00     0.060 A 
ATOM     29  C   UNL A   1      38.898  29.278  27.123  1.00  0.00     0.016 A 
ATOM     30  C   UNL A   1      38.318  29.260  29.496  1.00  0.00     0.016 A 
ATOM     31  C   UNL A   1      40.209  28.946  27.439  1.00  0.00     0.010 A 
ATOM     32  C   UNL A   1      39.626  29.039  29.823  1.00  0.00     0.010 A 
ATOM     33  C   UNL A   1      40.541  28.796  28.787  1.00  0.00    -0.014 A 
BRANCH  33  34
ATOM     34  C   UNL A   1      41.554  27.849  29.210  1.00  0.00     0.031 A 
ATOM     35  C   UNL A   1      41.604  26.469  28.738  1.00  0.00     0.074 A 
ATOM     36  C   UNL A   1      42.597  28.516  29.755  1.00  0.00     0.049 A 
ATOM     37  N   UNL A   1      42.406  25.592  29.227  1.00  0.00    -0.248 NA
ATOM     38  C   UNL A   1      40.746  25.945  27.677  1.00  0.00     0.031 C 
ATOM     39  C   UNL A   1      43.996  28.168  29.885  1.00  0.00     0.029 A 
ATOM     40  N   UNL A   1      42.483  29.733  30.443  1.00  0.00    -0.354 N 
ATOM     41  C   UNL A   1      42.411  24.524  28.365  1.00  0.00     0.074 A 
ATOM     42  C   UNL A   1      41.281  24.731  27.486  1.00  0.00     0.031 C 
ATOM     43  C   UNL A   1      44.537  28.970  30.825  1.00  0.00     0.029 A 
ATOM     44  C   UNL A   1      43.443  29.714  31.450  1.00  0.00     0.049 A 
ATOM     45  H   UNL A   1      41.848  30.460  30.251  1.00  0.00     0.167 HD
ATOM     46  C   UNL A   1      43.480  23.680  28.366  1.00  0.00     0.037 A 
ATOM     47  C   UNL A   1      42.975  29.535  32.726  1.00  0.00     0.037 A 
ATOM     48  C   UNL A   1      44.476  24.108  29.349  1.00  0.00     0.049 A 
ATOM     49  C   UNL A   1      43.381  28.179  33.287  1.00  0.00     0.074 A 
ATOM     50  C   UNL A   1      45.640  24.856  29.269  1.00  0.00     0.029 A 
ATOM     51  N   UNL A   1      44.126  24.107  30.688  1.00  0.00    -0.354 N 
ATOM     52  N   UNL A   1      43.806  27.182  32.557  1.00  0.00    -0.248 NA
ATOM     53  C   UNL A   1      43.335  27.834  34.705  1.00  0.00     0.031 C 
ATOM     54  C   UNL A   1      45.960  25.332  30.577  1.00  0.00     0.029 A 
ATOM     55  C   UNL A   1      44.988  24.876  31.448  1.00  0.00     0.049 A 
ATOM     56  H   UNL A   1      43.356  23.617  31.057  1.00  0.00     0.167 HD
ATOM     57  C   UNL A   1      44.162  26.135  33.354  1.00  0.00     0.074 A 
ATOM     58  C   UNL A   1      43.803  26.573  34.692  1.00  0.00     0.031 C 
ATOM     59  C   UNL A   1      44.738  24.995  32.875  1.00  0.00     0.037 A 
BRANCH  46  60
ATOM     60  C   UNL A   1      43.715  22.676  27.269  1.00  0.00     0.058 A 
ATOM     61  C   UNL A   1      42.898  21.535  27.143  1.00  0.00     0.135 A 
ATOM     62  C   UNL A   1      44.760  22.776  26.326  1.00  0.00     0.135 A 
ATOM     63  F   UNL A   1      41.842  21.339  27.942  1.00  0.00    -0.206 F 
ATOM     64  C   UNL A   1      43.142  20.530  26.209  1.00  0.00     0.059 A 
ATOM     65  C   UNL A   1      45.050  21.761  25.405  1.00  0.00     0.059 A 
ATOM     66  F   UNL A   1      45.531  23.873  26.270  1.00  0.00    -0.206 F 
ATOM     67  C   UNL A   1      44.234  20.636  25.360  1.00  0.00     0.060 A 
BRANCH  67  68
ATOM     68  S   UNL A   1      44.569  19.277  24.220  1.00  0.00     0.124 S 
ATOM     69  O   UNL A   1      43.508  18.330  24.552  1.00  0.00    -0.237 OA
ATOM     70  O   UNL A   1      44.450  19.935  22.924  1.00  0.00    -0.237 OA
ATOM     71  O   UNL A   1      45.916  18.850  24.589  1.00  0.00    -0.744 OA
ENDBRANCH  67  68
ENDBRANCH  46  60
BRANCH  47  72
ATOM     72  C   UNL A   1      41.691  30.275  33.034  1.00  0.00     0.058 A 
ATOM     73  C   UNL A   1      40.488  29.545  33.215  1.00  0.00     0.135 A 
ATOM     74  C   UNL A   1      41.632  31.637  33.366  1.00  0.00     0.135 A 
ATOM     75  F   UNL A   1      40.448  28.235  32.907  1.00  0.00    -0.206 F 
ATOM     76  C   UNL A   1      39.331  30.102  33.768  1.00  0.00     0.059 A 
ATOM     77  C   UNL A   1      40.473  32.225  33.900  1.00  0.00     0.059 A 
ATOM     78  F   UNL A   1      42.714  32.416  33.229  1.00  0.00    -0.206 F 
ATOM     79  C   UNL A   1      39.337  31.445  34.128  1.00  0.00     0.060 A 
BRANCH  79  80
ATOM     80  S   UNL A   1      37.859  32.195  34.871  1.00  0.00     0.124 S 
ATOM     81  O   UNL A   1      37.679  31.404  36.084  1.00  0.00    -0.237 OA
ATOM     82  O   UNL A   1      38.266  33.580  35.094  1.00  0.00    -0.237 OA
ATOM     83  O   UNL A   1      36.856  31.987  33.835  1.00  0.00    -0.744 OA
ENDBRANCH  79  80
ENDBRANCH  47  72
BRANCH  59  84
ATOM     84  C   UNL A   1      45.137  23.856  33.756  1.00  0.00     0.058 A 
ATOM     85  C   UNL A   1      46.454  23.672  34.198  1.00  0.00     0.135 A 
ATOM     86  C   UNL A   1      44.210  22.845  34.085  1.00  0.00     0.135 A 
ATOM     87  F   UNL A   1      47.416  24.550  33.871  1.00  0.00    -0.206 F 
ATOM     88  C   UNL A   1      46.817  22.581  34.982  1.00  0.00     0.059 A 
ATOM     89  C   UNL A   1      44.561  21.719  34.812  1.00  0.00     0.059 A 
ATOM     90  F   UNL A   1      42.918  22.938  33.738  1.00  0.00    -0.206 F 
ATOM     91  C   UNL A   1      45.859  21.614  35.290  1.00  0.00     0.060 A 
BRANCH  91  92
ATOM     92  S   UNL A   1      46.303  20.217  36.333  1.00  0.00     0.124 S 
ATOM     93  O   UNL A   1      45.734  20.587  37.625  1.00  0.00    -0.237 OA
ATOM     94  O   UNL A   1      45.636  19.121  35.637  1.00  0.00    -0.237 OA
ATOM     95  O   UNL A   1      47.761  20.205  36.278  1.00  0.00    -0.744 OA
ENDBRANCH  91  92
ENDBRANCH  59  84
ENDBRANCH  33  34
ENDBRANCH  26  28
ENDBRANCH  25  26
ENDBRANCH  24  25
ENDBRANCH   1  24
TORSDOF 18
ENDMDL
