MODEL 1
REMARK VINA RESULT:     -13.0      0.000      0.000
REMARK SMILES Cc1cc(C)c2nc(NS(=O)(=O)c3cc(C(=O)OCCOC(=O)c4ccc(-c5c6nc(c(-c7c(F)cc(S(=O)(=O)[O-])cc7F)c7ccc([nH]7)c(-c7c(F)cc(S(=O)(=O)[O-])cc7F)c7nc(c(-c8c(F)cc(S(=O)(=O)[O-])cc8F)c8ccc5[nH]8)C=C7)C=C6)cc4)ccc3Cl)sc2c1
REMARK SMILES IDX 19 1 18 2 16 3 17 4 15 5 13 6 14 7 92 8 91 9 93 10 90 11
REMARK SMILES IDX 10 12 11 13 12 14 9 15 8 17 1 18 2 19 3 20 96 21 4 22 95 23
REMARK SMILES IDX 5 24 6 25 94 26 7 27 20 28 21 29 22 30 23 31 24 32 25 33
REMARK SMILES IDX 89 34 26 35 88 36 27 37 28 38 29 39 82 40 30 41 87 42 81 43
REMARK SMILES IDX 83 44 31 45 86 46 80 47 79 48 32 50 66 51 45 52 65 53 46 54
REMARK SMILES IDX 49 55 64 56 84 57 47 58 48 59 63 61 85 62 50 63 33 64 34 65
REMARK SMILES IDX 43 66 35 67 36 68 42 69 44 70 37 71 38 72 39 73 40 74 41 75
REMARK SMILES IDX 67 76 68 77 77 78 69 79 70 80 76 81 78 82 71 83 72 84 73 85
REMARK SMILES IDX 74 86 75 87 51 88 52 89 61 90 53 91 54 92 60 93 62 94 55 95
REMARK SMILES IDX 56 96 57 97 58 98 59 99
REMARK H PARENT 9 16 83 49 49 60
REMARK Flexibility Score: inf
ROOT
ATOM      1  C   UNL A   1      37.404  21.577  25.041  1.00  0.00     0.275 C 
ENDROOT
BRANCH   1   2
ATOM      2  O   UNL A   1      36.440  22.200  25.912  1.00  0.00    -0.458 OA
BRANCH   2   3
ATOM      3  C   UNL A   1      35.930  23.393  25.510  1.00  0.00     0.338 C 
ATOM      4  O   UNL A   1      36.530  24.456  25.470  1.00  0.00    -0.246 OA
BRANCH   3   5
ATOM      5  C   UNL A   1      34.552  23.202  24.961  1.00  0.00     0.061 A 
ATOM      6  C   UNL A   1      32.138  23.302  25.317  1.00  0.00     0.107 A 
ATOM      7  C   UNL A   1      33.455  23.305  25.826  1.00  0.00     0.039 A 
ATOM      8  C   UNL A   1      31.925  23.301  23.938  1.00  0.00     0.061 A 
ATOM      9  C   UNL A   1      33.019  23.128  23.082  1.00  0.00     0.023 A 
ATOM     10  Cl  UNL A   1      30.377  23.478  23.199  1.00  0.00    -0.083 Cl
ATOM     11  C   UNL A   1      34.320  23.051  23.590  1.00  0.00     0.017 A 
BRANCH   6  12
ATOM     12  S   UNL A   1      30.818  23.146  26.498  1.00  0.00     0.265 S 
ATOM     13  O   UNL A   1      31.442  23.057  27.800  1.00  0.00    -0.201 OA
ATOM     14  O   UNL A   1      29.956  22.080  26.026  1.00  0.00    -0.201 OA
BRANCH  12  15
ATOM     15  N   UNL A   1      29.876  24.520  26.512  1.00  0.00    -0.255 N 
ATOM     16  H   UNL A   1      29.001  24.478  26.960  1.00  0.00     0.182 HD
BRANCH  15  17
ATOM     17  C   UNL A   1      30.260  25.737  25.920  1.00  0.00     0.197 A 
ATOM     18  C   UNL A   1      34.204  28.541  22.298  1.00  0.00     0.044 C 
ATOM     19  C   UNL A   1      33.314  28.210  23.462  1.00  0.00    -0.049 A 
ATOM     20  C   UNL A   1      33.728  28.464  24.774  1.00  0.00     0.009 A 
ATOM     21  C   UNL A   1      32.073  27.606  23.227  1.00  0.00     0.024 A 
ATOM     22  C   UNL A   1      32.978  28.035  25.888  1.00  0.00    -0.024 A 
ATOM     23  C   UNL A   1      31.351  27.140  24.332  1.00  0.00     0.057 A 
ATOM     24  C   UNL A   1      33.452  28.348  27.278  1.00  0.00     0.047 C 
ATOM     25  C   UNL A   1      31.831  27.246  25.638  1.00  0.00     0.087 A 
ATOM     26  S   UNL A   1      29.806  26.371  24.402  1.00  0.00    -0.096 S 
ATOM     27  N   UNL A   1      31.146  26.464  26.561  1.00  0.00    -0.219 NA
ENDBRANCH  15  17
ENDBRANCH  12  15
ENDBRANCH   6  12
ENDBRANCH   3   5
ENDBRANCH   2   3
ENDBRANCH   1   2
BRANCH   1  28
ATOM     28  C   UNL A   1      38.749  21.459  25.747  1.00  0.00     0.275 C 
BRANCH  28  29
ATOM     29  O   UNL A   1      39.020  22.652  26.482  1.00  0.00    -0.458 OA
BRANCH  29  30
ATOM     30  C   UNL A   1      40.233  22.702  27.074  1.00  0.00     0.338 C 
ATOM     31  O   UNL A   1      40.795  21.800  27.673  1.00  0.00    -0.246 OA
BRANCH  30  32
ATOM     32  C   UNL A   1      40.704  24.089  27.094  1.00  0.00     0.060 A 
ATOM     33  C   UNL A   1      41.877  24.343  27.810  1.00  0.00     0.016 A 
ATOM     34  C   UNL A   1      39.820  25.112  26.721  1.00  0.00     0.016 A 
ATOM     35  C   UNL A   1      42.040  25.594  28.359  1.00  0.00     0.010 A 
ATOM     36  C   UNL A   1      39.986  26.359  27.272  1.00  0.00     0.010 A 
ATOM     37  C   UNL A   1      41.033  26.548  28.167  1.00  0.00    -0.014 A 
BRANCH  37  38
ATOM     38  C   UNL A   1      41.111  27.773  28.931  1.00  0.00     0.031 A 
ATOM     39  C   UNL A   1      42.197  28.675  28.488  1.00  0.00     0.074 A 
ATOM     40  C   UNL A   1      40.205  28.082  29.879  1.00  0.00     0.049 A 
ATOM     41  N   UNL A   1      43.258  29.025  29.135  1.00  0.00    -0.248 NA
ATOM     42  C   UNL A   1      42.174  29.103  27.080  1.00  0.00     0.031 C 
ATOM     43  C   UNL A   1      38.941  27.410  30.201  1.00  0.00     0.029 A 
ATOM     44  N   UNL A   1      40.189  29.156  30.705  1.00  0.00    -0.354 N 
ATOM     45  C   UNL A   1      43.938  29.891  28.286  1.00  0.00     0.074 A 
ATOM     46  C   UNL A   1      43.327  29.764  26.987  1.00  0.00     0.031 C 
ATOM     47  C   UNL A   1      38.185  28.228  30.971  1.00  0.00     0.029 A 
ATOM     48  C   UNL A   1      38.966  29.405  31.310  1.00  0.00     0.049 A 
ATOM     49  H   UNL A   1      40.983  29.716  30.864  1.00  0.00     0.167 HD
ATOM     50  C   UNL A   1      44.800  30.829  28.760  1.00  0.00     0.037 A 
ATOM     51  C   UNL A   1      38.625  30.550  31.955  1.00  0.00     0.037 A 
ATOM     52  C   UNL A   1      45.229  30.539  30.101  1.00  0.00     0.049 A 
ATOM     53  C   UNL A   1      39.899  31.237  32.313  1.00  0.00     0.074 A 
ATOM     54  C   UNL A   1      45.925  29.499  30.688  1.00  0.00     0.029 A 
ATOM     55  N   UNL A   1      44.610  31.202  31.133  1.00  0.00    -0.354 N 
ATOM     56  N   UNL A   1      40.764  30.767  33.170  1.00  0.00    -0.248 NA
ATOM     57  C   UNL A   1      40.425  32.215  31.371  1.00  0.00     0.031 C 
ATOM     58  C   UNL A   1      45.302  29.304  31.957  1.00  0.00     0.029 A 
ATOM     59  C   UNL A   1      44.298  30.264  32.088  1.00  0.00     0.049 A 
ATOM     60  H   UNL A   1      44.426  32.167  31.180  1.00  0.00     0.167 HD
ATOM     61  C   UNL A   1      42.008  31.070  32.630  1.00  0.00     0.074 A 
ATOM     62  C   UNL A   1      41.733  32.027  31.560  1.00  0.00     0.031 C 
ATOM     63  C   UNL A   1      43.109  30.315  32.913  1.00  0.00     0.037 A 
BRANCH  50  64
ATOM     64  C   UNL A   1      44.963  32.179  28.117  1.00  0.00     0.058 A 
ATOM     65  C   UNL A   1      46.208  32.563  27.592  1.00  0.00     0.135 A 
ATOM     66  C   UNL A   1      44.000  33.208  28.240  1.00  0.00     0.135 A 
ATOM     67  F   UNL A   1      47.198  31.667  27.458  1.00  0.00    -0.206 F 
ATOM     68  C   UNL A   1      46.492  33.888  27.255  1.00  0.00     0.059 A 
ATOM     69  C   UNL A   1      44.241  34.520  27.857  1.00  0.00     0.059 A 
ATOM     70  F   UNL A   1      42.815  33.008  28.834  1.00  0.00    -0.206 F 
ATOM     71  C   UNL A   1      45.505  34.860  27.404  1.00  0.00     0.060 A 
BRANCH  71  72
ATOM     72  S   UNL A   1      45.904  36.586  27.086  1.00  0.00     0.124 S 
ATOM     73  O   UNL A   1      46.677  36.482  25.854  1.00  0.00    -0.237 OA
ATOM     74  O   UNL A   1      44.578  37.184  26.961  1.00  0.00    -0.237 OA
ATOM     75  O   UNL A   1      46.655  36.983  28.273  1.00  0.00    -0.744 OA
ENDBRANCH  71  72
ENDBRANCH  50  64
BRANCH  51  76
ATOM     76  C   UNL A   1      37.334  31.289  31.870  1.00  0.00     0.058 A 
ATOM     77  C   UNL A   1      36.682  31.719  33.039  1.00  0.00     0.135 A 
ATOM     78  C   UNL A   1      36.887  31.863  30.662  1.00  0.00     0.135 A 
ATOM     79  F   UNL A   1      37.051  31.231  34.234  1.00  0.00    -0.206 F 
ATOM     80  C   UNL A   1      35.701  32.716  33.024  1.00  0.00     0.059 A 
ATOM     81  C   UNL A   1      35.904  32.851  30.621  1.00  0.00     0.059 A 
ATOM     82  F   UNL A   1      37.462  31.553  29.491  1.00  0.00    -0.206 F 
ATOM     83  C   UNL A   1      35.340  33.298  31.809  1.00  0.00     0.060 A 
BRANCH  83  84
ATOM     84  S   UNL A   1      34.231  34.726  31.807  1.00  0.00     0.124 S 
ATOM     85  O   UNL A   1      33.077  34.214  32.538  1.00  0.00    -0.237 OA
ATOM     86  O   UNL A   1      35.028  35.733  32.499  1.00  0.00    -0.237 OA
ATOM     87  O   UNL A   1      34.007  34.980  30.387  1.00  0.00    -0.744 OA
ENDBRANCH  83  84
ENDBRANCH  51  76
BRANCH  63  88
ATOM     88  C   UNL A   1      43.002  29.298  34.023  1.00  0.00     0.058 A 
ATOM     89  C   UNL A   1      43.131  29.602  35.391  1.00  0.00     0.135 A 
ATOM     90  C   UNL A   1      42.621  27.990  33.695  1.00  0.00     0.135 A 
ATOM     91  F   UNL A   1      43.389  30.852  35.798  1.00  0.00    -0.206 F 
ATOM     92  C   UNL A   1      42.939  28.637  36.383  1.00  0.00     0.059 A 
ATOM     93  C   UNL A   1      42.394  27.019  34.669  1.00  0.00     0.059 A 
ATOM     94  F   UNL A   1      42.419  27.652  32.411  1.00  0.00    -0.206 F 
ATOM     95  C   UNL A   1      42.570  27.346  36.011  1.00  0.00     0.060 A 
BRANCH  95  96
ATOM     96  S   UNL A   1      42.268  26.112  37.296  1.00  0.00     0.124 S 
ATOM     97  O   UNL A   1      40.863  26.338  37.618  1.00  0.00    -0.237 OA
ATOM     98  O   UNL A   1      42.565  24.858  36.609  1.00  0.00    -0.237 OA
ATOM     99  O   UNL A   1      43.214  26.475  38.349  1.00  0.00    -0.744 OA
ENDBRANCH  95  96
ENDBRANCH  63  88
ENDBRANCH  37  38
ENDBRANCH  30  32
ENDBRANCH  29  30
ENDBRANCH  28  29
ENDBRANCH   1  28
TORSDOF 17
ENDMDL
MODEL 2
REMARK VINA RESULT:     -12.8      1.589      2.281
REMARK SMILES Cc1cc(C)c2nc(NS(=O)(=O)c3cc(C(=O)OCCOC(=O)c4ccc(-c5c6nc(c(-c7c(F)cc(S(=O)(=O)[O-])cc7F)c7ccc([nH]7)c(-c7c(F)cc(S(=O)(=O)[O-])cc7F)c7nc(c(-c8c(F)cc(S(=O)(=O)[O-])cc8F)c8ccc5[nH]8)C=C7)C=C6)cc4)ccc3Cl)sc2c1
REMARK SMILES IDX 19 1 18 2 16 3 17 4 15 5 13 6 14 7 92 8 91 9 93 10 90 11
REMARK SMILES IDX 10 12 11 13 12 14 9 15 8 17 1 18 2 19 3 20 96 21 4 22 95 23
REMARK SMILES IDX 5 24 6 25 94 26 7 27 20 28 21 29 22 30 23 31 24 32 25 33
REMARK SMILES IDX 89 34 26 35 88 36 27 37 28 38 29 39 82 40 30 41 87 42 81 43
REMARK SMILES IDX 83 44 31 45 86 46 80 47 79 48 32 50 66 51 45 52 65 53 46 54
REMARK SMILES IDX 49 55 64 56 84 57 47 58 48 59 63 61 85 62 50 63 33 64 34 65
REMARK SMILES IDX 43 66 35 67 36 68 42 69 44 70 37 71 38 72 39 73 40 74 41 75
REMARK SMILES IDX 67 76 68 77 77 78 69 79 70 80 76 81 78 82 71 83 72 84 73 85
REMARK SMILES IDX 74 86 75 87 51 88 52 89 61 90 53 91 54 92 60 93 62 94 55 95
REMARK SMILES IDX 56 96 57 97 58 98 59 99
REMARK H PARENT 9 16 83 49 49 60
REMARK Flexibility Score: inf
ROOT
ATOM      1  C   UNL A   1      37.436  21.491  24.913  1.00  0.00     0.275 C 
ENDROOT
BRANCH   1   2
ATOM      2  O   UNL A   1      36.907  22.830  24.959  1.00  0.00    -0.458 OA
BRANCH   2   3
ATOM      3  C   UNL A   1      36.203  23.251  23.876  1.00  0.00     0.338 C 
ATOM      4  O   UNL A   1      36.414  22.936  22.715  1.00  0.00    -0.246 OA
BRANCH   3   5
ATOM      5  C   UNL A   1      35.013  24.042  24.314  1.00  0.00     0.061 A 
ATOM      6  C   UNL A   1      33.132  25.479  23.711  1.00  0.00     0.107 A 
ATOM      7  C   UNL A   1      34.354  24.853  23.381  1.00  0.00     0.039 A 
ATOM      8  C   UNL A   1      32.520  25.207  24.935  1.00  0.00     0.061 A 
ATOM      9  C   UNL A   1      33.213  24.453  25.889  1.00  0.00     0.023 A 
ATOM     10  Cl  UNL A   1      30.948  25.764  25.373  1.00  0.00    -0.083 Cl
ATOM     11  C   UNL A   1      34.462  23.898  25.591  1.00  0.00     0.017 A 
BRANCH   6  12
ATOM     12  S   UNL A   1      32.524  26.707  22.578  1.00  0.00     0.265 S 
ATOM     13  O   UNL A   1      31.080  26.644  22.641  1.00  0.00    -0.201 OA
ATOM     14  O   UNL A   1      33.212  26.495  21.320  1.00  0.00    -0.201 OA
BRANCH  12  15
ATOM     15  N   UNL A   1      32.958  28.236  23.081  1.00  0.00    -0.255 N 
ATOM     16  H   UNL A   1      33.427  28.819  22.442  1.00  0.00     0.182 HD
BRANCH  15  17
ATOM     17  C   UNL A   1      32.690  28.741  24.366  1.00  0.00     0.197 A 
ATOM     18  C   UNL A   1      32.875  33.557  28.013  1.00  0.00     0.044 C 
ATOM     19  C   UNL A   1      33.017  32.162  27.476  1.00  0.00    -0.049 A 
ATOM     20  C   UNL A   1      34.146  31.392  27.776  1.00  0.00     0.009 A 
ATOM     21  C   UNL A   1      32.023  31.645  26.637  1.00  0.00     0.024 A 
ATOM     22  C   UNL A   1      34.374  30.138  27.172  1.00  0.00    -0.024 A 
ATOM     23  C   UNL A   1      32.271  30.421  26.004  1.00  0.00     0.057 A 
ATOM     24  C   UNL A   1      35.591  29.339  27.540  1.00  0.00     0.047 C 
ATOM     25  C   UNL A   1      33.466  29.720  26.172  1.00  0.00     0.087 A 
ATOM     26  S   UNL A   1      31.273  29.506  24.933  1.00  0.00    -0.096 S 
ATOM     27  N   UNL A   1      33.667  28.707  25.242  1.00  0.00    -0.219 NA
ENDBRANCH  15  17
ENDBRANCH  12  15
ENDBRANCH   6  12
ENDBRANCH   3   5
ENDBRANCH   2   3
ENDBRANCH   1   2
BRANCH   1  28
ATOM     28  C   UNL A   1      38.664  21.382  25.808  1.00  0.00     0.275 C 
BRANCH  28  29
ATOM     29  O   UNL A   1      38.864  22.606  26.513  1.00  0.00    -0.458 OA
BRANCH  29  30
ATOM     30  C   UNL A   1      40.008  22.680  27.227  1.00  0.00     0.338 C 
ATOM     31  O   UNL A   1      40.495  21.806  27.925  1.00  0.00    -0.246 OA
BRANCH  30  32
ATOM     32  C   UNL A   1      40.486  24.064  27.232  1.00  0.00     0.060 A 
ATOM     33  C   UNL A   1      41.700  24.307  27.882  1.00  0.00     0.016 A 
ATOM     34  C   UNL A   1      39.589  25.094  26.918  1.00  0.00     0.016 A 
ATOM     35  C   UNL A   1      41.900  25.552  28.431  1.00  0.00     0.010 A 
ATOM     36  C   UNL A   1      39.792  26.336  27.468  1.00  0.00     0.010 A 
ATOM     37  C   UNL A   1      40.889  26.513  28.303  1.00  0.00    -0.014 A 
BRANCH  37  38
ATOM     38  C   UNL A   1      41.017  27.732  29.072  1.00  0.00     0.031 A 
ATOM     39  C   UNL A   1      42.084  28.629  28.579  1.00  0.00     0.074 A 
ATOM     40  C   UNL A   1      40.165  28.039  30.069  1.00  0.00     0.049 A 
ATOM     41  N   UNL A   1      43.180  28.967  29.170  1.00  0.00    -0.248 NA
ATOM     42  C   UNL A   1      41.989  29.069  27.177  1.00  0.00     0.031 C 
ATOM     43  C   UNL A   1      38.916  27.373  30.453  1.00  0.00     0.029 A 
ATOM     44  N   UNL A   1      40.201  29.107  30.903  1.00  0.00    -0.354 N 
ATOM     45  C   UNL A   1      43.821  29.835  28.292  1.00  0.00     0.074 A 
ATOM     46  C   UNL A   1      43.140  29.722  27.027  1.00  0.00     0.031 C 
ATOM     47  C   UNL A   1      38.208  28.189  31.269  1.00  0.00     0.029 A 
ATOM     48  C   UNL A   1      39.014  29.359  31.575  1.00  0.00     0.049 A 
ATOM     49  H   UNL A   1      41.007  29.659  31.023  1.00  0.00     0.167 HD
ATOM     50  C   UNL A   1      44.714  30.763  28.726  1.00  0.00     0.037 A 
ATOM     51  C   UNL A   1      38.717  30.501  32.246  1.00  0.00     0.037 A 
ATOM     52  C   UNL A   1      45.212  30.459  30.041  1.00  0.00     0.049 A 
ATOM     53  C   UNL A   1      40.013  31.176  32.540  1.00  0.00     0.074 A 
ATOM     54  C   UNL A   1      45.930  29.410  30.582  1.00  0.00     0.029 A 
ATOM     55  N   UNL A   1      44.654  31.118  31.110  1.00  0.00    -0.354 N 
ATOM     56  N   UNL A   1      40.919  30.693  33.346  1.00  0.00    -0.248 NA
ATOM     57  C   UNL A   1      40.494  32.158  31.579  1.00  0.00     0.031 C 
ATOM     58  C   UNL A   1      45.375  29.209  31.880  1.00  0.00     0.029 A 
ATOM     59  C   UNL A   1      44.386  30.175  32.073  1.00  0.00     0.049 A 
ATOM     60  H   UNL A   1      44.479  32.084  31.173  1.00  0.00     0.167 HD
ATOM     61  C   UNL A   1      42.134  30.993  32.742  1.00  0.00     0.074 A 
ATOM     62  C   UNL A   1      41.809  31.959  31.696  1.00  0.00     0.031 C 
ATOM     63  C   UNL A   1      43.244  30.227  32.960  1.00  0.00     0.037 A 
BRANCH  50  64
ATOM     64  C   UNL A   1      44.851  32.117  28.086  1.00  0.00     0.058 A 
ATOM     65  C   UNL A   1      46.041  32.465  27.424  1.00  0.00     0.135 A 
ATOM     66  C   UNL A   1      43.949  33.178  28.334  1.00  0.00     0.135 A 
ATOM     67  F   UNL A   1      46.974  31.536  27.165  1.00  0.00    -0.206 F 
ATOM     68  C   UNL A   1      46.334  33.784  27.074  1.00  0.00     0.059 A 
ATOM     69  C   UNL A   1      44.194  34.487  27.942  1.00  0.00     0.059 A 
ATOM     70  F   UNL A   1      42.834  33.011  29.059  1.00  0.00    -0.206 F 
ATOM     71  C   UNL A   1      45.408  34.788  27.349  1.00  0.00     0.060 A 
BRANCH  71  72
ATOM     72  S   UNL A   1      45.832  36.504  27.008  1.00  0.00     0.124 S 
ATOM     73  O   UNL A   1      46.588  36.858  28.204  1.00  0.00    -0.237 OA
ATOM     74  O   UNL A   1      46.604  36.384  25.775  1.00  0.00    -0.237 OA
ATOM     75  O   UNL A   1      44.532  37.152  26.867  1.00  0.00    -0.744 OA
ENDBRANCH  71  72
ENDBRANCH  50  64
BRANCH  51  76
ATOM     76  C   UNL A   1      37.429  31.249  32.236  1.00  0.00     0.058 A 
ATOM     77  C   UNL A   1      36.918  31.802  33.423  1.00  0.00     0.135 A 
ATOM     78  C   UNL A   1      36.848  31.710  31.035  1.00  0.00     0.135 A 
ATOM     79  F   UNL A   1      37.418  31.427  34.611  1.00  0.00    -0.206 F 
ATOM     80  C   UNL A   1      35.946  32.809  33.421  1.00  0.00     0.059 A 
ATOM     81  C   UNL A   1      35.872  32.705  31.010  1.00  0.00     0.059 A 
ATOM     82  F   UNL A   1      37.283  31.277  29.843  1.00  0.00    -0.206 F 
ATOM     83  C   UNL A   1      35.451  33.276  32.204  1.00  0.00     0.060 A 
BRANCH  83  84
ATOM     84  S   UNL A   1      34.357  34.715  32.187  1.00  0.00     0.124 S 
ATOM     85  O   UNL A   1      34.323  35.052  30.768  1.00  0.00    -0.237 OA
ATOM     86  O   UNL A   1      33.123  34.167  32.741  1.00  0.00    -0.237 OA
ATOM     87  O   UNL A   1      35.048  35.677  33.040  1.00  0.00    -0.744 OA
ENDBRANCH  83  84
ENDBRANCH  51  76
BRANCH  63  88
ATOM     88  C   UNL A   1      43.189  29.203  34.067  1.00  0.00     0.058 A 
ATOM     89  C   UNL A   1      43.487  29.475  35.415  1.00  0.00     0.135 A 
ATOM     90  C   UNL A   1      42.685  27.928  33.772  1.00  0.00     0.135 A 
ATOM     91  F   UNL A   1      43.874  30.699  35.801  1.00  0.00    -0.206 F 
ATOM     92  C   UNL A   1      43.339  28.510  36.414  1.00  0.00     0.059 A 
ATOM     93  C   UNL A   1      42.500  26.960  34.756  1.00  0.00     0.059 A 
ATOM     94  F   UNL A   1      42.321  27.625  32.515  1.00  0.00    -0.206 F 
ATOM     95  C   UNL A   1      42.843  27.252  36.073  1.00  0.00     0.060 A 
BRANCH  95  96
ATOM     96  S   UNL A   1      42.599  26.021  37.373  1.00  0.00     0.124 S 
ATOM     97  O   UNL A   1      43.563  26.443  38.384  1.00  0.00    -0.237 OA
ATOM     98  O   UNL A   1      41.194  26.204  37.725  1.00  0.00    -0.237 OA
ATOM     99  O   UNL A   1      42.906  24.756  36.710  1.00  0.00    -0.744 OA
ENDBRANCH  95  96
ENDBRANCH  63  88
ENDBRANCH  37  38
ENDBRANCH  30  32
ENDBRANCH  29  30
ENDBRANCH  28  29
ENDBRANCH   1  28
TORSDOF 17
ENDMDL
MODEL 3
REMARK VINA RESULT:     -12.6      1.702      2.474
REMARK SMILES Cc1cc(C)c2nc(NS(=O)(=O)c3cc(C(=O)OCCOC(=O)c4ccc(-c5c6nc(c(-c7c(F)cc(S(=O)(=O)[O-])cc7F)c7ccc([nH]7)c(-c7c(F)cc(S(=O)(=O)[O-])cc7F)c7nc(c(-c8c(F)cc(S(=O)(=O)[O-])cc8F)c8ccc5[nH]8)C=C7)C=C6)cc4)ccc3Cl)sc2c1
REMARK SMILES IDX 19 1 18 2 16 3 17 4 15 5 13 6 14 7 92 8 91 9 93 10 90 11
REMARK SMILES IDX 10 12 11 13 12 14 9 15 8 17 1 18 2 19 3 20 96 21 4 22 95 23
REMARK SMILES IDX 5 24 6 25 94 26 7 27 20 28 21 29 22 30 23 31 24 32 25 33
REMARK SMILES IDX 89 34 26 35 88 36 27 37 28 38 29 39 82 40 30 41 87 42 81 43
REMARK SMILES IDX 83 44 31 45 86 46 80 47 79 48 32 50 66 51 45 52 65 53 46 54
REMARK SMILES IDX 49 55 64 56 84 57 47 58 48 59 63 61 85 62 50 63 33 64 34 65
REMARK SMILES IDX 43 66 35 67 36 68 42 69 44 70 37 71 38 72 39 73 40 74 41 75
REMARK SMILES IDX 67 76 68 77 77 78 69 79 70 80 76 81 78 82 71 83 72 84 73 85
REMARK SMILES IDX 74 86 75 87 51 88 52 89 61 90 53 91 54 92 60 93 62 94 55 95
REMARK SMILES IDX 56 96 57 97 58 98 59 99
REMARK H PARENT 9 16 83 49 49 60
REMARK Flexibility Score: inf
ROOT
ATOM      1  C   UNL A   1      39.656  21.901  26.486  1.00  0.00     0.275 C 
ENDROOT
BRANCH   1   2
ATOM      2  O   UNL A   1      38.495  22.623  26.031  1.00  0.00    -0.458 OA
BRANCH   2   3
ATOM      3  C   UNL A   1      37.546  21.909  25.372  1.00  0.00     0.338 C 
ATOM      4  O   UNL A   1      37.674  20.777  24.932  1.00  0.00    -0.246 OA
BRANCH   3   5
ATOM      5  C   UNL A   1      36.245  22.644  25.393  1.00  0.00     0.061 A 
ATOM      6  C   UNL A   1      33.816  22.570  25.645  1.00  0.00     0.107 A 
ATOM      7  C   UNL A   1      35.051  21.913  25.452  1.00  0.00     0.039 A 
ATOM      8  C   UNL A   1      33.790  23.945  25.884  1.00  0.00     0.061 A 
ATOM      9  C   UNL A   1      34.975  24.680  25.755  1.00  0.00     0.023 A 
ATOM     10  Cl  UNL A   1      32.370  24.824  26.312  1.00  0.00    -0.083 Cl
ATOM     11  C   UNL A   1      36.188  24.039  25.485  1.00  0.00     0.017 A 
BRANCH   6  12
ATOM     12  S   UNL A   1      32.344  21.601  25.419  1.00  0.00     0.265 S 
ATOM     13  O   UNL A   1      31.344  22.161  26.303  1.00  0.00    -0.201 OA
ATOM     14  O   UNL A   1      32.733  20.210  25.542  1.00  0.00    -0.201 OA
BRANCH  12  15
ATOM     15  N   UNL A   1      31.760  21.773  23.867  1.00  0.00    -0.255 N 
ATOM     16  H   UNL A   1      31.312  21.002  23.452  1.00  0.00     0.182 HD
BRANCH  15  17
ATOM     17  C   UNL A   1      31.869  22.959  23.118  1.00  0.00     0.197 A 
ATOM     18  C   UNL A   1      33.992  28.615  22.942  1.00  0.00     0.044 C 
ATOM     19  C   UNL A   1      33.086  27.422  22.835  1.00  0.00    -0.049 A 
ATOM     20  C   UNL A   1      31.737  27.514  23.194  1.00  0.00     0.009 A 
ATOM     21  C   UNL A   1      33.612  26.197  22.406  1.00  0.00     0.024 A 
ATOM     22  C   UNL A   1      30.899  26.381  23.240  1.00  0.00    -0.024 A 
ATOM     23  C   UNL A   1      32.792  25.066  22.495  1.00  0.00     0.057 A 
ATOM     24  C   UNL A   1      29.453  26.532  23.612  1.00  0.00     0.047 C 
ATOM     25  C   UNL A   1      31.494  25.120  23.004  1.00  0.00     0.087 A 
ATOM     26  S   UNL A   1      33.112  23.429  22.048  1.00  0.00    -0.096 S 
ATOM     27  N   UNL A   1      30.950  23.877  23.309  1.00  0.00    -0.219 NA
ENDBRANCH  15  17
ENDBRANCH  12  15
ENDBRANCH   6  12
ENDBRANCH   3   5
ENDBRANCH   2   3
ENDBRANCH   1   2
BRANCH   1  28
ATOM     28  C   UNL A   1      40.469  22.765  27.441  1.00  0.00     0.275 C 
BRANCH  28  29
ATOM     29  O   UNL A   1      41.863  22.582  27.200  1.00  0.00    -0.458 OA
BRANCH  29  30
ATOM     30  C   UNL A   1      42.324  23.118  26.049  1.00  0.00     0.338 C 
ATOM     31  O   UNL A   1      42.643  22.519  25.036  1.00  0.00    -0.246 OA
BRANCH  30  32
ATOM     32  C   UNL A   1      42.609  24.540  26.259  1.00  0.00     0.060 A 
ATOM     33  C   UNL A   1      43.455  24.860  27.324  1.00  0.00     0.016 A 
ATOM     34  C   UNL A   1      41.786  25.496  25.646  1.00  0.00     0.016 A 
ATOM     35  C   UNL A   1      43.295  26.085  27.930  1.00  0.00     0.010 A 
ATOM     36  C   UNL A   1      41.629  26.717  26.254  1.00  0.00     0.010 A 
ATOM     37  C   UNL A   1      42.306  26.949  27.446  1.00  0.00    -0.014 A 
BRANCH  37  38
ATOM     38  C   UNL A   1      41.999  28.128  28.227  1.00  0.00     0.031 A 
ATOM     39  C   UNL A   1      43.038  29.178  28.138  1.00  0.00     0.074 A 
ATOM     40  C   UNL A   1      40.829  28.268  28.877  1.00  0.00     0.049 A 
ATOM     41  N   UNL A   1      43.814  29.615  29.072  1.00  0.00    -0.248 NA
ATOM     42  C   UNL A   1      43.360  29.683  26.794  1.00  0.00     0.031 C 
ATOM     43  C   UNL A   1      39.626  27.431  28.804  1.00  0.00     0.029 A 
ATOM     44  N   UNL A   1      40.436  29.282  29.687  1.00  0.00    -0.354 N 
ATOM     45  C   UNL A   1      44.587  30.605  28.476  1.00  0.00     0.074 A 
ATOM     46  C   UNL A   1      44.394  30.482  27.054  1.00  0.00     0.031 C 
ATOM     47  C   UNL A   1      38.581  28.104  29.339  1.00  0.00     0.029 A 
ATOM     48  C   UNL A   1      39.069  29.345  29.917  1.00  0.00     0.049 A 
ATOM     49  H   UNL A   1      41.071  29.922  30.081  1.00  0.00     0.167 HD
ATOM     50  C   UNL A   1      45.146  31.610  29.200  1.00  0.00     0.037 A 
ATOM     51  C   UNL A   1      38.411  30.400  30.461  1.00  0.00     0.037 A 
ATOM     52  C   UNL A   1      45.210  31.294  30.602  1.00  0.00     0.049 A 
ATOM     53  C   UNL A   1      39.427  31.213  31.187  1.00  0.00     0.074 A 
ATOM     54  C   UNL A   1      45.841  30.314  31.342  1.00  0.00     0.029 A 
ATOM     55  N   UNL A   1      44.241  31.816  31.424  1.00  0.00    -0.354 N 
ATOM     56  N   UNL A   1      40.067  30.801  32.248  1.00  0.00    -0.248 NA
ATOM     57  C   UNL A   1      40.065  32.302  30.460  1.00  0.00     0.031 C 
ATOM     58  C   UNL A   1      44.914  29.970  32.371  1.00  0.00     0.029 A 
ATOM     59  C   UNL A   1      43.796  30.793  32.227  1.00  0.00     0.049 A 
ATOM     60  H   UNL A   1      43.924  32.747  31.437  1.00  0.00     0.167 HD
ATOM     61  C   UNL A   1      41.361  31.283  32.098  1.00  0.00     0.074 A 
ATOM     62  C   UNL A   1      41.278  32.261  31.016  1.00  0.00     0.031 C 
ATOM     63  C   UNL A   1      42.426  30.651  32.672  1.00  0.00     0.037 A 
BRANCH  50  64
ATOM     64  C   UNL A   1      45.305  33.006  28.662  1.00  0.00     0.058 A 
ATOM     65  C   UNL A   1      46.581  33.586  28.576  1.00  0.00     0.135 A 
ATOM     66  C   UNL A   1      44.212  33.885  28.477  1.00  0.00     0.135 A 
ATOM     67  F   UNL A   1      47.683  32.842  28.761  1.00  0.00    -0.206 F 
ATOM     68  C   UNL A   1      46.760  34.955  28.367  1.00  0.00     0.059 A 
ATOM     69  C   UNL A   1      44.367  35.238  28.210  1.00  0.00     0.059 A 
ATOM     70  F   UNL A   1      42.943  33.491  28.650  1.00  0.00    -0.206 F 
ATOM     71  C   UNL A   1      45.644  35.773  28.198  1.00  0.00     0.060 A 
BRANCH  71  72
ATOM     72  S   UNL A   1      45.864  37.553  28.048  1.00  0.00     0.124 S 
ATOM     73  O   UNL A   1      46.940  37.793  29.003  1.00  0.00    -0.237 OA
ATOM     74  O   UNL A   1      46.216  37.696  26.639  1.00  0.00    -0.237 OA
ATOM     75  O   UNL A   1      44.558  38.087  28.420  1.00  0.00    -0.744 OA
ENDBRANCH  71  72
ENDBRANCH  50  64
BRANCH  51  76
ATOM     76  C   UNL A   1      37.112  30.982  30.021  1.00  0.00     0.058 A 
ATOM     77  C   UNL A   1      36.222  31.528  30.962  1.00  0.00     0.135 A 
ATOM     78  C   UNL A   1      36.863  31.305  28.670  1.00  0.00     0.135 A 
ATOM     79  F   UNL A   1      36.389  31.280  32.271  1.00  0.00    -0.206 F 
ATOM     80  C   UNL A   1      35.194  32.405  30.598  1.00  0.00     0.059 A 
ATOM     81  C   UNL A   1      35.839  32.169  28.283  1.00  0.00     0.059 A 
ATOM     82  F   UNL A   1      37.670  30.869  27.692  1.00  0.00    -0.206 F 
ATOM     83  C   UNL A   1      35.031  32.745  29.256  1.00  0.00     0.060 A 
BRANCH  83  84
ATOM     84  S   UNL A   1      33.847  34.034  28.806  1.00  0.00     0.124 S 
ATOM     85  O   UNL A   1      34.710  35.035  28.187  1.00  0.00    -0.237 OA
ATOM     86  O   UNL A   1      32.948  33.322  27.904  1.00  0.00    -0.237 OA
ATOM     87  O   UNL A   1      33.263  34.421  30.087  1.00  0.00    -0.744 OA
ENDBRANCH  83  84
ENDBRANCH  51  76
BRANCH  63  88
ATOM     88  C   UNL A   1      42.143  29.564  33.681  1.00  0.00     0.058 A 
ATOM     89  C   UNL A   1      41.929  28.213  33.352  1.00  0.00     0.135 A 
ATOM     90  C   UNL A   1      42.225  29.882  35.044  1.00  0.00     0.135 A 
ATOM     91  F   UNL A   1      41.942  27.805  32.075  1.00  0.00    -0.206 F 
ATOM     92  C   UNL A   1      41.755  27.233  34.331  1.00  0.00     0.059 A 
ATOM     93  C   UNL A   1      42.085  28.915  36.038  1.00  0.00     0.059 A 
ATOM     94  F   UNL A   1      42.491  31.142  35.425  1.00  0.00    -0.206 F 
ATOM     95  C   UNL A   1      41.834  27.595  35.675  1.00  0.00     0.060 A 
BRANCH  95  96
ATOM     96  S   UNL A   1      41.664  26.318  36.942  1.00  0.00     0.124 S 
ATOM     97  O   UNL A   1      42.872  26.508  37.738  1.00  0.00    -0.237 OA
ATOM     98  O   UNL A   1      40.411  26.685  37.596  1.00  0.00    -0.237 OA
ATOM     99  O   UNL A   1      41.614  25.076  36.173  1.00  0.00    -0.744 OA
ENDBRANCH  95  96
ENDBRANCH  63  88
ENDBRANCH  37  38
ENDBRANCH  30  32
ENDBRANCH  29  30
ENDBRANCH  28  29
ENDBRANCH   1  28
TORSDOF 17
ENDMDL
