MODEL 1
REMARK VINA RESULT:      -9.8      0.000      0.000
REMARK SMILES O=C(OCCOC(=O)[C@H](O)Cc1ccc(O)cc1)c1ccc(-c2c3nc(c(-c4c(F)cc(S(=O)(=O)[O-])cc4F)c4ccc([nH]4)c(-c4c(F)cc(S(=O)(=O)[O-])cc4F)c4nc(c(-c5c(F)cc(S(=O)(=O)[O-])cc5F)c5ccc2[nH]5)C=C4)C=C3)cc1
REMARK SMILES IDX 4 1 3 2 2 3 1 4 19 5 20 6 84 7 21 8 83 9 22 10 23 11 24 12
REMARK SMILES IDX 77 13 25 14 82 15 76 16 78 17 26 18 81 19 75 20 74 21 27 23
REMARK SMILES IDX 61 24 40 25 60 26 41 27 44 28 59 29 79 30 42 31 43 32 58 34
REMARK SMILES IDX 80 35 45 36 28 37 29 38 38 39 30 40 31 41 37 42 39 43 32 44
REMARK SMILES IDX 33 45 34 46 35 47 36 48 62 49 63 50 72 51 64 52 65 53 71 54
REMARK SMILES IDX 73 55 66 56 67 57 68 58 69 59 70 60 46 61 47 62 56 63 48 64
REMARK SMILES IDX 49 65 55 66 57 67 50 68 51 69 52 70 53 71 54 72 5 73 6 74
REMARK SMILES IDX 7 75 8 76 9 77 11 78 12 79 13 80 18 81 14 82 17 83 15 84
REMARK SMILES IDX 16 85 10 87
REMARK H PARENT 78 22 44 33 16 86 10 88
REMARK Flexibility Score: inf
ROOT
ATOM      1  C   UNL A   1      33.256  33.858  28.206  1.00  0.00     0.275 C 
ENDROOT
BRANCH   1   2
ATOM      2  O   UNL A   1      34.449  33.241  27.687  1.00  0.00    -0.458 OA
BRANCH   2   3
ATOM      3  C   UNL A   1      34.774  31.923  27.672  1.00  0.00     0.338 C 
ATOM      4  O   UNL A   1      34.000  31.113  27.170  1.00  0.00    -0.246 OA
BRANCH   3   5
ATOM      5  C   UNL A   1      35.967  31.404  28.398  1.00  0.00     0.060 A 
ATOM      6  C   UNL A   1      36.061  30.129  28.966  1.00  0.00     0.016 A 
ATOM      7  C   UNL A   1      37.054  32.282  28.528  1.00  0.00     0.016 A 
ATOM      8  C   UNL A   1      37.255  29.694  29.554  1.00  0.00     0.010 A 
ATOM      9  C   UNL A   1      38.237  31.862  29.137  1.00  0.00     0.010 A 
ATOM     10  C   UNL A   1      38.351  30.556  29.639  1.00  0.00    -0.014 A 
BRANCH  10  11
ATOM     11  C   UNL A   1      39.567  30.178  30.395  1.00  0.00     0.031 A 
ATOM     12  C   UNL A   1      40.322  28.960  29.943  1.00  0.00     0.074 A 
ATOM     13  C   UNL A   1      39.953  30.865  31.489  1.00  0.00     0.049 A 
ATOM     14  N   UNL A   1      41.345  28.374  30.501  1.00  0.00    -0.248 NA
ATOM     15  C   UNL A   1      39.894  28.346  28.672  1.00  0.00     0.031 C 
ATOM     16  C   UNL A   1      39.359  32.111  31.977  1.00  0.00     0.029 A 
ATOM     17  N   UNL A   1      40.885  30.550  32.450  1.00  0.00    -0.354 N 
ATOM     18  C   UNL A   1      41.736  27.382  29.612  1.00  0.00     0.074 A 
ATOM     19  C   UNL A   1      40.785  27.377  28.525  1.00  0.00     0.031 C 
ATOM     20  C   UNL A   1      39.812  32.355  33.221  1.00  0.00     0.029 A 
ATOM     21  C   UNL A   1      40.734  31.291  33.604  1.00  0.00     0.049 A 
ATOM     22  H   UNL A   1      41.585  29.869  32.328  1.00  0.00     0.167 HD
ATOM     23  C   UNL A   1      42.832  26.594  29.676  1.00  0.00     0.037 A 
ATOM     24  C   UNL A   1      41.227  31.071  34.840  1.00  0.00     0.037 A 
ATOM     25  C   UNL A   1      43.738  26.594  30.792  1.00  0.00     0.049 A 
ATOM     26  C   UNL A   1      42.241  29.971  35.018  1.00  0.00     0.074 A 
ATOM     27  C   UNL A   1      44.939  25.926  30.937  1.00  0.00     0.029 A 
ATOM     28  N   UNL A   1      43.510  27.278  31.977  1.00  0.00    -0.354 N 
ATOM     29  N   UNL A   1      42.703  29.131  34.122  1.00  0.00    -0.248 NA
ATOM     30  C   UNL A   1      42.842  29.822  36.350  1.00  0.00     0.031 C 
ATOM     31  C   UNL A   1      45.410  26.163  32.233  1.00  0.00     0.029 A 
ATOM     32  C   UNL A   1      44.522  27.010  32.879  1.00  0.00     0.049 A 
ATOM     33  H   UNL A   1      42.740  27.866  32.150  1.00  0.00     0.167 HD
ATOM     34  C   UNL A   1      43.717  28.423  34.754  1.00  0.00     0.074 A 
ATOM     35  C   UNL A   1      43.759  28.890  36.126  1.00  0.00     0.031 C 
ATOM     36  C   UNL A   1      44.569  27.508  34.230  1.00  0.00     0.037 A 
BRANCH  23  37
ATOM     37  C   UNL A   1      43.137  25.722  28.496  1.00  0.00     0.058 A 
ATOM     38  C   UNL A   1      43.755  26.253  27.351  1.00  0.00     0.135 A 
ATOM     39  C   UNL A   1      42.873  24.344  28.520  1.00  0.00     0.135 A 
ATOM     40  F   UNL A   1      44.013  27.568  27.270  1.00  0.00    -0.206 F 
ATOM     41  C   UNL A   1      44.094  25.451  26.268  1.00  0.00     0.059 A 
ATOM     42  C   UNL A   1      43.219  23.519  27.453  1.00  0.00     0.059 A 
ATOM     43  F   UNL A   1      42.276  23.790  29.585  1.00  0.00    -0.206 F 
ATOM     44  C   UNL A   1      43.827  24.082  26.330  1.00  0.00     0.060 A 
BRANCH  44  45
ATOM     45  S   UNL A   1      44.312  23.052  24.930  1.00  0.00     0.124 S 
ATOM     46  O   UNL A   1      43.037  22.874  24.242  1.00  0.00    -0.237 OA
ATOM     47  O   UNL A   1      45.287  23.896  24.245  1.00  0.00    -0.237 OA
ATOM     48  O   UNL A   1      44.856  21.854  25.560  1.00  0.00    -0.744 OA
ENDBRANCH  44  45
ENDBRANCH  23  37
BRANCH  24  49
ATOM     49  C   UNL A   1      40.736  31.832  36.022  1.00  0.00     0.058 A 
ATOM     50  C   UNL A   1      39.482  31.595  36.600  1.00  0.00     0.135 A 
ATOM     51  C   UNL A   1      41.490  32.901  36.533  1.00  0.00     0.135 A 
ATOM     52  F   UNL A   1      38.710  30.603  36.137  1.00  0.00    -0.206 F 
ATOM     53  C   UNL A   1      38.984  32.409  37.618  1.00  0.00     0.059 A 
ATOM     54  C   UNL A   1      41.025  33.715  37.560  1.00  0.00     0.059 A 
ATOM     55  F   UNL A   1      42.687  33.184  36.007  1.00  0.00    -0.206 F 
ATOM     56  C   UNL A   1      39.760  33.473  38.085  1.00  0.00     0.060 A 
BRANCH  56  57
ATOM     57  S   UNL A   1      39.091  34.541  39.380  1.00  0.00     0.124 S 
ATOM     58  O   UNL A   1      38.944  35.807  38.671  1.00  0.00    -0.237 OA
ATOM     59  O   UNL A   1      37.849  33.856  39.726  1.00  0.00    -0.237 OA
ATOM     60  O   UNL A   1      40.124  34.512  40.411  1.00  0.00    -0.744 OA
ENDBRANCH  56  57
ENDBRANCH  24  49
BRANCH  36  61
ATOM     61  C   UNL A   1      45.695  27.037  35.100  1.00  0.00     0.058 A 
ATOM     62  C   UNL A   1      45.608  25.869  35.866  1.00  0.00     0.135 A 
ATOM     63  C   UNL A   1      46.907  27.749  35.113  1.00  0.00     0.135 A 
ATOM     64  F   UNL A   1      44.464  25.166  35.899  1.00  0.00    -0.206 F 
ATOM     65  C   UNL A   1      46.684  25.421  36.626  1.00  0.00     0.059 A 
ATOM     66  C   UNL A   1      48.003  27.306  35.843  1.00  0.00     0.059 A 
ATOM     67  F   UNL A   1      47.040  28.873  34.391  1.00  0.00    -0.206 F 
ATOM     68  C   UNL A   1      47.879  26.145  36.603  1.00  0.00     0.060 A 
BRANCH  68  69
ATOM     69  S   UNL A   1      49.289  25.527  37.544  1.00  0.00     0.124 S 
ATOM     70  O   UNL A   1      50.388  26.283  36.953  1.00  0.00    -0.237 OA
ATOM     71  O   UNL A   1      48.934  25.887  38.914  1.00  0.00    -0.237 OA
ATOM     72  O   UNL A   1      49.286  24.095  37.260  1.00  0.00    -0.744 OA
ENDBRANCH  68  69
ENDBRANCH  36  61
ENDBRANCH  10  11
ENDBRANCH   3   5
ENDBRANCH   2   3
ENDBRANCH   1   2
BRANCH   1  73
ATOM     73  C   UNL A   1      33.470  35.170  28.965  1.00  0.00     0.274 C 
BRANCH  73  74
ATOM     74  O   UNL A   1      32.557  35.307  30.062  1.00  0.00    -0.460 OA
BRANCH  74  75
ATOM     75  C   UNL A   1      32.773  36.352  30.906  1.00  0.00     0.335 C 
ATOM     76  O   UNL A   1      32.896  37.522  30.553  1.00  0.00    -0.249 OA
BRANCH  75  77
ATOM     77  C   UNL A   1      32.805  35.899  32.372  1.00  0.00     0.228 C 
BRANCH  77  78
ATOM     78  C   UNL A   1      34.245  35.808  32.894  1.00  0.00     0.079 C 
BRANCH  78  79
ATOM     79  C   UNL A   1      34.903  34.438  32.888  1.00  0.00    -0.045 A 
ATOM     80  C   UNL A   1      34.749  33.486  31.876  1.00  0.00     0.007 A 
ATOM     81  C   UNL A   1      35.681  34.078  33.997  1.00  0.00     0.007 A 
ATOM     82  C   UNL A   1      35.343  32.220  31.982  1.00  0.00     0.046 A 
ATOM     83  C   UNL A   1      36.321  32.843  34.086  1.00  0.00     0.046 A 
ATOM     84  C   UNL A   1      36.122  31.909  33.090  1.00  0.00     0.115 A 
BRANCH  84  85
ATOM     85  O   UNL A   1      36.688  30.681  33.247  1.00  0.00    -0.508 OA
ATOM     86  H   UNL A   1      36.353  29.946  32.772  1.00  0.00     0.293 HD
ENDBRANCH  84  85
ENDBRANCH  78  79
ENDBRANCH  77  78
BRANCH  77  87
ATOM     87  O   UNL A   1      32.049  36.828  33.161  1.00  0.00    -0.381 OA
ATOM     88  H   UNL A   1      32.211  36.659  34.102  1.00  0.00     0.211 HD
ENDBRANCH  77  87
ENDBRANCH  75  77
ENDBRANCH  74  75
ENDBRANCH  73  74
ENDBRANCH   1  73
TORSDOF 18
ENDMDL
MODEL 2
REMARK VINA RESULT:      -9.8      4.679     11.004
REMARK SMILES O=C(OCCOC(=O)[C@H](O)Cc1ccc(O)cc1)c1ccc(-c2c3nc(c(-c4c(F)cc(S(=O)(=O)[O-])cc4F)c4ccc([nH]4)c(-c4c(F)cc(S(=O)(=O)[O-])cc4F)c4nc(c(-c5c(F)cc(S(=O)(=O)[O-])cc5F)c5ccc2[nH]5)C=C4)C=C3)cc1
REMARK SMILES IDX 4 1 3 2 2 3 1 4 19 5 20 6 84 7 21 8 83 9 22 10 23 11 24 12
REMARK SMILES IDX 77 13 25 14 82 15 76 16 78 17 26 18 81 19 75 20 74 21 27 23
REMARK SMILES IDX 61 24 40 25 60 26 41 27 44 28 59 29 79 30 42 31 43 32 58 34
REMARK SMILES IDX 80 35 45 36 28 37 29 38 38 39 30 40 31 41 37 42 39 43 32 44
REMARK SMILES IDX 33 45 34 46 35 47 36 48 62 49 63 50 72 51 64 52 65 53 71 54
REMARK SMILES IDX 73 55 66 56 67 57 68 58 69 59 70 60 46 61 47 62 56 63 48 64
REMARK SMILES IDX 49 65 55 66 57 67 50 68 51 69 52 70 53 71 54 72 5 73 6 74
REMARK SMILES IDX 7 75 8 76 9 77 11 78 12 79 13 80 18 81 14 82 17 83 15 84
REMARK SMILES IDX 16 85 10 87
REMARK H PARENT 78 22 44 33 16 86 10 88
REMARK Flexibility Score: inf
ROOT
ATOM      1  C   UNL A   1      40.348  22.108  26.229  1.00  0.00     0.275 C 
ENDROOT
BRANCH   1   2
ATOM      2  O   UNL A   1      40.086  23.424  26.752  1.00  0.00    -0.458 OA
BRANCH   2   3
ATOM      3  C   UNL A   1      40.919  24.496  26.784  1.00  0.00     0.338 C 
ATOM      4  O   UNL A   1      41.884  24.537  26.027  1.00  0.00    -0.246 OA
BRANCH   3   5
ATOM      5  C   UNL A   1      40.795  25.550  27.829  1.00  0.00     0.060 A 
ATOM      6  C   UNL A   1      39.654  25.766  28.610  1.00  0.00     0.016 A 
ATOM      7  C   UNL A   1      41.904  26.390  28.009  1.00  0.00     0.016 A 
ATOM      8  C   UNL A   1      39.658  26.725  29.631  1.00  0.00     0.010 A 
ATOM      9  C   UNL A   1      41.902  27.366  29.007  1.00  0.00     0.010 A 
ATOM     10  C   UNL A   1      40.782  27.527  29.838  1.00  0.00    -0.014 A 
BRANCH  10  11
ATOM     11  C   UNL A   1      40.755  28.652  30.800  1.00  0.00     0.031 A 
ATOM     12  C   UNL A   1      41.432  28.454  32.127  1.00  0.00     0.074 A 
ATOM     13  C   UNL A   1      40.095  29.794  30.524  1.00  0.00     0.049 A 
ATOM     14  N   UNL A   1      41.452  29.246  33.165  1.00  0.00    -0.248 NA
ATOM     15  C   UNL A   1      42.227  27.223  32.292  1.00  0.00     0.031 C 
ATOM     16  C   UNL A   1      39.475  30.142  29.244  1.00  0.00     0.029 A 
ATOM     17  N   UNL A   1      39.749  30.841  31.347  1.00  0.00    -0.354 N 
ATOM     18  C   UNL A   1      42.325  28.653  34.067  1.00  0.00     0.074 A 
ATOM     19  C   UNL A   1      42.739  27.389  33.502  1.00  0.00     0.031 C 
ATOM     20  C   UNL A   1      38.685  31.219  29.417  1.00  0.00     0.029 A 
ATOM     21  C   UNL A   1      38.759  31.638  30.812  1.00  0.00     0.049 A 
ATOM     22  H   UNL A   1      40.165  31.003  32.225  1.00  0.00     0.167 HD
ATOM     23  C   UNL A   1      42.784  29.158  35.233  1.00  0.00     0.037 A 
ATOM     24  C   UNL A   1      37.958  32.538  31.417  1.00  0.00     0.037 A 
ATOM     25  C   UNL A   1      42.321  30.401  35.789  1.00  0.00     0.049 A 
ATOM     26  C   UNL A   1      38.250  32.906  32.848  1.00  0.00     0.074 A 
ATOM     27  C   UNL A   1      42.776  31.077  36.905  1.00  0.00     0.029 A 
ATOM     28  N   UNL A   1      41.258  31.131  35.279  1.00  0.00    -0.354 N 
ATOM     29  N   UNL A   1      39.179  32.428  33.642  1.00  0.00    -0.248 NA
ATOM     30  C   UNL A   1      37.431  33.967  33.449  1.00  0.00     0.031 C 
ATOM     31  C   UNL A   1      41.953  32.191  37.100  1.00  0.00     0.029 A 
ATOM     32  C   UNL A   1      41.010  32.227  36.083  1.00  0.00     0.049 A 
ATOM     33  H   UNL A   1      40.755  30.903  34.465  1.00  0.00     0.167 HD
ATOM     34  C   UNL A   1      39.121  33.198  34.798  1.00  0.00     0.074 A 
ATOM     35  C   UNL A   1      38.026  34.130  34.623  1.00  0.00     0.031 C 
ATOM     36  C   UNL A   1      39.937  33.167  35.880  1.00  0.00     0.037 A 
BRANCH  23  37
ATOM     37  C   UNL A   1      43.867  28.406  35.945  1.00  0.00     0.058 A 
ATOM     38  C   UNL A   1      45.219  28.727  35.739  1.00  0.00     0.135 A 
ATOM     39  C   UNL A   1      43.565  27.402  36.878  1.00  0.00     0.135 A 
ATOM     40  F   UNL A   1      45.562  29.667  34.844  1.00  0.00    -0.206 F 
ATOM     41  C   UNL A   1      46.235  28.078  36.429  1.00  0.00     0.059 A 
ATOM     42  C   UNL A   1      44.567  26.750  37.593  1.00  0.00     0.059 A 
ATOM     43  F   UNL A   1      42.290  27.051  37.104  1.00  0.00    -0.206 F 
ATOM     44  C   UNL A   1      45.899  27.092  37.359  1.00  0.00     0.060 A 
BRANCH  44  45
ATOM     45  S   UNL A   1      47.231  26.288  38.274  1.00  0.00     0.124 S 
ATOM     46  O   UNL A   1      46.584  26.013  39.553  1.00  0.00    -0.237 OA
ATOM     47  O   UNL A   1      47.515  25.120  37.446  1.00  0.00    -0.237 OA
ATOM     48  O   UNL A   1      48.282  27.300  38.307  1.00  0.00    -0.744 OA
ENDBRANCH  44  45
ENDBRANCH  23  37
BRANCH  24  49
ATOM     49  C   UNL A   1      36.765  33.106  30.729  1.00  0.00     0.058 A 
ATOM     50  C   UNL A   1      36.862  34.118  29.766  1.00  0.00     0.135 A 
ATOM     51  C   UNL A   1      35.474  32.705  31.114  1.00  0.00     0.135 A 
ATOM     52  F   UNL A   1      38.069  34.555  29.378  1.00  0.00    -0.206 F 
ATOM     53  C   UNL A   1      35.728  34.731  29.235  1.00  0.00     0.059 A 
ATOM     54  C   UNL A   1      34.326  33.286  30.586  1.00  0.00     0.059 A 
ATOM     55  F   UNL A   1      35.320  31.754  32.043  1.00  0.00    -0.206 F 
ATOM     56  C   UNL A   1      34.463  34.314  29.658  1.00  0.00     0.060 A 
BRANCH  56  57
ATOM     57  S   UNL A   1      33.001  35.137  28.990  1.00  0.00     0.124 S 
ATOM     58  O   UNL A   1      32.205  35.348  30.193  1.00  0.00    -0.237 OA
ATOM     59  O   UNL A   1      33.578  36.336  28.387  1.00  0.00    -0.237 OA
ATOM     60  O   UNL A   1      32.466  34.164  28.042  1.00  0.00    -0.744 OA
ENDBRANCH  56  57
ENDBRANCH  24  49
BRANCH  36  61
ATOM     61  C   UNL A   1      39.758  34.243  36.908  1.00  0.00     0.058 A 
ATOM     62  C   UNL A   1      38.995  34.049  38.066  1.00  0.00     0.135 A 
ATOM     63  C   UNL A   1      40.419  35.473  36.748  1.00  0.00     0.135 A 
ATOM     64  F   UNL A   1      38.331  32.897  38.254  1.00  0.00    -0.206 F 
ATOM     65  C   UNL A   1      38.885  35.043  39.033  1.00  0.00     0.059 A 
ATOM     66  C   UNL A   1      40.345  36.469  37.713  1.00  0.00     0.059 A 
ATOM     67  F   UNL A   1      41.165  35.703  35.657  1.00  0.00    -0.206 F 
ATOM     68  C   UNL A   1      39.569  36.248  38.849  1.00  0.00     0.060 A 
BRANCH  68  69
ATOM     69  S   UNL A   1      39.470  37.510  40.134  1.00  0.00     0.124 S 
ATOM     70  O   UNL A   1      40.853  37.970  40.199  1.00  0.00    -0.237 OA
ATOM     71  O   UNL A   1      38.511  38.457  39.571  1.00  0.00    -0.237 OA
ATOM     72  O   UNL A   1      38.997  36.771  41.301  1.00  0.00    -0.744 OA
ENDBRANCH  68  69
ENDBRANCH  36  61
ENDBRANCH  10  11
ENDBRANCH   3   5
ENDBRANCH   2   3
ENDBRANCH   1   2
BRANCH   1  73
ATOM     73  C   UNL A   1      39.136  21.178  26.149  1.00  0.00     0.274 C 
BRANCH  73  74
ATOM     74  O   UNL A   1      38.043  21.784  25.444  1.00  0.00    -0.460 OA
BRANCH  74  75
ATOM     75  C   UNL A   1      36.953  21.001  25.225  1.00  0.00     0.335 C 
ATOM     76  O   UNL A   1      36.995  19.825  24.875  1.00  0.00    -0.249 OA
BRANCH  75  77
ATOM     77  C   UNL A   1      35.648  21.756  25.509  1.00  0.00     0.228 C 
BRANCH  77  78
ATOM     78  C   UNL A   1      34.526  20.792  25.917  1.00  0.00     0.079 C 
BRANCH  78  79
ATOM     79  C   UNL A   1      33.782  20.076  24.802  1.00  0.00    -0.045 A 
ATOM     80  C   UNL A   1      32.870  20.685  23.935  1.00  0.00     0.007 A 
ATOM     81  C   UNL A   1      33.983  18.696  24.660  1.00  0.00     0.007 A 
ATOM     82  C   UNL A   1      32.180  19.933  22.973  1.00  0.00     0.046 A 
ATOM     83  C   UNL A   1      33.342  17.951  23.671  1.00  0.00     0.046 A 
ATOM     84  C   UNL A   1      32.420  18.570  22.852  1.00  0.00     0.115 A 
BRANCH  84  85
ATOM     85  O   UNL A   1      31.748  17.799  21.955  1.00  0.00    -0.508 OA
ATOM     86  H   UNL A   1      31.328  18.197  21.217  1.00  0.00     0.293 HD
ENDBRANCH  84  85
ENDBRANCH  78  79
ENDBRANCH  77  78
BRANCH  77  87
ATOM     87  O   UNL A   1      35.883  22.713  26.551  1.00  0.00    -0.381 OA
ATOM     88  H   UNL A   1      36.348  22.283  27.286  1.00  0.00     0.211 HD
ENDBRANCH  77  87
ENDBRANCH  75  77
ENDBRANCH  74  75
ENDBRANCH  73  74
ENDBRANCH   1  73
TORSDOF 18
ENDMDL
MODEL 3
REMARK VINA RESULT:      -9.8      1.841      8.742
REMARK SMILES O=C(OCCOC(=O)[C@H](O)Cc1ccc(O)cc1)c1ccc(-c2c3nc(c(-c4c(F)cc(S(=O)(=O)[O-])cc4F)c4ccc([nH]4)c(-c4c(F)cc(S(=O)(=O)[O-])cc4F)c4nc(c(-c5c(F)cc(S(=O)(=O)[O-])cc5F)c5ccc2[nH]5)C=C4)C=C3)cc1
REMARK SMILES IDX 4 1 3 2 2 3 1 4 19 5 20 6 84 7 21 8 83 9 22 10 23 11 24 12
REMARK SMILES IDX 77 13 25 14 82 15 76 16 78 17 26 18 81 19 75 20 74 21 27 23
REMARK SMILES IDX 61 24 40 25 60 26 41 27 44 28 59 29 79 30 42 31 43 32 58 34
REMARK SMILES IDX 80 35 45 36 28 37 29 38 38 39 30 40 31 41 37 42 39 43 32 44
REMARK SMILES IDX 33 45 34 46 35 47 36 48 62 49 63 50 72 51 64 52 65 53 71 54
REMARK SMILES IDX 73 55 66 56 67 57 68 58 69 59 70 60 46 61 47 62 56 63 48 64
REMARK SMILES IDX 49 65 55 66 57 67 50 68 51 69 52 70 53 71 54 72 5 73 6 74
REMARK SMILES IDX 7 75 8 76 9 77 11 78 12 79 13 80 18 81 14 82 17 83 15 84
REMARK SMILES IDX 16 85 10 87
REMARK H PARENT 78 22 44 33 16 86 10 88
REMARK Flexibility Score: inf
ROOT
ATOM      1  C   UNL A   1      34.474  32.911  28.064  1.00  0.00     0.275 C 
ENDROOT
BRANCH   1   2
ATOM      2  O   UNL A   1      33.891  31.737  27.468  1.00  0.00    -0.458 OA
BRANCH   2   3
ATOM      3  C   UNL A   1      34.471  30.528  27.254  1.00  0.00     0.338 C 
ATOM      4  O   UNL A   1      33.913  29.706  26.532  1.00  0.00    -0.246 OA
BRANCH   3   5
ATOM      5  C   UNL A   1      35.684  30.100  28.005  1.00  0.00     0.060 A 
ATOM      6  C   UNL A   1      35.692  29.708  29.348  1.00  0.00     0.016 A 
ATOM      7  C   UNL A   1      36.899  30.123  27.302  1.00  0.00     0.016 A 
ATOM      8  C   UNL A   1      36.867  29.237  29.948  1.00  0.00     0.010 A 
ATOM      9  C   UNL A   1      38.077  29.681  27.905  1.00  0.00     0.010 A 
ATOM     10  C   UNL A   1      38.064  29.217  29.230  1.00  0.00    -0.014 A 
BRANCH  10  11
ATOM     11  C   UNL A   1      39.347  28.877  29.886  1.00  0.00     0.031 A 
ATOM     12  C   UNL A   1      39.940  29.886  30.828  1.00  0.00     0.074 A 
ATOM     13  C   UNL A   1      39.994  27.729  29.605  1.00  0.00     0.049 A 
ATOM     14  N   UNL A   1      41.095  29.863  31.435  1.00  0.00    -0.248 NA
ATOM     15  C   UNL A   1      39.105  31.054  31.165  1.00  0.00     0.031 C 
ATOM     16  C   UNL A   1      39.484  26.633  28.778  1.00  0.00     0.029 A 
ATOM     17  N   UNL A   1      41.278  27.337  29.908  1.00  0.00    -0.354 N 
ATOM     18  C   UNL A   1      41.090  30.960  32.286  1.00  0.00     0.074 A 
ATOM     19  C   UNL A   1      39.863  31.685  32.049  1.00  0.00     0.031 C 
ATOM     20  C   UNL A   1      40.495  25.788  28.498  1.00  0.00     0.029 A 
ATOM     21  C   UNL A   1      41.711  26.279  29.136  1.00  0.00     0.049 A 
ATOM     22  H   UNL A   1      41.828  27.766  30.603  1.00  0.00     0.167 HD
ATOM     23  C   UNL A   1      42.005  31.288  33.225  1.00  0.00     0.037 A 
ATOM     24  C   UNL A   1      42.963  25.828  28.917  1.00  0.00     0.037 A 
ATOM     25  C   UNL A   1      43.236  30.570  33.409  1.00  0.00     0.049 A 
ATOM     26  C   UNL A   1      44.083  26.405  29.742  1.00  0.00     0.074 A 
ATOM     27  C   UNL A   1      44.199  30.730  34.387  1.00  0.00     0.029 A 
ATOM     28  N   UNL A   1      43.688  29.573  32.557  1.00  0.00    -0.354 N 
ATOM     29  N   UNL A   1      44.028  27.352  30.649  1.00  0.00    -0.248 NA
ATOM     30  C   UNL A   1      45.419  25.821  29.562  1.00  0.00     0.031 C 
ATOM     31  C   UNL A   1      45.259  29.865  34.095  1.00  0.00     0.029 A 
ATOM     32  C   UNL A   1      44.938  29.140  32.957  1.00  0.00     0.049 A 
ATOM     33  H   UNL A   1      43.192  29.225  31.782  1.00  0.00     0.167 HD
ATOM     34  C   UNL A   1      45.295  27.408  31.216  1.00  0.00     0.074 A 
ATOM     35  C   UNL A   1      46.111  26.442  30.507  1.00  0.00     0.031 C 
ATOM     36  C   UNL A   1      45.726  28.154  32.263  1.00  0.00     0.037 A 
BRANCH  23  37
ATOM     37  C   UNL A   1      41.685  32.424  34.149  1.00  0.00     0.058 A 
ATOM     38  C   UNL A   1      42.083  33.735  33.839  1.00  0.00     0.135 A 
ATOM     39  C   UNL A   1      40.930  32.225  35.315  1.00  0.00     0.135 A 
ATOM     40  F   UNL A   1      42.822  33.977  32.744  1.00  0.00    -0.206 F 
ATOM     41  C   UNL A   1      41.750  34.810  34.655  1.00  0.00     0.059 A 
ATOM     42  C   UNL A   1      40.571  33.289  36.138  1.00  0.00     0.059 A 
ATOM     43  F   UNL A   1      40.534  30.991  35.660  1.00  0.00    -0.206 F 
ATOM     44  C   UNL A   1      40.989  34.577  35.801  1.00  0.00     0.060 A 
BRANCH  44  45
ATOM     45  S   UNL A   1      40.533  35.991  36.827  1.00  0.00     0.124 S 
ATOM     46  O   UNL A   1      41.842  36.484  37.244  1.00  0.00    -0.237 OA
ATOM     47  O   UNL A   1      39.810  36.840  35.884  1.00  0.00    -0.237 OA
ATOM     48  O   UNL A   1      39.720  35.399  37.884  1.00  0.00    -0.744 OA
ENDBRANCH  44  45
ENDBRANCH  23  37
BRANCH  24  49
ATOM     49  C   UNL A   1      43.260  24.844  27.840  1.00  0.00     0.058 A 
ATOM     50  C   UNL A   1      43.194  23.460  28.046  1.00  0.00     0.135 A 
ATOM     51  C   UNL A   1      43.725  25.288  26.590  1.00  0.00     0.135 A 
ATOM     52  F   UNL A   1      42.779  22.981  29.227  1.00  0.00    -0.206 F 
ATOM     53  C   UNL A   1      43.608  22.556  27.068  1.00  0.00     0.059 A 
ATOM     54  C   UNL A   1      44.126  24.408  25.590  1.00  0.00     0.059 A 
ATOM     55  F   UNL A   1      43.826  26.599  26.344  1.00  0.00    -0.206 F 
ATOM     56  C   UNL A   1      44.081  23.041  25.845  1.00  0.00     0.060 A 
BRANCH  56  57
ATOM     57  S   UNL A   1      44.647  21.864  24.597  1.00  0.00     0.124 S 
ATOM     58  O   UNL A   1      44.282  22.546  23.362  1.00  0.00    -0.237 OA
ATOM     59  O   UNL A   1      46.076  21.782  24.884  1.00  0.00    -0.237 OA
ATOM     60  O   UNL A   1      43.885  20.656  24.900  1.00  0.00    -0.744 OA
ENDBRANCH  56  57
ENDBRANCH  24  49
BRANCH  36  61
ATOM     61  C   UNL A   1      47.102  27.876  32.787  1.00  0.00     0.058 A 
ATOM     62  C   UNL A   1      47.357  26.854  33.710  1.00  0.00     0.135 A 
ATOM     63  C   UNL A   1      48.193  28.618  32.302  1.00  0.00     0.135 A 
ATOM     64  F   UNL A   1      46.344  26.131  34.214  1.00  0.00    -0.206 F 
ATOM     65  C   UNL A   1      48.649  26.578  34.143  1.00  0.00     0.059 A 
ATOM     66  C   UNL A   1      49.494  28.343  32.700  1.00  0.00     0.059 A 
ATOM     67  F   UNL A   1      47.998  29.604  31.413  1.00  0.00    -0.206 F 
ATOM     68  C   UNL A   1      49.712  27.326  33.628  1.00  0.00     0.060 A 
BRANCH  68  69
ATOM     69  S   UNL A   1      51.392  26.925  34.150  1.00  0.00     0.124 S 
ATOM     70  O   UNL A   1      51.189  25.655  34.839  1.00  0.00    -0.237 OA
ATOM     71  O   UNL A   1      52.107  26.851  32.879  1.00  0.00    -0.237 OA
ATOM     72  O   UNL A   1      51.760  28.051  35.003  1.00  0.00    -0.744 OA
ENDBRANCH  68  69
ENDBRANCH  36  61
ENDBRANCH  10  11
ENDBRANCH   3   5
ENDBRANCH   2   3
ENDBRANCH   1   2
BRANCH   1  73
ATOM     73  C   UNL A   1      33.497  34.049  28.368  1.00  0.00     0.274 C 
BRANCH  73  74
ATOM     74  O   UNL A   1      33.353  34.266  29.779  1.00  0.00    -0.460 OA
BRANCH  74  75
ATOM     75  C   UNL A   1      32.884  35.484  30.161  1.00  0.00     0.335 C 
ATOM     76  O   UNL A   1      32.515  36.365  29.390  1.00  0.00    -0.249 OA
BRANCH  75  77
ATOM     77  C   UNL A   1      32.829  35.615  31.689  1.00  0.00     0.228 C 
BRANCH  77  78
ATOM     78  C   UNL A   1      34.199  35.998  32.263  1.00  0.00     0.079 C 
BRANCH  78  79
ATOM     79  C   UNL A   1      35.039  34.884  32.866  1.00  0.00    -0.045 A 
ATOM     80  C   UNL A   1      35.652  33.864  32.133  1.00  0.00     0.007 A 
ATOM     81  C   UNL A   1      35.169  34.842  34.261  1.00  0.00     0.007 A 
ATOM     82  C   UNL A   1      36.357  32.838  32.778  1.00  0.00     0.046 A 
ATOM     83  C   UNL A   1      35.914  33.856  34.908  1.00  0.00     0.046 A 
ATOM     84  C   UNL A   1      36.479  32.842  34.162  1.00  0.00     0.115 A 
BRANCH  84  85
ATOM     85  O   UNL A   1      37.126  31.848  34.829  1.00  0.00    -0.508 OA
ATOM     86  H   UNL A   1      36.666  31.066  35.065  1.00  0.00     0.293 HD
ENDBRANCH  84  85
ENDBRANCH  78  79
ENDBRANCH  77  78
BRANCH  77  87
ATOM     87  O   UNL A   1      31.852  36.606  32.035  1.00  0.00    -0.381 OA
ATOM     88  H   UNL A   1      31.461  36.971  31.226  1.00  0.00     0.211 HD
ENDBRANCH  77  87
ENDBRANCH  75  77
ENDBRANCH  74  75
ENDBRANCH  73  74
ENDBRANCH   1  73
TORSDOF 18
ENDMDL
