MODEL 1
REMARK VINA RESULT:     -10.3      0.000      0.000
REMARK SMILES O=C(CSc1ncnc2sc3c(c12)CCC3)OCCOC(=O)c1ccc(-c2c3nc(c(-c4c(F)cc(S(=O)(=O)[O-])cc4F)c4ccc([nH]4)c(-c4c(F)cc(S(=O)(=O)[O-])cc4F)c4nc(c(-c5c(F)cc(S(=O)(=O)[O-])cc5F)c5ccc2[nH]5)C=C4)C=C3)cc1
REMARK SMILES IDX 19 1 18 2 17 3 2 4 1 5 3 6 4 7 5 8 6 9 13 10 7 11 9 12 12 13
REMARK SMILES IDX 8 14 10 15 11 16 14 17 16 18 15 19 20 20 21 21 22 22 23 23
REMARK SMILES IDX 24 24 88 25 25 26 87 27 26 28 27 29 28 30 81 31 29 32 86 33
REMARK SMILES IDX 80 34 82 35 30 36 85 37 79 38 78 39 31 41 65 42 44 43 64 44
REMARK SMILES IDX 45 45 48 46 63 47 83 48 46 49 47 50 62 52 84 53 49 54 32 55
REMARK SMILES IDX 33 56 42 57 34 58 35 59 41 60 43 61 36 62 37 63 38 64 39 65
REMARK SMILES IDX 40 66 66 67 67 68 76 69 68 70 69 71 75 72 77 73 70 74 71 75
REMARK SMILES IDX 72 76 73 77 74 78 50 79 51 80 60 81 52 82 53 83 59 84 61 85
REMARK SMILES IDX 54 86 55 87 56 88 57 89 58 90
REMARK H PARENT 82 40 48 51
REMARK Flexibility Score: inf
ROOT
ATOM      1  C   UNL A   1      42.630  20.138  26.324  1.00  0.00     0.275 C 
ENDROOT
BRANCH   1   2
ATOM      2  C   UNL A   1      43.701  20.813  25.466  1.00  0.00     0.274 C 
BRANCH   2   3
ATOM      3  O   UNL A   1      43.296  22.093  24.934  1.00  0.00    -0.461 OA
BRANCH   3   4
ATOM      4  C   UNL A   1      44.105  23.076  24.461  1.00  0.00     0.316 C 
ATOM      5  O   UNL A   1      44.801  22.855  23.469  1.00  0.00    -0.251 OA
BRANCH   4   6
ATOM      6  C   UNL A   1      44.183  24.399  25.187  1.00  0.00     0.199 C 
BRANCH   6   7
ATOM      7  S   UNL A   1      45.640  24.579  26.241  1.00  0.00    -0.094 SA
BRANCH   7   8
ATOM      8  C   UNL A   1      46.213  26.190  25.820  1.00  0.00     0.109 A 
ATOM      9  N   UNL A   1      45.727  26.839  24.751  1.00  0.00    -0.229 NA
ATOM     10  C   UNL A   1      47.226  26.759  26.596  1.00  0.00     0.047 A 
ATOM     11  C   UNL A   1      46.231  28.050  24.468  1.00  0.00     0.224 A 
ATOM     12  C   UNL A   1      47.674  28.008  26.168  1.00  0.00     0.128 A 
ATOM     13  C   UNL A   1      47.950  26.364  27.754  1.00  0.00    -0.022 A 
ATOM     14  N   UNL A   1      47.205  28.703  25.116  1.00  0.00    -0.225 NA
ATOM     15  S   UNL A   1      48.957  28.629  27.137  1.00  0.00    -0.120 S 
ATOM     16  C   UNL A   1      48.907  27.273  28.112  1.00  0.00     0.011 A 
ATOM     17  C   UNL A   1      47.952  25.196  28.673  1.00  0.00     0.038 C 
ATOM     18  C   UNL A   1      49.707  26.868  29.290  1.00  0.00     0.047 C 
ATOM     19  C   UNL A   1      48.836  25.703  29.853  1.00  0.00     0.010 C 
ENDBRANCH   7   8
ENDBRANCH   6   7
ENDBRANCH   4   6
ENDBRANCH   3   4
ENDBRANCH   2   3
ENDBRANCH   1   2
BRANCH   1  20
ATOM     20  O   UNL A   1      42.420  20.838  27.557  1.00  0.00    -0.458 OA
BRANCH  20  21
ATOM     21  C   UNL A   1      41.236  21.494  27.628  1.00  0.00     0.338 C 
ATOM     22  O   UNL A   1      40.125  20.987  27.698  1.00  0.00    -0.246 OA
BRANCH  21  23
ATOM     23  C   UNL A   1      41.483  22.929  27.820  1.00  0.00     0.060 A 
ATOM     24  C   UNL A   1      40.670  23.826  27.120  1.00  0.00     0.016 A 
ATOM     25  C   UNL A   1      42.525  23.385  28.626  1.00  0.00     0.016 A 
ATOM     26  C   UNL A   1      40.932  25.188  27.193  1.00  0.00     0.010 A 
ATOM     27  C   UNL A   1      42.815  24.749  28.657  1.00  0.00     0.010 A 
ATOM     28  C   UNL A   1      42.045  25.658  27.911  1.00  0.00    -0.014 A 
BRANCH  28  29
ATOM     29  C   UNL A   1      42.441  27.079  27.747  1.00  0.00     0.031 A 
ATOM     30  C   UNL A   1      41.356  28.095  27.613  1.00  0.00     0.074 A 
ATOM     31  C   UNL A   1      43.631  27.482  28.254  1.00  0.00     0.049 A 
ATOM     32  N   UNL A   1      40.617  28.444  28.624  1.00  0.00    -0.248 NA
ATOM     33  C   UNL A   1      40.899  28.650  26.340  1.00  0.00     0.031 C 
ATOM     34  C   UNL A   1      44.370  26.726  29.281  1.00  0.00     0.029 A 
ATOM     35  N   UNL A   1      44.319  28.671  28.162  1.00  0.00    -0.354 N 
ATOM     36  C   UNL A   1      39.584  29.223  28.145  1.00  0.00     0.074 A 
ATOM     37  C   UNL A   1      39.808  29.338  26.720  1.00  0.00     0.031 C 
ATOM     38  C   UNL A   1      45.302  27.523  29.833  1.00  0.00     0.029 A 
ATOM     39  C   UNL A   1      45.323  28.798  29.127  1.00  0.00     0.049 A 
ATOM     40  H   UNL A   1      44.125  29.359  27.486  1.00  0.00     0.167 HD
ATOM     41  C   UNL A   1      38.613  29.714  28.958  1.00  0.00     0.037 A 
ATOM     42  C   UNL A   1      45.694  29.954  29.742  1.00  0.00     0.037 A 
ATOM     43  C   UNL A   1      38.743  29.363  30.344  1.00  0.00     0.049 A 
ATOM     44  C   UNL A   1      44.412  30.360  30.428  1.00  0.00     0.074 A 
ATOM     45  C   UNL A   1      38.313  28.345  31.167  1.00  0.00     0.029 A 
ATOM     46  N   UNL A   1      39.591  30.111  31.128  1.00  0.00    -0.354 N 
ATOM     47  N   UNL A   1      43.940  29.848  31.536  1.00  0.00    -0.248 NA
ATOM     48  C   UNL A   1      43.442  31.136  29.654  1.00  0.00     0.031 C 
ATOM     49  C   UNL A   1      39.280  28.274  32.220  1.00  0.00     0.029 A 
ATOM     50  C   UNL A   1      40.259  29.225  31.938  1.00  0.00     0.049 A 
ATOM     51  H   UNL A   1      39.698  31.089  31.111  1.00  0.00     0.167 HD
ATOM     52  C   UNL A   1      42.556  30.017  31.467  1.00  0.00     0.074 A 
ATOM     53  C   UNL A   1      42.319  30.833  30.291  1.00  0.00     0.031 C 
ATOM     54  C   UNL A   1      41.666  29.350  32.257  1.00  0.00     0.037 A 
BRANCH  41  55
ATOM     55  C   UNL A   1      37.553  30.655  28.552  1.00  0.00     0.058 A 
ATOM     56  C   UNL A   1      37.719  32.015  28.855  1.00  0.00     0.135 A 
ATOM     57  C   UNL A   1      36.300  30.221  28.108  1.00  0.00     0.135 A 
ATOM     58  F   UNL A   1      38.905  32.460  29.304  1.00  0.00    -0.206 F 
ATOM     59  C   UNL A   1      36.663  32.910  28.775  1.00  0.00     0.059 A 
ATOM     60  C   UNL A   1      35.225  31.103  28.015  1.00  0.00     0.059 A 
ATOM     61  F   UNL A   1      36.094  28.926  27.820  1.00  0.00    -0.206 F 
ATOM     62  C   UNL A   1      35.411  32.439  28.377  1.00  0.00     0.060 A 
BRANCH  62  63
ATOM     63  S   UNL A   1      34.024  33.594  28.410  1.00  0.00     0.124 S 
ATOM     64  O   UNL A   1      33.801  33.754  29.843  1.00  0.00    -0.237 OA
ATOM     65  O   UNL A   1      34.580  34.752  27.719  1.00  0.00    -0.237 OA
ATOM     66  O   UNL A   1      32.973  32.883  27.688  1.00  0.00    -0.744 OA
ENDBRANCH  62  63
ENDBRANCH  41  55
BRANCH  42  67
ATOM     67  C   UNL A   1      46.520  30.890  28.914  1.00  0.00     0.058 A 
ATOM     68  C   UNL A   1      47.669  31.483  29.482  1.00  0.00     0.135 A 
ATOM     69  C   UNL A   1      46.237  31.248  27.587  1.00  0.00     0.135 A 
ATOM     70  F   UNL A   1      47.949  31.314  30.785  1.00  0.00    -0.206 F 
ATOM     71  C   UNL A   1      48.563  32.246  28.736  1.00  0.00     0.059 A 
ATOM     72  C   UNL A   1      47.127  31.990  26.810  1.00  0.00     0.059 A 
ATOM     73  F   UNL A   1      45.095  30.865  26.999  1.00  0.00    -0.206 F 
ATOM     74  C   UNL A   1      48.304  32.456  27.385  1.00  0.00     0.060 A 
BRANCH  74  75
ATOM     75  S   UNL A   1      49.557  33.289  26.390  1.00  0.00     0.124 S 
ATOM     76  O   UNL A   1      50.224  34.126  27.381  1.00  0.00    -0.237 OA
ATOM     77  O   UNL A   1      50.333  32.162  25.882  1.00  0.00    -0.237 OA
ATOM     78  O   UNL A   1      48.772  34.003  25.388  1.00  0.00    -0.744 OA
ENDBRANCH  74  75
ENDBRANCH  42  67
BRANCH  54  79
ATOM     79  C   UNL A   1      42.243  28.526  33.362  1.00  0.00     0.058 A 
ATOM     80  C   UNL A   1      42.114  28.942  34.694  1.00  0.00     0.135 A 
ATOM     81  C   UNL A   1      42.839  27.277  33.120  1.00  0.00     0.135 A 
ATOM     82  F   UNL A   1      41.543  30.123  34.983  1.00  0.00    -0.206 F 
ATOM     83  C   UNL A   1      42.518  28.130  35.750  1.00  0.00     0.059 A 
ATOM     84  C   UNL A   1      43.231  26.440  34.163  1.00  0.00     0.059 A 
ATOM     85  F   UNL A   1      43.003  26.827  31.865  1.00  0.00    -0.206 F 
ATOM     86  C   UNL A   1      43.056  26.872  35.476  1.00  0.00     0.060 A 
BRANCH  86  87
ATOM     87  S   UNL A   1      43.428  25.772  36.859  1.00  0.00     0.124 S 
ATOM     88  O   UNL A   1      44.617  25.072  36.383  1.00  0.00    -0.237 OA
ATOM     89  O   UNL A   1      43.646  26.713  37.955  1.00  0.00    -0.237 OA
ATOM     90  O   UNL A   1      42.226  24.953  36.982  1.00  0.00    -0.744 OA
ENDBRANCH  86  87
ENDBRANCH  54  79
ENDBRANCH  28  29
ENDBRANCH  21  23
ENDBRANCH  20  21
ENDBRANCH   1  20
TORSDOF 16
ENDMDL
MODEL 2
REMARK VINA RESULT:     -10.1      3.222      6.026
REMARK SMILES O=C(CSc1ncnc2sc3c(c12)CCC3)OCCOC(=O)c1ccc(-c2c3nc(c(-c4c(F)cc(S(=O)(=O)[O-])cc4F)c4ccc([nH]4)c(-c4c(F)cc(S(=O)(=O)[O-])cc4F)c4nc(c(-c5c(F)cc(S(=O)(=O)[O-])cc5F)c5ccc2[nH]5)C=C4)C=C3)cc1
REMARK SMILES IDX 19 1 18 2 17 3 2 4 1 5 3 6 4 7 5 8 6 9 13 10 7 11 9 12 12 13
REMARK SMILES IDX 8 14 10 15 11 16 14 17 16 18 15 19 20 20 21 21 22 22 23 23
REMARK SMILES IDX 24 24 88 25 25 26 87 27 26 28 27 29 28 30 81 31 29 32 86 33
REMARK SMILES IDX 80 34 82 35 30 36 85 37 79 38 78 39 31 41 65 42 44 43 64 44
REMARK SMILES IDX 45 45 48 46 63 47 83 48 46 49 47 50 62 52 84 53 49 54 32 55
REMARK SMILES IDX 33 56 42 57 34 58 35 59 41 60 43 61 36 62 37 63 38 64 39 65
REMARK SMILES IDX 40 66 66 67 67 68 76 69 68 70 69 71 75 72 77 73 70 74 71 75
REMARK SMILES IDX 72 76 73 77 74 78 50 79 51 80 60 81 52 82 53 83 59 84 61 85
REMARK SMILES IDX 54 86 55 87 56 88 57 89 58 90
REMARK H PARENT 82 40 48 51
REMARK Flexibility Score: inf
ROOT
ATOM      1  C   UNL A   1      39.599  21.082  25.809  1.00  0.00     0.275 C 
ENDROOT
BRANCH   1   2
ATOM      2  C   UNL A   1      38.136  20.879  25.413  1.00  0.00     0.274 C 
BRANCH   2   3
ATOM      3  O   UNL A   1      37.474  22.093  24.994  1.00  0.00    -0.461 OA
BRANCH   3   4
ATOM      4  C   UNL A   1      36.687  22.899  25.751  1.00  0.00     0.316 C 
ATOM      5  O   UNL A   1      37.120  23.993  26.115  1.00  0.00    -0.251 OA
BRANCH   4   6
ATOM      6  C   UNL A   1      35.319  22.422  26.182  1.00  0.00     0.199 C 
BRANCH   6   7
ATOM      7  S   UNL A   1      34.057  23.715  26.201  1.00  0.00    -0.094 SA
BRANCH   7   8
ATOM      8  C   UNL A   1      33.746  23.963  24.486  1.00  0.00     0.109 A 
ATOM      9  N   UNL A   1      33.686  22.926  23.636  1.00  0.00    -0.229 NA
ATOM     10  C   UNL A   1      33.615  25.273  24.017  1.00  0.00     0.047 A 
ATOM     11  C   UNL A   1      33.478  23.188  22.337  1.00  0.00     0.224 A 
ATOM     12  C   UNL A   1      33.433  25.397  22.640  1.00  0.00     0.128 A 
ATOM     13  C   UNL A   1      33.629  26.563  24.614  1.00  0.00    -0.022 A 
ATOM     14  N   UNL A   1      33.348  24.388  21.755  1.00  0.00    -0.225 NA
ATOM     15  S   UNL A   1      33.330  27.039  22.123  1.00  0.00    -0.120 S 
ATOM     16  C   UNL A   1      33.508  27.569  23.697  1.00  0.00     0.011 A 
ATOM     17  C   UNL A   1      33.767  27.108  25.991  1.00  0.00     0.038 C 
ATOM     18  C   UNL A   1      33.564  28.927  24.285  1.00  0.00     0.047 C 
ATOM     19  C   UNL A   1      33.364  28.602  25.797  1.00  0.00     0.010 C 
ENDBRANCH   7   8
ENDBRANCH   6   7
ENDBRANCH   4   6
ENDBRANCH   3   4
ENDBRANCH   2   3
ENDBRANCH   1   2
BRANCH   1  20
ATOM     20  O   UNL A   1      39.718  21.755  27.069  1.00  0.00    -0.458 OA
BRANCH  20  21
ATOM     21  C   UNL A   1      40.964  21.722  27.599  1.00  0.00     0.338 C 
ATOM     22  O   UNL A   1      41.680  20.737  27.719  1.00  0.00    -0.246 OA
BRANCH  21  23
ATOM     23  C   UNL A   1      41.434  23.094  27.832  1.00  0.00     0.060 A 
ATOM     24  C   UNL A   1      40.468  24.096  27.965  1.00  0.00     0.016 A 
ATOM     25  C   UNL A   1      42.794  23.401  27.861  1.00  0.00     0.016 A 
ATOM     26  C   UNL A   1      40.868  25.421  28.084  1.00  0.00     0.010 A 
ATOM     27  C   UNL A   1      43.189  24.737  27.932  1.00  0.00     0.010 A 
ATOM     28  C   UNL A   1      42.230  25.760  28.006  1.00  0.00    -0.014 A 
BRANCH  28  29
ATOM     29  C   UNL A   1      42.592  27.193  27.871  1.00  0.00     0.031 A 
ATOM     30  C   UNL A   1      41.485  28.181  27.711  1.00  0.00     0.074 A 
ATOM     31  C   UNL A   1      43.753  27.622  28.424  1.00  0.00     0.049 A 
ATOM     32  N   UNL A   1      40.703  28.498  28.700  1.00  0.00    -0.248 NA
ATOM     33  C   UNL A   1      41.057  28.739  26.429  1.00  0.00     0.031 C 
ATOM     34  C   UNL A   1      44.477  26.873  29.466  1.00  0.00     0.029 A 
ATOM     35  N   UNL A   1      44.411  28.829  28.369  1.00  0.00    -0.354 N 
ATOM     36  C   UNL A   1      39.667  29.255  28.194  1.00  0.00     0.074 A 
ATOM     37  C   UNL A   1      39.936  29.394  26.779  1.00  0.00     0.031 C 
ATOM     38  C   UNL A   1      45.367  27.688  30.060  1.00  0.00     0.029 A 
ATOM     39  C   UNL A   1      45.377  28.972  29.370  1.00  0.00     0.049 A 
ATOM     40  H   UNL A   1      44.222  29.521  27.694  1.00  0.00     0.167 HD
ATOM     41  C   UNL A   1      38.655  29.710  28.979  1.00  0.00     0.037 A 
ATOM     42  C   UNL A   1      45.696  30.130  30.010  1.00  0.00     0.037 A 
ATOM     43  C   UNL A   1      38.747  29.345  30.364  1.00  0.00     0.049 A 
ATOM     44  C   UNL A   1      44.381  30.492  30.656  1.00  0.00     0.074 A 
ATOM     45  C   UNL A   1      38.317  28.306  31.161  1.00  0.00     0.029 A 
ATOM     46  N   UNL A   1      39.547  30.107  31.186  1.00  0.00    -0.354 N 
ATOM     47  N   UNL A   1      43.886  29.954  31.740  1.00  0.00    -0.248 NA
ATOM     48  C   UNL A   1      43.417  31.251  29.857  1.00  0.00     0.031 C 
ATOM     49  C   UNL A   1      39.248  28.248  32.245  1.00  0.00     0.029 A 
ATOM     50  C   UNL A   1      40.210  29.229  32.008  1.00  0.00     0.049 A 
ATOM     51  H   UNL A   1      39.629  31.088  31.184  1.00  0.00     0.167 HD
ATOM     52  C   UNL A   1      42.500  30.088  31.625  1.00  0.00     0.074 A 
ATOM     53  C   UNL A   1      42.282  30.911  30.452  1.00  0.00     0.031 C 
ATOM     54  C   UNL A   1      41.602  29.387  32.377  1.00  0.00     0.037 A 
BRANCH  41  55
ATOM     55  C   UNL A   1      37.585  30.627  28.547  1.00  0.00     0.058 A 
ATOM     56  C   UNL A   1      37.725  31.994  28.833  1.00  0.00     0.135 A 
ATOM     57  C   UNL A   1      36.345  30.167  28.095  1.00  0.00     0.135 A 
ATOM     58  F   UNL A   1      38.898  32.465  29.289  1.00  0.00    -0.206 F 
ATOM     59  C   UNL A   1      36.655  32.870  28.727  1.00  0.00     0.059 A 
ATOM     60  C   UNL A   1      35.256  31.028  27.976  1.00  0.00     0.059 A 
ATOM     61  F   UNL A   1      36.164  28.864  27.823  1.00  0.00    -0.206 F 
ATOM     62  C   UNL A   1      35.416  32.373  28.322  1.00  0.00     0.060 A 
BRANCH  62  63
ATOM     63  S   UNL A   1      34.009  33.505  28.322  1.00  0.00     0.124 S 
ATOM     64  O   UNL A   1      34.561  34.668  27.637  1.00  0.00    -0.237 OA
ATOM     65  O   UNL A   1      33.010  32.743  27.581  1.00  0.00    -0.237 OA
ATOM     66  O   UNL A   1      33.724  33.691  29.742  1.00  0.00    -0.744 OA
ENDBRANCH  62  63
ENDBRANCH  41  55
BRANCH  42  67
ATOM     67  C   UNL A   1      46.524  31.097  29.222  1.00  0.00     0.058 A 
ATOM     68  C   UNL A   1      47.333  30.615  28.170  1.00  0.00     0.135 A 
ATOM     69  C   UNL A   1      46.576  32.480  29.451  1.00  0.00     0.135 A 
ATOM     70  F   UNL A   1      47.461  29.294  27.959  1.00  0.00    -0.206 F 
ATOM     71  C   UNL A   1      48.018  31.463  27.303  1.00  0.00     0.059 A 
ATOM     72  C   UNL A   1      47.233  33.355  28.585  1.00  0.00     0.059 A 
ATOM     73  F   UNL A   1      45.968  33.026  30.514  1.00  0.00    -0.206 F 
ATOM     74  C   UNL A   1      47.923  32.838  27.493  1.00  0.00     0.060 A 
BRANCH  74  75
ATOM     75  S   UNL A   1      48.661  33.928  26.261  1.00  0.00     0.124 S 
ATOM     76  O   UNL A   1      49.650  33.056  25.637  1.00  0.00    -0.237 OA
ATOM     77  O   UNL A   1      47.506  34.274  25.437  1.00  0.00    -0.237 OA
ATOM     78  O   UNL A   1      49.201  35.024  27.060  1.00  0.00    -0.744 OA
ENDBRANCH  74  75
ENDBRANCH  42  67
BRANCH  54  79
ATOM     79  C   UNL A   1      42.163  28.565  33.492  1.00  0.00     0.058 A 
ATOM     80  C   UNL A   1      42.025  28.990  34.820  1.00  0.00     0.135 A 
ATOM     81  C   UNL A   1      42.753  27.312  33.263  1.00  0.00     0.135 A 
ATOM     82  F   UNL A   1      41.458  30.175  35.097  1.00  0.00    -0.206 F 
ATOM     83  C   UNL A   1      42.413  28.181  35.885  1.00  0.00     0.059 A 
ATOM     84  C   UNL A   1      43.130  26.478  34.313  1.00  0.00     0.059 A 
ATOM     85  F   UNL A   1      42.926  26.854  32.011  1.00  0.00    -0.206 F 
ATOM     86  C   UNL A   1      42.944  26.917  35.622  1.00  0.00     0.060 A 
BRANCH  86  87
ATOM     87  S   UNL A   1      43.297  25.822  37.015  1.00  0.00     0.124 S 
ATOM     88  O   UNL A   1      42.418  24.689  36.744  1.00  0.00    -0.237 OA
ATOM     89  O   UNL A   1      44.726  25.566  36.855  1.00  0.00    -0.237 OA
ATOM     90  O   UNL A   1      42.943  26.625  38.182  1.00  0.00    -0.744 OA
ENDBRANCH  86  87
ENDBRANCH  54  79
ENDBRANCH  28  29
ENDBRANCH  21  23
ENDBRANCH  20  21
ENDBRANCH   1  20
TORSDOF 16
ENDMDL
MODEL 3
REMARK VINA RESULT:      -9.6      3.898      8.262
REMARK SMILES O=C(CSc1ncnc2sc3c(c12)CCC3)OCCOC(=O)c1ccc(-c2c3nc(c(-c4c(F)cc(S(=O)(=O)[O-])cc4F)c4ccc([nH]4)c(-c4c(F)cc(S(=O)(=O)[O-])cc4F)c4nc(c(-c5c(F)cc(S(=O)(=O)[O-])cc5F)c5ccc2[nH]5)C=C4)C=C3)cc1
REMARK SMILES IDX 19 1 18 2 17 3 2 4 1 5 3 6 4 7 5 8 6 9 13 10 7 11 9 12 12 13
REMARK SMILES IDX 8 14 10 15 11 16 14 17 16 18 15 19 20 20 21 21 22 22 23 23
REMARK SMILES IDX 24 24 88 25 25 26 87 27 26 28 27 29 28 30 81 31 29 32 86 33
REMARK SMILES IDX 80 34 82 35 30 36 85 37 79 38 78 39 31 41 65 42 44 43 64 44
REMARK SMILES IDX 45 45 48 46 63 47 83 48 46 49 47 50 62 52 84 53 49 54 32 55
REMARK SMILES IDX 33 56 42 57 34 58 35 59 41 60 43 61 36 62 37 63 38 64 39 65
REMARK SMILES IDX 40 66 66 67 67 68 76 69 68 70 69 71 75 72 77 73 70 74 71 75
REMARK SMILES IDX 72 76 73 77 74 78 50 79 51 80 60 81 52 82 53 83 59 84 61 85
REMARK SMILES IDX 54 86 55 87 56 88 57 89 58 90
REMARK H PARENT 82 40 48 51
REMARK Flexibility Score: inf
ROOT
ATOM      1  C   UNL A   1      45.725  21.250  24.404  1.00  0.00     0.275 C 
ENDROOT
BRANCH   1   2
ATOM      2  C   UNL A   1      46.165  20.002  25.170  1.00  0.00     0.274 C 
BRANCH   2   3
ATOM      3  O   UNL A   1      45.072  19.284  25.785  1.00  0.00    -0.461 OA
BRANCH   3   4
ATOM      4  C   UNL A   1      44.063  18.632  25.154  1.00  0.00     0.316 C 
ATOM      5  O   UNL A   1      44.222  18.260  23.990  1.00  0.00    -0.251 OA
BRANCH   4   6
ATOM      6  C   UNL A   1      42.745  18.423  25.864  1.00  0.00     0.199 C 
BRANCH   6   7
ATOM      7  S   UNL A   1      42.359  19.690  27.094  1.00  0.00    -0.094 SA
BRANCH   7   8
ATOM      8  C   UNL A   1      40.814  20.311  26.523  1.00  0.00     0.109 A 
ATOM      9  N   UNL A   1      39.978  19.539  25.810  1.00  0.00    -0.229 NA
ATOM     10  C   UNL A   1      40.497  21.647  26.783  1.00  0.00     0.047 A 
ATOM     11  C   UNL A   1      38.832  20.086  25.377  1.00  0.00     0.224 A 
ATOM     12  C   UNL A   1      39.288  22.088  26.248  1.00  0.00     0.128 A 
ATOM     13  C   UNL A   1      41.129  22.715  27.478  1.00  0.00    -0.022 A 
ATOM     14  N   UNL A   1      38.413  21.347  25.545  1.00  0.00    -0.225 NA
ATOM     15  S   UNL A   1      38.984  23.755  26.563  1.00  0.00    -0.120 S 
ATOM     16  C   UNL A   1      40.421  23.882  27.404  1.00  0.00     0.011 A 
ATOM     17  C   UNL A   1      42.384  22.898  28.254  1.00  0.00     0.038 C 
ATOM     18  C   UNL A   1      41.076  25.024  28.083  1.00  0.00     0.047 C 
ATOM     19  C   UNL A   1      42.155  24.284  28.931  1.00  0.00     0.010 C 
ENDBRANCH   7   8
ENDBRANCH   6   7
ENDBRANCH   4   6
ENDBRANCH   3   4
ENDBRANCH   2   3
ENDBRANCH   1   2
BRANCH   1  20
ATOM     20  O   UNL A   1      45.344  22.309  25.291  1.00  0.00    -0.458 OA
BRANCH  20  21
ATOM     21  C   UNL A   1      44.170  22.905  24.971  1.00  0.00     0.338 C 
ATOM     22  O   UNL A   1      43.173  22.357  24.520  1.00  0.00    -0.246 OA
BRANCH  21  23
ATOM     23  C   UNL A   1      44.184  24.297  25.439  1.00  0.00     0.060 A 
ATOM     24  C   UNL A   1      45.140  24.651  26.395  1.00  0.00     0.016 A 
ATOM     25  C   UNL A   1      43.241  25.223  24.992  1.00  0.00     0.016 A 
ATOM     26  C   UNL A   1      45.126  25.928  26.940  1.00  0.00     0.010 A 
ATOM     27  C   UNL A   1      43.199  26.488  25.578  1.00  0.00     0.010 A 
ATOM     28  C   UNL A   1      44.116  26.839  26.583  1.00  0.00    -0.014 A 
BRANCH  28  29
ATOM     29  C   UNL A   1      43.979  28.085  27.376  1.00  0.00     0.031 A 
ATOM     30  C   UNL A   1      43.738  27.956  28.844  1.00  0.00     0.074 A 
ATOM     31  C   UNL A   1      44.591  29.208  26.928  1.00  0.00     0.049 A 
ATOM     32  N   UNL A   1      44.674  27.570  29.659  1.00  0.00    -0.248 NA
ATOM     33  C   UNL A   1      42.424  28.064  29.476  1.00  0.00     0.031 C 
ATOM     34  C   UNL A   1      45.687  29.193  25.943  1.00  0.00     0.029 A 
ATOM     35  N   UNL A   1      44.555  30.515  27.360  1.00  0.00    -0.354 N 
ATOM     36  C   UNL A   1      44.096  27.345  30.891  1.00  0.00     0.074 A 
ATOM     37  C   UNL A   1      42.697  27.681  30.735  1.00  0.00     0.031 C 
ATOM     38  C   UNL A   1      46.318  30.380  25.963  1.00  0.00     0.029 A 
ATOM     39  C   UNL A   1      45.608  31.286  26.859  1.00  0.00     0.049 A 
ATOM     40  H   UNL A   1      43.859  30.869  27.959  1.00  0.00     0.167 HD
ATOM     41  C   UNL A   1      44.813  26.892  31.953  1.00  0.00     0.037 A 
ATOM     42  C   UNL A   1      46.247  32.288  27.522  1.00  0.00     0.037 A 
ATOM     43  C   UNL A   1      46.207  26.667  31.695  1.00  0.00     0.049 A 
ATOM     44  C   UNL A   1      46.809  31.555  28.715  1.00  0.00     0.074 A 
ATOM     45  C   UNL A   1      46.994  25.618  31.270  1.00  0.00     0.029 A 
ATOM     46  N   UNL A   1      47.061  27.745  31.750  1.00  0.00    -0.354 N 
ATOM     47  N   UNL A   1      47.871  30.792  28.715  1.00  0.00    -0.248 NA
ATOM     48  C   UNL A   1      45.942  31.394  29.884  1.00  0.00     0.031 C 
ATOM     49  C   UNL A   1      48.132  26.225  30.650  1.00  0.00     0.029 A 
ATOM     50  C   UNL A   1      47.936  27.604  30.700  1.00  0.00     0.049 A 
ATOM     51  H   UNL A   1      47.048  28.473  32.412  1.00  0.00     0.167 HD
ATOM     52  C   UNL A   1      47.673  29.875  29.750  1.00  0.00     0.074 A 
ATOM     53  C   UNL A   1      46.475  30.314  30.439  1.00  0.00     0.031 C 
ATOM     54  C   UNL A   1      48.382  28.717  29.888  1.00  0.00     0.037 A 
BRANCH  41  55
ATOM     55  C   UNL A   1      44.304  26.749  33.329  1.00  0.00     0.058 A 
ATOM     56  C   UNL A   1      43.881  25.481  33.754  1.00  0.00     0.135 A 
ATOM     57  C   UNL A   1      43.999  27.855  34.130  1.00  0.00     0.135 A 
ATOM     58  F   UNL A   1      44.140  24.401  32.997  1.00  0.00    -0.206 F 
ATOM     59  C   UNL A   1      43.129  25.316  34.909  1.00  0.00     0.059 A 
ATOM     60  C   UNL A   1      43.250  27.714  35.296  1.00  0.00     0.059 A 
ATOM     61  F   UNL A   1      44.374  29.088  33.753  1.00  0.00    -0.206 F 
ATOM     62  C   UNL A   1      42.797  26.443  35.660  1.00  0.00     0.060 A 
BRANCH  62  63
ATOM     63  S   UNL A   1      41.707  26.219  37.082  1.00  0.00     0.124 S 
ATOM     64  O   UNL A   1      42.655  26.222  38.190  1.00  0.00    -0.237 OA
ATOM     65  O   UNL A   1      40.839  27.387  36.983  1.00  0.00    -0.237 OA
ATOM     66  O   UNL A   1      41.059  24.938  36.816  1.00  0.00    -0.744 OA
ENDBRANCH  62  63
ENDBRANCH  41  55
BRANCH  42  67
ATOM     67  C   UNL A   1      45.492  33.578  27.624  1.00  0.00     0.058 A 
ATOM     68  C   UNL A   1      44.544  33.904  26.630  1.00  0.00     0.135 A 
ATOM     69  C   UNL A   1      45.657  34.524  28.648  1.00  0.00     0.135 A 
ATOM     70  F   UNL A   1      44.411  33.133  25.538  1.00  0.00    -0.206 F 
ATOM     71  C   UNL A   1      43.704  35.010  26.730  1.00  0.00     0.059 A 
ATOM     72  C   UNL A   1      44.814  35.627  28.785  1.00  0.00     0.059 A 
ATOM     73  F   UNL A   1      46.632  34.390  29.558  1.00  0.00    -0.206 F 
ATOM     74  C   UNL A   1      43.818  35.842  27.839  1.00  0.00     0.060 A 
BRANCH  74  75
ATOM     75  S   UNL A   1      42.607  37.163  28.049  1.00  0.00     0.124 S 
ATOM     76  O   UNL A   1      42.363  37.573  26.671  1.00  0.00    -0.237 OA
ATOM     77  O   UNL A   1      41.510  36.460  28.709  1.00  0.00    -0.237 OA
ATOM     78  O   UNL A   1      43.309  38.134  28.882  1.00  0.00    -0.744 OA
ENDBRANCH  74  75
ENDBRANCH  42  67
BRANCH  54  79
ATOM     79  C   UNL A   1      49.542  28.531  28.964  1.00  0.00     0.058 A 
ATOM     80  C   UNL A   1      49.352  27.961  27.698  1.00  0.00     0.135 A 
ATOM     81  C   UNL A   1      50.826  29.002  29.284  1.00  0.00     0.135 A 
ATOM     82  F   UNL A   1      48.142  27.504  27.336  1.00  0.00    -0.206 F 
ATOM     83  C   UNL A   1      50.384  27.902  26.766  1.00  0.00     0.059 A 
ATOM     84  C   UNL A   1      51.867  28.972  28.360  1.00  0.00     0.059 A 
ATOM     85  F   UNL A   1      51.076  29.547  30.487  1.00  0.00    -0.206 F 
ATOM     86  C   UNL A   1      51.633  28.430  27.097  1.00  0.00     0.060 A 
BRANCH  86  87
ATOM     87  S   UNL A   1      52.913  28.486  25.824  1.00  0.00     0.124 S 
ATOM     88  O   UNL A   1      53.366  27.099  25.784  1.00  0.00    -0.237 OA
ATOM     89  O   UNL A   1      52.167  28.941  24.654  1.00  0.00    -0.237 OA
ATOM     90  O   UNL A   1      53.878  29.447  26.348  1.00  0.00    -0.744 OA
ENDBRANCH  86  87
ENDBRANCH  54  79
ENDBRANCH  28  29
ENDBRANCH  21  23
ENDBRANCH  20  21
ENDBRANCH   1  20
TORSDOF 16
ENDMDL
