MODEL 1
REMARK VINA RESULT:     -11.2      0.000      0.000
REMARK SMILES COc1ccc(CCn2cc(C(=O)OCCOC(=O)c3ccc(-c4c5nc(c(-c6c(F)cc(S(=O)(=O)[O-])cc6F)c6ccc([nH]6)c(-c6c(F)cc(S(=O)(=O)[O-])cc6F)c6nc(c(-c7c(F)cc(S(=O)(=O)[O-])cc7F)c7ccc4[nH]7)C=C6)C=C5)cc3)ccc2=O)cc1OC
REMARK SMILES IDX 15 1 14 2 12 3 13 4 11 5 9 6 10 7 88 8 87 9 89 10 86 11 8 12
REMARK SMILES IDX 7 13 6 14 3 15 4 16 91 17 5 18 90 19 2 20 1 21 92 22 93 23
REMARK SMILES IDX 16 24 17 25 18 26 19 27 20 28 21 29 85 30 22 31 84 32 23 33
REMARK SMILES IDX 24 34 25 35 78 36 26 37 83 38 77 39 79 40 27 41 82 42 76 43
REMARK SMILES IDX 75 44 28 46 62 47 41 48 61 49 42 50 45 51 60 52 80 53 43 54
REMARK SMILES IDX 44 55 59 57 81 58 46 59 29 60 30 61 39 62 31 63 32 64 38 65
REMARK SMILES IDX 40 66 33 67 34 68 35 69 36 70 37 71 63 72 64 73 73 74 65 75
REMARK SMILES IDX 66 76 72 77 74 78 67 79 68 80 69 81 70 82 71 83 47 84 48 85
REMARK SMILES IDX 57 86 49 87 50 88 56 89 58 90 51 91 52 92 53 93 54 94 55 95
REMARK H PARENT 79 45 45 56
REMARK Flexibility Score: inf
ROOT
ATOM      1  C   UNL A   1      38.194  21.824  25.362  1.00  0.00     0.275 C 
ENDROOT
BRANCH   1   2
ATOM      2  O   UNL A   1      36.934  21.724  26.053  1.00  0.00    -0.458 OA
BRANCH   2   3
ATOM      3  C   UNL A   1      36.058  22.716  25.758  1.00  0.00     0.339 C 
ATOM      4  O   UNL A   1      36.346  23.800  25.270  1.00  0.00    -0.246 OA
BRANCH   3   5
ATOM      5  C   UNL A   1      34.677  22.412  26.197  1.00  0.00     0.076 A 
ATOM      6  N   UNL A   1      32.584  23.511  26.405  1.00  0.00    -0.314 N 
ATOM      7  C   UNL A   1      33.964  23.486  26.565  1.00  0.00     0.104 A 
ATOM      8  C   UNL A   1      31.854  22.367  26.050  1.00  0.00     0.250 A 
ATOM      9  C   UNL A   1      32.657  21.151  25.760  1.00  0.00     0.072 A 
ATOM     10  O   UNL A   1      30.633  22.319  25.941  1.00  0.00    -0.269 OA
ATOM     11  C   UNL A   1      33.993  21.198  25.816  1.00  0.00     0.023 A 
BRANCH   6  12
ATOM     12  C   UNL A   1      31.851  24.774  26.484  1.00  0.00     0.130 C 
BRANCH  12  13
ATOM     13  C   UNL A   1      32.553  26.049  25.970  1.00  0.00     0.057 C 
BRANCH  13  14
ATOM     14  C   UNL A   1      31.923  26.864  24.854  1.00  0.00    -0.042 A 
ATOM     15  C   UNL A   1      30.487  28.107  22.747  1.00  0.00     0.160 A 
ATOM     16  C   UNL A   1      30.509  28.670  24.023  1.00  0.00     0.051 A 
ATOM     17  C   UNL A   1      31.233  26.952  22.491  1.00  0.00     0.160 A 
ATOM     18  C   UNL A   1      31.219  28.054  25.059  1.00  0.00     0.008 A 
ATOM     19  C   UNL A   1      31.926  26.340  23.551  1.00  0.00     0.054 A 
BRANCH  15  20
ATOM     20  O   UNL A   1      29.777  28.734  21.759  1.00  0.00    -0.493 OA
ATOM     21  C   UNL A   1      30.001  30.145  21.749  1.00  0.00     0.278 C 
ENDBRANCH  15  20
BRANCH  17  22
ATOM     22  O   UNL A   1      31.372  26.272  21.311  1.00  0.00    -0.493 OA
ATOM     23  C   UNL A   1      32.624  25.662  21.034  1.00  0.00     0.278 C 
ENDBRANCH  17  22
ENDBRANCH  13  14
ENDBRANCH  12  13
ENDBRANCH   6  12
ENDBRANCH   3   5
ENDBRANCH   2   3
ENDBRANCH   1   2
BRANCH   1  24
ATOM     24  C   UNL A   1      39.326  22.219  26.309  1.00  0.00     0.275 C 
BRANCH  24  25
ATOM     25  O   UNL A   1      39.315  23.635  26.561  1.00  0.00    -0.458 OA
BRANCH  25  26
ATOM     26  C   UNL A   1      40.505  24.163  26.917  1.00  0.00     0.338 C 
ATOM     27  O   UNL A   1      41.619  23.740  26.622  1.00  0.00    -0.246 OA
BRANCH  26  28
ATOM     28  C   UNL A   1      40.319  25.387  27.707  1.00  0.00     0.060 A 
ATOM     29  C   UNL A   1      41.252  26.416  27.611  1.00  0.00     0.016 A 
ATOM     30  C   UNL A   1      39.317  25.443  28.673  1.00  0.00     0.016 A 
ATOM     31  C   UNL A   1      41.268  27.437  28.557  1.00  0.00     0.010 A 
ATOM     32  C   UNL A   1      39.260  26.536  29.544  1.00  0.00     0.010 A 
ATOM     33  C   UNL A   1      40.261  27.524  29.526  1.00  0.00    -0.014 A 
BRANCH  33  34
ATOM     34  C   UNL A   1      40.276  28.624  30.532  1.00  0.00     0.031 A 
ATOM     35  C   UNL A   1      41.288  28.612  31.649  1.00  0.00     0.074 A 
ATOM     36  C   UNL A   1      39.395  29.640  30.444  1.00  0.00     0.049 A 
ATOM     37  N   UNL A   1      41.333  29.347  32.731  1.00  0.00    -0.248 NA
ATOM     38  C   UNL A   1      42.383  27.635  31.545  1.00  0.00     0.031 C 
ATOM     39  C   UNL A   1      38.393  29.809  29.388  1.00  0.00     0.029 A 
ATOM     40  N   UNL A   1      39.201  30.732  31.253  1.00  0.00    -0.354 N 
ATOM     41  C   UNL A   1      42.414  28.875  33.468  1.00  0.00     0.074 A 
ATOM     42  C   UNL A   1      43.004  27.794  32.706  1.00  0.00     0.031 C 
ATOM     43  C   UNL A   1      37.724  30.953  29.588  1.00  0.00     0.029 A 
ATOM     44  C   UNL A   1      38.175  31.549  30.840  1.00  0.00     0.049 A 
ATOM     45  H   UNL A   1      39.745  30.913  32.054  1.00  0.00     0.167 HD
ATOM     46  C   UNL A   1      42.865  29.300  34.673  1.00  0.00     0.037 A 
ATOM     47  C   UNL A   1      37.618  32.628  31.423  1.00  0.00     0.037 A 
ATOM     48  C   UNL A   1      42.312  30.419  35.392  1.00  0.00     0.049 A 
ATOM     49  C   UNL A   1      38.126  33.076  32.762  1.00  0.00     0.074 A 
ATOM     50  C   UNL A   1      42.704  30.940  36.612  1.00  0.00     0.029 A 
ATOM     51  N   UNL A   1      41.259  31.204  34.943  1.00  0.00    -0.354 N 
ATOM     52  N   UNL A   1      39.096  32.569  33.485  1.00  0.00    -0.248 NA
ATOM     53  C   UNL A   1      37.449  34.225  33.378  1.00  0.00     0.031 C 
ATOM     54  C   UNL A   1      41.871  32.023  36.915  1.00  0.00     0.029 A 
ATOM     55  C   UNL A   1      40.984  32.200  35.865  1.00  0.00     0.049 A 
ATOM     56  H   UNL A   1      40.779  31.073  34.094  1.00  0.00     0.167 HD
ATOM     57  C   UNL A   1      39.146  33.336  34.641  1.00  0.00     0.074 A 
ATOM     58  C   UNL A   1      38.125  34.356  34.511  1.00  0.00     0.031 C 
ATOM     59  C   UNL A   1      39.961  33.204  35.718  1.00  0.00     0.037 A 
BRANCH  46  60
ATOM     60  C   UNL A   1      43.986  28.526  35.311  1.00  0.00     0.058 A 
ATOM     61  C   UNL A   1      43.754  27.443  36.174  1.00  0.00     0.135 A 
ATOM     62  C   UNL A   1      45.322  28.864  35.031  1.00  0.00     0.135 A 
ATOM     63  F   UNL A   1      42.499  27.089  36.489  1.00  0.00    -0.206 F 
ATOM     64  C   UNL A   1      44.804  26.744  36.762  1.00  0.00     0.059 A 
ATOM     65  C   UNL A   1      46.388  28.163  35.588  1.00  0.00     0.059 A 
ATOM     66  F   UNL A   1      45.601  29.890  34.212  1.00  0.00    -0.206 F 
ATOM     67  C   UNL A   1      46.118  27.115  36.467  1.00  0.00     0.060 A 
BRANCH  67  68
ATOM     68  S   UNL A   1      47.473  26.208  37.242  1.00  0.00     0.124 S 
ATOM     69  O   UNL A   1      47.148  26.354  38.657  1.00  0.00    -0.237 OA
ATOM     70  O   UNL A   1      47.312  24.867  36.691  1.00  0.00    -0.237 OA
ATOM     71  O   UNL A   1      48.663  26.926  36.794  1.00  0.00    -0.744 OA
ENDBRANCH  67  68
ENDBRANCH  46  60
BRANCH  47  72
ATOM     72  C   UNL A   1      36.483  33.319  30.757  1.00  0.00     0.058 A 
ATOM     73  C   UNL A   1      35.173  33.184  31.236  1.00  0.00     0.135 A 
ATOM     74  C   UNL A   1      36.694  34.167  29.657  1.00  0.00     0.135 A 
ATOM     75  F   UNL A   1      34.921  32.376  32.278  1.00  0.00    -0.206 F 
ATOM     76  C   UNL A   1      34.111  33.867  30.654  1.00  0.00     0.059 A 
ATOM     77  C   UNL A   1      35.652  34.881  29.075  1.00  0.00     0.059 A 
ATOM     78  F   UNL A   1      37.931  34.341  29.168  1.00  0.00    -0.206 F 
ATOM     79  C   UNL A   1      34.362  34.720  29.577  1.00  0.00     0.060 A 
BRANCH  79  80
ATOM     80  S   UNL A   1      32.994  35.670  28.878  1.00  0.00     0.124 S 
ATOM     81  O   UNL A   1      32.337  34.668  28.046  1.00  0.00    -0.237 OA
ATOM     82  O   UNL A   1      32.265  36.088  30.071  1.00  0.00    -0.237 OA
ATOM     83  O   UNL A   1      33.670  36.747  28.159  1.00  0.00    -0.744 OA
ENDBRANCH  79  80
ENDBRANCH  47  72
BRANCH  59  84
ATOM     84  C   UNL A   1      39.787  34.199  36.828  1.00  0.00     0.058 A 
ATOM     85  C   UNL A   1      39.056  33.888  37.983  1.00  0.00     0.135 A 
ATOM     86  C   UNL A   1      40.389  35.465  36.748  1.00  0.00     0.135 A 
ATOM     87  F   UNL A   1      38.454  32.694  38.101  1.00  0.00    -0.206 F 
ATOM     88  C   UNL A   1      38.907  34.807  39.015  1.00  0.00     0.059 A 
ATOM     89  C   UNL A   1      40.271  36.392  37.779  1.00  0.00     0.059 A 
ATOM     90  F   UNL A   1      41.106  35.807  35.666  1.00  0.00    -0.206 F 
ATOM     91  C   UNL A   1      39.517  36.058  38.903  1.00  0.00     0.060 A 
BRANCH  91  92
ATOM     92  S   UNL A   1      39.339  37.236  40.260  1.00  0.00     0.124 S 
ATOM     93  O   UNL A   1      38.597  38.314  39.617  1.00  0.00    -0.237 OA
ATOM     94  O   UNL A   1      38.602  36.463  41.254  1.00  0.00    -0.237 OA
ATOM     95  O   UNL A   1      40.719  37.549  40.618  1.00  0.00    -0.744 OA
ENDBRANCH  91  92
ENDBRANCH  59  84
ENDBRANCH  33  34
ENDBRANCH  26  28
ENDBRANCH  25  26
ENDBRANCH  24  25
ENDBRANCH   1  24
TORSDOF 19
ENDMDL
MODEL 2
REMARK VINA RESULT:     -10.9      6.579     12.028
REMARK SMILES COc1ccc(CCn2cc(C(=O)OCCOC(=O)c3ccc(-c4c5nc(c(-c6c(F)cc(S(=O)(=O)[O-])cc6F)c6ccc([nH]6)c(-c6c(F)cc(S(=O)(=O)[O-])cc6F)c6nc(c(-c7c(F)cc(S(=O)(=O)[O-])cc7F)c7ccc4[nH]7)C=C6)C=C5)cc3)ccc2=O)cc1OC
REMARK SMILES IDX 15 1 14 2 12 3 13 4 11 5 9 6 10 7 88 8 87 9 89 10 86 11 8 12
REMARK SMILES IDX 7 13 6 14 3 15 4 16 91 17 5 18 90 19 2 20 1 21 92 22 93 23
REMARK SMILES IDX 16 24 17 25 18 26 19 27 20 28 21 29 85 30 22 31 84 32 23 33
REMARK SMILES IDX 24 34 25 35 78 36 26 37 83 38 77 39 79 40 27 41 82 42 76 43
REMARK SMILES IDX 75 44 28 46 62 47 41 48 61 49 42 50 45 51 60 52 80 53 43 54
REMARK SMILES IDX 44 55 59 57 81 58 46 59 29 60 30 61 39 62 31 63 32 64 38 65
REMARK SMILES IDX 40 66 33 67 34 68 35 69 36 70 37 71 63 72 64 73 73 74 65 75
REMARK SMILES IDX 66 76 72 77 74 78 67 79 68 80 69 81 70 82 71 83 47 84 48 85
REMARK SMILES IDX 57 86 49 87 50 88 56 89 58 90 51 91 52 92 53 93 54 94 55 95
REMARK H PARENT 79 45 45 56
REMARK Flexibility Score: inf
ROOT
ATOM      1  C   UNL A   1      33.167  30.217  27.120  1.00  0.00     0.275 C 
ENDROOT
BRANCH   1   2
ATOM      2  O   UNL A   1      33.043  29.469  25.895  1.00  0.00    -0.458 OA
BRANCH   2   3
ATOM      3  C   UNL A   1      32.979  28.126  26.067  1.00  0.00     0.339 C 
ATOM      4  O   UNL A   1      33.684  27.469  26.819  1.00  0.00    -0.246 OA
BRANCH   3   5
ATOM      5  C   UNL A   1      32.018  27.474  25.148  1.00  0.00     0.076 A 
ATOM      6  N   UNL A   1      32.027  25.893  23.379  1.00  0.00    -0.314 N 
ATOM      7  C   UNL A   1      32.565  27.002  24.018  1.00  0.00     0.104 A 
ATOM      8  C   UNL A   1      30.793  25.341  23.753  1.00  0.00     0.250 A 
ATOM      9  C   UNL A   1      30.143  25.956  24.940  1.00  0.00     0.072 A 
ATOM     10  O   UNL A   1      30.249  24.394  23.195  1.00  0.00    -0.269 OA
ATOM     11  C   UNL A   1      30.749  26.952  25.598  1.00  0.00     0.023 A 
BRANCH   6  12
ATOM     12  C   UNL A   1      32.797  25.180  22.359  1.00  0.00     0.130 C 
BRANCH  12  13
ATOM     13  C   UNL A   1      34.101  24.480  22.797  1.00  0.00     0.057 C 
BRANCH  13  14
ATOM     14  C   UNL A   1      34.059  23.052  23.312  1.00  0.00    -0.042 A 
ATOM     15  C   UNL A   1      33.962  20.539  24.623  1.00  0.00     0.160 A 
ATOM     16  C   UNL A   1      32.901  20.967  23.825  1.00  0.00     0.051 A 
ATOM     17  C   UNL A   1      35.111  21.329  24.725  1.00  0.00     0.160 A 
ATOM     18  C   UNL A   1      32.953  22.207  23.181  1.00  0.00     0.008 A 
ATOM     19  C   UNL A   1      35.135  22.580  24.081  1.00  0.00     0.054 A 
BRANCH  15  20
ATOM     20  O   UNL A   1      33.874  19.322  25.244  1.00  0.00    -0.493 OA
ATOM     21  C   UNL A   1      32.564  18.759  25.140  1.00  0.00     0.278 C 
ENDBRANCH  15  20
BRANCH  17  22
ATOM     22  O   UNL A   1      36.263  21.073  25.418  1.00  0.00    -0.493 OA
ATOM     23  C   UNL A   1      37.458  21.708  24.987  1.00  0.00     0.278 C 
ENDBRANCH  17  22
ENDBRANCH  13  14
ENDBRANCH  12  13
ENDBRANCH   6  12
ENDBRANCH   3   5
ENDBRANCH   2   3
ENDBRANCH   1   2
BRANCH   1  24
ATOM     24  C   UNL A   1      34.594  30.721  27.329  1.00  0.00     0.275 C 
BRANCH  24  25
ATOM     25  O   UNL A   1      35.333  29.833  28.186  1.00  0.00    -0.458 OA
BRANCH  25  26
ATOM     26  C   UNL A   1      36.023  30.436  29.177  1.00  0.00     0.338 C 
ATOM     27  O   UNL A   1      35.559  31.024  30.149  1.00  0.00    -0.246 OA
BRANCH  26  28
ATOM     28  C   UNL A   1      37.470  30.273  28.980  1.00  0.00     0.060 A 
ATOM     29  C   UNL A   1      37.971  30.074  27.696  1.00  0.00     0.016 A 
ATOM     30  C   UNL A   1      38.309  30.141  30.084  1.00  0.00     0.016 A 
ATOM     31  C   UNL A   1      39.274  29.619  27.517  1.00  0.00     0.010 A 
ATOM     32  C   UNL A   1      39.653  29.804  29.891  1.00  0.00     0.010 A 
ATOM     33  C   UNL A   1      40.142  29.495  28.609  1.00  0.00    -0.014 A 
BRANCH  33  34
ATOM     34  C   UNL A   1      41.539  29.016  28.411  1.00  0.00     0.031 A 
ATOM     35  C   UNL A   1      42.693  29.976  28.545  1.00  0.00     0.074 A 
ATOM     36  C   UNL A   1      41.780  27.721  28.123  1.00  0.00     0.049 A 
ATOM     37  N   UNL A   1      43.947  29.812  28.208  1.00  0.00    -0.248 NA
ATOM     38  C   UNL A   1      42.395  31.299  29.116  1.00  0.00     0.031 C 
ATOM     39  C   UNL A   1      40.765  26.670  28.013  1.00  0.00     0.029 A 
ATOM     40  N   UNL A   1      42.959  27.062  27.875  1.00  0.00    -0.354 N 
ATOM     41  C   UNL A   1      44.571  31.030  28.459  1.00  0.00     0.074 A 
ATOM     42  C   UNL A   1      43.559  31.922  28.984  1.00  0.00     0.031 C 
ATOM     43  C   UNL A   1      41.366  25.497  27.766  1.00  0.00     0.029 A 
ATOM     44  C   UNL A   1      42.795  25.726  27.596  1.00  0.00     0.049 A 
ATOM     45  H   UNL A   1      43.839  27.505  27.895  1.00  0.00     0.167 HD
ATOM     46  C   UNL A   1      45.867  31.372  28.260  1.00  0.00     0.037 A 
ATOM     47  C   UNL A   1      43.682  24.794  27.197  1.00  0.00     0.037 A 
ATOM     48  C   UNL A   1      46.881  30.456  27.800  1.00  0.00     0.049 A 
ATOM     49  C   UNL A   1      45.111  25.195  26.973  1.00  0.00     0.074 A 
ATOM     50  C   UNL A   1      48.225  30.698  27.579  1.00  0.00     0.029 A 
ATOM     51  N   UNL A   1      46.663  29.117  27.510  1.00  0.00    -0.354 N 
ATOM     52  N   UNL A   1      45.669  26.371  27.136  1.00  0.00    -0.248 NA
ATOM     53  C   UNL A   1      46.024  24.154  26.487  1.00  0.00     0.031 C 
ATOM     54  C   UNL A   1      48.815  29.511  27.130  1.00  0.00     0.029 A 
ATOM     55  C   UNL A   1      47.846  28.522  27.106  1.00  0.00     0.049 A 
ATOM     56  H   UNL A   1      45.795  28.658  27.582  1.00  0.00     0.167 HD
ATOM     57  C   UNL A   1      46.999  26.211  26.772  1.00  0.00     0.074 A 
ATOM     58  C   UNL A   1      47.168  24.820  26.403  1.00  0.00     0.031 C 
ATOM     59  C   UNL A   1      47.992  27.135  26.740  1.00  0.00     0.037 A 
BRANCH  46  60
ATOM     60  C   UNL A   1      46.255  32.805  28.499  1.00  0.00     0.058 A 
ATOM     61  C   UNL A   1      46.536  33.302  29.781  1.00  0.00     0.135 A 
ATOM     62  C   UNL A   1      46.369  33.692  27.415  1.00  0.00     0.135 A 
ATOM     63  F   UNL A   1      46.426  32.503  30.854  1.00  0.00    -0.206 F 
ATOM     64  C   UNL A   1      46.885  34.634  29.984  1.00  0.00     0.059 A 
ATOM     65  C   UNL A   1      46.740  35.022  27.591  1.00  0.00     0.059 A 
ATOM     66  F   UNL A   1      46.112  33.269  26.167  1.00  0.00    -0.206 F 
ATOM     67  C   UNL A   1      46.979  35.488  28.883  1.00  0.00     0.060 A 
BRANCH  67  68
ATOM     68  S   UNL A   1      47.423  37.217  29.157  1.00  0.00     0.124 S 
ATOM     69  O   UNL A   1      46.766  37.868  28.029  1.00  0.00    -0.237 OA
ATOM     70  O   UNL A   1      46.843  37.487  30.469  1.00  0.00    -0.237 OA
ATOM     71  O   UNL A   1      48.883  37.204  29.113  1.00  0.00    -0.744 OA
ENDBRANCH  67  68
ENDBRANCH  46  60
BRANCH  47  72
ATOM     72  C   UNL A   1      43.221  23.405  26.937  1.00  0.00     0.058 A 
ATOM     73  C   UNL A   1      43.133  22.906  25.630  1.00  0.00     0.135 A 
ATOM     74  C   UNL A   1      42.904  22.535  27.993  1.00  0.00     0.135 A 
ATOM     75  F   UNL A   1      43.415  23.703  24.588  1.00  0.00    -0.206 F 
ATOM     76  C   UNL A   1      42.754  21.592  25.377  1.00  0.00     0.059 A 
ATOM     77  C   UNL A   1      42.548  21.210  27.766  1.00  0.00     0.059 A 
ATOM     78  F   UNL A   1      42.984  22.961  29.263  1.00  0.00    -0.206 F 
ATOM     79  C   UNL A   1      42.470  20.749  26.454  1.00  0.00     0.060 A 
BRANCH  79  80
ATOM     80  S   UNL A   1      42.059  19.021  26.125  1.00  0.00     0.124 S 
ATOM     81  O   UNL A   1      40.650  19.118  25.763  1.00  0.00    -0.237 OA
ATOM     82  O   UNL A   1      42.977  18.685  25.040  1.00  0.00    -0.237 OA
ATOM     83  O   UNL A   1      42.343  18.364  27.398  1.00  0.00    -0.744 OA
ENDBRANCH  79  80
ENDBRANCH  47  72
BRANCH  59  84
ATOM     84  C   UNL A   1      49.348  26.661  26.306  1.00  0.00     0.058 A 
ATOM     85  C   UNL A   1      49.829  26.902  25.011  1.00  0.00     0.135 A 
ATOM     86  C   UNL A   1      50.188  25.989  27.209  1.00  0.00     0.135 A 
ATOM     87  F   UNL A   1      49.059  27.533  24.111  1.00  0.00    -0.206 F 
ATOM     88  C   UNL A   1      51.091  26.473  24.616  1.00  0.00     0.059 A 
ATOM     89  C   UNL A   1      51.462  25.570  26.841  1.00  0.00     0.059 A 
ATOM     90  F   UNL A   1      49.775  25.742  28.462  1.00  0.00    -0.206 F 
ATOM     91  C   UNL A   1      51.900  25.805  25.538  1.00  0.00     0.060 A 
BRANCH  91  92
ATOM     92  S   UNL A   1      53.547  25.274  25.024  1.00  0.00     0.124 S 
ATOM     93  O   UNL A   1      53.517  25.569  23.595  1.00  0.00    -0.237 OA
ATOM     94  O   UNL A   1      54.418  26.124  25.829  1.00  0.00    -0.237 OA
ATOM     95  O   UNL A   1      53.569  23.857  25.372  1.00  0.00    -0.744 OA
ENDBRANCH  91  92
ENDBRANCH  59  84
ENDBRANCH  33  34
ENDBRANCH  26  28
ENDBRANCH  25  26
ENDBRANCH  24  25
ENDBRANCH   1  24
TORSDOF 19
ENDMDL
MODEL 3
REMARK VINA RESULT:     -10.9      2.827      9.522
REMARK SMILES COc1ccc(CCn2cc(C(=O)OCCOC(=O)c3ccc(-c4c5nc(c(-c6c(F)cc(S(=O)(=O)[O-])cc6F)c6ccc([nH]6)c(-c6c(F)cc(S(=O)(=O)[O-])cc6F)c6nc(c(-c7c(F)cc(S(=O)(=O)[O-])cc7F)c7ccc4[nH]7)C=C6)C=C5)cc3)ccc2=O)cc1OC
REMARK SMILES IDX 15 1 14 2 12 3 13 4 11 5 9 6 10 7 88 8 87 9 89 10 86 11 8 12
REMARK SMILES IDX 7 13 6 14 3 15 4 16 91 17 5 18 90 19 2 20 1 21 92 22 93 23
REMARK SMILES IDX 16 24 17 25 18 26 19 27 20 28 21 29 85 30 22 31 84 32 23 33
REMARK SMILES IDX 24 34 25 35 78 36 26 37 83 38 77 39 79 40 27 41 82 42 76 43
REMARK SMILES IDX 75 44 28 46 62 47 41 48 61 49 42 50 45 51 60 52 80 53 43 54
REMARK SMILES IDX 44 55 59 57 81 58 46 59 29 60 30 61 39 62 31 63 32 64 38 65
REMARK SMILES IDX 40 66 33 67 34 68 35 69 36 70 37 71 63 72 64 73 73 74 65 75
REMARK SMILES IDX 66 76 72 77 74 78 67 79 68 80 69 81 70 82 71 83 47 84 48 85
REMARK SMILES IDX 57 86 49 87 50 88 56 89 58 90 51 91 52 92 53 93 54 94 55 95
REMARK H PARENT 79 45 45 56
REMARK Flexibility Score: inf
ROOT
ATOM      1  C   UNL A   1      45.505  24.084  25.499  1.00  0.00     0.275 C 
ENDROOT
BRANCH   1   2
ATOM      2  O   UNL A   1      45.826  22.978  24.634  1.00  0.00    -0.458 OA
BRANCH   2   3
ATOM      3  C   UNL A   1      44.746  22.291  24.186  1.00  0.00     0.339 C 
ATOM      4  O   UNL A   1      43.988  22.653  23.298  1.00  0.00    -0.246 OA
BRANCH   3   5
ATOM      5  C   UNL A   1      44.482  21.064  24.970  1.00  0.00     0.076 A 
ATOM      6  N   UNL A   1      42.650  19.954  25.992  1.00  0.00    -0.314 N 
ATOM      7  C   UNL A   1      43.367  21.111  25.714  1.00  0.00     0.104 A 
ATOM      8  C   UNL A   1      43.148  18.678  25.693  1.00  0.00     0.250 A 
ATOM      9  C   UNL A   1      44.446  18.643  24.971  1.00  0.00     0.072 A 
ATOM     10  O   UNL A   1      42.580  17.622  25.958  1.00  0.00    -0.269 OA
ATOM     11  C   UNL A   1      45.052  19.783  24.621  1.00  0.00     0.023 A 
BRANCH   6  12
ATOM     12  C   UNL A   1      41.281  20.036  26.503  1.00  0.00     0.130 C 
BRANCH  12  13
ATOM     13  C   UNL A   1      40.831  21.361  27.152  1.00  0.00     0.057 C 
BRANCH  13  14
ATOM     14  C   UNL A   1      39.690  22.156  26.540  1.00  0.00    -0.042 A 
ATOM     15  C   UNL A   1      37.329  23.423  25.609  1.00  0.00     0.160 A 
ATOM     16  C   UNL A   1      38.242  24.115  26.405  1.00  0.00     0.051 A 
ATOM     17  C   UNL A   1      37.614  22.112  25.214  1.00  0.00     0.160 A 
ATOM     18  C   UNL A   1      39.405  23.486  26.862  1.00  0.00     0.008 A 
ATOM     19  C   UNL A   1      38.781  21.494  25.698  1.00  0.00     0.054 A 
BRANCH  15  20
ATOM     20  O   UNL A   1      36.198  24.068  25.185  1.00  0.00    -0.493 OA
ATOM     21  C   UNL A   1      35.133  23.964  26.132  1.00  0.00     0.278 C 
ENDBRANCH  15  20
BRANCH  17  22
ATOM     22  O   UNL A   1      36.875  21.283  24.413  1.00  0.00    -0.493 OA
ATOM     23  C   UNL A   1      35.736  20.650  24.976  1.00  0.00     0.278 C 
ENDBRANCH  17  22
ENDBRANCH  13  14
ENDBRANCH  12  13
ENDBRANCH   6  12
ENDBRANCH   3   5
ENDBRANCH   2   3
ENDBRANCH   1   2
BRANCH   1  24
ATOM     24  C   UNL A   1      44.010  24.398  25.482  1.00  0.00     0.275 C 
BRANCH  24  25
ATOM     25  O   UNL A   1      43.782  25.818  25.454  1.00  0.00    -0.458 OA
BRANCH  25  26
ATOM     26  C   UNL A   1      42.519  26.202  25.734  1.00  0.00     0.338 C 
ATOM     27  O   UNL A   1      41.531  26.069  25.019  1.00  0.00    -0.246 OA
BRANCH  26  28
ATOM     28  C   UNL A   1      42.438  26.794  27.076  1.00  0.00     0.060 A 
ATOM     29  C   UNL A   1      41.668  26.174  28.056  1.00  0.00     0.016 A 
ATOM     30  C   UNL A   1      42.982  28.055  27.311  1.00  0.00     0.016 A 
ATOM     31  C   UNL A   1      41.330  26.859  29.219  1.00  0.00     0.010 A 
ATOM     32  C   UNL A   1      42.743  28.690  28.534  1.00  0.00     0.010 A 
ATOM     33  C   UNL A   1      41.878  28.120  29.486  1.00  0.00    -0.014 A 
BRANCH  33  34
ATOM     34  C   UNL A   1      41.521  28.847  30.737  1.00  0.00     0.031 A 
ATOM     35  C   UNL A   1      40.305  29.737  30.772  1.00  0.00     0.074 A 
ATOM     36  C   UNL A   1      42.276  28.707  31.845  1.00  0.00     0.049 A 
ATOM     37  N   UNL A   1      39.947  30.611  31.678  1.00  0.00    -0.248 NA
ATOM     38  C   UNL A   1      39.380  29.646  29.631  1.00  0.00     0.031 C 
ATOM     39  C   UNL A   1      43.450  27.841  31.972  1.00  0.00     0.029 A 
ATOM     40  N   UNL A   1      42.164  29.286  33.085  1.00  0.00    -0.354 N 
ATOM     41  C   UNL A   1      38.798  31.222  31.186  1.00  0.00     0.074 A 
ATOM     42  C   UNL A   1      38.515  30.613  29.903  1.00  0.00     0.031 C 
ATOM     43  C   UNL A   1      43.921  27.911  33.225  1.00  0.00     0.029 A 
ATOM     44  C   UNL A   1      43.150  28.903  33.963  1.00  0.00     0.049 A 
ATOM     45  H   UNL A   1      41.445  29.917  33.323  1.00  0.00     0.167 HD
ATOM     46  C   UNL A   1      38.056  32.205  31.750  1.00  0.00     0.037 A 
ATOM     47  C   UNL A   1      43.439  29.333  35.206  1.00  0.00     0.037 A 
ATOM     48  C   UNL A   1      38.309  32.757  33.057  1.00  0.00     0.049 A 
ATOM     49  C   UNL A   1      42.611  30.430  35.809  1.00  0.00     0.074 A 
ATOM     50  C   UNL A   1      37.609  33.745  33.727  1.00  0.00     0.029 A 
ATOM     51  N   UNL A   1      39.332  32.351  33.901  1.00  0.00    -0.354 N 
ATOM     52  N   UNL A   1      41.578  31.055  35.297  1.00  0.00    -0.248 NA
ATOM     53  C   UNL A   1      43.002  30.899  37.144  1.00  0.00     0.031 C 
ATOM     54  C   UNL A   1      38.226  33.956  34.965  1.00  0.00     0.029 A 
ATOM     55  C   UNL A   1      39.287  33.074  35.082  1.00  0.00     0.049 A 
ATOM     56  H   UNL A   1      39.993  31.652  33.693  1.00  0.00     0.167 HD
ATOM     57  C   UNL A   1      41.194  31.992  36.248  1.00  0.00     0.074 A 
ATOM     58  C   UNL A   1      42.092  31.836  37.375  1.00  0.00     0.031 C 
ATOM     59  C   UNL A   1      40.192  32.904  36.191  1.00  0.00     0.037 A 
BRANCH  46  60
ATOM     60  C   UNL A   1      36.925  32.778  30.940  1.00  0.00     0.058 A 
ATOM     61  C   UNL A   1      35.605  32.318  31.066  1.00  0.00     0.135 A 
ATOM     62  C   UNL A   1      37.169  33.825  30.035  1.00  0.00     0.135 A 
ATOM     63  F   UNL A   1      35.319  31.308  31.903  1.00  0.00    -0.206 F 
ATOM     64  C   UNL A   1      34.573  32.854  30.302  1.00  0.00     0.059 A 
ATOM     65  C   UNL A   1      36.148  34.393  29.279  1.00  0.00     0.059 A 
ATOM     66  F   UNL A   1      38.413  34.304  29.876  1.00  0.00    -0.206 F 
ATOM     67  C   UNL A   1      34.855  33.888  29.407  1.00  0.00     0.060 A 
BRANCH  67  68
ATOM     68  S   UNL A   1      33.511  34.570  28.412  1.00  0.00     0.124 S 
ATOM     69  O   UNL A   1      34.237  35.460  27.514  1.00  0.00    -0.237 OA
ATOM     70  O   UNL A   1      32.938  33.378  27.796  1.00  0.00    -0.237 OA
ATOM     71  O   UNL A   1      32.660  35.231  29.399  1.00  0.00    -0.744 OA
ENDBRANCH  67  68
ENDBRANCH  46  60
BRANCH  47  72
ATOM     72  C   UNL A   1      44.599  28.754  35.933  1.00  0.00     0.058 A 
ATOM     73  C   UNL A   1      44.449  27.631  36.757  1.00  0.00     0.135 A 
ATOM     74  C   UNL A   1      45.891  29.284  35.778  1.00  0.00     0.135 A 
ATOM     75  F   UNL A   1      43.232  27.096  36.944  1.00  0.00    -0.206 F 
ATOM     76  C   UNL A   1      45.536  27.049  37.400  1.00  0.00     0.059 A 
ATOM     77  C   UNL A   1      46.997  28.704  36.389  1.00  0.00     0.059 A 
ATOM     78  F   UNL A   1      46.091  30.351  34.990  1.00  0.00    -0.206 F 
ATOM     79  C   UNL A   1      46.809  27.588  37.203  1.00  0.00     0.060 A 
BRANCH  79  80
ATOM     80  S   UNL A   1      48.229  26.779  37.972  1.00  0.00     0.124 S 
ATOM     81  O   UNL A   1      48.436  25.643  37.082  1.00  0.00    -0.237 OA
ATOM     82  O   UNL A   1      49.246  27.825  37.922  1.00  0.00    -0.237 OA
ATOM     83  O   UNL A   1      47.743  26.456  39.311  1.00  0.00    -0.744 OA
ENDBRANCH  79  80
ENDBRANCH  47  72
BRANCH  59  84
ATOM     84  C   UNL A   1      40.009  33.789  37.389  1.00  0.00     0.058 A 
ATOM     85  C   UNL A   1      39.126  33.448  38.424  1.00  0.00     0.135 A 
ATOM     86  C   UNL A   1      40.751  34.975  37.517  1.00  0.00     0.135 A 
ATOM     87  F   UNL A   1      38.389  32.330  38.342  1.00  0.00    -0.206 F 
ATOM     88  C   UNL A   1      38.968  34.263  39.539  1.00  0.00     0.059 A 
ATOM     89  C   UNL A   1      40.624  35.794  38.634  1.00  0.00     0.059 A 
ATOM     90  F   UNL A   1      41.615  35.340  36.557  1.00  0.00    -0.206 F 
ATOM     91  C   UNL A   1      39.720  35.436  39.634  1.00  0.00     0.060 A 
BRANCH  91  92
ATOM     92  S   UNL A   1      39.526  36.476  41.097  1.00  0.00     0.124 S 
ATOM     93  O   UNL A   1      38.950  35.535  42.051  1.00  0.00    -0.237 OA
ATOM     94  O   UNL A   1      40.896  36.896  41.369  1.00  0.00    -0.237 OA
ATOM     95  O   UNL A   1      38.631  37.536  40.642  1.00  0.00    -0.744 OA
ENDBRANCH  91  92
ENDBRANCH  59  84
ENDBRANCH  33  34
ENDBRANCH  26  28
ENDBRANCH  25  26
ENDBRANCH  24  25
ENDBRANCH   1  24
TORSDOF 19
ENDMDL
