MODEL 1
REMARK VINA RESULT:     -12.1      0.000      0.000
REMARK SMILES O=C(Nc1ccc(O)cc1C(=O)OCCOC(=O)c1ccc(-c2c3nc(c(-c4c(F)cc(S(=O)(=O)[O-])cc4F)c4ccc([nH]4)c(-c4c(F)cc(S(=O)(=O)[O-])cc4F)c4nc(c(-c5c(F)cc(S(=O)(=O)[O-])cc5F)c5ccc2[nH]5)C=C4)C=C3)cc1)c1ccc(Br)nc1
REMARK SMILES IDX 15 1 14 2 13 3 11 4 12 5 10 6 4 7 5 8 6 9 9 10 7 11 3 12
REMARK SMILES IDX 1 13 2 14 85 16 86 17 91 18 87 19 90 20 88 21 89 22 8 23
REMARK SMILES IDX 16 25 17 26 18 27 19 28 20 29 84 30 21 31 83 32 22 33 23 34
REMARK SMILES IDX 24 35 77 36 25 37 82 38 76 39 78 40 26 41 81 42 75 43 74 44
REMARK SMILES IDX 27 46 61 47 40 48 60 49 41 50 44 51 59 52 79 53 42 54 43 55
REMARK SMILES IDX 58 57 80 58 45 59 28 60 29 61 38 62 30 63 31 64 37 65 39 66
REMARK SMILES IDX 32 67 33 68 34 69 35 70 36 71 62 72 63 73 72 74 64 75 65 76
REMARK SMILES IDX 71 77 73 78 66 79 67 80 68 81 69 82 70 83 46 84 47 85 56 86
REMARK SMILES IDX 48 87 49 88 55 89 57 90 50 91 51 92 52 93 53 94 54 95
REMARK H PARENT 3 15 8 24 78 45 44 56
REMARK Flexibility Score: inf
ROOT
ATOM      1  C   UNL A   1      34.502  31.262  27.658  1.00  0.00     0.275 C 
ENDROOT
BRANCH   1   2
ATOM      2  C   UNL A   1      33.083  30.810  27.309  1.00  0.00     0.275 C 
BRANCH   2   3
ATOM      3  O   UNL A   1      33.097  29.771  26.307  1.00  0.00    -0.458 OA
BRANCH   3   4
ATOM      4  C   UNL A   1      32.271  28.713  26.521  1.00  0.00     0.340 C 
ATOM      5  O   UNL A   1      32.048  28.195  27.600  1.00  0.00    -0.246 OA
BRANCH   4   6
ATOM      6  C   UNL A   1      31.584  28.291  25.266  1.00  0.00     0.087 A 
ATOM      7  C   UNL A   1      30.899  27.072  25.091  1.00  0.00     0.056 A 
ATOM      8  C   UNL A   1      30.281  26.831  23.851  1.00  0.00     0.031 A 
ATOM      9  C   UNL A   1      30.451  27.696  22.767  1.00  0.00     0.048 A 
ATOM     10  C   UNL A   1      31.683  29.191  24.189  1.00  0.00     0.064 A 
ATOM     11  C   UNL A   1      31.175  28.860  22.942  1.00  0.00     0.116 A 
BRANCH   7  12
ATOM     12  N   UNL A   1      30.789  26.148  26.156  1.00  0.00    -0.321 N 
ATOM     13  O   UNL A   1      30.940  24.150  27.215  1.00  0.00    -0.269 OA
ATOM     14  C   UNL A   1      31.373  24.919  26.360  1.00  0.00     0.257 C 
ATOM     15  H   UNL A   1      30.188  26.436  26.882  1.00  0.00     0.170 HD
BRANCH  14  16
ATOM     16  C   UNL A   1      32.576  24.526  25.609  1.00  0.00     0.058 A 
ATOM     17  C   UNL A   1      33.789  25.171  25.845  1.00  0.00     0.018 A 
ATOM     18  C   UNL A   1      32.538  23.504  24.668  1.00  0.00     0.126 A 
ATOM     19  C   UNL A   1      34.931  24.724  25.183  1.00  0.00     0.037 A 
ATOM     20  N   UNL A   1      33.635  23.052  24.016  1.00  0.00    -0.249 NA
ATOM     21  C   UNL A   1      34.809  23.662  24.294  1.00  0.00     0.106 A 
ATOM     22  Br  UNL A   1      36.365  23.005  23.435  1.00  0.00    -0.029 Br
ENDBRANCH  14  16
ENDBRANCH   7  12
BRANCH  11  23
ATOM     23  O   UNL A   1      31.411  29.716  21.911  1.00  0.00    -0.508 OA
ATOM     24  H   UNL A   1      32.214  29.660  21.431  1.00  0.00     0.293 HD
ENDBRANCH  11  23
ENDBRANCH   4   6
ENDBRANCH   3   4
ENDBRANCH   2   3
ENDBRANCH   1   2
BRANCH   1  25
ATOM     25  O   UNL A   1      35.224  30.200  28.306  1.00  0.00    -0.458 OA
BRANCH  25  26
ATOM     26  C   UNL A   1      36.132  30.591  29.228  1.00  0.00     0.338 C 
ATOM     27  O   UNL A   1      35.936  31.278  30.218  1.00  0.00    -0.246 OA
BRANCH  26  28
ATOM     28  C   UNL A   1      37.425  29.957  28.936  1.00  0.00     0.060 A 
ATOM     29  C   UNL A   1      38.218  29.589  30.019  1.00  0.00     0.016 A 
ATOM     30  C   UNL A   1      37.915  29.848  27.637  1.00  0.00     0.016 A 
ATOM     31  C   UNL A   1      39.531  29.171  29.823  1.00  0.00     0.010 A 
ATOM     32  C   UNL A   1      39.214  29.358  27.435  1.00  0.00     0.010 A 
ATOM     33  C   UNL A   1      40.049  29.044  28.527  1.00  0.00    -0.014 A 
BRANCH  33  34
ATOM     34  C   UNL A   1      41.470  28.639  28.328  1.00  0.00     0.031 A 
ATOM     35  C   UNL A   1      42.573  29.657  28.472  1.00  0.00     0.074 A 
ATOM     36  C   UNL A   1      41.785  27.357  28.051  1.00  0.00     0.049 A 
ATOM     37  N   UNL A   1      43.847  29.545  28.190  1.00  0.00    -0.248 NA
ATOM     38  C   UNL A   1      42.193  30.981  28.990  1.00  0.00     0.031 C 
ATOM     39  C   UNL A   1      40.828  26.255  27.931  1.00  0.00     0.029 A 
ATOM     40  N   UNL A   1      43.002  26.759  27.826  1.00  0.00    -0.354 N 
ATOM     41  C   UNL A   1      44.405  30.794  28.439  1.00  0.00     0.074 A 
ATOM     42  C   UNL A   1      43.333  31.650  28.899  1.00  0.00     0.031 C 
ATOM     43  C   UNL A   1      41.493  25.114  27.692  1.00  0.00     0.029 A 
ATOM     44  C   UNL A   1      42.916  25.412  27.557  1.00  0.00     0.049 A 
ATOM     45  H   UNL A   1      43.856  27.249  27.855  1.00  0.00     0.167 HD
ATOM     46  C   UNL A   1      45.694  31.189  28.296  1.00  0.00     0.037 A 
ATOM     47  C   UNL A   1      43.864  24.522  27.202  1.00  0.00     0.037 A 
ATOM     48  C   UNL A   1      46.770  30.315  27.904  1.00  0.00     0.049 A 
ATOM     49  C   UNL A   1      45.283  24.987  27.037  1.00  0.00     0.074 A 
ATOM     50  C   UNL A   1      48.112  30.619  27.752  1.00  0.00     0.029 A 
ATOM     51  N   UNL A   1      46.633  28.964  27.621  1.00  0.00    -0.354 N 
ATOM     52  N   UNL A   1      45.784  26.185  27.221  1.00  0.00    -0.248 NA
ATOM     53  C   UNL A   1      46.265  23.987  26.595  1.00  0.00     0.031 C 
ATOM     54  C   UNL A   1      48.782  29.459  27.348  1.00  0.00     0.029 A 
ATOM     55  C   UNL A   1      47.864  28.423  27.287  1.00  0.00     0.049 A 
ATOM     56  H   UNL A   1      45.786  28.464  27.653  1.00  0.00     0.167 HD
ATOM     57  C   UNL A   1      47.139  26.080  26.929  1.00  0.00     0.074 A 
ATOM     58  C   UNL A   1      47.384  24.697  26.574  1.00  0.00     0.031 C 
ATOM     59  C   UNL A   1      48.093  27.043  26.946  1.00  0.00     0.037 A 
BRANCH  46  60
ATOM     60  C   UNL A   1      46.016  32.639  28.534  1.00  0.00     0.058 A 
ATOM     61  C   UNL A   1      46.397  33.122  29.794  1.00  0.00     0.135 A 
ATOM     62  C   UNL A   1      45.995  33.548  27.462  1.00  0.00     0.135 A 
ATOM     63  F   UNL A   1      46.417  32.301  30.856  1.00  0.00    -0.206 F 
ATOM     64  C   UNL A   1      46.729  34.460  29.989  1.00  0.00     0.059 A 
ATOM     65  C   UNL A   1      46.347  34.884  27.629  1.00  0.00     0.059 A 
ATOM     66  F   UNL A   1      45.638  33.138  26.234  1.00  0.00    -0.206 F 
ATOM     67  C   UNL A   1      46.702  35.334  28.899  1.00  0.00     0.060 A 
BRANCH  67  68
ATOM     68  S   UNL A   1      47.156  37.063  29.161  1.00  0.00     0.124 S 
ATOM     69  O   UNL A   1      46.964  37.198  30.602  1.00  0.00    -0.237 OA
ATOM     70  O   UNL A   1      48.540  37.097  28.701  1.00  0.00    -0.237 OA
ATOM     71  O   UNL A   1      46.205  37.793  28.329  1.00  0.00    -0.744 OA
ENDBRANCH  67  68
ENDBRANCH  46  60
BRANCH  47  72
ATOM     72  C   UNL A   1      43.493  23.106  26.932  1.00  0.00     0.058 A 
ATOM     73  C   UNL A   1      43.474  22.597  25.626  1.00  0.00     0.135 A 
ATOM     74  C   UNL A   1      43.149  22.234  27.978  1.00  0.00     0.135 A 
ATOM     75  F   UNL A   1      43.781  23.393  24.591  1.00  0.00    -0.206 F 
ATOM     76  C   UNL A   1      43.117  21.277  25.364  1.00  0.00     0.059 A 
ATOM     77  C   UNL A   1      42.817  20.904  27.744  1.00  0.00     0.059 A 
ATOM     78  F   UNL A   1      43.160  22.670  29.248  1.00  0.00    -0.206 F 
ATOM     79  C   UNL A   1      42.791  20.438  26.431  1.00  0.00     0.060 A 
BRANCH  79  80
ATOM     80  S   UNL A   1      42.373  18.714  26.090  1.00  0.00     0.124 S 
ATOM     81  O   UNL A   1      42.631  18.089  27.381  1.00  0.00    -0.237 OA
ATOM     82  O   UNL A   1      40.971  18.807  25.694  1.00  0.00    -0.237 OA
ATOM     83  O   UNL A   1      43.295  18.354  25.016  1.00  0.00    -0.744 OA
ENDBRANCH  79  80
ENDBRANCH  47  72
BRANCH  59  84
ATOM     84  C   UNL A   1      49.496  26.628  26.603  1.00  0.00     0.058 A 
ATOM     85  C   UNL A   1      50.376  26.138  27.579  1.00  0.00     0.135 A 
ATOM     86  C   UNL A   1      49.949  26.684  25.276  1.00  0.00     0.135 A 
ATOM     87  F   UNL A   1      49.993  26.073  28.864  1.00  0.00    -0.206 F 
ATOM     88  C   UNL A   1      51.668  25.736  27.254  1.00  0.00     0.059 A 
ATOM     89  C   UNL A   1      51.229  26.267  24.925  1.00  0.00     0.059 A 
ATOM     90  F   UNL A   1      49.141  27.139  24.304  1.00  0.00    -0.206 F 
ATOM     91  C   UNL A   1      52.085  25.806  25.923  1.00  0.00     0.060 A 
BRANCH  91  92
ATOM     92  S   UNL A   1      53.754  25.255  25.507  1.00  0.00     0.124 S 
ATOM     93  O   UNL A   1      54.284  26.425  24.813  1.00  0.00    -0.237 OA
ATOM     94  O   UNL A   1      54.331  24.982  26.819  1.00  0.00    -0.237 OA
ATOM     95  O   UNL A   1      53.525  24.081  24.672  1.00  0.00    -0.744 OA
ENDBRANCH  91  92
ENDBRANCH  59  84
ENDBRANCH  33  34
ENDBRANCH  26  28
ENDBRANCH  25  26
ENDBRANCH   1  25
TORSDOF 17
ENDMDL
MODEL 2
REMARK VINA RESULT:     -11.9      6.708     12.117
REMARK SMILES O=C(Nc1ccc(O)cc1C(=O)OCCOC(=O)c1ccc(-c2c3nc(c(-c4c(F)cc(S(=O)(=O)[O-])cc4F)c4ccc([nH]4)c(-c4c(F)cc(S(=O)(=O)[O-])cc4F)c4nc(c(-c5c(F)cc(S(=O)(=O)[O-])cc5F)c5ccc2[nH]5)C=C4)C=C3)cc1)c1ccc(Br)nc1
REMARK SMILES IDX 15 1 14 2 13 3 11 4 12 5 10 6 4 7 5 8 6 9 9 10 7 11 3 12
REMARK SMILES IDX 1 13 2 14 85 16 86 17 91 18 87 19 90 20 88 21 89 22 8 23
REMARK SMILES IDX 16 25 17 26 18 27 19 28 20 29 84 30 21 31 83 32 22 33 23 34
REMARK SMILES IDX 24 35 77 36 25 37 82 38 76 39 78 40 26 41 81 42 75 43 74 44
REMARK SMILES IDX 27 46 61 47 40 48 60 49 41 50 44 51 59 52 79 53 42 54 43 55
REMARK SMILES IDX 58 57 80 58 45 59 28 60 29 61 38 62 30 63 31 64 37 65 39 66
REMARK SMILES IDX 32 67 33 68 34 69 35 70 36 71 62 72 63 73 72 74 64 75 65 76
REMARK SMILES IDX 71 77 73 78 66 79 67 80 68 81 69 82 70 83 46 84 47 85 56 86
REMARK SMILES IDX 48 87 49 88 55 89 57 90 50 91 51 92 52 93 53 94 54 95
REMARK H PARENT 3 15 8 24 78 45 44 56
REMARK Flexibility Score: inf
ROOT
ATOM      1  C   UNL A   1      39.296  22.241  26.501  1.00  0.00     0.275 C 
ENDROOT
BRANCH   1   2
ATOM      2  C   UNL A   1      38.291  21.714  25.475  1.00  0.00     0.275 C 
BRANCH   2   3
ATOM      3  O   UNL A   1      37.075  22.493  25.486  1.00  0.00    -0.458 OA
BRANCH   3   4
ATOM      4  C   UNL A   1      36.394  22.568  24.314  1.00  0.00     0.340 C 
ATOM      5  O   UNL A   1      36.862  22.904  23.241  1.00  0.00    -0.246 OA
BRANCH   4   6
ATOM      6  C   UNL A   1      34.984  22.102  24.468  1.00  0.00     0.087 A 
ATOM      7  C   UNL A   1      33.886  22.594  23.735  1.00  0.00     0.056 A 
ATOM      8  C   UNL A   1      32.620  22.034  23.981  1.00  0.00     0.031 A 
ATOM      9  C   UNL A   1      32.413  21.119  25.017  1.00  0.00     0.048 A 
ATOM     10  C   UNL A   1      34.775  21.123  25.457  1.00  0.00     0.064 A 
ATOM     11  C   UNL A   1      33.494  20.691  25.763  1.00  0.00     0.116 A 
BRANCH   7  12
ATOM     12  N   UNL A   1      34.070  23.581  22.738  1.00  0.00    -0.321 N 
ATOM     13  O   UNL A   1      33.653  25.482  21.577  1.00  0.00    -0.269 OA
ATOM     14  C   UNL A   1      33.616  24.877  22.646  1.00  0.00     0.257 C 
ATOM     15  H   UNL A   1      34.620  23.288  21.975  1.00  0.00     0.170 HD
BRANCH  14  16
ATOM     16  C   UNL A   1      33.146  25.594  23.841  1.00  0.00     0.058 A 
ATOM     17  C   UNL A   1      34.032  25.880  24.879  1.00  0.00     0.018 A 
ATOM     18  C   UNL A   1      31.826  26.013  23.959  1.00  0.00     0.126 A 
ATOM     19  C   UNL A   1      33.582  26.635  25.961  1.00  0.00     0.037 A 
ATOM     20  N   UNL A   1      31.369  26.749  24.999  1.00  0.00    -0.249 NA
ATOM     21  C   UNL A   1      32.256  27.053  25.972  1.00  0.00     0.106 A 
ATOM     22  Br  UNL A   1      31.651  28.132  27.408  1.00  0.00    -0.029 Br
ENDBRANCH  14  16
ENDBRANCH   7  12
BRANCH  11  23
ATOM     23  O   UNL A   1      33.344  19.837  26.812  1.00  0.00    -0.508 OA
ATOM     24  H   UNL A   1      32.525  19.792  27.266  1.00  0.00     0.293 HD
ENDBRANCH  11  23
ENDBRANCH   4   6
ENDBRANCH   3   4
ENDBRANCH   2   3
ENDBRANCH   1   2
BRANCH   1  25
ATOM     25  O   UNL A   1      39.406  23.673  26.409  1.00  0.00    -0.458 OA
BRANCH  25  26
ATOM     26  C   UNL A   1      40.601  24.190  26.776  1.00  0.00     0.338 C 
ATOM     27  O   UNL A   1      41.707  23.852  26.387  1.00  0.00    -0.246 OA
BRANCH  26  28
ATOM     28  C   UNL A   1      40.380  25.343  27.660  1.00  0.00     0.060 A 
ATOM     29  C   UNL A   1      41.327  26.362  27.632  1.00  0.00     0.016 A 
ATOM     30  C   UNL A   1      39.347  25.369  28.593  1.00  0.00     0.016 A 
ATOM     31  C   UNL A   1      41.293  27.383  28.578  1.00  0.00     0.010 A 
ATOM     32  C   UNL A   1      39.271  26.436  29.500  1.00  0.00     0.010 A 
ATOM     33  C   UNL A   1      40.262  27.439  29.524  1.00  0.00    -0.014 A 
BRANCH  33  34
ATOM     34  C   UNL A   1      40.258  28.511  30.561  1.00  0.00     0.031 A 
ATOM     35  C   UNL A   1      41.256  28.472  31.691  1.00  0.00     0.074 A 
ATOM     36  C   UNL A   1      39.387  29.539  30.481  1.00  0.00     0.049 A 
ATOM     37  N   UNL A   1      41.318  29.214  32.767  1.00  0.00    -0.248 NA
ATOM     38  C   UNL A   1      42.318  27.457  31.605  1.00  0.00     0.031 C 
ATOM     39  C   UNL A   1      38.399  29.733  29.419  1.00  0.00     0.029 A 
ATOM     40  N   UNL A   1      39.197  30.621  31.308  1.00  0.00    -0.354 N 
ATOM     41  C   UNL A   1      42.384  28.720  33.512  1.00  0.00     0.074 A 
ATOM     42  C   UNL A   1      42.943  27.615  32.764  1.00  0.00     0.031 C 
ATOM     43  C   UNL A   1      37.735  30.879  29.636  1.00  0.00     0.029 A 
ATOM     44  C   UNL A   1      38.187  31.460  30.896  1.00  0.00     0.049 A 
ATOM     45  H   UNL A   1      39.734  30.781  32.118  1.00  0.00     0.167 HD
ATOM     46  C   UNL A   1      42.850  29.148  34.710  1.00  0.00     0.037 A 
ATOM     47  C   UNL A   1      37.655  32.551  31.482  1.00  0.00     0.037 A 
ATOM     48  C   UNL A   1      42.333  30.291  35.419  1.00  0.00     0.049 A 
ATOM     49  C   UNL A   1      38.181  32.999  32.817  1.00  0.00     0.074 A 
ATOM     50  C   UNL A   1      42.755  30.815  36.629  1.00  0.00     0.029 A 
ATOM     51  N   UNL A   1      41.297  31.099  34.975  1.00  0.00    -0.354 N 
ATOM     52  N   UNL A   1      39.152  32.485  33.534  1.00  0.00    -0.248 NA
ATOM     53  C   UNL A   1      37.527  34.161  33.434  1.00  0.00     0.031 C 
ATOM     54  C   UNL A   1      41.954  31.921  36.932  1.00  0.00     0.029 A 
ATOM     55  C   UNL A   1      41.060  32.111  35.891  1.00  0.00     0.049 A 
ATOM     56  H   UNL A   1      40.803  30.971  34.133  1.00  0.00     0.167 HD
ATOM     57  C   UNL A   1      39.232  33.267  34.680  1.00  0.00     0.074 A 
ATOM     58  C   UNL A   1      38.224  34.300  34.553  1.00  0.00     0.031 C 
ATOM     59  C   UNL A   1      40.060  33.137  35.745  1.00  0.00     0.037 A 
BRANCH  46  60
ATOM     60  C   UNL A   1      43.960  28.363  35.355  1.00  0.00     0.058 A 
ATOM     61  C   UNL A   1      43.708  27.297  36.231  1.00  0.00     0.135 A 
ATOM     62  C   UNL A   1      45.299  28.650  35.041  1.00  0.00     0.135 A 
ATOM     63  F   UNL A   1      42.447  26.990  36.578  1.00  0.00    -0.206 F 
ATOM     64  C   UNL A   1      44.745  26.556  36.790  1.00  0.00     0.059 A 
ATOM     65  C   UNL A   1      46.350  27.907  35.568  1.00  0.00     0.059 A 
ATOM     66  F   UNL A   1      45.596  29.660  34.207  1.00  0.00    -0.206 F 
ATOM     67  C   UNL A   1      46.064  26.868  36.451  1.00  0.00     0.060 A 
BRANCH  67  68
ATOM     68  S   UNL A   1      47.400  25.883  37.166  1.00  0.00     0.124 S 
ATOM     69  O   UNL A   1      48.538  26.785  37.014  1.00  0.00    -0.237 OA
ATOM     70  O   UNL A   1      46.937  25.673  38.534  1.00  0.00    -0.237 OA
ATOM     71  O   UNL A   1      47.428  24.689  36.327  1.00  0.00    -0.744 OA
ENDBRANCH  67  68
ENDBRANCH  46  60
BRANCH  47  72
ATOM     72  C   UNL A   1      36.527  33.272  30.830  1.00  0.00     0.058 A 
ATOM     73  C   UNL A   1      35.206  33.098  31.265  1.00  0.00     0.135 A 
ATOM     74  C   UNL A   1      36.752  34.150  29.757  1.00  0.00     0.135 A 
ATOM     75  F   UNL A   1      34.939  32.260  32.278  1.00  0.00    -0.206 F 
ATOM     76  C   UNL A   1      34.145  33.759  30.653  1.00  0.00     0.059 A 
ATOM     77  C   UNL A   1      35.711  34.843  29.148  1.00  0.00     0.059 A 
ATOM     78  F   UNL A   1      37.999  34.358  29.307  1.00  0.00    -0.206 F 
ATOM     79  C   UNL A   1      34.408  34.631  29.596  1.00  0.00     0.060 A 
BRANCH  79  80
ATOM     80  S   UNL A   1      33.033  35.521  28.835  1.00  0.00     0.124 S 
ATOM     81  O   UNL A   1      32.364  34.454  28.101  1.00  0.00    -0.237 OA
ATOM     82  O   UNL A   1      32.319  36.042  29.997  1.00  0.00    -0.237 OA
ATOM     83  O   UNL A   1      33.701  36.530  28.017  1.00  0.00    -0.744 OA
ENDBRANCH  79  80
ENDBRANCH  47  72
BRANCH  59  84
ATOM     84  C   UNL A   1      39.935  34.156  36.843  1.00  0.00     0.058 A 
ATOM     85  C   UNL A   1      40.678  35.346  36.828  1.00  0.00     0.135 A 
ATOM     86  C   UNL A   1      39.032  33.956  37.899  1.00  0.00     0.135 A 
ATOM     87  F   UNL A   1      41.561  35.580  35.845  1.00  0.00    -0.206 F 
ATOM     88  C   UNL A   1      40.545  36.296  37.836  1.00  0.00     0.059 A 
ATOM     89  C   UNL A   1      38.867  34.902  38.905  1.00  0.00     0.059 A 
ATOM     90  F   UNL A   1      38.292  32.836  37.953  1.00  0.00    -0.206 F 
ATOM     91  C   UNL A   1      39.636  36.064  38.871  1.00  0.00     0.060 A 
BRANCH  91  92
ATOM     92  S   UNL A   1      39.450  37.316  40.159  1.00  0.00     0.124 S 
ATOM     93  O   UNL A   1      38.929  36.521  41.267  1.00  0.00    -0.237 OA
ATOM     94  O   UNL A   1      40.815  37.807  40.320  1.00  0.00    -0.237 OA
ATOM     95  O   UNL A   1      38.512  38.268  39.573  1.00  0.00    -0.744 OA
ENDBRANCH  91  92
ENDBRANCH  59  84
ENDBRANCH  33  34
ENDBRANCH  26  28
ENDBRANCH  25  26
ENDBRANCH   1  25
TORSDOF 17
ENDMDL
MODEL 3
REMARK VINA RESULT:     -11.8      3.898      6.301
REMARK SMILES O=C(Nc1ccc(O)cc1C(=O)OCCOC(=O)c1ccc(-c2c3nc(c(-c4c(F)cc(S(=O)(=O)[O-])cc4F)c4ccc([nH]4)c(-c4c(F)cc(S(=O)(=O)[O-])cc4F)c4nc(c(-c5c(F)cc(S(=O)(=O)[O-])cc5F)c5ccc2[nH]5)C=C4)C=C3)cc1)c1ccc(Br)nc1
REMARK SMILES IDX 15 1 14 2 13 3 11 4 12 5 10 6 4 7 5 8 6 9 9 10 7 11 3 12
REMARK SMILES IDX 1 13 2 14 85 16 86 17 91 18 87 19 90 20 88 21 89 22 8 23
REMARK SMILES IDX 16 25 17 26 18 27 19 28 20 29 84 30 21 31 83 32 22 33 23 34
REMARK SMILES IDX 24 35 77 36 25 37 82 38 76 39 78 40 26 41 81 42 75 43 74 44
REMARK SMILES IDX 27 46 61 47 40 48 60 49 41 50 44 51 59 52 79 53 42 54 43 55
REMARK SMILES IDX 58 57 80 58 45 59 28 60 29 61 38 62 30 63 31 64 37 65 39 66
REMARK SMILES IDX 32 67 33 68 34 69 35 70 36 71 62 72 63 73 72 74 64 75 65 76
REMARK SMILES IDX 71 77 73 78 66 79 67 80 68 81 69 82 70 83 46 84 47 85 56 86
REMARK SMILES IDX 48 87 49 88 55 89 57 90 50 91 51 92 52 93 53 94 54 95
REMARK H PARENT 3 15 8 24 78 45 44 56
REMARK Flexibility Score: inf
ROOT
ATOM      1  C   UNL A   1      33.848  32.072  28.281  1.00  0.00     0.275 C 
ENDROOT
BRANCH   1   2
ATOM      2  C   UNL A   1      34.463  33.415  27.883  1.00  0.00     0.275 C 
BRANCH   2   3
ATOM      3  O   UNL A   1      34.633  34.273  29.031  1.00  0.00    -0.458 OA
BRANCH   3   4
ATOM      4  C   UNL A   1      33.548  34.998  29.410  1.00  0.00     0.340 C 
ATOM      5  O   UNL A   1      32.524  35.132  28.765  1.00  0.00    -0.246 OA
BRANCH   4   6
ATOM      6  C   UNL A   1      33.719  35.564  30.780  1.00  0.00     0.087 A 
ATOM      7  C   UNL A   1      33.971  34.806  31.942  1.00  0.00     0.056 A 
ATOM      8  C   UNL A   1      34.132  35.492  33.158  1.00  0.00     0.031 A 
ATOM      9  C   UNL A   1      33.910  36.867  33.259  1.00  0.00     0.048 A 
ATOM     10  C   UNL A   1      33.574  36.960  30.882  1.00  0.00     0.064 A 
ATOM     11  C   UNL A   1      33.607  37.586  32.119  1.00  0.00     0.116 A 
BRANCH   7  12
ATOM     12  N   UNL A   1      34.118  33.401  31.867  1.00  0.00    -0.321 N 
ATOM     13  O   UNL A   1      35.180  31.425  31.547  1.00  0.00    -0.269 OA
ATOM     14  C   UNL A   1      35.237  32.600  31.902  1.00  0.00     0.257 C 
ATOM     15  H   UNL A   1      33.270  32.909  31.773  1.00  0.00     0.170 HD
BRANCH  14  16
ATOM     16  C   UNL A   1      36.509  33.110  32.435  1.00  0.00     0.058 A 
ATOM     17  C   UNL A   1      37.413  33.755  31.591  1.00  0.00     0.018 A 
ATOM     18  C   UNL A   1      36.834  32.978  33.780  1.00  0.00     0.126 A 
ATOM     19  C   UNL A   1      38.572  34.304  32.136  1.00  0.00     0.037 A 
ATOM     20  N   UNL A   1      37.952  33.506  34.331  1.00  0.00    -0.249 NA
ATOM     21  C   UNL A   1      38.792  34.166  33.502  1.00  0.00     0.106 A 
ATOM     22  Br  UNL A   1      40.333  34.962  34.265  1.00  0.00    -0.029 Br
ENDBRANCH  14  16
ENDBRANCH   7  12
BRANCH  11  23
ATOM     23  O   UNL A   1      33.335  38.918  32.165  1.00  0.00    -0.508 OA
ATOM     24  H   UNL A   1      32.691  39.244  32.762  1.00  0.00     0.293 HD
ENDBRANCH  11  23
ENDBRANCH   4   6
ENDBRANCH   3   4
ENDBRANCH   2   3
ENDBRANCH   1   2
BRANCH   1  25
ATOM     25  O   UNL A   1      34.182  31.059  27.315  1.00  0.00    -0.458 OA
BRANCH  25  26
ATOM     26  C   UNL A   1      34.432  29.831  27.822  1.00  0.00     0.338 C 
ATOM     27  O   UNL A   1      33.664  28.885  27.889  1.00  0.00    -0.246 OA
BRANCH  26  28
ATOM     28  C   UNL A   1      35.850  29.739  28.196  1.00  0.00     0.060 A 
ATOM     29  C   UNL A   1      36.792  30.072  27.227  1.00  0.00     0.016 A 
ATOM     30  C   UNL A   1      36.257  29.211  29.418  1.00  0.00     0.016 A 
ATOM     31  C   UNL A   1      38.144  29.818  27.439  1.00  0.00     0.010 A 
ATOM     32  C   UNL A   1      37.626  29.023  29.660  1.00  0.00     0.010 A 
ATOM     33  C   UNL A   1      38.583  29.294  28.662  1.00  0.00    -0.014 A 
BRANCH  33  34
ATOM     34  C   UNL A   1      40.028  28.985  28.864  1.00  0.00     0.031 A 
ATOM     35  C   UNL A   1      40.943  30.015  29.475  1.00  0.00     0.074 A 
ATOM     36  C   UNL A   1      40.522  27.772  28.535  1.00  0.00     0.049 A 
ATOM     37  N   UNL A   1      42.247  30.000  29.592  1.00  0.00    -0.248 NA
ATOM     38  C   UNL A   1      40.311  31.229  30.017  1.00  0.00     0.031 C 
ATOM     39  C   UNL A   1      39.745  26.662  27.982  1.00  0.00     0.029 A 
ATOM     40  N   UNL A   1      41.797  27.267  28.625  1.00  0.00    -0.354 N 
ATOM     41  C   UNL A   1      42.594  31.221  30.162  1.00  0.00     0.074 A 
ATOM     42  C   UNL A   1      41.364  31.952  30.372  1.00  0.00     0.031 C 
ATOM     43  C   UNL A   1      40.548  25.599  27.815  1.00  0.00     0.029 A 
ATOM     44  C   UNL A   1      41.913  25.974  28.170  1.00  0.00     0.049 A 
ATOM     45  H   UNL A   1      42.557  27.783  28.982  1.00  0.00     0.167 HD
ATOM     46  C   UNL A   1      43.826  31.687  30.480  1.00  0.00     0.037 A 
ATOM     47  C   UNL A   1      42.997  25.188  28.015  1.00  0.00     0.037 A 
ATOM     48  C   UNL A   1      45.043  30.928  30.332  1.00  0.00     0.049 A 
ATOM     49  C   UNL A   1      44.354  25.733  28.362  1.00  0.00     0.074 A 
ATOM     50  C   UNL A   1      46.336  31.308  30.647  1.00  0.00     0.029 A 
ATOM     51  N   UNL A   1      45.115  29.631  29.849  1.00  0.00    -0.354 N 
ATOM     52  N   UNL A   1      44.670  26.910  28.847  1.00  0.00    -0.248 NA
ATOM     53  C   UNL A   1      45.506  24.852  28.122  1.00  0.00     0.031 C 
ATOM     54  C   UNL A   1      47.194  30.251  30.325  1.00  0.00     0.029 A 
ATOM     55  C   UNL A   1      46.431  29.198  29.847  1.00  0.00     0.049 A 
ATOM     56  H   UNL A   1      44.344  29.096  29.550  1.00  0.00     0.167 HD
ATOM     57  C   UNL A   1      46.053  26.907  28.981  1.00  0.00     0.074 A 
ATOM     58  C   UNL A   1      46.514  25.604  28.543  1.00  0.00     0.031 C 
ATOM     59  C   UNL A   1      46.871  27.896  29.418  1.00  0.00     0.037 A 
BRANCH  46  60
ATOM     60  C   UNL A   1      43.935  33.097  30.992  1.00  0.00     0.058 A 
ATOM     61  C   UNL A   1      43.885  34.207  30.137  1.00  0.00     0.135 A 
ATOM     62  C   UNL A   1      44.033  33.338  32.373  1.00  0.00     0.135 A 
ATOM     63  F   UNL A   1      43.809  34.035  28.807  1.00  0.00    -0.206 F 
ATOM     64  C   UNL A   1      43.948  35.508  30.630  1.00  0.00     0.059 A 
ATOM     65  C   UNL A   1      44.072  34.629  32.890  1.00  0.00     0.059 A 
ATOM     66  F   UNL A   1      44.083  32.311  33.236  1.00  0.00    -0.206 F 
ATOM     67  C   UNL A   1      44.041  35.709  32.010  1.00  0.00     0.060 A 
BRANCH  67  68
ATOM     68  S   UNL A   1      44.100  37.401  32.638  1.00  0.00     0.124 S 
ATOM     69  O   UNL A   1      43.014  37.386  33.614  1.00  0.00    -0.237 OA
ATOM     70  O   UNL A   1      45.448  37.484  33.192  1.00  0.00    -0.237 OA
ATOM     71  O   UNL A   1      43.864  38.213  31.449  1.00  0.00    -0.744 OA
ENDBRANCH  67  68
ENDBRANCH  46  60
BRANCH  47  72
ATOM     72  C   UNL A   1      42.849  23.814  27.462  1.00  0.00     0.058 A 
ATOM     73  C   UNL A   1      42.552  22.725  28.294  1.00  0.00     0.135 A 
ATOM     74  C   UNL A   1      43.002  23.565  26.089  1.00  0.00     0.135 A 
ATOM     75  F   UNL A   1      42.409  22.909  29.615  1.00  0.00    -0.206 F 
ATOM     76  C   UNL A   1      42.423  21.435  27.787  1.00  0.00     0.059 A 
ATOM     77  C   UNL A   1      42.850  22.290  25.555  1.00  0.00     0.059 A 
ATOM     78  F   UNL A   1      43.279  24.574  25.248  1.00  0.00    -0.206 F 
ATOM     79  C   UNL A   1      42.573  21.228  26.414  1.00  0.00     0.060 A 
BRANCH  79  80
ATOM     80  S   UNL A   1      42.360  19.560  25.755  1.00  0.00     0.124 S 
ATOM     81  O   UNL A   1      40.947  19.567  25.393  1.00  0.00    -0.237 OA
ATOM     82  O   UNL A   1      43.304  19.543  24.642  1.00  0.00    -0.237 OA
ATOM     83  O   UNL A   1      42.721  18.707  26.884  1.00  0.00    -0.744 OA
ENDBRANCH  79  80
ENDBRANCH  47  72
BRANCH  59  84
ATOM     84  C   UNL A   1      48.342  27.597  29.478  1.00  0.00     0.058 A 
ATOM     85  C   UNL A   1      49.224  28.048  28.485  1.00  0.00     0.135 A 
ATOM     86  C   UNL A   1      48.880  26.888  30.564  1.00  0.00     0.135 A 
ATOM     87  F   UNL A   1      48.758  28.723  27.422  1.00  0.00    -0.206 F 
ATOM     88  C   UNL A   1      50.590  27.786  28.554  1.00  0.00     0.059 A 
ATOM     89  C   UNL A   1      50.244  26.635  30.665  1.00  0.00     0.059 A 
ATOM     90  F   UNL A   1      48.077  26.443  31.545  1.00  0.00    -0.206 F 
ATOM     91  C   UNL A   1      51.089  27.078  29.649  1.00  0.00     0.060 A 
BRANCH  91  92
ATOM     92  S   UNL A   1      52.865  26.769  29.746  1.00  0.00     0.124 S 
ATOM     93  O   UNL A   1      53.394  28.125  29.845  1.00  0.00    -0.237 OA
ATOM     94  O   UNL A   1      52.978  25.955  30.952  1.00  0.00    -0.237 OA
ATOM     95  O   UNL A   1      53.156  26.071  28.497  1.00  0.00    -0.744 OA
ENDBRANCH  91  92
ENDBRANCH  59  84
ENDBRANCH  33  34
ENDBRANCH  26  28
ENDBRANCH  25  26
ENDBRANCH   1  25
TORSDOF 17
ENDMDL
