MODEL 1
REMARK VINA RESULT:     -12.1      0.000      0.000
REMARK SMILES O=C(OCCOC(=O)c1ccc(N2CNC(c3ccccc3)=[NH+]C2=S)cc1)c1ccc(-c2c3nc(c(-c4c(F)cc(S(=O)(=O)[O-])cc4F)c4ccc([nH]4)c(-c4c(F)cc(S(=O)(=O)[O-])cc4F)c4nc(c(-c5c(F)cc(S(=O)(=O)[O-])cc5F)c5ccc2[nH]5)C=C4)C=C3)cc1
REMARK SMILES IDX 4 1 3 2 2 3 1 4 28 5 29 6 93 7 30 8 92 9 31 10 32 11 33 12
REMARK SMILES IDX 86 13 34 14 91 15 85 16 87 17 35 18 90 19 84 20 83 21 36 23
REMARK SMILES IDX 70 24 49 25 69 26 50 27 53 28 68 29 88 30 51 31 52 32 67 34
REMARK SMILES IDX 89 35 54 36 37 37 38 38 47 39 39 40 40 41 46 42 48 43 41 44
REMARK SMILES IDX 42 45 43 46 44 47 45 48 71 49 72 50 81 51 73 52 74 53 80 54
REMARK SMILES IDX 82 55 75 56 76 57 77 58 78 59 79 60 55 61 56 62 65 63 57 64
REMARK SMILES IDX 58 65 64 66 66 67 59 68 60 69 61 70 62 71 63 72 5 73 6 74
REMARK SMILES IDX 7 75 8 76 9 77 10 78 27 79 11 80 26 81 12 82 13 83 14 84
REMARK SMILES IDX 24 85 15 86 23 87 25 88 16 89 17 92 18 93 22 94 19 95 21 96
REMARK SMILES IDX 20 97
REMARK H PARENT 87 22 53 33 15 90 23 91
REMARK Flexibility Score: inf
ROOT
ATOM      1  C   UNL A   1      32.216  29.783  26.982  1.00  0.00     0.275 C 
ENDROOT
BRANCH   1   2
ATOM      2  O   UNL A   1      33.633  29.706  27.189  1.00  0.00    -0.458 OA
BRANCH   2   3
ATOM      3  C   UNL A   1      34.431  30.476  27.965  1.00  0.00     0.338 C 
ATOM      4  O   UNL A   1      34.043  31.611  28.244  1.00  0.00    -0.246 OA
BRANCH   3   5
ATOM      5  C   UNL A   1      35.814  30.081  28.394  1.00  0.00     0.060 A 
ATOM      6  C   UNL A   1      36.229  29.699  29.676  1.00  0.00     0.016 A 
ATOM      7  C   UNL A   1      36.780  30.069  27.378  1.00  0.00     0.016 A 
ATOM      8  C   UNL A   1      37.519  29.216  29.922  1.00  0.00     0.010 A 
ATOM      9  C   UNL A   1      38.067  29.593  27.622  1.00  0.00     0.010 A 
ATOM     10  C   UNL A   1      38.447  29.145  28.891  1.00  0.00    -0.014 A 
BRANCH  10  11
ATOM     11  C   UNL A   1      39.861  28.790  29.146  1.00  0.00     0.031 A 
ATOM     12  C   UNL A   1      40.773  29.883  29.621  1.00  0.00     0.074 A 
ATOM     13  C   UNL A   1      40.330  27.546  28.933  1.00  0.00     0.049 A 
ATOM     14  N   UNL A   1      42.056  29.845  29.854  1.00  0.00    -0.248 NA
ATOM     15  C   UNL A   1      40.145  31.189  29.889  1.00  0.00     0.031 C 
ATOM     16  C   UNL A   1      39.524  26.387  28.556  1.00  0.00     0.029 A 
ATOM     17  N   UNL A   1      41.610  27.049  28.971  1.00  0.00    -0.354 N 
ATOM     18  C   UNL A   1      42.383  31.117  30.307  1.00  0.00     0.074 A 
ATOM     19  C   UNL A   1      41.187  31.922  30.237  1.00  0.00     0.031 C 
ATOM     20  C   UNL A   1      40.332  25.344  28.298  1.00  0.00     0.029 A 
ATOM     21  C   UNL A   1      41.715  25.756  28.511  1.00  0.00     0.049 A 
ATOM     22  H   UNL A   1      42.381  27.570  29.295  1.00  0.00     0.167 HD
ATOM     23  C   UNL A   1      43.569  31.559  30.782  1.00  0.00     0.037 A 
ATOM     24  C   UNL A   1      42.806  24.999  28.274  1.00  0.00     0.037 A 
ATOM     25  C   UNL A   1      44.751  30.745  30.817  1.00  0.00     0.049 A 
ATOM     26  C   UNL A   1      44.147  25.546  28.674  1.00  0.00     0.074 A 
ATOM     27  C   UNL A   1      46.003  31.063  31.302  1.00  0.00     0.029 A 
ATOM     28  N   UNL A   1      44.823  29.450  30.317  1.00  0.00    -0.354 N 
ATOM     29  N   UNL A   1      44.434  26.725  29.173  1.00  0.00    -0.248 NA
ATOM     30  C   UNL A   1      45.303  24.653  28.533  1.00  0.00     0.031 C 
ATOM     31  C   UNL A   1      46.851  29.981  31.041  1.00  0.00     0.029 A 
ATOM     32  C   UNL A   1      46.111  28.964  30.451  1.00  0.00     0.049 A 
ATOM     33  H   UNL A   1      44.070  28.953  29.924  1.00  0.00     0.167 HD
ATOM     34  C   UNL A   1      45.790  26.698  29.462  1.00  0.00     0.074 A 
ATOM     35  C   UNL A   1      46.274  25.393  29.055  1.00  0.00     0.031 C 
ATOM     36  C   UNL A   1      46.558  27.654  30.041  1.00  0.00     0.037 A 
BRANCH  23  37
ATOM     37  C   UNL A   1      43.614  32.981  31.262  1.00  0.00     0.058 A 
ATOM     38  C   UNL A   1      43.900  34.045  30.388  1.00  0.00     0.135 A 
ATOM     39  C   UNL A   1      43.444  33.280  32.622  1.00  0.00     0.135 A 
ATOM     40  F   UNL A   1      44.095  33.813  29.079  1.00  0.00    -0.206 F 
ATOM     41  C   UNL A   1      44.080  35.342  30.855  1.00  0.00     0.059 A 
ATOM     42  C   UNL A   1      43.586  34.576  33.106  1.00  0.00     0.059 A 
ATOM     43  F   UNL A   1      43.168  32.303  33.500  1.00  0.00    -0.206 F 
ATOM     44  C   UNL A   1      43.932  35.595  32.218  1.00  0.00     0.060 A 
BRANCH  44  45
ATOM     45  S   UNL A   1      44.217  37.274  32.817  1.00  0.00     0.124 S 
ATOM     46  O   UNL A   1      44.222  38.032  31.571  1.00  0.00    -0.237 OA
ATOM     47  O   UNL A   1      43.066  37.494  33.687  1.00  0.00    -0.237 OA
ATOM     48  O   UNL A   1      45.504  37.177  33.500  1.00  0.00    -0.744 OA
ENDBRANCH  44  45
ENDBRANCH  23  37
BRANCH  24  49
ATOM     49  C   UNL A   1      42.665  23.659  27.642  1.00  0.00     0.058 A 
ATOM     50  C   UNL A   1      42.696  23.483  26.253  1.00  0.00     0.135 A 
ATOM     51  C   UNL A   1      42.529  22.509  28.437  1.00  0.00     0.135 A 
ATOM     52  F   UNL A   1      42.797  24.550  25.446  1.00  0.00    -0.206 F 
ATOM     53  C   UNL A   1      42.616  22.218  25.674  1.00  0.00     0.059 A 
ATOM     54  C   UNL A   1      42.473  21.233  27.888  1.00  0.00     0.059 A 
ATOM     55  F   UNL A   1      42.461  22.620  29.771  1.00  0.00    -0.206 F 
ATOM     56  C   UNL A   1      42.519  21.096  26.502  1.00  0.00     0.060 A 
BRANCH  56  57
ATOM     57  S   UNL A   1      42.504  19.452  25.753  1.00  0.00     0.124 S 
ATOM     58  O   UNL A   1      43.439  19.624  24.648  1.00  0.00    -0.237 OA
ATOM     59  O   UNL A   1      42.961  18.614  26.857  1.00  0.00    -0.237 OA
ATOM     60  O   UNL A   1      41.105  19.272  25.377  1.00  0.00    -0.744 OA
ENDBRANCH  56  57
ENDBRANCH  24  49
BRANCH  36  61
ATOM     61  C   UNL A   1      47.994  27.319  30.318  1.00  0.00     0.058 A 
ATOM     62  C   UNL A   1      49.025  27.720  29.458  1.00  0.00     0.135 A 
ATOM     63  C   UNL A   1      48.343  26.692  31.527  1.00  0.00     0.135 A 
ATOM     64  F   UNL A   1      48.739  28.309  28.286  1.00  0.00    -0.206 F 
ATOM     65  C   UNL A   1      50.360  27.517  29.790  1.00  0.00     0.059 A 
ATOM     66  C   UNL A   1      49.671  26.506  31.892  1.00  0.00     0.059 A 
ATOM     67  F   UNL A   1      47.389  26.295  32.384  1.00  0.00    -0.206 F 
ATOM     68  C   UNL A   1      50.672  26.922  31.016  1.00  0.00     0.060 A 
BRANCH  68  69
ATOM     69  S   UNL A   1      52.408  26.750  31.473  1.00  0.00     0.124 S 
ATOM     70  O   UNL A   1      52.876  28.129  31.372  1.00  0.00    -0.237 OA
ATOM     71  O   UNL A   1      52.322  26.206  32.825  1.00  0.00    -0.237 OA
ATOM     72  O   UNL A   1      52.936  25.833  30.466  1.00  0.00    -0.744 OA
ENDBRANCH  68  69
ENDBRANCH  36  61
ENDBRANCH  10  11
ENDBRANCH   3   5
ENDBRANCH   2   3
ENDBRANCH   1   2
BRANCH   1  73
ATOM     73  C   UNL A   1      31.787  29.874  25.512  1.00  0.00     0.275 C 
BRANCH  73  74
ATOM     74  O   UNL A   1      31.761  28.615  24.813  1.00  0.00    -0.458 OA
BRANCH  74  75
ATOM     75  C   UNL A   1      32.895  28.299  24.124  1.00  0.00     0.338 C 
ATOM     76  O   UNL A   1      33.656  29.080  23.592  1.00  0.00    -0.246 OA
BRANCH  75  77
ATOM     77  C   UNL A   1      33.149  26.838  24.206  1.00  0.00     0.060 A 
ATOM     78  C   UNL A   1      33.036  26.201  25.442  1.00  0.00     0.019 A 
ATOM     79  C   UNL A   1      33.514  26.090  23.093  1.00  0.00     0.019 A 
ATOM     80  C   UNL A   1      33.189  24.804  25.547  1.00  0.00     0.044 A 
ATOM     81  C   UNL A   1      33.709  24.701  23.220  1.00  0.00     0.044 A 
ATOM     82  C   UNL A   1      33.485  24.014  24.433  1.00  0.00     0.103 A 
BRANCH  82  83
ATOM     83  N   UNL A   1      33.587  22.565  24.481  1.00  0.00    -0.219 N 
ATOM     84  C   UNL A   1      32.419  21.841  24.013  1.00  0.00     0.405 C 
ATOM     85  C   UNL A   1      34.616  21.813  25.101  1.00  0.00     0.297 C 
ATOM     86  N   UNL A   1      32.716  20.466  23.751  1.00  0.00    -0.274 N 
ATOM     87  N   UNL A   1      34.430  20.463  25.303  1.00  0.00    -0.236 N 
ATOM     88  S   UNL A   1      36.104  22.408  25.659  1.00  0.00    -0.005 S 
ATOM     89  C   UNL A   1      33.555  19.827  24.607  1.00  0.00     0.229 C 
ATOM     90  H   UNL A   1      32.326  19.999  22.978  1.00  0.00     0.260 HD
ATOM     91  H   UNL A   1      34.966  19.986  25.977  1.00  0.00     0.268 HD
BRANCH  89  92
ATOM     92  C   UNL A   1      33.485  18.352  24.741  1.00  0.00     0.047 A 
ATOM     93  C   UNL A   1      32.546  17.755  25.587  1.00  0.00     0.015 A 
ATOM     94  C   UNL A   1      34.412  17.569  24.045  1.00  0.00     0.015 A 
ATOM     95  C   UNL A   1      32.530  16.365  25.725  1.00  0.00     0.001 A 
ATOM     96  C   UNL A   1      34.403  16.182  24.202  1.00  0.00     0.001 A 
ATOM     97  C   UNL A   1      33.460  15.581  25.038  1.00  0.00     0.000 A 
ENDBRANCH  89  92
ENDBRANCH  82  83
ENDBRANCH  75  77
ENDBRANCH  74  75
ENDBRANCH  73  74
ENDBRANCH   1  73
TORSDOF 16
ENDMDL
MODEL 2
REMARK VINA RESULT:     -12.1      2.743      3.639
REMARK SMILES O=C(OCCOC(=O)c1ccc(N2CNC(c3ccccc3)=[NH+]C2=S)cc1)c1ccc(-c2c3nc(c(-c4c(F)cc(S(=O)(=O)[O-])cc4F)c4ccc([nH]4)c(-c4c(F)cc(S(=O)(=O)[O-])cc4F)c4nc(c(-c5c(F)cc(S(=O)(=O)[O-])cc5F)c5ccc2[nH]5)C=C4)C=C3)cc1
REMARK SMILES IDX 4 1 3 2 2 3 1 4 28 5 29 6 93 7 30 8 92 9 31 10 32 11 33 12
REMARK SMILES IDX 86 13 34 14 91 15 85 16 87 17 35 18 90 19 84 20 83 21 36 23
REMARK SMILES IDX 70 24 49 25 69 26 50 27 53 28 68 29 88 30 51 31 52 32 67 34
REMARK SMILES IDX 89 35 54 36 37 37 38 38 47 39 39 40 40 41 46 42 48 43 41 44
REMARK SMILES IDX 42 45 43 46 44 47 45 48 71 49 72 50 81 51 73 52 74 53 80 54
REMARK SMILES IDX 82 55 75 56 76 57 77 58 78 59 79 60 55 61 56 62 65 63 57 64
REMARK SMILES IDX 58 65 64 66 66 67 59 68 60 69 61 70 62 71 63 72 5 73 6 74
REMARK SMILES IDX 7 75 8 76 9 77 10 78 27 79 11 80 26 81 12 82 13 83 14 84
REMARK SMILES IDX 24 85 15 86 23 87 25 88 16 89 17 92 18 93 22 94 19 95 21 96
REMARK SMILES IDX 20 97
REMARK H PARENT 87 22 53 33 15 90 23 91
REMARK Flexibility Score: inf
ROOT
ATOM      1  C   UNL A   1      34.567  31.941  29.050  1.00  0.00     0.275 C 
ENDROOT
BRANCH   1   2
ATOM      2  O   UNL A   1      35.887  31.901  29.608  1.00  0.00    -0.458 OA
BRANCH   2   3
ATOM      3  C   UNL A   1      36.550  30.866  30.173  1.00  0.00     0.338 C 
ATOM      4  O   UNL A   1      36.092  30.384  31.210  1.00  0.00    -0.246 OA
BRANCH   3   5
ATOM      5  C   UNL A   1      37.877  30.357  29.688  1.00  0.00     0.060 A 
ATOM      6  C   UNL A   1      38.228  30.020  28.374  1.00  0.00     0.016 A 
ATOM      7  C   UNL A   1      38.872  30.241  30.668  1.00  0.00     0.016 A 
ATOM      8  C   UNL A   1      39.542  29.689  28.023  1.00  0.00     0.010 A 
ATOM      9  C   UNL A   1      40.180  29.907  30.320  1.00  0.00     0.010 A 
ATOM     10  C   UNL A   1      40.534  29.644  28.993  1.00  0.00    -0.014 A 
BRANCH  10  11
ATOM     11  C   UNL A   1      41.895  29.147  28.686  1.00  0.00     0.031 A 
ATOM     12  C   UNL A   1      42.990  30.165  28.565  1.00  0.00     0.074 A 
ATOM     13  C   UNL A   1      42.145  27.838  28.490  1.00  0.00     0.049 A 
ATOM     14  N   UNL A   1      44.244  29.995  28.245  1.00  0.00    -0.248 NA
ATOM     15  C   UNL A   1      42.624  31.560  28.867  1.00  0.00     0.031 C 
ATOM     16  C   UNL A   1      41.183  26.754  28.666  1.00  0.00     0.029 A 
ATOM     17  N   UNL A   1      43.283  27.195  28.066  1.00  0.00    -0.354 N 
ATOM     18  C   UNL A   1      44.814  31.259  28.320  1.00  0.00     0.074 A 
ATOM     19  C   UNL A   1      43.759  32.193  28.632  1.00  0.00     0.031 C 
ATOM     20  C   UNL A   1      41.732  25.597  28.256  1.00  0.00     0.029 A 
ATOM     21  C   UNL A   1      43.095  25.856  27.808  1.00  0.00     0.049 A 
ATOM     22  H   UNL A   1      44.149  27.649  27.956  1.00  0.00     0.167 HD
ATOM     23  C   UNL A   1      46.115  31.601  28.184  1.00  0.00     0.037 A 
ATOM     24  C   UNL A   1      43.928  24.949  27.257  1.00  0.00     0.037 A 
ATOM     25  C   UNL A   1      47.142  30.657  27.847  1.00  0.00     0.049 A 
ATOM     26  C   UNL A   1      45.343  25.367  26.973  1.00  0.00     0.074 A 
ATOM     27  C   UNL A   1      48.499  30.870  27.711  1.00  0.00     0.029 A 
ATOM     28  N   UNL A   1      46.909  29.316  27.566  1.00  0.00    -0.354 N 
ATOM     29  N   UNL A   1      45.891  26.549  27.120  1.00  0.00    -0.248 NA
ATOM     30  C   UNL A   1      46.266  24.328  26.501  1.00  0.00     0.031 C 
ATOM     31  C   UNL A   1      49.081  29.669  27.289  1.00  0.00     0.029 A 
ATOM     32  C   UNL A   1      48.095  28.693  27.224  1.00  0.00     0.049 A 
ATOM     33  H   UNL A   1      46.030  28.875  27.605  1.00  0.00     0.167 HD
ATOM     34  C   UNL A   1      47.235  26.388  26.818  1.00  0.00     0.074 A 
ATOM     35  C   UNL A   1      47.412  24.996  26.451  1.00  0.00     0.031 C 
ATOM     36  C   UNL A   1      48.237  27.300  26.870  1.00  0.00     0.037 A 
BRANCH  23  37
ATOM     37  C   UNL A   1      46.453  33.051  28.378  1.00  0.00     0.058 A 
ATOM     38  C   UNL A   1      46.492  33.950  27.297  1.00  0.00     0.135 A 
ATOM     39  C   UNL A   1      46.817  33.535  29.644  1.00  0.00     0.135 A 
ATOM     40  F   UNL A   1      46.175  33.535  26.059  1.00  0.00    -0.206 F 
ATOM     41  C   UNL A   1      46.940  35.257  27.453  1.00  0.00     0.059 A 
ATOM     42  C   UNL A   1      47.237  34.849  29.828  1.00  0.00     0.059 A 
ATOM     43  F   UNL A   1      46.797  32.721  30.710  1.00  0.00    -0.206 F 
ATOM     44  C   UNL A   1      47.321  35.694  28.721  1.00  0.00     0.060 A 
BRANCH  44  45
ATOM     45  S   UNL A   1      47.948  37.376  28.899  1.00  0.00     0.124 S 
ATOM     46  O   UNL A   1      49.363  37.135  29.161  1.00  0.00    -0.237 OA
ATOM     47  O   UNL A   1      47.637  37.964  27.600  1.00  0.00    -0.237 OA
ATOM     48  O   UNL A   1      47.182  37.908  30.022  1.00  0.00    -0.744 OA
ENDBRANCH  44  45
ENDBRANCH  23  37
BRANCH  24  49
ATOM     49  C   UNL A   1      43.443  23.575  26.954  1.00  0.00     0.058 A 
ATOM     50  C   UNL A   1      43.144  23.160  25.650  1.00  0.00     0.135 A 
ATOM     51  C   UNL A   1      43.302  22.628  27.982  1.00  0.00     0.135 A 
ATOM     52  F   UNL A   1      43.236  24.031  24.634  1.00  0.00    -0.206 F 
ATOM     53  C   UNL A   1      42.741  21.855  25.372  1.00  0.00     0.059 A 
ATOM     54  C   UNL A   1      42.927  21.314  27.730  1.00  0.00     0.059 A 
ATOM     55  F   UNL A   1      43.542  22.978  29.254  1.00  0.00    -0.206 F 
ATOM     56  C   UNL A   1      42.649  20.934  26.419  1.00  0.00     0.060 A 
BRANCH  56  57
ATOM     57  S   UNL A   1      42.212  19.222  26.044  1.00  0.00     0.124 S 
ATOM     58  O   UNL A   1      43.016  18.966  24.855  1.00  0.00    -0.237 OA
ATOM     59  O   UNL A   1      42.627  18.531  27.260  1.00  0.00    -0.237 OA
ATOM     60  O   UNL A   1      40.770  19.287  25.830  1.00  0.00    -0.744 OA
ENDBRANCH  56  57
ENDBRANCH  24  49
BRANCH  36  61
ATOM     61  C   UNL A   1      49.628  26.823  26.572  1.00  0.00     0.058 A 
ATOM     62  C   UNL A   1      50.455  26.288  27.569  1.00  0.00     0.135 A 
ATOM     63  C   UNL A   1      50.085  26.794  25.243  1.00  0.00     0.135 A 
ATOM     64  F   UNL A   1      50.067  26.307  28.854  1.00  0.00    -0.206 F 
ATOM     65  C   UNL A   1      51.690  25.730  27.257  1.00  0.00     0.059 A 
ATOM     66  C   UNL A   1      51.303  26.215  24.906  1.00  0.00     0.059 A 
ATOM     67  F   UNL A   1      49.325  27.291  24.255  1.00  0.00    -0.206 F 
ATOM     68  C   UNL A   1      52.098  25.687  25.921  1.00  0.00     0.060 A 
BRANCH  68  69
ATOM     69  S   UNL A   1      53.661  24.878  25.524  1.00  0.00     0.124 S 
ATOM     70  O   UNL A   1      54.397  25.031  26.774  1.00  0.00    -0.237 OA
ATOM     71  O   UNL A   1      53.235  23.519  25.200  1.00  0.00    -0.237 OA
ATOM     72  O   UNL A   1      54.169  25.654  24.397  1.00  0.00    -0.744 OA
ENDBRANCH  68  69
ENDBRANCH  36  61
ENDBRANCH  10  11
ENDBRANCH   3   5
ENDBRANCH   2   3
ENDBRANCH   1   2
BRANCH   1  73
ATOM     73  C   UNL A   1      34.435  31.292  27.667  1.00  0.00     0.275 C 
BRANCH  73  74
ATOM     74  O   UNL A   1      34.032  29.910  27.686  1.00  0.00    -0.458 OA
BRANCH  74  75
ATOM     75  C   UNL A   1      32.798  29.647  27.166  1.00  0.00     0.338 C 
ATOM     76  O   UNL A   1      31.868  30.422  27.091  1.00  0.00    -0.246 OA
BRANCH  75  77
ATOM     77  C   UNL A   1      32.774  28.282  26.581  1.00  0.00     0.060 A 
ATOM     78  C   UNL A   1      33.946  27.761  26.031  1.00  0.00     0.019 A 
ATOM     79  C   UNL A   1      31.615  27.515  26.548  1.00  0.00     0.019 A 
ATOM     80  C   UNL A   1      33.984  26.441  25.541  1.00  0.00     0.044 A 
ATOM     81  C   UNL A   1      31.656  26.213  26.014  1.00  0.00     0.044 A 
ATOM     82  C   UNL A   1      32.854  25.619  25.560  1.00  0.00     0.103 A 
BRANCH  82  83
ATOM     83  N   UNL A   1      32.862  24.232  25.126  1.00  0.00    -0.219 N 
ATOM     84  C   UNL A   1      32.904  23.245  26.191  1.00  0.00     0.405 C 
ATOM     85  C   UNL A   1      33.021  23.765  23.797  1.00  0.00     0.297 C 
ATOM     86  N   UNL A   1      32.550  21.941  25.720  1.00  0.00    -0.274 N 
ATOM     87  N   UNL A   1      33.285  22.430  23.583  1.00  0.00    -0.236 N 
ATOM     88  S   UNL A   1      32.934  24.700  22.383  1.00  0.00    -0.005 S 
ATOM     89  C   UNL A   1      33.001  21.568  24.495  1.00  0.00     0.229 C 
ATOM     90  H   UNL A   1      32.000  21.334  26.266  1.00  0.00     0.260 HD
ATOM     91  H   UNL A   1      33.690  22.137  22.735  1.00  0.00     0.268 HD
BRANCH  89  92
ATOM     92  C   UNL A   1      33.157  20.128  24.175  1.00  0.00     0.047 A 
ATOM     93  C   UNL A   1      34.209  19.386  24.719  1.00  0.00     0.015 A 
ATOM     94  C   UNL A   1      32.263  19.538  23.276  1.00  0.00     0.015 A 
ATOM     95  C   UNL A   1      34.356  18.042  24.368  1.00  0.00     0.001 A 
ATOM     96  C   UNL A   1      32.426  18.200  22.915  1.00  0.00     0.001 A 
ATOM     97  C   UNL A   1      33.469  17.452  23.465  1.00  0.00     0.000 A 
ENDBRANCH  89  92
ENDBRANCH  82  83
ENDBRANCH  75  77
ENDBRANCH  74  75
ENDBRANCH  73  74
ENDBRANCH   1  73
TORSDOF 16
ENDMDL
MODEL 3
REMARK VINA RESULT:     -12.1      5.121     10.966
REMARK SMILES O=C(OCCOC(=O)c1ccc(N2CNC(c3ccccc3)=[NH+]C2=S)cc1)c1ccc(-c2c3nc(c(-c4c(F)cc(S(=O)(=O)[O-])cc4F)c4ccc([nH]4)c(-c4c(F)cc(S(=O)(=O)[O-])cc4F)c4nc(c(-c5c(F)cc(S(=O)(=O)[O-])cc5F)c5ccc2[nH]5)C=C4)C=C3)cc1
REMARK SMILES IDX 4 1 3 2 2 3 1 4 28 5 29 6 93 7 30 8 92 9 31 10 32 11 33 12
REMARK SMILES IDX 86 13 34 14 91 15 85 16 87 17 35 18 90 19 84 20 83 21 36 23
REMARK SMILES IDX 70 24 49 25 69 26 50 27 53 28 68 29 88 30 51 31 52 32 67 34
REMARK SMILES IDX 89 35 54 36 37 37 38 38 47 39 39 40 40 41 46 42 48 43 41 44
REMARK SMILES IDX 42 45 43 46 44 47 45 48 71 49 72 50 81 51 73 52 74 53 80 54
REMARK SMILES IDX 82 55 75 56 76 57 77 58 78 59 79 60 55 61 56 62 65 63 57 64
REMARK SMILES IDX 58 65 64 66 66 67 59 68 60 69 61 70 62 71 63 72 5 73 6 74
REMARK SMILES IDX 7 75 8 76 9 77 10 78 27 79 11 80 26 81 12 82 13 83 14 84
REMARK SMILES IDX 24 85 15 86 23 87 25 88 16 89 17 92 18 93 22 94 19 95 21 96
REMARK SMILES IDX 20 97
REMARK H PARENT 87 22 53 33 15 90 23 91
REMARK Flexibility Score: inf
ROOT
ATOM      1  C   UNL A   1      40.165  22.601  27.217  1.00  0.00     0.275 C 
ENDROOT
BRANCH   1   2
ATOM      2  O   UNL A   1      41.097  23.580  26.740  1.00  0.00    -0.458 OA
BRANCH   2   3
ATOM      3  C   UNL A   1      40.921  24.906  26.533  1.00  0.00     0.338 C 
ATOM      4  O   UNL A   1      41.102  25.342  25.396  1.00  0.00    -0.246 OA
BRANCH   3   5
ATOM      5  C   UNL A   1      40.648  25.895  27.629  1.00  0.00     0.060 A 
ATOM      6  C   UNL A   1      39.566  25.898  28.520  1.00  0.00     0.016 A 
ATOM      7  C   UNL A   1      41.610  26.902  27.786  1.00  0.00     0.016 A 
ATOM      8  C   UNL A   1      39.495  26.795  29.592  1.00  0.00     0.010 A 
ATOM      9  C   UNL A   1      41.539  27.798  28.850  1.00  0.00     0.010 A 
ATOM     10  C   UNL A   1      40.491  27.745  29.775  1.00  0.00    -0.014 A 
BRANCH  10  11
ATOM     11  C   UNL A   1      40.370  28.806  30.801  1.00  0.00     0.031 A 
ATOM     12  C   UNL A   1      41.147  28.629  32.072  1.00  0.00     0.074 A 
ATOM     13  C   UNL A   1      39.572  29.877  30.625  1.00  0.00     0.049 A 
ATOM     14  N   UNL A   1      41.163  29.377  33.141  1.00  0.00    -0.248 NA
ATOM     15  C   UNL A   1      42.042  27.460  32.135  1.00  0.00     0.031 C 
ATOM     16  C   UNL A   1      38.839  30.197  29.402  1.00  0.00     0.029 A 
ATOM     17  N   UNL A   1      39.214  30.883  31.489  1.00  0.00    -0.354 N 
ATOM     18  C   UNL A   1      42.078  28.774  33.995  1.00  0.00     0.074 A 
ATOM     19  C   UNL A   1      42.531  27.561  33.358  1.00  0.00     0.031 C 
ATOM     20  C   UNL A   1      38.043  31.258  29.623  1.00  0.00     0.029 A 
ATOM     21  C   UNL A   1      38.224  31.705  30.999  1.00  0.00     0.049 A 
ATOM     22  H   UNL A   1      39.625  31.003  32.375  1.00  0.00     0.167 HD
ATOM     23  C   UNL A   1      42.532  29.221  35.187  1.00  0.00     0.037 A 
ATOM     24  C   UNL A   1      37.534  32.694  31.602  1.00  0.00     0.037 A 
ATOM     25  C   UNL A   1      42.047  30.419  35.812  1.00  0.00     0.049 A 
ATOM     26  C   UNL A   1      37.947  33.103  32.988  1.00  0.00     0.074 A 
ATOM     27  C   UNL A   1      42.447  30.996  37.000  1.00  0.00     0.029 A 
ATOM     28  N   UNL A   1      41.025  31.209  35.298  1.00  0.00    -0.354 N 
ATOM     29  N   UNL A   1      38.868  32.572  33.756  1.00  0.00    -0.248 NA
ATOM     30  C   UNL A   1      37.273  34.269  33.571  1.00  0.00     0.031 C 
ATOM     31  C   UNL A   1      41.625  32.103  37.236  1.00  0.00     0.029 A 
ATOM     32  C   UNL A   1      40.757  32.254  36.163  1.00  0.00     0.049 A 
ATOM     33  H   UNL A   1      40.561  31.048  34.445  1.00  0.00     0.167 HD
ATOM     34  C   UNL A   1      38.929  33.372  34.888  1.00  0.00     0.074 A 
ATOM     35  C   UNL A   1      37.929  34.408  34.716  1.00  0.00     0.031 C 
ATOM     36  C   UNL A   1      39.757  33.275  35.957  1.00  0.00     0.037 A 
BRANCH  23  37
ATOM     37  C   UNL A   1      43.576  28.382  35.867  1.00  0.00     0.058 A 
ATOM     38  C   UNL A   1      44.948  28.578  35.628  1.00  0.00     0.135 A 
ATOM     39  C   UNL A   1      43.203  27.323  36.708  1.00  0.00     0.135 A 
ATOM     40  F   UNL A   1      45.361  29.563  34.813  1.00  0.00    -0.206 F 
ATOM     41  C   UNL A   1      45.907  27.714  36.146  1.00  0.00     0.059 A 
ATOM     42  C   UNL A   1      44.149  26.467  37.264  1.00  0.00     0.059 A 
ATOM     43  F   UNL A   1      41.908  27.092  36.971  1.00  0.00    -0.206 F 
ATOM     44  C   UNL A   1      45.496  26.655  36.954  1.00  0.00     0.060 A 
BRANCH  44  45
ATOM     45  S   UNL A   1      46.747  25.514  37.578  1.00  0.00     0.124 S 
ATOM     46  O   UNL A   1      46.491  24.327  36.768  1.00  0.00    -0.237 OA
ATOM     47  O   UNL A   1      47.989  26.222  37.285  1.00  0.00    -0.237 OA
ATOM     48  O   UNL A   1      46.419  25.391  38.995  1.00  0.00    -0.744 OA
ENDBRANCH  44  45
ENDBRANCH  23  37
BRANCH  24  49
ATOM     49  C   UNL A   1      36.405  33.358  30.896  1.00  0.00     0.058 A 
ATOM     50  C   UNL A   1      35.071  33.171  31.282  1.00  0.00     0.135 A 
ATOM     51  C   UNL A   1      36.652  34.232  29.824  1.00  0.00     0.135 A 
ATOM     52  F   UNL A   1      34.777  32.327  32.281  1.00  0.00    -0.206 F 
ATOM     53  C   UNL A   1      34.026  33.839  30.646  1.00  0.00     0.059 A 
ATOM     54  C   UNL A   1      35.631  34.930  29.190  1.00  0.00     0.059 A 
ATOM     55  F   UNL A   1      37.905  34.423  29.390  1.00  0.00    -0.206 F 
ATOM     56  C   UNL A   1      34.318  34.728  29.609  1.00  0.00     0.060 A 
BRANCH  56  57
ATOM     57  S   UNL A   1      32.970  35.658  28.846  1.00  0.00     0.124 S 
ATOM     58  O   UNL A   1      32.355  34.644  27.999  1.00  0.00    -0.237 OA
ATOM     59  O   UNL A   1      32.196  36.078  30.010  1.00  0.00    -0.237 OA
ATOM     60  O   UNL A   1      33.664  36.733  28.144  1.00  0.00    -0.744 OA
ENDBRANCH  56  57
ENDBRANCH  24  49
BRANCH  36  61
ATOM     61  C   UNL A   1      39.662  34.341  37.009  1.00  0.00     0.058 A 
ATOM     62  C   UNL A   1      38.897  34.166  38.171  1.00  0.00     0.135 A 
ATOM     63  C   UNL A   1      40.447  35.502  36.900  1.00  0.00     0.135 A 
ATOM     64  F   UNL A   1      38.121  33.080  38.313  1.00  0.00    -0.206 F 
ATOM     65  C   UNL A   1      38.920  35.104  39.196  1.00  0.00     0.059 A 
ATOM     66  C   UNL A   1      40.507  36.438  37.925  1.00  0.00     0.059 A 
ATOM     67  F   UNL A   1      41.198  35.709  35.807  1.00  0.00    -0.206 F 
ATOM     68  C   UNL A   1      39.739  36.229  39.069  1.00  0.00     0.060 A 
BRANCH  68  69
ATOM     69  S   UNL A   1      39.828  37.390  40.447  1.00  0.00     0.124 S 
ATOM     70  O   UNL A   1      40.976  38.207  40.069  1.00  0.00    -0.237 OA
ATOM     71  O   UNL A   1      38.528  38.052  40.381  1.00  0.00    -0.237 OA
ATOM     72  O   UNL A   1      40.027  36.527  41.608  1.00  0.00    -0.744 OA
ENDBRANCH  68  69
ENDBRANCH  36  61
ENDBRANCH  10  11
ENDBRANCH   3   5
ENDBRANCH   2   3
ENDBRANCH   1   2
BRANCH   1  73
ATOM     73  C   UNL A   1      39.312  21.942  26.126  1.00  0.00     0.275 C 
BRANCH  73  74
ATOM     74  O   UNL A   1      38.195  22.732  25.676  1.00  0.00    -0.458 OA
BRANCH  74  75
ATOM     75  C   UNL A   1      37.265  22.068  24.930  1.00  0.00     0.338 C 
ATOM     76  O   UNL A   1      37.354  20.933  24.511  1.00  0.00    -0.246 OA
BRANCH  75  77
ATOM     77  C   UNL A   1      36.041  22.898  24.788  1.00  0.00     0.060 A 
ATOM     78  C   UNL A   1      35.916  24.055  25.558  1.00  0.00     0.019 A 
ATOM     79  C   UNL A   1      35.010  22.548  23.925  1.00  0.00     0.019 A 
ATOM     80  C   UNL A   1      34.810  24.912  25.392  1.00  0.00     0.044 A 
ATOM     81  C   UNL A   1      33.887  23.389  23.803  1.00  0.00     0.044 A 
ATOM     82  C   UNL A   1      33.790  24.624  24.481  1.00  0.00     0.103 A 
BRANCH  82  83
ATOM     83  N   UNL A   1      32.665  25.508  24.229  1.00  0.00    -0.219 N 
ATOM     84  C   UNL A   1      32.900  26.556  23.251  1.00  0.00     0.405 C 
ATOM     85  C   UNL A   1      31.455  25.563  24.965  1.00  0.00     0.297 C 
ATOM     86  N   UNL A   1      31.677  27.142  22.796  1.00  0.00    -0.274 N 
ATOM     87  N   UNL A   1      30.607  26.633  24.782  1.00  0.00    -0.236 N 
ATOM     88  S   UNL A   1      30.914  24.424  26.101  1.00  0.00    -0.005 S 
ATOM     89  C   UNL A   1      30.694  27.341  23.712  1.00  0.00     0.229 C 
ATOM     90  H   UNL A   1      31.552  27.394  21.854  1.00  0.00     0.260 HD
ATOM     91  H   UNL A   1      29.936  26.854  25.468  1.00  0.00     0.268 HD
BRANCH  89  92
ATOM     92  C   UNL A   1      29.671  28.389  23.477  1.00  0.00     0.047 A 
ATOM     93  C   UNL A   1      29.980  29.741  23.653  1.00  0.00     0.015 A 
ATOM     94  C   UNL A   1      28.375  27.998  23.126  1.00  0.00     0.015 A 
ATOM     95  C   UNL A   1      28.986  30.704  23.465  1.00  0.00     0.001 A 
ATOM     96  C   UNL A   1      27.382  28.964  22.958  1.00  0.00     0.001 A 
ATOM     97  C   UNL A   1      27.688  30.316  23.123  1.00  0.00     0.000 A 
ENDBRANCH  89  92
ENDBRANCH  82  83
ENDBRANCH  75  77
ENDBRANCH  74  75
ENDBRANCH  73  74
ENDBRANCH   1  73
TORSDOF 16
ENDMDL
