MODEL 1
REMARK VINA RESULT:     -12.0      0.000      0.000
REMARK SMILES COc1ccc(NC2=[NH+]C(=O)/C(=C\c3ccccc3C(=O)OCCOC(=O)c3ccc(-c4c5nc(c(-c6c(F)cc(S(=O)(=O)[O-])cc6F)c6ccc([nH]6)c(-c6c(F)cc(S(=O)(=O)[O-])cc6F)c6nc(c(-c7c(F)cc(S(=O)(=O)[O-])cc7F)c7ccc4[nH]7)C=C6)C=C5)cc3)S2)cc1
REMARK SMILES IDX 23 1 22 2 20 3 21 4 19 5 14 6 15 7 16 8 18 9 17 10 13 11
REMARK SMILES IDX 7 12 8 13 9 15 94 16 10 17 12 19 11 20 6 21 3 22 4 23 96 24
REMARK SMILES IDX 5 25 95 26 2 27 1 28 24 29 25 30 26 31 27 32 28 33 29 34
REMARK SMILES IDX 93 35 30 36 92 37 31 38 32 39 33 40 86 41 34 42 91 43 85 44
REMARK SMILES IDX 87 45 35 46 90 47 84 48 83 49 36 51 70 52 49 53 69 54 50 55
REMARK SMILES IDX 53 56 68 57 88 58 51 59 52 60 67 62 89 63 54 64 37 65 38 66
REMARK SMILES IDX 47 67 39 68 40 69 46 70 48 71 41 72 42 73 43 74 44 75 45 76
REMARK SMILES IDX 71 77 72 78 81 79 73 80 74 81 80 82 82 83 75 84 76 85 77 86
REMARK SMILES IDX 78 87 79 88 55 89 56 90 65 91 57 92 58 93 64 94 66 95 59 96
REMARK SMILES IDX 60 97 61 98 62 99 63 100
REMARK H PARENT 7 14 9 18 87 50 53 61
REMARK Flexibility Score: inf
ROOT
ATOM      1  C   UNL A   1      33.514  27.167  25.330  1.00  0.00     0.275 C 
ENDROOT
BRANCH   1   2
ATOM      2  O   UNL A   1      34.510  26.166  25.635  1.00  0.00    -0.458 OA
BRANCH   2   3
ATOM      3  C   UNL A   1      34.417  24.996  24.951  1.00  0.00     0.338 C 
ATOM      4  O   UNL A   1      34.493  24.882  23.737  1.00  0.00    -0.246 OA
BRANCH   3   5
ATOM      5  C   UNL A   1      34.263  23.820  25.856  1.00  0.00     0.067 A 
ATOM      6  C   UNL A   1      33.095  23.536  26.592  1.00  0.00    -0.010 A 
ATOM      7  C   UNL A   1      33.059  22.368  27.377  1.00  0.00     0.009 A 
ATOM      8  C   UNL A   1      34.157  21.504  27.444  1.00  0.00     0.001 A 
ATOM      9  C   UNL A   1      35.345  22.921  25.911  1.00  0.00     0.016 A 
ATOM     10  C   UNL A   1      35.306  21.788  26.720  1.00  0.00     0.001 A 
BRANCH   6  11
ATOM     11  C   UNL A   1      31.922  24.421  26.662  1.00  0.00     0.033 C 
ATOM     12  N   UNL A   1      28.888  26.621  23.297  1.00  0.00    -0.235 N 
ATOM     13  C   UNL A   1      29.625  25.737  24.024  1.00  0.00     0.322 C 
ATOM     14  H   UNL A   1      28.284  26.211  22.636  1.00  0.00     0.313 HD
ATOM     15  N   UNL A   1      30.129  24.667  23.498  1.00  0.00    -0.199 N 
ATOM     16  S   UNL A   1      29.882  25.928  25.747  1.00  0.00     0.006 SA
ATOM     17  C   UNL A   1      30.877  23.924  24.386  1.00  0.00     0.346 C 
ATOM     18  H   UNL A   1      29.992  24.411  22.557  1.00  0.00     0.316 HD
ATOM     19  C   UNL A   1      31.009  24.624  25.702  1.00  0.00     0.110 C 
ATOM     20  O   UNL A   1      31.363  22.835  24.142  1.00  0.00    -0.240 OA
BRANCH  12  21
ATOM     21  C   UNL A   1      28.848  28.025  23.339  1.00  0.00     0.125 A 
ATOM     22  C   UNL A   1      28.627  30.847  23.344  1.00  0.00     0.119 A 
ATOM     23  C   UNL A   1      29.845  30.230  23.617  1.00  0.00     0.051 A 
ATOM     24  C   UNL A   1      27.513  30.059  23.070  1.00  0.00     0.051 A 
ATOM     25  C   UNL A   1      29.950  28.834  23.635  1.00  0.00     0.055 A 
ATOM     26  C   UNL A   1      27.626  28.663  23.072  1.00  0.00     0.055 A 
BRANCH  22  27
ATOM     27  O   UNL A   1      28.654  32.212  23.319  1.00  0.00    -0.497 OA
ATOM     28  C   UNL A   1      28.325  32.807  22.069  1.00  0.00     0.278 C 
ENDBRANCH  22  27
ENDBRANCH  12  21
ENDBRANCH   6  11
ENDBRANCH   3   5
ENDBRANCH   2   3
ENDBRANCH   1   2
BRANCH   1  29
ATOM     29  C   UNL A   1      33.950  28.563  25.777  1.00  0.00     0.275 C 
BRANCH  29  30
ATOM     30  O   UNL A   1      34.061  28.617  27.206  1.00  0.00    -0.458 OA
BRANCH  30  31
ATOM     31  C   UNL A   1      34.365  29.842  27.690  1.00  0.00     0.338 C 
ATOM     32  O   UNL A   1      33.612  30.789  27.844  1.00  0.00    -0.246 OA
BRANCH  31  33
ATOM     33  C   UNL A   1      35.751  29.853  28.162  1.00  0.00     0.060 A 
ATOM     34  C   UNL A   1      36.729  30.181  27.232  1.00  0.00     0.016 A 
ATOM     35  C   UNL A   1      36.104  29.367  29.414  1.00  0.00     0.016 A 
ATOM     36  C   UNL A   1      38.061  29.895  27.481  1.00  0.00     0.010 A 
ATOM     37  C   UNL A   1      37.461  29.195  29.712  1.00  0.00     0.010 A 
ATOM     38  C   UNL A   1      38.450  29.409  28.731  1.00  0.00    -0.014 A 
BRANCH  38  39
ATOM     39  C   UNL A   1      39.880  29.080  28.984  1.00  0.00     0.031 A 
ATOM     40  C   UNL A   1      40.793  30.126  29.569  1.00  0.00     0.074 A 
ATOM     41  C   UNL A   1      40.351  27.846  28.714  1.00  0.00     0.049 A 
ATOM     42  N   UNL A   1      42.096  30.116  29.682  1.00  0.00    -0.248 NA
ATOM     43  C   UNL A   1      40.160  31.356  30.073  1.00  0.00     0.031 C 
ATOM     44  C   UNL A   1      39.556  26.724  28.206  1.00  0.00     0.029 A 
ATOM     45  N   UNL A   1      41.614  27.321  28.831  1.00  0.00    -0.354 N 
ATOM     46  C   UNL A   1      42.442  31.356  30.210  1.00  0.00     0.074 A 
ATOM     47  C   UNL A   1      41.212  32.099  30.382  1.00  0.00     0.031 C 
ATOM     48  C   UNL A   1      40.338  25.642  28.087  1.00  0.00     0.029 A 
ATOM     49  C   UNL A   1      41.708  26.017  28.404  1.00  0.00     0.049 A 
ATOM     50  H   UNL A   1      42.379  27.830  29.186  1.00  0.00     0.167 HD
ATOM     51  C   UNL A   1      43.674  31.826  30.519  1.00  0.00     0.037 A 
ATOM     52  C   UNL A   1      42.783  25.226  28.228  1.00  0.00     0.037 A 
ATOM     53  C   UNL A   1      44.880  31.048  30.385  1.00  0.00     0.049 A 
ATOM     54  C   UNL A   1      44.144  25.785  28.531  1.00  0.00     0.074 A 
ATOM     55  C   UNL A   1      46.180  31.417  30.682  1.00  0.00     0.029 A 
ATOM     56  N   UNL A   1      44.932  29.738  29.925  1.00  0.00    -0.354 N 
ATOM     57  N   UNL A   1      44.463  26.977  28.979  1.00  0.00    -0.248 NA
ATOM     58  C   UNL A   1      45.290  24.900  28.295  1.00  0.00     0.031 C 
ATOM     59  C   UNL A   1      47.024  30.351  30.351  1.00  0.00     0.029 A 
ATOM     60  C   UNL A   1      46.244  29.292  29.911  1.00  0.00     0.049 A 
ATOM     61  H   UNL A   1      44.152  29.205  29.649  1.00  0.00     0.167 HD
ATOM     62  C   UNL A   1      45.848  26.976  29.102  1.00  0.00     0.074 A 
ATOM     63  C   UNL A   1      46.300  25.659  28.697  1.00  0.00     0.031 C 
ATOM     64  C   UNL A   1      46.671  27.973  29.512  1.00  0.00     0.037 A 
BRANCH  51  65
ATOM     65  C   UNL A   1      43.788  33.252  30.991  1.00  0.00     0.058 A 
ATOM     66  C   UNL A   1      43.660  33.610  32.342  1.00  0.00     0.135 A 
ATOM     67  C   UNL A   1      44.062  34.278  30.070  1.00  0.00     0.135 A 
ATOM     68  F   UNL A   1      43.380  32.678  33.266  1.00  0.00    -0.206 F 
ATOM     69  C   UNL A   1      43.770  34.935  32.759  1.00  0.00     0.059 A 
ATOM     70  C   UNL A   1      44.208  35.604  30.468  1.00  0.00     0.059 A 
ATOM     71  F   UNL A   1      44.192  33.998  28.763  1.00  0.00    -0.206 F 
ATOM     72  C   UNL A   1      44.046  35.925  31.813  1.00  0.00     0.060 A 
BRANCH  72  73
ATOM     73  S   UNL A   1      44.194  37.636  32.372  1.00  0.00     0.124 S 
ATOM     74  O   UNL A   1      43.851  38.370  31.157  1.00  0.00    -0.237 OA
ATOM     75  O   UNL A   1      43.210  37.698  33.448  1.00  0.00    -0.237 OA
ATOM     76  O   UNL A   1      45.587  37.739  32.793  1.00  0.00    -0.744 OA
ENDBRANCH  72  73
ENDBRANCH  51  65
BRANCH  52  77
ATOM     77  C   UNL A   1      42.613  23.845  27.697  1.00  0.00     0.058 A 
ATOM     78  C   UNL A   1      42.505  22.745  28.559  1.00  0.00     0.135 A 
ATOM     79  C   UNL A   1      42.534  23.600  26.316  1.00  0.00     0.135 A 
ATOM     80  F   UNL A   1      42.583  22.923  29.887  1.00  0.00    -0.206 F 
ATOM     81  C   UNL A   1      42.340  21.451  28.074  1.00  0.00     0.059 A 
ATOM     82  C   UNL A   1      42.334  22.321  25.807  1.00  0.00     0.059 A 
ATOM     83  F   UNL A   1      42.617  24.619  25.444  1.00  0.00    -0.206 F 
ATOM     84  C   UNL A   1      42.250  21.251  26.695  1.00  0.00     0.060 A 
BRANCH  84  85
ATOM     85  S   UNL A   1      41.996  19.572  26.078  1.00  0.00     0.124 S 
ATOM     86  O   UNL A   1      42.855  19.559  24.900  1.00  0.00    -0.237 OA
ATOM     87  O   UNL A   1      42.445  18.761  27.206  1.00  0.00    -0.237 OA
ATOM     88  O   UNL A   1      40.561  19.525  25.813  1.00  0.00    -0.744 OA
ENDBRANCH  84  85
ENDBRANCH  52  77
BRANCH  64  89
ATOM     89  C   UNL A   1      48.139  27.658  29.593  1.00  0.00     0.058 A 
ATOM     90  C   UNL A   1      48.717  27.101  30.744  1.00  0.00     0.135 A 
ATOM     91  C   UNL A   1      48.973  27.891  28.487  1.00  0.00     0.135 A 
ATOM     92  F   UNL A   1      47.966  26.865  31.832  1.00  0.00    -0.206 F 
ATOM     93  C   UNL A   1      50.077  26.820  30.809  1.00  0.00     0.059 A 
ATOM     94  C   UNL A   1      50.328  27.585  28.518  1.00  0.00     0.059 A 
ATOM     95  F   UNL A   1      48.468  28.413  27.358  1.00  0.00    -0.206 F 
ATOM     96  C   UNL A   1      50.874  27.064  29.690  1.00  0.00     0.060 A 
BRANCH  96  97
ATOM     97  S   UNL A   1      52.635  26.675  29.779  1.00  0.00     0.124 S 
ATOM     98  O   UNL A   1      53.213  27.989  30.044  1.00  0.00    -0.237 OA
ATOM     99  O   UNL A   1      52.687  25.725  30.885  1.00  0.00    -0.237 OA
ATOM    100  O   UNL A   1      52.927  26.114  28.463  1.00  0.00    -0.744 OA
ENDBRANCH  96  97
ENDBRANCH  64  89
ENDBRANCH  38  39
ENDBRANCH  31  33
ENDBRANCH  30  31
ENDBRANCH  29  30
ENDBRANCH   1  29
TORSDOF 17
ENDMDL
MODEL 2
REMARK VINA RESULT:     -11.9      1.282      4.530
REMARK SMILES COc1ccc(NC2=[NH+]C(=O)/C(=C\c3ccccc3C(=O)OCCOC(=O)c3ccc(-c4c5nc(c(-c6c(F)cc(S(=O)(=O)[O-])cc6F)c6ccc([nH]6)c(-c6c(F)cc(S(=O)(=O)[O-])cc6F)c6nc(c(-c7c(F)cc(S(=O)(=O)[O-])cc7F)c7ccc4[nH]7)C=C6)C=C5)cc3)S2)cc1
REMARK SMILES IDX 23 1 22 2 20 3 21 4 19 5 14 6 15 7 16 8 18 9 17 10 13 11
REMARK SMILES IDX 7 12 8 13 9 15 94 16 10 17 12 19 11 20 6 21 3 22 4 23 96 24
REMARK SMILES IDX 5 25 95 26 2 27 1 28 24 29 25 30 26 31 27 32 28 33 29 34
REMARK SMILES IDX 93 35 30 36 92 37 31 38 32 39 33 40 86 41 34 42 91 43 85 44
REMARK SMILES IDX 87 45 35 46 90 47 84 48 83 49 36 51 70 52 49 53 69 54 50 55
REMARK SMILES IDX 53 56 68 57 88 58 51 59 52 60 67 62 89 63 54 64 37 65 38 66
REMARK SMILES IDX 47 67 39 68 40 69 46 70 48 71 41 72 42 73 43 74 44 75 45 76
REMARK SMILES IDX 71 77 72 78 81 79 73 80 74 81 80 82 82 83 75 84 76 85 77 86
REMARK SMILES IDX 78 87 79 88 55 89 56 90 65 91 57 92 58 93 64 94 66 95 59 96
REMARK SMILES IDX 60 97 61 98 62 99 63 100
REMARK H PARENT 7 14 9 18 87 50 53 61
REMARK Flexibility Score: inf
ROOT
ATOM      1  C   UNL A   1      31.775  31.309  26.520  1.00  0.00     0.275 C 
ENDROOT
BRANCH   1   2
ATOM      2  O   UNL A   1      32.126  30.505  25.372  1.00  0.00    -0.458 OA
BRANCH   2   3
ATOM      3  C   UNL A   1      31.289  29.476  25.078  1.00  0.00     0.338 C 
ATOM      4  O   UNL A   1      31.275  28.396  25.650  1.00  0.00    -0.246 OA
BRANCH   3   5
ATOM      5  C   UNL A   1      30.323  29.820  23.995  1.00  0.00     0.067 A 
ATOM      6  C   UNL A   1      30.143  29.057  22.825  1.00  0.00    -0.010 A 
ATOM      7  C   UNL A   1      29.165  29.463  21.898  1.00  0.00     0.009 A 
ATOM      8  C   UNL A   1      28.389  30.607  22.115  1.00  0.00     0.001 A 
ATOM      9  C   UNL A   1      29.510  30.948  24.211  1.00  0.00     0.016 A 
ATOM     10  C   UNL A   1      28.571  31.357  23.267  1.00  0.00     0.001 A 
BRANCH   6  11
ATOM     11  C   UNL A   1      30.965  27.893  22.457  1.00  0.00     0.033 C 
ATOM     12  N   UNL A   1      31.924  23.394  24.509  1.00  0.00    -0.235 N 
ATOM     13  C   UNL A   1      31.330  24.508  23.998  1.00  0.00     0.322 C 
ATOM     14  H   UNL A   1      31.310  22.646  24.693  1.00  0.00     0.313 HD
ATOM     15  N   UNL A   1      30.171  24.914  24.403  1.00  0.00    -0.199 N 
ATOM     16  S   UNL A   1      32.047  25.435  22.695  1.00  0.00     0.006 SA
ATOM     17  C   UNL A   1      29.761  26.082  23.796  1.00  0.00     0.346 C 
ATOM     18  H   UNL A   1      29.634  24.437  25.077  1.00  0.00     0.316 HD
ATOM     19  C   UNL A   1      30.832  26.639  22.913  1.00  0.00     0.110 C 
ATOM     20  O   UNL A   1      28.667  26.596  23.946  1.00  0.00    -0.240 OA
BRANCH  12  21
ATOM     21  C   UNL A   1      33.272  23.139  24.814  1.00  0.00     0.125 A 
ATOM     22  C   UNL A   1      35.962  22.471  25.387  1.00  0.00     0.119 A 
ATOM     23  C   UNL A   1      35.405  23.650  25.873  1.00  0.00     0.051 A 
ATOM     24  C   UNL A   1      35.180  21.620  24.611  1.00  0.00     0.051 A 
ATOM     25  C   UNL A   1      34.081  23.992  25.572  1.00  0.00     0.055 A 
ATOM     26  C   UNL A   1      33.850  21.956  24.328  1.00  0.00     0.055 A 
BRANCH  22  27
ATOM     27  O   UNL A   1      37.249  22.226  25.774  1.00  0.00    -0.497 OA
ATOM     28  C   UNL A   1      38.042  23.379  26.025  1.00  0.00     0.278 C 
ENDBRANCH  22  27
ENDBRANCH  12  21
ENDBRANCH   6  11
ENDBRANCH   3   5
ENDBRANCH   2   3
ENDBRANCH   1   2
BRANCH   1  29
ATOM     29  C   UNL A   1      32.969  31.536  27.446  1.00  0.00     0.275 C 
BRANCH  29  30
ATOM     30  O   UNL A   1      34.114  30.814  26.971  1.00  0.00    -0.458 OA
BRANCH  30  31
ATOM     31  C   UNL A   1      34.386  29.689  27.667  1.00  0.00     0.338 C 
ATOM     32  O   UNL A   1      33.666  28.716  27.820  1.00  0.00    -0.246 OA
BRANCH  31  33
ATOM     33  C   UNL A   1      35.776  29.719  28.126  1.00  0.00     0.060 A 
ATOM     34  C   UNL A   1      36.745  30.011  27.175  1.00  0.00     0.016 A 
ATOM     35  C   UNL A   1      36.141  29.281  29.392  1.00  0.00     0.016 A 
ATOM     36  C   UNL A   1      38.080  29.735  27.423  1.00  0.00     0.010 A 
ATOM     37  C   UNL A   1      37.500  29.121  29.685  1.00  0.00     0.010 A 
ATOM     38  C   UNL A   1      38.480  29.297  28.687  1.00  0.00    -0.014 A 
BRANCH  38  39
ATOM     39  C   UNL A   1      39.913  28.979  28.939  1.00  0.00     0.031 A 
ATOM     40  C   UNL A   1      40.819  30.032  29.522  1.00  0.00     0.074 A 
ATOM     41  C   UNL A   1      40.392  27.748  28.670  1.00  0.00     0.049 A 
ATOM     42  N   UNL A   1      42.122  30.032  29.634  1.00  0.00    -0.248 NA
ATOM     43  C   UNL A   1      40.178  31.259  30.025  1.00  0.00     0.031 C 
ATOM     44  C   UNL A   1      39.605  26.620  28.165  1.00  0.00     0.029 A 
ATOM     45  N   UNL A   1      41.659  27.233  28.787  1.00  0.00    -0.354 N 
ATOM     46  C   UNL A   1      42.460  31.275  30.160  1.00  0.00     0.074 A 
ATOM     47  C   UNL A   1      41.225  32.009  30.331  1.00  0.00     0.031 C 
ATOM     48  C   UNL A   1      40.394  25.543  28.047  1.00  0.00     0.029 A 
ATOM     49  C   UNL A   1      41.762  25.928  28.363  1.00  0.00     0.049 A 
ATOM     50  H   UNL A   1      42.421  27.747  29.141  1.00  0.00     0.167 HD
ATOM     51  C   UNL A   1      43.689  31.754  30.467  1.00  0.00     0.037 A 
ATOM     52  C   UNL A   1      42.843  25.144  28.186  1.00  0.00     0.037 A 
ATOM     53  C   UNL A   1      44.900  30.985  30.333  1.00  0.00     0.049 A 
ATOM     54  C   UNL A   1      44.200  25.714  28.488  1.00  0.00     0.074 A 
ATOM     55  C   UNL A   1      46.198  31.363  30.628  1.00  0.00     0.029 A 
ATOM     56  N   UNL A   1      44.961  29.675  29.875  1.00  0.00    -0.354 N 
ATOM     57  N   UNL A   1      44.511  26.908  28.933  1.00  0.00    -0.248 NA
ATOM     58  C   UNL A   1      45.352  24.836  28.252  1.00  0.00     0.031 C 
ATOM     59  C   UNL A   1      47.049  30.303  30.298  1.00  0.00     0.029 A 
ATOM     60  C   UNL A   1      46.276  29.237  29.861  1.00  0.00     0.049 A 
ATOM     61  H   UNL A   1      44.185  29.135  29.601  1.00  0.00     0.167 HD
ATOM     62  C   UNL A   1      45.896  26.917  29.056  1.00  0.00     0.074 A 
ATOM     63  C   UNL A   1      46.356  25.603  28.652  1.00  0.00     0.031 C 
ATOM     64  C   UNL A   1      46.712  27.921  29.463  1.00  0.00     0.037 A 
BRANCH  51  65
ATOM     65  C   UNL A   1      43.793  33.182  30.937  1.00  0.00     0.058 A 
ATOM     66  C   UNL A   1      43.965  34.256  30.049  1.00  0.00     0.135 A 
ATOM     67  C   UNL A   1      43.688  33.481  32.307  1.00  0.00     0.135 A 
ATOM     68  F   UNL A   1      44.090  34.032  28.731  1.00  0.00    -0.206 F 
ATOM     69  C   UNL A   1      44.058  35.569  30.503  1.00  0.00     0.059 A 
ATOM     70  C   UNL A   1      43.746  34.789  32.780  1.00  0.00     0.059 A 
ATOM     71  F   UNL A   1      43.526  32.495  33.204  1.00  0.00    -0.206 F 
ATOM     72  C   UNL A   1      43.945  35.826  31.872  1.00  0.00     0.060 A 
BRANCH  72  73
ATOM     73  S   UNL A   1      44.058  37.535  32.443  1.00  0.00     0.124 S 
ATOM     74  O   UNL A   1      43.742  38.272  31.223  1.00  0.00    -0.237 OA
ATOM     75  O   UNL A   1      43.043  37.580  33.491  1.00  0.00    -0.237 OA
ATOM     76  O   UNL A   1      45.438  37.650  32.904  1.00  0.00    -0.744 OA
ENDBRANCH  72  73
ENDBRANCH  51  65
BRANCH  52  77
ATOM     77  C   UNL A   1      42.681  23.762  27.658  1.00  0.00     0.058 A 
ATOM     78  C   UNL A   1      42.664  23.511  26.279  1.00  0.00     0.135 A 
ATOM     79  C   UNL A   1      42.561  22.661  28.521  1.00  0.00     0.135 A 
ATOM     80  F   UNL A   1      42.766  24.528  25.409  1.00  0.00    -0.206 F 
ATOM     81  C   UNL A   1      42.519  22.222  25.774  1.00  0.00     0.059 A 
ATOM     82  C   UNL A   1      42.451  21.360  28.042  1.00  0.00     0.059 A 
ATOM     83  F   UNL A   1      42.585  22.842  29.852  1.00  0.00    -0.206 F 
ATOM     84  C   UNL A   1      42.418  21.152  26.665  1.00  0.00     0.060 A 
BRANCH  84  85
ATOM     85  S   UNL A   1      42.271  19.480  25.999  1.00  0.00     0.124 S 
ATOM     86  O   UNL A   1      40.849  19.413  25.684  1.00  0.00    -0.237 OA
ATOM     87  O   UNL A   1      43.178  19.526  24.855  1.00  0.00    -0.237 OA
ATOM     88  O   UNL A   1      42.712  18.637  27.105  1.00  0.00    -0.744 OA
ENDBRANCH  84  85
ENDBRANCH  52  77
BRANCH  64  89
ATOM     89  C   UNL A   1      48.183  27.616  29.544  1.00  0.00     0.058 A 
ATOM     90  C   UNL A   1      49.030  27.743  28.433  1.00  0.00     0.135 A 
ATOM     91  C   UNL A   1      48.754  27.219  30.764  1.00  0.00     0.135 A 
ATOM     92  F   UNL A   1      48.534  28.112  27.242  1.00  0.00    -0.206 F 
ATOM     93  C   UNL A   1      50.387  27.453  28.519  1.00  0.00     0.059 A 
ATOM     94  C   UNL A   1      50.114  26.958  30.881  1.00  0.00     0.059 A 
ATOM     95  F   UNL A   1      47.988  27.092  31.860  1.00  0.00    -0.206 F 
ATOM     96  C   UNL A   1      50.920  27.062  29.750  1.00  0.00     0.060 A 
BRANCH  96  97
ATOM     97  S   UNL A   1      52.687  26.709  29.854  1.00  0.00     0.124 S 
ATOM     98  O   UNL A   1      52.961  26.184  28.520  1.00  0.00    -0.237 OA
ATOM     99  O   UNL A   1      53.250  28.022  30.148  1.00  0.00    -0.237 OA
ATOM    100  O   UNL A   1      52.776  25.737  30.941  1.00  0.00    -0.744 OA
ENDBRANCH  96  97
ENDBRANCH  64  89
ENDBRANCH  38  39
ENDBRANCH  31  33
ENDBRANCH  30  31
ENDBRANCH  29  30
ENDBRANCH   1  29
TORSDOF 17
ENDMDL
MODEL 3
REMARK VINA RESULT:     -11.7      2.301      4.833
REMARK SMILES COc1ccc(NC2=[NH+]C(=O)/C(=C\c3ccccc3C(=O)OCCOC(=O)c3ccc(-c4c5nc(c(-c6c(F)cc(S(=O)(=O)[O-])cc6F)c6ccc([nH]6)c(-c6c(F)cc(S(=O)(=O)[O-])cc6F)c6nc(c(-c7c(F)cc(S(=O)(=O)[O-])cc7F)c7ccc4[nH]7)C=C6)C=C5)cc3)S2)cc1
REMARK SMILES IDX 23 1 22 2 20 3 21 4 19 5 14 6 15 7 16 8 18 9 17 10 13 11
REMARK SMILES IDX 7 12 8 13 9 15 94 16 10 17 12 19 11 20 6 21 3 22 4 23 96 24
REMARK SMILES IDX 5 25 95 26 2 27 1 28 24 29 25 30 26 31 27 32 28 33 29 34
REMARK SMILES IDX 93 35 30 36 92 37 31 38 32 39 33 40 86 41 34 42 91 43 85 44
REMARK SMILES IDX 87 45 35 46 90 47 84 48 83 49 36 51 70 52 49 53 69 54 50 55
REMARK SMILES IDX 53 56 68 57 88 58 51 59 52 60 67 62 89 63 54 64 37 65 38 66
REMARK SMILES IDX 47 67 39 68 40 69 46 70 48 71 41 72 42 73 43 74 44 75 45 76
REMARK SMILES IDX 71 77 72 78 81 79 73 80 74 81 80 82 82 83 75 84 76 85 77 86
REMARK SMILES IDX 78 87 79 88 55 89 56 90 65 91 57 92 58 93 64 94 66 95 59 96
REMARK SMILES IDX 60 97 61 98 62 99 63 100
REMARK H PARENT 7 14 9 18 87 50 53 61
REMARK Flexibility Score: inf
ROOT
ATOM      1  C   UNL A   1      33.032  30.368  27.008  1.00  0.00     0.275 C 
ENDROOT
BRANCH   1   2
ATOM      2  O   UNL A   1      32.693  30.080  25.634  1.00  0.00    -0.458 OA
BRANCH   2   3
ATOM      3  C   UNL A   1      31.639  29.246  25.435  1.00  0.00     0.338 C 
ATOM      4  O   UNL A   1      31.412  28.233  26.078  1.00  0.00    -0.246 OA
BRANCH   3   5
ATOM      5  C   UNL A   1      30.726  29.731  24.359  1.00  0.00     0.067 A 
ATOM      6  C   UNL A   1      30.480  29.036  23.159  1.00  0.00    -0.010 A 
ATOM      7  C   UNL A   1      29.560  29.578  22.242  1.00  0.00     0.009 A 
ATOM      8  C   UNL A   1      28.906  30.788  22.498  1.00  0.00     0.001 A 
ATOM      9  C   UNL A   1      30.033  30.929  24.613  1.00  0.00     0.016 A 
ATOM     10  C   UNL A   1      29.153  31.471  23.679  1.00  0.00     0.001 A 
BRANCH   6  11
ATOM     11  C   UNL A   1      31.178  27.806  22.752  1.00  0.00     0.033 C 
ATOM     12  N   UNL A   1      31.450  23.093  24.507  1.00  0.00    -0.235 N 
ATOM     13  C   UNL A   1      31.031  24.305  24.049  1.00  0.00     0.322 C 
ATOM     14  H   UNL A   1      30.740  22.417  24.598  1.00  0.00     0.313 HD
ATOM     15  N   UNL A   1      29.903  24.823  24.415  1.00  0.00    -0.199 N 
ATOM     16  S   UNL A   1      31.939  25.222  22.865  1.00  0.00     0.006 SA
ATOM     17  C   UNL A   1      29.678  26.072  23.876  1.00  0.00     0.346 C 
ATOM     18  H   UNL A   1      29.270  24.372  25.019  1.00  0.00     0.316 HD
ATOM     19  C   UNL A   1      30.866  26.551  23.102  1.00  0.00     0.110 C 
ATOM     20  O   UNL A   1      28.646  26.707  24.001  1.00  0.00    -0.240 OA
BRANCH  12  21
ATOM     21  C   UNL A   1      32.734  22.651  24.870  1.00  0.00     0.125 A 
ATOM     22  C   UNL A   1      35.339  21.900  25.682  1.00  0.00     0.119 A 
ATOM     23  C   UNL A   1      34.708  21.245  24.628  1.00  0.00     0.051 A 
ATOM     24  C   UNL A   1      34.673  22.932  26.337  1.00  0.00     0.051 A 
ATOM     25  C   UNL A   1      33.411  21.602  24.240  1.00  0.00     0.055 A 
ATOM     26  C   UNL A   1      33.383  23.298  25.933  1.00  0.00     0.055 A 
BRANCH  22  27
ATOM     27  O   UNL A   1      36.615  21.491  25.947  1.00  0.00    -0.497 OA
ATOM     28  C   UNL A   1      37.645  22.291  25.379  1.00  0.00     0.278 C 
ENDBRANCH  22  27
ENDBRANCH  12  21
ENDBRANCH   6  11
ENDBRANCH   3   5
ENDBRANCH   2   3
ENDBRANCH   1   2
BRANCH   1  29
ATOM     29  C   UNL A   1      34.364  29.738  27.414  1.00  0.00     0.275 C 
BRANCH  29  30
ATOM     30  O   UNL A   1      35.353  30.755  27.629  1.00  0.00    -0.458 OA
BRANCH  30  31
ATOM     31  C   UNL A   1      36.030  30.630  28.791  1.00  0.00     0.338 C 
ATOM     32  O   UNL A   1      35.655  30.943  29.909  1.00  0.00    -0.246 OA
BRANCH  31  33
ATOM     33  C   UNL A   1      37.280  29.905  28.555  1.00  0.00     0.060 A 
ATOM     34  C   UNL A   1      37.970  29.461  29.676  1.00  0.00     0.016 A 
ATOM     35  C   UNL A   1      37.862  29.835  27.296  1.00  0.00     0.016 A 
ATOM     36  C   UNL A   1      39.298  29.077  29.578  1.00  0.00     0.010 A 
ATOM     37  C   UNL A   1      39.161  29.328  27.180  1.00  0.00     0.010 A 
ATOM     38  C   UNL A   1      39.911  28.992  28.325  1.00  0.00    -0.014 A 
BRANCH  38  39
ATOM     39  C   UNL A   1      41.344  28.602  28.229  1.00  0.00     0.031 A 
ATOM     40  C   UNL A   1      42.415  29.648  28.405  1.00  0.00     0.074 A 
ATOM     41  C   UNL A   1      41.685  27.316  28.009  1.00  0.00     0.049 A 
ATOM     42  N   UNL A   1      43.699  29.565  28.168  1.00  0.00    -0.248 NA
ATOM     43  C   UNL A   1      41.982  30.968  28.892  1.00  0.00     0.031 C 
ATOM     44  C   UNL A   1      40.747  26.197  27.885  1.00  0.00     0.029 A 
ATOM     45  N   UNL A   1      42.915  26.727  27.854  1.00  0.00    -0.354 N 
ATOM     46  C   UNL A   1      44.214  30.834  28.415  1.00  0.00     0.074 A 
ATOM     47  C   UNL A   1      43.102  31.671  28.808  1.00  0.00     0.031 C 
ATOM     48  C   UNL A   1      41.432  25.059  27.707  1.00  0.00     0.029 A 
ATOM     49  C   UNL A   1      42.848  25.378  27.595  1.00  0.00     0.049 A 
ATOM     50  H   UNL A   1      43.764  27.223  27.922  1.00  0.00     0.167 HD
ATOM     51  C   UNL A   1      45.498  31.255  28.319  1.00  0.00     0.037 A 
ATOM     52  C   UNL A   1      43.809  24.502  27.245  1.00  0.00     0.037 A 
ATOM     53  C   UNL A   1      46.596  30.388  27.973  1.00  0.00     0.049 A 
ATOM     54  C   UNL A   1      45.218  25.002  27.097  1.00  0.00     0.074 A 
ATOM     55  C   UNL A   1      47.939  30.703  27.861  1.00  0.00     0.029 A 
ATOM     56  N   UNL A   1      46.480  29.033  27.694  1.00  0.00    -0.354 N 
ATOM     57  N   UNL A   1      45.685  26.215  27.282  1.00  0.00    -0.248 NA
ATOM     58  C   UNL A   1      46.228  24.021  26.684  1.00  0.00     0.031 C 
ATOM     59  C   UNL A   1      48.626  29.552  27.462  1.00  0.00     0.029 A 
ATOM     60  C   UNL A   1      47.724  28.502  27.390  1.00  0.00     0.049 A 
ATOM     61  H   UNL A   1      45.638  28.523  27.709  1.00  0.00     0.167 HD
ATOM     62  C   UNL A   1      47.050  26.137  27.031  1.00  0.00     0.074 A 
ATOM     63  C   UNL A   1      47.332  24.754  26.698  1.00  0.00     0.031 C 
ATOM     64  C   UNL A   1      47.984  27.119  27.070  1.00  0.00     0.037 A 
BRANCH  51  65
ATOM     65  C   UNL A   1      45.780  32.716  28.550  1.00  0.00     0.058 A 
ATOM     66  C   UNL A   1      46.120  33.227  29.813  1.00  0.00     0.135 A 
ATOM     67  C   UNL A   1      45.739  33.619  27.474  1.00  0.00     0.135 A 
ATOM     68  F   UNL A   1      46.158  32.417  30.883  1.00  0.00    -0.206 F 
ATOM     69  C   UNL A   1      46.379  34.582  30.006  1.00  0.00     0.059 A 
ATOM     70  C   UNL A   1      46.026  34.972  27.637  1.00  0.00     0.059 A 
ATOM     71  F   UNL A   1      45.418  33.191  26.242  1.00  0.00    -0.206 F 
ATOM     72  C   UNL A   1      46.332  35.446  28.910  1.00  0.00     0.060 A 
BRANCH  72  73
ATOM     73  S   UNL A   1      46.679  37.199  29.176  1.00  0.00     0.124 S 
ATOM     74  O   UNL A   1      47.452  37.528  27.982  1.00  0.00    -0.237 OA
ATOM     75  O   UNL A   1      45.339  37.774  29.242  1.00  0.00    -0.237 OA
ATOM     76  O   UNL A   1      47.427  37.212  30.429  1.00  0.00    -0.744 OA
ENDBRANCH  72  73
ENDBRANCH  51  65
BRANCH  52  77
ATOM     77  C   UNL A   1      43.457  23.082  26.966  1.00  0.00     0.058 A 
ATOM     78  C   UNL A   1      43.127  22.201  28.005  1.00  0.00     0.135 A 
ATOM     79  C   UNL A   1      43.426  22.583  25.654  1.00  0.00     0.135 A 
ATOM     80  F   UNL A   1      43.150  22.624  29.278  1.00  0.00    -0.206 F 
ATOM     81  C   UNL A   1      42.791  20.873  27.756  1.00  0.00     0.059 A 
ATOM     82  C   UNL A   1      43.059  21.270  25.376  1.00  0.00     0.059 A 
ATOM     83  F   UNL A   1      43.721  23.387  24.619  1.00  0.00    -0.206 F 
ATOM     84  C   UNL A   1      42.755  20.419  26.436  1.00  0.00     0.060 A 
BRANCH  84  85
ATOM     85  S   UNL A   1      42.279  18.706  26.121  1.00  0.00     0.124 S 
ATOM     86  O   UNL A   1      40.876  18.854  25.751  1.00  0.00    -0.237 OA
ATOM     87  O   UNL A   1      43.188  18.329  25.043  1.00  0.00    -0.237 OA
ATOM     88  O   UNL A   1      42.527  18.047  27.400  1.00  0.00    -0.744 OA
ENDBRANCH  84  85
ENDBRANCH  52  77
BRANCH  64  89
ATOM     89  C   UNL A   1      49.408  26.720  26.799  1.00  0.00     0.058 A 
ATOM     90  C   UNL A   1      50.275  26.315  27.825  1.00  0.00     0.135 A 
ATOM     91  C   UNL A   1      49.900  26.717  25.483  1.00  0.00     0.135 A 
ATOM     92  F   UNL A   1      49.857  26.307  29.100  1.00  0.00    -0.206 F 
ATOM     93  C   UNL A   1      51.591  25.953  27.561  1.00  0.00     0.059 A 
ATOM     94  C   UNL A   1      51.203  26.326  25.193  1.00  0.00     0.059 A 
ATOM     95  F   UNL A   1      49.109  27.086  24.463  1.00  0.00    -0.206 F 
ATOM     96  C   UNL A   1      52.045  25.961  26.241  1.00  0.00     0.060 A 
BRANCH  96  97
ATOM     97  S   UNL A   1      53.750  25.470  25.910  1.00  0.00     0.124 S 
ATOM     98  O   UNL A   1      54.217  26.573  25.075  1.00  0.00    -0.237 OA
ATOM     99  O   UNL A   1      54.321  25.403  27.251  1.00  0.00    -0.237 OA
ATOM    100  O   UNL A   1      53.609  24.184  25.231  1.00  0.00    -0.744 OA
ENDBRANCH  96  97
ENDBRANCH  64  89
ENDBRANCH  38  39
ENDBRANCH  31  33
ENDBRANCH  30  31
ENDBRANCH  29  30
ENDBRANCH   1  29
TORSDOF 17
ENDMDL
