MODEL 1
REMARK VINA RESULT:     -10.0      0.000      0.000
REMARK SMILES COCCCC(=O)N[C@H]1CC[C@@H](C(=O)OCCOC(=O)c2ccc(-c3c4nc(c(-c5c(F)cc(S(=O)(=O)[O-])cc5F)c5ccc([nH]5)c(-c5c(F)cc(S(=O)(=O)[O-])cc5F)c5nc(c(-c6c(F)cc(S(=O)(=O)[O-])cc6F)c6ccc3[nH]6)C=C5)C=C4)cc2)CC1
REMARK SMILES IDX 16 1 15 2 13 3 14 4 12 5 9 6 10 7 88 8 11 9 87 10 8 11 6 12
REMARK SMILES IDX 7 13 5 15 4 16 3 17 2 18 1 19 17 20 18 21 19 22 20 23 21 24
REMARK SMILES IDX 22 25 86 26 23 27 85 28 24 29 25 30 26 31 79 32 27 33 84 34
REMARK SMILES IDX 78 35 80 36 28 37 83 38 77 39 76 40 29 42 63 43 42 44 62 45
REMARK SMILES IDX 43 46 46 47 61 48 81 49 44 50 45 51 60 53 82 54 47 55 30 56
REMARK SMILES IDX 31 57 40 58 32 59 33 60 39 61 41 62 34 63 35 64 36 65 37 66
REMARK SMILES IDX 38 67 64 68 65 69 74 70 66 71 67 72 73 73 75 74 68 75 69 76
REMARK SMILES IDX 70 77 71 78 72 79 48 80 49 81 58 82 50 83 51 84 57 85 59 86
REMARK SMILES IDX 52 87 53 88 54 89 55 90 56 91
REMARK H PARENT 8 14 80 41 46 52
REMARK Flexibility Score: inf
ROOT
ATOM      1  C   UNL A   1      34.508  31.821  27.768  1.00  0.00     0.274 C 
ENDROOT
BRANCH   1   2
ATOM      2  O   UNL A   1      33.634  30.694  27.576  1.00  0.00    -0.462 OA
BRANCH   2   3
ATOM      3  C   UNL A   1      34.160  29.612  26.950  1.00  0.00     0.309 C 
ATOM      4  O   UNL A   1      35.239  29.105  27.221  1.00  0.00    -0.252 OA
BRANCH   3   5
ATOM      5  C   UNL A   1      33.282  29.121  25.808  1.00  0.00     0.099 C 
ATOM      6  C   UNL A   1      31.924  26.544  26.271  1.00  0.00     0.082 C 
ATOM      7  C   UNL A   1      31.522  27.799  27.049  1.00  0.00     0.026 C 
ATOM      8  C   UNL A   1      33.403  26.543  25.913  1.00  0.00     0.026 C 
ATOM      9  C   UNL A   1      31.825  29.061  26.256  1.00  0.00     0.017 C 
ATOM     10  C   UNL A   1      33.756  27.819  25.140  1.00  0.00     0.017 C 
BRANCH   6  11
ATOM     11  N   UNL A   1      31.499  25.376  27.013  1.00  0.00    -0.353 N 
ATOM     12  C   UNL A   1      31.060  24.189  26.505  1.00  0.00     0.220 C 
ATOM     13  O   UNL A   1      30.380  23.453  27.220  1.00  0.00    -0.275 OA
ATOM     14  H   UNL A   1      31.530  25.446  27.995  1.00  0.00     0.163 HD
BRANCH  12  15
ATOM     15  C   UNL A   1      31.505  23.751  25.122  1.00  0.00     0.102 C 
BRANCH  15  16
ATOM     16  C   UNL A   1      30.610  24.103  23.931  1.00  0.00     0.038 C 
BRANCH  16  17
ATOM     17  C   UNL A   1      30.899  25.337  23.066  1.00  0.00     0.160 C 
BRANCH  17  18
ATOM     18  O   UNL A   1      32.222  25.771  22.771  1.00  0.00    -0.385 OA
ATOM     19  C   UNL A   1      32.830  25.444  21.540  1.00  0.00     0.194 C 
ENDBRANCH  17  18
ENDBRANCH  16  17
ENDBRANCH  15  16
ENDBRANCH  12  15
ENDBRANCH   6  11
ENDBRANCH   3   5
ENDBRANCH   2   3
ENDBRANCH   1   2
BRANCH   1  20
ATOM     20  C   UNL A   1      34.804  32.029  29.253  1.00  0.00     0.275 C 
BRANCH  20  21
ATOM     21  O   UNL A   1      35.642  30.976  29.762  1.00  0.00    -0.458 OA
BRANCH  21  22
ATOM     22  C   UNL A   1      36.603  31.363  30.630  1.00  0.00     0.338 C 
ATOM     23  O   UNL A   1      36.453  31.994  31.667  1.00  0.00    -0.246 OA
BRANCH  22  24
ATOM     24  C   UNL A   1      37.889  30.785  30.218  1.00  0.00     0.060 A 
ATOM     25  C   UNL A   1      38.844  30.509  31.201  1.00  0.00     0.016 A 
ATOM     26  C   UNL A   1      38.172  30.564  28.870  1.00  0.00     0.016 A 
ATOM     27  C   UNL A   1      40.085  29.993  30.846  1.00  0.00     0.010 A 
ATOM     28  C   UNL A   1      39.423  30.056  28.513  1.00  0.00     0.010 A 
ATOM     29  C   UNL A   1      40.387  29.772  29.498  1.00  0.00    -0.014 A 
BRANCH  29  30
ATOM     30  C   UNL A   1      41.737  29.305  29.106  1.00  0.00     0.031 A 
ATOM     31  C   UNL A   1      42.873  30.284  29.075  1.00  0.00     0.074 A 
ATOM     32  C   UNL A   1      41.935  28.015  28.778  1.00  0.00     0.049 A 
ATOM     33  N   UNL A   1      44.094  30.122  28.637  1.00  0.00    -0.248 NA
ATOM     34  C   UNL A   1      42.594  31.629  29.605  1.00  0.00     0.031 C 
ATOM     35  C   UNL A   1      40.916  26.967  28.822  1.00  0.00     0.029 A 
ATOM     36  N   UNL A   1      43.061  27.371  28.330  1.00  0.00    -0.354 N 
ATOM     37  C   UNL A   1      44.724  31.348  28.811  1.00  0.00     0.074 A 
ATOM     38  C   UNL A   1      43.747  32.248  29.388  1.00  0.00     0.031 C 
ATOM     39  C   UNL A   1      41.459  25.811  28.405  1.00  0.00     0.029 A 
ATOM     40  C   UNL A   1      42.848  26.049  28.021  1.00  0.00     0.049 A 
ATOM     41  H   UNL A   1      43.935  27.814  28.239  1.00  0.00     0.167 HD
ATOM     42  C   UNL A   1      45.999  31.689  28.512  1.00  0.00     0.037 A 
ATOM     43  C   UNL A   1      43.672  25.144  27.459  1.00  0.00     0.037 A 
ATOM     44  C   UNL A   1      46.963  30.778  27.950  1.00  0.00     0.049 A 
ATOM     45  C   UNL A   1      45.072  25.558  27.091  1.00  0.00     0.074 A 
ATOM     46  C   UNL A   1      48.285  31.020  27.618  1.00  0.00     0.029 A 
ATOM     47  N   UNL A   1      46.710  29.450  27.640  1.00  0.00    -0.354 N 
ATOM     48  N   UNL A   1      45.652  26.725  27.242  1.00  0.00    -0.248 NA
ATOM     49  C   UNL A   1      45.926  24.537  26.470  1.00  0.00     0.031 C 
ATOM     50  C   UNL A   1      48.820  29.847  27.073  1.00  0.00     0.029 A 
ATOM     51  C   UNL A   1      47.844  28.863  27.106  1.00  0.00     0.049 A 
ATOM     52  H   UNL A   1      45.849  28.992  27.780  1.00  0.00     0.167 HD
ATOM     53  C   UNL A   1      46.944  26.575  26.752  1.00  0.00     0.074 A 
ATOM     54  C   UNL A   1      47.065  25.200  26.310  1.00  0.00     0.031 C 
ATOM     55  C   UNL A   1      47.942  27.490  26.675  1.00  0.00     0.037 A 
BRANCH  42  56
ATOM     56  C   UNL A   1      46.412  33.113  28.753  1.00  0.00     0.058 A 
ATOM     57  C   UNL A   1      47.052  33.510  29.937  1.00  0.00     0.135 A 
ATOM     58  C   UNL A   1      46.177  34.093  27.775  1.00  0.00     0.135 A 
ATOM     59  F   UNL A   1      47.281  32.616  30.913  1.00  0.00    -0.206 F 
ATOM     60  C   UNL A   1      47.424  34.833  30.155  1.00  0.00     0.059 A 
ATOM     61  C   UNL A   1      46.562  35.417  27.961  1.00  0.00     0.059 A 
ATOM     62  F   UNL A   1      45.564  33.769  26.626  1.00  0.00    -0.206 F 
ATOM     63  C   UNL A   1      47.171  35.781  29.162  1.00  0.00     0.060 A 
BRANCH  63  64
ATOM     64  S   UNL A   1      47.654  37.495  29.457  1.00  0.00     0.124 S 
ATOM     65  O   UNL A   1      48.634  37.707  28.397  1.00  0.00    -0.237 OA
ATOM     66  O   UNL A   1      46.390  38.208  29.302  1.00  0.00    -0.237 OA
ATOM     67  O   UNL A   1      48.192  37.467  30.813  1.00  0.00    -0.744 OA
ENDBRANCH  63  64
ENDBRANCH  42  56
BRANCH  43  68
ATOM     68  C   UNL A   1      43.184  23.767  27.184  1.00  0.00     0.058 A 
ATOM     69  C   UNL A   1      42.822  23.372  25.889  1.00  0.00     0.135 A 
ATOM     70  C   UNL A   1      43.088  22.813  28.211  1.00  0.00     0.135 A 
ATOM     71  F   UNL A   1      42.885  24.250  24.878  1.00  0.00    -0.206 F 
ATOM     72  C   UNL A   1      42.375  22.081  25.619  1.00  0.00     0.059 A 
ATOM     73  C   UNL A   1      42.667  21.511  27.962  1.00  0.00     0.059 A 
ATOM     74  F   UNL A   1      43.431  23.140  29.466  1.00  0.00    -0.206 F 
ATOM     75  C   UNL A   1      42.305  21.156  26.663  1.00  0.00     0.060 A 
BRANCH  75  76
ATOM     76  S   UNL A   1      41.781  19.468  26.294  1.00  0.00     0.124 S 
ATOM     77  O   UNL A   1      42.563  19.172  25.100  1.00  0.00    -0.237 OA
ATOM     78  O   UNL A   1      42.169  18.752  27.505  1.00  0.00    -0.237 OA
ATOM     79  O   UNL A   1      40.341  19.602  26.091  1.00  0.00    -0.744 OA
ENDBRANCH  75  76
ENDBRANCH  43  68
BRANCH  55  80
ATOM     80  C   UNL A   1      49.259  27.028  26.119  1.00  0.00     0.058 A 
ATOM     81  C   UNL A   1      49.584  27.193  24.764  1.00  0.00     0.135 A 
ATOM     82  C   UNL A   1      50.227  26.462  26.964  1.00  0.00     0.135 A 
ATOM     83  F   UNL A   1      48.690  27.723  23.915  1.00  0.00    -0.206 F 
ATOM     84  C   UNL A   1      50.817  26.795  24.261  1.00  0.00     0.059 A 
ATOM     85  C   UNL A   1      51.475  26.077  26.486  1.00  0.00     0.059 A 
ATOM     86  F   UNL A   1      49.969  26.292  28.270  1.00  0.00    -0.206 F 
ATOM     87  C   UNL A   1      51.757  26.237  25.129  1.00  0.00     0.060 A 
BRANCH  87  88
ATOM     88  S   UNL A   1      53.369  25.756  24.474  1.00  0.00     0.124 S 
ATOM     89  O   UNL A   1      53.548  24.438  25.074  1.00  0.00    -0.237 OA
ATOM     90  O   UNL A   1      53.140  25.770  23.032  1.00  0.00    -0.237 OA
ATOM     91  O   UNL A   1      54.262  26.799  24.969  1.00  0.00    -0.744 OA
ENDBRANCH  87  88
ENDBRANCH  55  80
ENDBRANCH  29  30
ENDBRANCH  22  24
ENDBRANCH  21  22
ENDBRANCH  20  21
ENDBRANCH   1  20
TORSDOF 19
ENDMDL
MODEL 2
REMARK VINA RESULT:     -10.0      6.587     12.061
REMARK SMILES COCCCC(=O)N[C@H]1CC[C@@H](C(=O)OCCOC(=O)c2ccc(-c3c4nc(c(-c5c(F)cc(S(=O)(=O)[O-])cc5F)c5ccc([nH]5)c(-c5c(F)cc(S(=O)(=O)[O-])cc5F)c5nc(c(-c6c(F)cc(S(=O)(=O)[O-])cc6F)c6ccc3[nH]6)C=C5)C=C4)cc2)CC1
REMARK SMILES IDX 16 1 15 2 13 3 14 4 12 5 9 6 10 7 88 8 11 9 87 10 8 11 6 12
REMARK SMILES IDX 7 13 5 15 4 16 3 17 2 18 1 19 17 20 18 21 19 22 20 23 21 24
REMARK SMILES IDX 22 25 86 26 23 27 85 28 24 29 25 30 26 31 79 32 27 33 84 34
REMARK SMILES IDX 78 35 80 36 28 37 83 38 77 39 76 40 29 42 63 43 42 44 62 45
REMARK SMILES IDX 43 46 46 47 61 48 81 49 44 50 45 51 60 53 82 54 47 55 30 56
REMARK SMILES IDX 31 57 40 58 32 59 33 60 39 61 41 62 34 63 35 64 36 65 37 66
REMARK SMILES IDX 38 67 64 68 65 69 74 70 66 71 67 72 73 73 75 74 68 75 69 76
REMARK SMILES IDX 70 77 71 78 72 79 48 80 49 81 58 82 50 83 51 84 57 85 59 86
REMARK SMILES IDX 52 87 53 88 54 89 55 90 56 91
REMARK H PARENT 8 14 80 41 46 52
REMARK Flexibility Score: inf
ROOT
ATOM      1  C   UNL A   1      39.237  21.381  26.065  1.00  0.00     0.274 C 
ENDROOT
BRANCH   1   2
ATOM      2  O   UNL A   1      37.970  22.045  25.917  1.00  0.00    -0.462 OA
BRANCH   2   3
ATOM      3  C   UNL A   1      36.963  21.324  25.366  1.00  0.00     0.309 C 
ATOM      4  O   UNL A   1      37.113  20.412  24.565  1.00  0.00    -0.252 OA
BRANCH   3   5
ATOM      5  C   UNL A   1      35.591  21.817  25.805  1.00  0.00     0.099 C 
ATOM      6  C   UNL A   1      34.405  23.929  24.121  1.00  0.00     0.082 C 
ATOM      7  C   UNL A   1      34.564  22.499  23.599  1.00  0.00     0.026 C 
ATOM      8  C   UNL A   1      35.503  24.302  25.107  1.00  0.00     0.026 C 
ATOM      9  C   UNL A   1      34.551  21.490  24.737  1.00  0.00     0.017 C 
ATOM     10  C   UNL A   1      35.544  23.287  26.255  1.00  0.00     0.017 C 
BRANCH   6  11
ATOM     11  N   UNL A   1      34.296  24.831  22.994  1.00  0.00    -0.353 N 
ATOM     12  C   UNL A   1      33.167  25.155  22.301  1.00  0.00     0.220 C 
ATOM     13  O   UNL A   1      33.280  25.606  21.161  1.00  0.00    -0.275 OA
ATOM     14  H   UNL A   1      35.131  25.258  22.694  1.00  0.00     0.163 HD
BRANCH  12  15
ATOM     15  C   UNL A   1      31.813  25.059  22.980  1.00  0.00     0.102 C 
BRANCH  15  16
ATOM     16  C   UNL A   1      31.308  26.275  23.759  1.00  0.00     0.038 C 
BRANCH  16  17
ATOM     17  C   UNL A   1      32.249  27.073  24.671  1.00  0.00     0.160 C 
BRANCH  17  18
ATOM     18  O   UNL A   1      33.544  27.490  24.256  1.00  0.00    -0.385 OA
ATOM     19  C   UNL A   1      33.714  28.672  23.503  1.00  0.00     0.194 C 
ENDBRANCH  17  18
ENDBRANCH  16  17
ENDBRANCH  15  16
ENDBRANCH  12  15
ENDBRANCH   6  11
ENDBRANCH   3   5
ENDBRANCH   2   3
ENDBRANCH   1   2
BRANCH   1  20
ATOM     20  C   UNL A   1      40.210  22.244  26.870  1.00  0.00     0.275 C 
BRANCH  20  21
ATOM     21  O   UNL A   1      39.954  23.643  26.654  1.00  0.00    -0.458 OA
BRANCH  21  22
ATOM     22  C   UNL A   1      41.048  24.436  26.602  1.00  0.00     0.338 C 
ATOM     23  O   UNL A   1      41.982  24.356  25.816  1.00  0.00    -0.246 OA
BRANCH  22  24
ATOM     24  C   UNL A   1      40.897  25.534  27.565  1.00  0.00     0.060 A 
ATOM     25  C   UNL A   1      41.898  26.508  27.631  1.00  0.00     0.016 A 
ATOM     26  C   UNL A   1      39.805  25.577  28.432  1.00  0.00     0.016 A 
ATOM     27  C   UNL A   1      41.806  27.544  28.555  1.00  0.00     0.010 A 
ATOM     28  C   UNL A   1      39.719  26.612  29.366  1.00  0.00     0.010 A 
ATOM     29  C   UNL A   1      40.721  27.597  29.436  1.00  0.00    -0.014 A 
BRANCH  29  30
ATOM     30  C   UNL A   1      40.662  28.648  30.477  1.00  0.00     0.031 A 
ATOM     31  C   UNL A   1      41.595  28.574  31.649  1.00  0.00     0.074 A 
ATOM     32  C   UNL A   1      39.774  29.654  30.371  1.00  0.00     0.049 A 
ATOM     33  N   UNL A   1      41.623  29.305  32.733  1.00  0.00    -0.248 NA
ATOM     34  C   UNL A   1      42.635  27.534  31.595  1.00  0.00     0.031 C 
ATOM     35  C   UNL A   1      38.855  29.853  29.251  1.00  0.00     0.029 A 
ATOM     36  N   UNL A   1      39.493  30.690  31.225  1.00  0.00    -0.354 N 
ATOM     37  C   UNL A   1      42.662  28.798  33.504  1.00  0.00     0.074 A 
ATOM     38  C   UNL A   1      43.236  27.692  32.767  1.00  0.00     0.031 C 
ATOM     39  C   UNL A   1      38.100  30.939  29.492  1.00  0.00     0.029 A 
ATOM     40  C   UNL A   1      38.451  31.481  30.802  1.00  0.00     0.049 A 
ATOM     41  H   UNL A   1      39.989  30.850  32.060  1.00  0.00     0.167 HD
ATOM     42  C   UNL A   1      43.092  29.218  34.716  1.00  0.00     0.037 A 
ATOM     43  C   UNL A   1      37.830  32.504  31.419  1.00  0.00     0.037 A 
ATOM     44  C   UNL A   1      42.520  30.330  35.431  1.00  0.00     0.049 A 
ATOM     45  C   UNL A   1      38.295  32.924  32.787  1.00  0.00     0.074 A 
ATOM     46  C   UNL A   1      42.887  30.843  36.663  1.00  0.00     0.029 A 
ATOM     47  N   UNL A   1      41.460  31.100  34.978  1.00  0.00    -0.354 N 
ATOM     48  N   UNL A   1      39.267  32.426  33.516  1.00  0.00    -0.248 NA
ATOM     49  C   UNL A   1      37.576  34.037  33.422  1.00  0.00     0.031 C 
ATOM     50  C   UNL A   1      42.024  31.902  36.970  1.00  0.00     0.029 A 
ATOM     51  C   UNL A   1      41.148  32.075  35.910  1.00  0.00     0.049 A 
ATOM     52  H   UNL A   1      40.996  30.973  34.118  1.00  0.00     0.167 HD
ATOM     53  C   UNL A   1      39.288  33.177  34.686  1.00  0.00     0.074 A 
ATOM     54  C   UNL A   1      38.239  34.170  34.564  1.00  0.00     0.031 C 
ATOM     55  C   UNL A   1      40.101  33.057  35.765  1.00  0.00     0.037 A 
BRANCH  42  56
ATOM     56  C   UNL A   1      44.212  28.451  35.359  1.00  0.00     0.058 A 
ATOM     57  C   UNL A   1      43.973  27.342  36.186  1.00  0.00     0.135 A 
ATOM     58  C   UNL A   1      45.547  28.822  35.130  1.00  0.00     0.135 A 
ATOM     59  F   UNL A   1      42.714  26.958  36.453  1.00  0.00    -0.206 F 
ATOM     60  C   UNL A   1      45.017  26.642  36.784  1.00  0.00     0.059 A 
ATOM     61  C   UNL A   1      46.607  28.122  35.698  1.00  0.00     0.059 A 
ATOM     62  F   UNL A   1      45.831  29.877  34.352  1.00  0.00    -0.206 F 
ATOM     63  C   UNL A   1      46.331  27.042  36.536  1.00  0.00     0.060 A 
BRANCH  63  64
ATOM     64  S   UNL A   1      47.676  26.129  37.321  1.00  0.00     0.124 S 
ATOM     65  O   UNL A   1      46.940  25.227  38.200  1.00  0.00    -0.237 OA
ATOM     66  O   UNL A   1      48.337  25.502  36.181  1.00  0.00    -0.237 OA
ATOM     67  O   UNL A   1      48.447  27.170  37.994  1.00  0.00    -0.744 OA
ENDBRANCH  63  64
ENDBRANCH  42  56
BRANCH  43  68
ATOM     68  C   UNL A   1      36.684  33.182  30.758  1.00  0.00     0.058 A 
ATOM     69  C   UNL A   1      35.367  32.954  31.180  1.00  0.00     0.135 A 
ATOM     70  C   UNL A   1      36.886  34.087  29.703  1.00  0.00     0.135 A 
ATOM     71  F   UNL A   1      35.122  32.090  32.176  1.00  0.00    -0.206 F 
ATOM     72  C   UNL A   1      34.288  33.593  30.576  1.00  0.00     0.059 A 
ATOM     73  C   UNL A   1      35.826  34.755  29.099  1.00  0.00     0.059 A 
ATOM     74  F   UNL A   1      38.129  34.346  29.269  1.00  0.00    -0.206 F 
ATOM     75  C   UNL A   1      34.529  34.496  29.538  1.00  0.00     0.060 A 
BRANCH  75  76
ATOM     76  S   UNL A   1      33.128  35.364  28.800  1.00  0.00     0.124 S 
ATOM     77  O   UNL A   1      32.424  35.846  29.983  1.00  0.00    -0.237 OA
ATOM     78  O   UNL A   1      33.789  36.384  27.991  1.00  0.00    -0.237 OA
ATOM     79  O   UNL A   1      32.449  34.319  28.041  1.00  0.00    -0.744 OA
ENDBRANCH  75  76
ENDBRANCH  43  68
BRANCH  55  80
ATOM     80  C   UNL A   1      39.909  34.039  36.885  1.00  0.00     0.058 A 
ATOM     81  C   UNL A   1      40.477  35.322  36.844  1.00  0.00     0.135 A 
ATOM     82  C   UNL A   1      39.104  33.712  37.988  1.00  0.00     0.135 A 
ATOM     83  F   UNL A   1      41.260  35.681  35.814  1.00  0.00    -0.206 F 
ATOM     84  C   UNL A   1      40.269  36.240  37.867  1.00  0.00     0.059 A 
ATOM     85  C   UNL A   1      38.864  34.622  39.011  1.00  0.00     0.059 A 
ATOM     86  F   UNL A   1      38.530  32.501  38.069  1.00  0.00    -0.206 F 
ATOM     87  C   UNL A   1      39.461  35.881  38.947  1.00  0.00     0.060 A 
BRANCH  87  88
ATOM     88  S   UNL A   1      39.167  37.092  40.253  1.00  0.00     0.124 S 
ATOM     89  O   UNL A   1      38.335  36.330  41.178  1.00  0.00    -0.237 OA
ATOM     90  O   UNL A   1      40.519  37.390  40.716  1.00  0.00    -0.237 OA
ATOM     91  O   UNL A   1      38.495  38.186  39.558  1.00  0.00    -0.744 OA
ENDBRANCH  87  88
ENDBRANCH  55  80
ENDBRANCH  29  30
ENDBRANCH  22  24
ENDBRANCH  21  22
ENDBRANCH  20  21
ENDBRANCH   1  20
TORSDOF 19
ENDMDL
MODEL 3
REMARK VINA RESULT:     -10.0      2.758      3.648
REMARK SMILES COCCCC(=O)N[C@H]1CC[C@@H](C(=O)OCCOC(=O)c2ccc(-c3c4nc(c(-c5c(F)cc(S(=O)(=O)[O-])cc5F)c5ccc([nH]5)c(-c5c(F)cc(S(=O)(=O)[O-])cc5F)c5nc(c(-c6c(F)cc(S(=O)(=O)[O-])cc6F)c6ccc3[nH]6)C=C5)C=C4)cc2)CC1
REMARK SMILES IDX 16 1 15 2 13 3 14 4 12 5 9 6 10 7 88 8 11 9 87 10 8 11 6 12
REMARK SMILES IDX 7 13 5 15 4 16 3 17 2 18 1 19 17 20 18 21 19 22 20 23 21 24
REMARK SMILES IDX 22 25 86 26 23 27 85 28 24 29 25 30 26 31 79 32 27 33 84 34
REMARK SMILES IDX 78 35 80 36 28 37 83 38 77 39 76 40 29 42 63 43 42 44 62 45
REMARK SMILES IDX 43 46 46 47 61 48 81 49 44 50 45 51 60 53 82 54 47 55 30 56
REMARK SMILES IDX 31 57 40 58 32 59 33 60 39 61 41 62 34 63 35 64 36 65 37 66
REMARK SMILES IDX 38 67 64 68 65 69 74 70 66 71 67 72 73 73 75 74 68 75 69 76
REMARK SMILES IDX 70 77 71 78 72 79 48 80 49 81 58 82 50 83 51 84 57 85 59 86
REMARK SMILES IDX 52 87 53 88 54 89 55 90 56 91
REMARK H PARENT 8 14 80 41 46 52
REMARK Flexibility Score: inf
ROOT
ATOM      1  C   UNL A   1      32.507  29.619  25.695  1.00  0.00     0.274 C 
ENDROOT
BRANCH   1   2
ATOM      2  O   UNL A   1      31.357  28.756  25.681  1.00  0.00    -0.462 OA
BRANCH   2   3
ATOM      3  C   UNL A   1      31.078  28.128  24.512  1.00  0.00     0.309 C 
ATOM      4  O   UNL A   1      31.262  28.606  23.401  1.00  0.00    -0.252 OA
BRANCH   3   5
ATOM      5  C   UNL A   1      30.438  26.764  24.727  1.00  0.00     0.099 C 
ATOM      6  C   UNL A   1      32.247  24.454  24.428  1.00  0.00     0.082 C 
ATOM      7  C   UNL A   1      32.386  25.418  25.607  1.00  0.00     0.026 C 
ATOM      8  C   UNL A   1      31.730  25.151  23.177  1.00  0.00     0.026 C 
ATOM      9  C   UNL A   1      31.058  26.080  25.940  1.00  0.00     0.017 C 
ATOM     10  C   UNL A   1      30.405  25.860  23.482  1.00  0.00     0.017 C 
BRANCH   6  11
ATOM     11  N   UNL A   1      33.503  23.761  24.236  1.00  0.00    -0.353 N 
ATOM     12  C   UNL A   1      33.690  22.422  24.058  1.00  0.00     0.220 C 
ATOM     13  O   UNL A   1      34.797  21.940  24.298  1.00  0.00    -0.275 OA
ATOM     14  H   UNL A   1      34.315  24.319  24.235  1.00  0.00     0.163 HD
BRANCH  12  15
ATOM     15  C   UNL A   1      32.574  21.577  23.469  1.00  0.00     0.102 C 
BRANCH  15  16
ATOM     16  C   UNL A   1      32.530  20.090  23.826  1.00  0.00     0.038 C 
BRANCH  16  17
ATOM     17  C   UNL A   1      32.748  19.619  25.270  1.00  0.00     0.160 C 
BRANCH  17  18
ATOM     18  O   UNL A   1      32.266  18.367  25.747  1.00  0.00    -0.385 OA
ATOM     19  C   UNL A   1      32.924  17.166  25.407  1.00  0.00     0.194 C 
ENDBRANCH  17  18
ENDBRANCH  16  17
ENDBRANCH  15  16
ENDBRANCH  12  15
ENDBRANCH   6  11
ENDBRANCH   3   5
ENDBRANCH   2   3
ENDBRANCH   1   2
BRANCH   1  20
ATOM     20  C   UNL A   1      33.678  28.950  26.415  1.00  0.00     0.275 C 
BRANCH  20  21
ATOM     21  O   UNL A   1      33.726  29.348  27.797  1.00  0.00    -0.458 OA
BRANCH  21  22
ATOM     22  C   UNL A   1      34.501  30.421  28.069  1.00  0.00     0.338 C 
ATOM     23  O   UNL A   1      34.131  31.573  28.256  1.00  0.00    -0.246 OA
BRANCH  22  24
ATOM     24  C   UNL A   1      35.890  29.982  28.252  1.00  0.00     0.060 A 
ATOM     25  C   UNL A   1      36.279  29.497  29.505  1.00  0.00     0.016 A 
ATOM     26  C   UNL A   1      36.816  30.092  27.215  1.00  0.00     0.016 A 
ATOM     27  C   UNL A   1      37.594  29.103  29.726  1.00  0.00     0.010 A 
ATOM     28  C   UNL A   1      38.139  29.706  27.441  1.00  0.00     0.010 A 
ATOM     29  C   UNL A   1      38.536  29.215  28.697  1.00  0.00    -0.014 A 
BRANCH  29  30
ATOM     30  C   UNL A   1      39.956  28.879  28.952  1.00  0.00     0.031 A 
ATOM     31  C   UNL A   1      40.873  29.931  29.500  1.00  0.00     0.074 A 
ATOM     32  C   UNL A   1      40.414  27.641  28.687  1.00  0.00     0.049 A 
ATOM     33  N   UNL A   1      42.169  29.894  29.669  1.00  0.00    -0.248 NA
ATOM     34  C   UNL A   1      40.247  31.199  29.909  1.00  0.00     0.031 C 
ATOM     35  C   UNL A   1      39.601  26.527  28.200  1.00  0.00     0.029 A 
ATOM     36  N   UNL A   1      41.679  27.119  28.779  1.00  0.00    -0.354 N 
ATOM     37  C   UNL A   1      42.520  31.138  30.178  1.00  0.00     0.074 A 
ATOM     38  C   UNL A   1      41.301  31.912  30.282  1.00  0.00     0.031 C 
ATOM     39  C   UNL A   1      40.390  25.454  28.023  1.00  0.00     0.029 A 
ATOM     40  C   UNL A   1      41.769  25.820  28.339  1.00  0.00     0.049 A 
ATOM     41  H   UNL A   1      42.447  27.627  29.125  1.00  0.00     0.167 HD
ATOM     42  C   UNL A   1      43.748  31.590  30.521  1.00  0.00     0.037 A 
ATOM     43  C   UNL A   1      42.847  25.029  28.176  1.00  0.00     0.037 A 
ATOM     44  C   UNL A   1      44.951  30.804  30.424  1.00  0.00     0.049 A 
ATOM     45  C   UNL A   1      44.208  25.570  28.520  1.00  0.00     0.074 A 
ATOM     46  C   UNL A   1      46.245  31.164  30.754  1.00  0.00     0.029 A 
ATOM     47  N   UNL A   1      45.005  29.496  29.964  1.00  0.00    -0.354 N 
ATOM     48  N   UNL A   1      44.532  26.755  28.982  1.00  0.00    -0.248 NA
ATOM     49  C   UNL A   1      45.353  24.672  28.313  1.00  0.00     0.031 C 
ATOM     50  C   UNL A   1      47.088  30.086  30.458  1.00  0.00     0.029 A 
ATOM     51  C   UNL A   1      46.312  29.039  29.985  1.00  0.00     0.049 A 
ATOM     52  H   UNL A   1      44.228  28.969  29.665  1.00  0.00     0.167 HD
ATOM     53  C   UNL A   1      45.913  26.738  29.139  1.00  0.00     0.074 A 
ATOM     54  C   UNL A   1      46.364  25.422  28.733  1.00  0.00     0.031 C 
ATOM     55  C   UNL A   1      46.736  27.722  29.580  1.00  0.00     0.037 A 
BRANCH  42  56
ATOM     56  C   UNL A   1      43.856  33.011  30.998  1.00  0.00     0.058 A 
ATOM     57  C   UNL A   1      43.788  33.343  32.360  1.00  0.00     0.135 A 
ATOM     58  C   UNL A   1      44.048  34.055  30.078  1.00  0.00     0.135 A 
ATOM     59  F   UNL A   1      43.585  32.385  33.280  1.00  0.00    -0.206 F 
ATOM     60  C   UNL A   1      43.881  34.662  32.793  1.00  0.00     0.059 A 
ATOM     61  C   UNL A   1      44.168  35.378  30.490  1.00  0.00     0.059 A 
ATOM     62  F   UNL A   1      44.115  33.792  28.764  1.00  0.00    -0.206 F 
ATOM     63  C   UNL A   1      44.068  35.674  31.849  1.00  0.00     0.060 A 
BRANCH  63  64
ATOM     64  S   UNL A   1      44.183  37.382  32.421  1.00  0.00     0.124 S 
ATOM     65  O   UNL A   1      43.899  38.119  31.194  1.00  0.00    -0.237 OA
ATOM     66  O   UNL A   1      43.147  37.440  33.447  1.00  0.00    -0.237 OA
ATOM     67  O   UNL A   1      45.553  37.485  32.912  1.00  0.00    -0.744 OA
ENDBRANCH  63  64
ENDBRANCH  42  56
BRANCH  43  68
ATOM     68  C   UNL A   1      42.682  23.654  27.637  1.00  0.00     0.058 A 
ATOM     69  C   UNL A   1      42.724  23.408  26.257  1.00  0.00     0.135 A 
ATOM     70  C   UNL A   1      42.498  22.556  28.492  1.00  0.00     0.135 A 
ATOM     71  F   UNL A   1      42.886  24.425  25.399  1.00  0.00    -0.206 F 
ATOM     72  C   UNL A   1      42.584  22.122  25.743  1.00  0.00     0.059 A 
ATOM     73  C   UNL A   1      42.379  21.259  28.003  1.00  0.00     0.059 A 
ATOM     74  F   UNL A   1      42.460  22.739  29.821  1.00  0.00    -0.206 F 
ATOM     75  C   UNL A   1      42.415  21.053  26.625  1.00  0.00     0.060 A 
BRANCH  75  76
ATOM     76  S   UNL A   1      42.293  19.382  25.952  1.00  0.00     0.124 S 
ATOM     77  O   UNL A   1      43.080  19.499  24.730  1.00  0.00    -0.237 OA
ATOM     78  O   UNL A   1      42.883  18.576  27.017  1.00  0.00    -0.237 OA
ATOM     79  O   UNL A   1      40.856  19.202  25.765  1.00  0.00    -0.744 OA
ENDBRANCH  75  76
ENDBRANCH  43  68
BRANCH  55  80
ATOM     80  C   UNL A   1      48.202  27.404  29.673  1.00  0.00     0.058 A 
ATOM     81  C   UNL A   1      49.104  27.790  28.670  1.00  0.00     0.135 A 
ATOM     82  C   UNL A   1      48.716  26.753  30.805  1.00  0.00     0.135 A 
ATOM     83  F   UNL A   1      48.660  28.410  27.565  1.00  0.00    -0.206 F 
ATOM     84  C   UNL A   1      50.464  27.523  28.777  1.00  0.00     0.059 A 
ATOM     85  C   UNL A   1      50.075  26.496  30.944  1.00  0.00     0.059 A 
ATOM     86  F   UNL A   1      47.896  26.373  31.798  1.00  0.00    -0.206 F 
ATOM     87  C   UNL A   1      50.942  26.876  29.918  1.00  0.00     0.060 A 
BRANCH  87  88
ATOM     88  S   UNL A   1      52.714  26.566  30.064  1.00  0.00     0.124 S 
ATOM     89  O   UNL A   1      53.220  27.898  30.376  1.00  0.00    -0.237 OA
ATOM     90  O   UNL A   1      52.774  25.594  31.152  1.00  0.00    -0.237 OA
ATOM     91  O   UNL A   1      53.077  26.047  28.750  1.00  0.00    -0.744 OA
ENDBRANCH  87  88
ENDBRANCH  55  80
ENDBRANCH  29  30
ENDBRANCH  22  24
ENDBRANCH  21  22
ENDBRANCH  20  21
ENDBRANCH   1  20
TORSDOF 19
ENDMDL
