MODEL 1
REMARK VINA RESULT:     -13.2      0.000      0.000
REMARK SMILES Cc1ccc(C(=O)N2C[C@@H](C(=O)OCCOC(=O)c3ccc(-c4c5nc(c(-c6c(F)cc(S(=O)(=O)[O-])cc6F)c6ccc([nH]6)c(-c6c(F)cc(S(=O)(=O)[O-])cc6F)c6nc(c(-c7c(F)cc(S(=O)(=O)[O-])cc7F)c7ccc4[nH]7)C=C6)C=C5)cc3)C[C@H](C(=O)N3CCOCC3)C2)cc1F
REMARK SMILES IDX 15 1 14 2 13 3 11 4 12 5 10 6 8 7 9 8 95 9 86 10 85 11 6 12
REMARK SMILES IDX 7 13 5 14 1 15 2 16 3 17 97 18 4 19 96 20 98 21 87 22 88 23
REMARK SMILES IDX 89 24 90 25 94 26 91 27 93 28 92 29 16 30 17 31 18 32 19 33
REMARK SMILES IDX 20 34 84 35 21 36 83 37 22 38 23 39 24 40 77 41 25 42 82 43
REMARK SMILES IDX 76 44 78 45 26 46 81 47 75 48 74 49 27 51 61 52 40 53 60 54
REMARK SMILES IDX 41 55 44 56 59 57 79 58 42 59 43 60 58 62 80 63 45 64 28 65
REMARK SMILES IDX 29 66 38 67 30 68 31 69 37 70 39 71 32 72 33 73 34 74 35 75
REMARK SMILES IDX 36 76 62 77 63 78 72 79 64 80 65 81 71 82 73 83 66 84 67 85
REMARK SMILES IDX 68 86 69 87 70 88 46 89 47 90 56 91 48 92 49 93 55 94 57 95
REMARK SMILES IDX 50 96 51 97 52 98 53 99 54 100
REMARK H PARENT 78 50 44 61
REMARK Flexibility Score: inf
ROOT
ATOM      1  C   UNL A   1      32.438  30.370  26.851  1.00  0.00     0.275 C 
ENDROOT
BRANCH   1   2
ATOM      2  C   UNL A   1      31.901  29.443  25.767  1.00  0.00     0.274 C 
BRANCH   2   3
ATOM      3  O   UNL A   1      32.698  28.250  25.789  1.00  0.00    -0.462 OA
BRANCH   3   4
ATOM      4  C   UNL A   1      32.053  27.105  26.112  1.00  0.00     0.310 C 
ATOM      5  O   UNL A   1      31.137  27.034  26.926  1.00  0.00    -0.252 OA
BRANCH   4   6
ATOM      6  C   UNL A   1      32.576  25.905  25.339  1.00  0.00     0.119 C 
ATOM      7  N   UNL A   1      34.582  24.520  25.173  1.00  0.00    -0.337 N 
ATOM      8  C   UNL A   1      33.940  25.601  25.890  1.00  0.00     0.135 C 
ATOM      9  C   UNL A   1      34.755  24.683  23.725  1.00  0.00     0.133 C 
ATOM     10  C   UNL A   1      33.438  25.024  23.014  1.00  0.00     0.099 C 
ATOM     11  C   UNL A   1      32.642  26.069  23.818  1.00  0.00     0.032 C 
BRANCH   7  12
ATOM     12  C   UNL A   1      35.050  23.457  25.917  1.00  0.00     0.254 C 
ATOM     13  O   UNL A   1      34.448  22.973  26.872  1.00  0.00    -0.269 OA
BRANCH  12  14
ATOM     14  C   UNL A   1      36.445  23.029  25.702  1.00  0.00     0.042 A 
ATOM     15  C   UNL A   1      40.317  21.303  26.229  1.00  0.00     0.047 C 
ATOM     16  C   UNL A   1      39.002  21.956  25.944  1.00  0.00    -0.015 A 
ATOM     17  C   UNL A   1      38.764  23.273  26.343  1.00  0.00     0.007 A 
ATOM     18  C   UNL A   1      37.965  21.216  25.362  1.00  0.00     0.126 A 
ATOM     19  C   UNL A   1      37.486  23.805  26.233  1.00  0.00     0.014 A 
ATOM     20  C   UNL A   1      36.687  21.739  25.237  1.00  0.00     0.053 A 
ATOM     21  F   UNL A   1      38.186  19.949  24.984  1.00  0.00    -0.207 F 
ENDBRANCH  12  14
ENDBRANCH   7  12
BRANCH  10  22
ATOM     22  C   UNL A   1      32.908  23.699  22.414  1.00  0.00     0.227 C 
ATOM     23  O   UNL A   1      33.355  23.346  21.311  1.00  0.00    -0.275 OA
ATOM     24  N   UNL A   1      32.277  22.772  23.205  1.00  0.00    -0.338 N 
ATOM     25  C   UNL A   1      31.129  23.035  24.049  1.00  0.00     0.148 C 
ATOM     26  C   UNL A   1      32.547  21.344  23.056  1.00  0.00     0.148 C 
ATOM     27  C   UNL A   1      31.317  22.374  25.418  1.00  0.00     0.181 C 
ATOM     28  C   UNL A   1      32.747  20.744  24.454  1.00  0.00     0.181 C 
ATOM     29  O   UNL A   1      31.591  20.963  25.282  1.00  0.00    -0.378 OA
ENDBRANCH  10  22
ENDBRANCH   4   6
ENDBRANCH   3   4
ENDBRANCH   2   3
ENDBRANCH   1   2
BRANCH   1  30
ATOM     30  O   UNL A   1      33.678  29.919  27.434  1.00  0.00    -0.458 OA
BRANCH  30  31
ATOM     31  C   UNL A   1      34.579  30.881  27.757  1.00  0.00     0.338 C 
ATOM     32  O   UNL A   1      34.402  32.079  27.706  1.00  0.00    -0.246 OA
BRANCH  31  33
ATOM     33  C   UNL A   1      35.851  30.267  28.169  1.00  0.00     0.060 A 
ATOM     34  C   UNL A   1      35.921  29.734  29.463  1.00  0.00     0.016 A 
ATOM     35  C   UNL A   1      36.979  30.344  27.358  1.00  0.00     0.016 A 
ATOM     36  C   UNL A   1      37.149  29.451  30.033  1.00  0.00     0.010 A 
ATOM     37  C   UNL A   1      38.197  30.023  27.903  1.00  0.00     0.010 A 
ATOM     38  C   UNL A   1      38.279  29.640  29.251  1.00  0.00    -0.014 A 
BRANCH  38  39
ATOM     39  C   UNL A   1      39.586  29.197  29.669  1.00  0.00     0.031 A 
ATOM     40  C   UNL A   1      40.021  27.870  29.179  1.00  0.00     0.074 A 
ATOM     41  C   UNL A   1      40.421  30.112  30.199  1.00  0.00     0.049 A 
ATOM     42  N   UNL A   1      41.122  27.301  29.516  1.00  0.00    -0.248 NA
ATOM     43  C   UNL A   1      39.199  27.026  28.302  1.00  0.00     0.031 C 
ATOM     44  C   UNL A   1      41.859  30.182  29.996  1.00  0.00     0.029 A 
ATOM     45  N   UNL A   1      40.160  31.179  31.046  1.00  0.00    -0.354 N 
ATOM     46  C   UNL A   1      41.307  26.230  28.668  1.00  0.00     0.074 A 
ATOM     47  C   UNL A   1      40.027  26.007  28.047  1.00  0.00     0.031 C 
ATOM     48  C   UNL A   1      42.376  31.099  30.830  1.00  0.00     0.029 A 
ATOM     49  C   UNL A   1      41.328  31.496  31.758  1.00  0.00     0.049 A 
ATOM     50  H   UNL A   1      39.295  31.639  31.135  1.00  0.00     0.167 HD
ATOM     51  C   UNL A   1      42.574  25.773  28.474  1.00  0.00     0.037 A 
ATOM     52  C   UNL A   1      41.428  31.304  33.118  1.00  0.00     0.037 A 
ATOM     53  C   UNL A   1      43.504  26.548  29.288  1.00  0.00     0.049 A 
ATOM     54  C   UNL A   1      42.329  30.162  33.531  1.00  0.00     0.074 A 
ATOM     55  C   UNL A   1      44.246  27.694  29.065  1.00  0.00     0.029 A 
ATOM     56  N   UNL A   1      43.484  26.358  30.648  1.00  0.00    -0.354 N 
ATOM     57  N   UNL A   1      42.970  29.392  32.701  1.00  0.00    -0.248 NA
ATOM     58  C   UNL A   1      42.497  29.743  34.923  1.00  0.00     0.031 C 
ATOM     59  C   UNL A   1      44.662  28.193  30.332  1.00  0.00     0.029 A 
ATOM     60  C   UNL A   1      44.182  27.342  31.312  1.00  0.00     0.049 A 
ATOM     61  H   UNL A   1      43.026  25.610  31.094  1.00  0.00     0.167 HD
ATOM     62  C   UNL A   1      43.531  28.352  33.386  1.00  0.00     0.074 A 
ATOM     63  C   UNL A   1      43.220  28.620  34.778  1.00  0.00     0.031 C 
ATOM     64  C   UNL A   1      44.168  27.321  32.762  1.00  0.00     0.037 A 
BRANCH  51  65
ATOM     65  C   UNL A   1      43.056  24.800  27.428  1.00  0.00     0.058 A 
ATOM     66  C   UNL A   1      43.733  23.631  27.846  1.00  0.00     0.135 A 
ATOM     67  C   UNL A   1      42.885  24.919  26.035  1.00  0.00     0.135 A 
ATOM     68  F   UNL A   1      43.947  23.360  29.141  1.00  0.00    -0.206 F 
ATOM     69  C   UNL A   1      44.232  22.680  26.964  1.00  0.00     0.059 A 
ATOM     70  C   UNL A   1      43.406  23.988  25.125  1.00  0.00     0.059 A 
ATOM     71  F   UNL A   1      42.171  25.915  25.495  1.00  0.00    -0.206 F 
ATOM     72  C   UNL A   1      44.075  22.869  25.602  1.00  0.00     0.060 A 
BRANCH  72  73
ATOM     73  S   UNL A   1      44.740  21.613  24.501  1.00  0.00     0.124 S 
ATOM     74  O   UNL A   1      43.917  20.452  24.831  1.00  0.00    -0.237 OA
ATOM     75  O   UNL A   1      44.505  22.203  23.188  1.00  0.00    -0.237 OA
ATOM     76  O   UNL A   1      46.141  21.513  24.901  1.00  0.00    -0.744 OA
ENDBRANCH  72  73
ENDBRANCH  51  65
BRANCH  52  77
ATOM     77  C   UNL A   1      40.192  31.661  33.880  1.00  0.00     0.058 A 
ATOM     78  C   UNL A   1      39.934  33.038  33.974  1.00  0.00     0.135 A 
ATOM     79  C   UNL A   1      39.111  30.774  33.795  1.00  0.00     0.135 A 
ATOM     80  F   UNL A   1      40.939  33.904  34.175  1.00  0.00    -0.206 F 
ATOM     81  C   UNL A   1      38.713  33.535  33.564  1.00  0.00     0.059 A 
ATOM     82  C   UNL A   1      37.878  31.246  33.384  1.00  0.00     0.059 A 
ATOM     83  F   UNL A   1      39.311  29.448  33.826  1.00  0.00    -0.206 F 
ATOM     84  C   UNL A   1      37.765  32.616  33.122  1.00  0.00     0.060 A 
BRANCH  84  85
ATOM     85  S   UNL A   1      36.789  33.127  31.695  1.00  0.00     0.124 S 
ATOM     86  O   UNL A   1      37.680  32.851  30.576  1.00  0.00    -0.237 OA
ATOM     87  O   UNL A   1      35.617  32.261  31.814  1.00  0.00    -0.237 OA
ATOM     88  O   UNL A   1      36.540  34.530  31.984  1.00  0.00    -0.744 OA
ENDBRANCH  84  85
ENDBRANCH  52  77
BRANCH  64  89
ATOM     89  C   UNL A   1      44.803  26.187  33.509  1.00  0.00     0.058 A 
ATOM     90  C   UNL A   1      46.185  25.961  33.449  1.00  0.00     0.135 A 
ATOM     91  C   UNL A   1      44.046  25.230  34.223  1.00  0.00     0.135 A 
ATOM     92  F   UNL A   1      46.983  26.760  32.722  1.00  0.00    -0.206 F 
ATOM     93  C   UNL A   1      46.791  24.910  34.131  1.00  0.00     0.059 A 
ATOM     94  C   UNL A   1      44.619  24.133  34.848  1.00  0.00     0.059 A 
ATOM     95  F   UNL A   1      42.720  25.345  34.381  1.00  0.00    -0.206 F 
ATOM     96  C   UNL A   1      45.998  24.004  34.833  1.00  0.00     0.060 A 
BRANCH  96  97
ATOM     97  S   UNL A   1      46.784  22.665  35.737  1.00  0.00     0.124 S 
ATOM     98  O   UNL A   1      47.777  23.370  36.542  1.00  0.00    -0.237 OA
ATOM     99  O   UNL A   1      45.651  22.113  36.471  1.00  0.00    -0.237 OA
ATOM    100  O   UNL A   1      47.327  21.814  34.682  1.00  0.00    -0.744 OA
ENDBRANCH  96  97
ENDBRANCH  64  89
ENDBRANCH  38  39
ENDBRANCH  31  33
ENDBRANCH  30  31
ENDBRANCH   1  30
TORSDOF 17
ENDMDL
MODEL 2
REMARK VINA RESULT:     -13.0      3.567      9.861
REMARK SMILES Cc1ccc(C(=O)N2C[C@@H](C(=O)OCCOC(=O)c3ccc(-c4c5nc(c(-c6c(F)cc(S(=O)(=O)[O-])cc6F)c6ccc([nH]6)c(-c6c(F)cc(S(=O)(=O)[O-])cc6F)c6nc(c(-c7c(F)cc(S(=O)(=O)[O-])cc7F)c7ccc4[nH]7)C=C6)C=C5)cc3)C[C@H](C(=O)N3CCOCC3)C2)cc1F
REMARK SMILES IDX 15 1 14 2 13 3 11 4 12 5 10 6 8 7 9 8 95 9 86 10 85 11 6 12
REMARK SMILES IDX 7 13 5 14 1 15 2 16 3 17 97 18 4 19 96 20 98 21 87 22 88 23
REMARK SMILES IDX 89 24 90 25 94 26 91 27 93 28 92 29 16 30 17 31 18 32 19 33
REMARK SMILES IDX 20 34 84 35 21 36 83 37 22 38 23 39 24 40 77 41 25 42 82 43
REMARK SMILES IDX 76 44 78 45 26 46 81 47 75 48 74 49 27 51 61 52 40 53 60 54
REMARK SMILES IDX 41 55 44 56 59 57 79 58 42 59 43 60 58 62 80 63 45 64 28 65
REMARK SMILES IDX 29 66 38 67 30 68 31 69 37 70 39 71 32 72 33 73 34 74 35 75
REMARK SMILES IDX 36 76 62 77 63 78 72 79 64 80 65 81 71 82 73 83 66 84 67 85
REMARK SMILES IDX 68 86 69 87 70 88 46 89 47 90 56 91 48 92 49 93 55 94 57 95
REMARK SMILES IDX 50 96 51 97 52 98 53 99 54 100
REMARK H PARENT 78 50 44 61
REMARK Flexibility Score: inf
ROOT
ATOM      1  C   UNL A   1      37.729  21.760  25.038  1.00  0.00     0.275 C 
ENDROOT
BRANCH   1   2
ATOM      2  C   UNL A   1      36.249  21.565  24.731  1.00  0.00     0.274 C 
BRANCH   2   3
ATOM      3  O   UNL A   1      35.590  22.815  24.981  1.00  0.00    -0.462 OA
BRANCH   3   4
ATOM      4  C   UNL A   1      34.959  23.381  23.927  1.00  0.00     0.310 C 
ATOM      5  O   UNL A   1      35.243  23.163  22.753  1.00  0.00    -0.252 OA
BRANCH   4   6
ATOM      6  C   UNL A   1      33.837  24.313  24.353  1.00  0.00     0.119 C 
ATOM      7  N   UNL A   1      33.512  26.439  25.513  1.00  0.00    -0.337 N 
ATOM      8  C   UNL A   1      34.488  25.509  24.988  1.00  0.00     0.135 C 
ATOM      9  C   UNL A   1      32.556  25.924  26.501  1.00  0.00     0.133 C 
ATOM     10  C   UNL A   1      31.818  24.674  26.003  1.00  0.00     0.099 C 
ATOM     11  C   UNL A   1      32.794  23.712  25.300  1.00  0.00     0.032 C 
BRANCH   7  12
ATOM     12  C   UNL A   1      33.605  27.752  25.104  1.00  0.00     0.254 C 
ATOM     13  O   UNL A   1      33.913  28.093  23.965  1.00  0.00    -0.269 OA
BRANCH  12  14
ATOM     14  C   UNL A   1      33.558  28.800  26.140  1.00  0.00     0.042 A 
ATOM     15  C   UNL A   1      33.922  32.520  28.210  1.00  0.00     0.047 C 
ATOM     16  C   UNL A   1      33.762  31.169  27.588  1.00  0.00    -0.015 A 
ATOM     17  C   UNL A   1      34.809  30.245  27.623  1.00  0.00     0.007 A 
ATOM     18  C   UNL A   1      32.594  30.859  26.880  1.00  0.00     0.126 A 
ATOM     19  C   UNL A   1      34.712  29.069  26.891  1.00  0.00     0.014 A 
ATOM     20  C   UNL A   1      32.481  29.683  26.154  1.00  0.00     0.053 A 
ATOM     21  F   UNL A   1      31.589  31.745  26.837  1.00  0.00    -0.207 F 
ENDBRANCH  12  14
ENDBRANCH   7  12
BRANCH  10  22
ATOM     22  C   UNL A   1      30.440  25.155  25.489  1.00  0.00     0.227 C 
ATOM     23  O   UNL A   1      29.528  25.288  26.321  1.00  0.00    -0.275 OA
ATOM     24  N   UNL A   1      30.320  25.763  24.265  1.00  0.00    -0.338 N 
ATOM     25  C   UNL A   1      30.776  25.209  23.006  1.00  0.00     0.148 C 
ATOM     26  C   UNL A   1      29.462  26.931  24.084  1.00  0.00     0.148 C 
ATOM     27  C   UNL A   1      31.491  26.285  22.182  1.00  0.00     0.181 C 
ATOM     28  C   UNL A   1      30.237  27.978  23.275  1.00  0.00     0.181 C 
ATOM     29  O   UNL A   1      30.653  27.447  22.004  1.00  0.00    -0.378 OA
ENDBRANCH  10  22
ENDBRANCH   4   6
ENDBRANCH   3   4
ENDBRANCH   2   3
ENDBRANCH   1   2
BRANCH   1  30
ATOM     30  O   UNL A   1      38.001  22.916  25.857  1.00  0.00    -0.458 OA
BRANCH  30  31
ATOM     31  C   UNL A   1      39.207  22.945  26.479  1.00  0.00     0.338 C 
ATOM     32  O   UNL A   1      39.957  22.007  26.639  1.00  0.00    -0.246 OA
BRANCH  31  33
ATOM     33  C   UNL A   1      39.489  24.302  26.975  1.00  0.00     0.060 A 
ATOM     34  C   UNL A   1      40.188  25.167  26.123  1.00  0.00     0.016 A 
ATOM     35  C   UNL A   1      39.201  24.659  28.288  1.00  0.00     0.016 A 
ATOM     36  C   UNL A   1      40.775  26.314  26.626  1.00  0.00     0.010 A 
ATOM     37  C   UNL A   1      39.744  25.818  28.783  1.00  0.00     0.010 A 
ATOM     38  C   UNL A   1      40.575  26.602  27.967  1.00  0.00    -0.014 A 
BRANCH  38  39
ATOM     39  C   UNL A   1      40.971  27.860  28.551  1.00  0.00     0.031 A 
ATOM     40  C   UNL A   1      39.919  28.893  28.671  1.00  0.00     0.074 A 
ATOM     41  C   UNL A   1      42.147  27.906  29.210  1.00  0.00     0.049 A 
ATOM     42  N   UNL A   1      40.123  30.086  29.100  1.00  0.00    -0.248 NA
ATOM     43  C   UNL A   1      38.530  28.681  28.242  1.00  0.00     0.031 C 
ATOM     44  C   UNL A   1      42.422  28.658  30.422  1.00  0.00     0.029 A 
ATOM     45  N   UNL A   1      43.357  27.290  28.927  1.00  0.00    -0.354 N 
ATOM     46  C   UNL A   1      38.889  30.658  29.325  1.00  0.00     0.074 A 
ATOM     47  C   UNL A   1      37.945  29.818  28.636  1.00  0.00     0.031 C 
ATOM     48  C   UNL A   1      43.742  28.618  30.674  1.00  0.00     0.029 A 
ATOM     49  C   UNL A   1      44.396  28.028  29.516  1.00  0.00     0.049 A 
ATOM     50  H   UNL A   1      43.469  26.468  28.397  1.00  0.00     0.167 HD
ATOM     51  C   UNL A   1      38.807  31.684  30.216  1.00  0.00     0.037 A 
ATOM     52  C   UNL A   1      45.327  28.707  28.762  1.00  0.00     0.037 A 
ATOM     53  C   UNL A   1      40.136  31.988  30.735  1.00  0.00     0.049 A 
ATOM     54  C   UNL A   1      45.188  30.213  28.794  1.00  0.00     0.074 A 
ATOM     55  C   UNL A   1      40.861  31.546  31.828  1.00  0.00     0.029 A 
ATOM     56  N   UNL A   1      41.035  32.594  29.893  1.00  0.00    -0.354 N 
ATOM     57  N   UNL A   1      44.272  30.855  29.457  1.00  0.00    -0.248 NA
ATOM     58  C   UNL A   1      46.024  31.106  27.991  1.00  0.00     0.031 C 
ATOM     59  C   UNL A   1      42.225  31.895  31.612  1.00  0.00     0.029 A 
ATOM     60  C   UNL A   1      42.316  32.554  30.399  1.00  0.00     0.049 A 
ATOM     61  H   UNL A   1      40.795  33.005  29.032  1.00  0.00     0.167 HD
ATOM     62  C   UNL A   1      44.308  32.177  29.119  1.00  0.00     0.074 A 
ATOM     63  C   UNL A   1      45.430  32.292  28.206  1.00  0.00     0.031 C 
ATOM     64  C   UNL A   1      43.387  33.076  29.572  1.00  0.00     0.037 A 
BRANCH  51  65
ATOM     65  C   UNL A   1      37.564  32.297  30.808  1.00  0.00     0.058 A 
ATOM     66  C   UNL A   1      37.154  33.574  30.360  1.00  0.00     0.135 A 
ATOM     67  C   UNL A   1      36.726  31.713  31.778  1.00  0.00     0.135 A 
ATOM     68  F   UNL A   1      37.831  34.246  29.419  1.00  0.00    -0.206 F 
ATOM     69  C   UNL A   1      36.035  34.234  30.852  1.00  0.00     0.059 A 
ATOM     70  C   UNL A   1      35.609  32.372  32.311  1.00  0.00     0.059 A 
ATOM     71  F   UNL A   1      36.923  30.464  32.220  1.00  0.00    -0.206 F 
ATOM     72  C   UNL A   1      35.271  33.633  31.837  1.00  0.00     0.060 A 
BRANCH  72  73
ATOM     73  S   UNL A   1      33.835  34.528  32.445  1.00  0.00     0.124 S 
ATOM     74  O   UNL A   1      33.162  33.511  33.251  1.00  0.00    -0.237 OA
ATOM     75  O   UNL A   1      34.449  35.621  33.190  1.00  0.00    -0.237 OA
ATOM     76  O   UNL A   1      33.132  34.916  31.226  1.00  0.00    -0.744 OA
ENDBRANCH  72  73
ENDBRANCH  51  65
BRANCH  52  77
ATOM     77  C   UNL A   1      45.782  27.973  27.543  1.00  0.00     0.058 A 
ATOM     78  C   UNL A   1      46.639  26.888  27.792  1.00  0.00     0.135 A 
ATOM     79  C   UNL A   1      44.881  27.891  26.473  1.00  0.00     0.135 A 
ATOM     80  F   UNL A   1      47.593  26.980  28.732  1.00  0.00    -0.206 F 
ATOM     81  C   UNL A   1      46.322  25.638  27.301  1.00  0.00     0.059 A 
ATOM     82  C   UNL A   1      44.545  26.650  25.964  1.00  0.00     0.059 A 
ATOM     83  F   UNL A   1      44.133  28.949  26.128  1.00  0.00    -0.206 F 
ATOM     84  C   UNL A   1      45.173  25.531  26.521  1.00  0.00     0.060 A 
BRANCH  84  85
ATOM     85  S   UNL A   1      44.181  24.052  26.794  1.00  0.00     0.124 S 
ATOM     86  O   UNL A   1      43.452  23.912  25.541  1.00  0.00    -0.237 OA
ATOM     87  O   UNL A   1      45.212  23.049  27.054  1.00  0.00    -0.237 OA
ATOM     88  O   UNL A   1      43.390  24.426  27.956  1.00  0.00    -0.744 OA
ENDBRANCH  84  85
ENDBRANCH  52  77
BRANCH  64  89
ATOM     89  C   UNL A   1      43.432  34.532  29.220  1.00  0.00     0.058 A 
ATOM     90  C   UNL A   1      43.638  35.511  30.202  1.00  0.00     0.135 A 
ATOM     91  C   UNL A   1      43.170  35.006  27.915  1.00  0.00     0.135 A 
ATOM     92  F   UNL A   1      43.806  35.170  31.490  1.00  0.00    -0.206 F 
ATOM     93  C   UNL A   1      43.677  36.868  29.895  1.00  0.00     0.059 A 
ATOM     94  C   UNL A   1      43.130  36.356  27.599  1.00  0.00     0.059 A 
ATOM     95  F   UNL A   1      42.986  34.176  26.878  1.00  0.00    -0.206 F 
ATOM     96  C   UNL A   1      43.427  37.279  28.588  1.00  0.00     0.060 A 
BRANCH  96  97
ATOM     97  S   UNL A   1      43.506  39.028  28.187  1.00  0.00     0.124 S 
ATOM     98  O   UNL A   1      44.335  39.561  29.265  1.00  0.00    -0.237 OA
ATOM     99  O   UNL A   1      44.130  38.992  26.869  1.00  0.00    -0.237 OA
ATOM    100  O   UNL A   1      42.108  39.448  28.211  1.00  0.00    -0.744 OA
ENDBRANCH  96  97
ENDBRANCH  64  89
ENDBRANCH  38  39
ENDBRANCH  31  33
ENDBRANCH  30  31
ENDBRANCH   1  30
TORSDOF 17
ENDMDL
MODEL 3
REMARK VINA RESULT:     -12.9      1.885      3.445
REMARK SMILES Cc1ccc(C(=O)N2C[C@@H](C(=O)OCCOC(=O)c3ccc(-c4c5nc(c(-c6c(F)cc(S(=O)(=O)[O-])cc6F)c6ccc([nH]6)c(-c6c(F)cc(S(=O)(=O)[O-])cc6F)c6nc(c(-c7c(F)cc(S(=O)(=O)[O-])cc7F)c7ccc4[nH]7)C=C6)C=C5)cc3)C[C@H](C(=O)N3CCOCC3)C2)cc1F
REMARK SMILES IDX 15 1 14 2 13 3 11 4 12 5 10 6 8 7 9 8 95 9 86 10 85 11 6 12
REMARK SMILES IDX 7 13 5 14 1 15 2 16 3 17 97 18 4 19 96 20 98 21 87 22 88 23
REMARK SMILES IDX 89 24 90 25 94 26 91 27 93 28 92 29 16 30 17 31 18 32 19 33
REMARK SMILES IDX 20 34 84 35 21 36 83 37 22 38 23 39 24 40 77 41 25 42 82 43
REMARK SMILES IDX 76 44 78 45 26 46 81 47 75 48 74 49 27 51 61 52 40 53 60 54
REMARK SMILES IDX 41 55 44 56 59 57 79 58 42 59 43 60 58 62 80 63 45 64 28 65
REMARK SMILES IDX 29 66 38 67 30 68 31 69 37 70 39 71 32 72 33 73 34 74 35 75
REMARK SMILES IDX 36 76 62 77 63 78 72 79 64 80 65 81 71 82 73 83 66 84 67 85
REMARK SMILES IDX 68 86 69 87 70 88 46 89 47 90 56 91 48 92 49 93 55 94 57 95
REMARK SMILES IDX 50 96 51 97 52 98 53 99 54 100
REMARK H PARENT 78 50 44 61
REMARK Flexibility Score: inf
ROOT
ATOM      1  C   UNL A   1      34.049  29.319  26.157  1.00  0.00     0.275 C 
ENDROOT
BRANCH   1   2
ATOM      2  C   UNL A   1      33.709  28.340  25.040  1.00  0.00     0.274 C 
BRANCH   2   3
ATOM      3  O   UNL A   1      32.427  27.770  25.344  1.00  0.00    -0.462 OA
BRANCH   3   4
ATOM      4  C   UNL A   1      31.978  26.819  24.494  1.00  0.00     0.310 C 
ATOM      5  O   UNL A   1      31.289  27.046  23.504  1.00  0.00    -0.252 OA
BRANCH   4   6
ATOM      6  C   UNL A   1      32.433  25.424  24.889  1.00  0.00     0.119 C 
ATOM      7  N   UNL A   1      31.990  23.086  24.334  1.00  0.00    -0.337 N 
ATOM      8  C   UNL A   1      31.701  24.463  23.996  1.00  0.00     0.135 C 
ATOM      9  C   UNL A   1      31.711  22.657  25.709  1.00  0.00     0.133 C 
ATOM     10  C   UNL A   1      32.378  23.564  26.751  1.00  0.00     0.099 C 
ATOM     11  C   UNL A   1      32.226  25.046  26.359  1.00  0.00     0.032 C 
BRANCH   7  12
ATOM     12  C   UNL A   1      32.433  22.265  23.318  1.00  0.00     0.254 C 
ATOM     13  O   UNL A   1      32.780  22.672  22.212  1.00  0.00    -0.269 OA
BRANCH  12  14
ATOM     14  C   UNL A   1      32.265  20.810  23.486  1.00  0.00     0.042 A 
ATOM     15  C   UNL A   1      33.032  16.626  23.891  1.00  0.00     0.047 C 
ATOM     16  C   UNL A   1      32.647  18.065  23.746  1.00  0.00    -0.015 A 
ATOM     17  C   UNL A   1      32.437  18.617  22.480  1.00  0.00     0.007 A 
ATOM     18  C   UNL A   1      32.592  18.892  24.875  1.00  0.00     0.126 A 
ATOM     19  C   UNL A   1      32.258  19.988  22.349  1.00  0.00     0.014 A 
ATOM     20  C   UNL A   1      32.404  20.260  24.759  1.00  0.00     0.053 A 
ATOM     21  F   UNL A   1      32.801  18.368  26.091  1.00  0.00    -0.207 F 
ENDBRANCH  12  14
ENDBRANCH   7  12
BRANCH  10  22
ATOM     22  C   UNL A   1      33.672  22.840  27.197  1.00  0.00     0.227 C 
ATOM     23  O   UNL A   1      33.588  22.042  28.144  1.00  0.00    -0.275 OA
ATOM     24  N   UNL A   1      34.765  22.781  26.370  1.00  0.00    -0.338 N 
ATOM     25  C   UNL A   1      35.422  23.924  25.768  1.00  0.00     0.148 C 
ATOM     26  C   UNL A   1      35.545  21.553  26.236  1.00  0.00     0.148 C 
ATOM     27  C   UNL A   1      35.736  23.639  24.296  1.00  0.00     0.181 C 
ATOM     28  C   UNL A   1      35.807  21.310  24.745  1.00  0.00     0.181 C 
ATOM     29  O   UNL A   1      36.500  22.423  24.152  1.00  0.00    -0.378 OA
ENDBRANCH  10  22
ENDBRANCH   4   6
ENDBRANCH   3   4
ENDBRANCH   2   3
ENDBRANCH   1   2
BRANCH   1  30
ATOM     30  O   UNL A   1      35.256  28.984  26.871  1.00  0.00    -0.458 OA
BRANCH  30  31
ATOM     31  C   UNL A   1      35.884  30.003  27.510  1.00  0.00     0.338 C 
ATOM     32  O   UNL A   1      35.487  31.144  27.607  1.00  0.00    -0.246 OA
BRANCH  31  33
ATOM     33  C   UNL A   1      37.163  29.540  28.071  1.00  0.00     0.060 A 
ATOM     34  C   UNL A   1      38.301  29.649  27.260  1.00  0.00     0.016 A 
ATOM     35  C   UNL A   1      37.212  28.890  29.300  1.00  0.00     0.016 A 
ATOM     36  C   UNL A   1      39.448  28.945  27.575  1.00  0.00     0.010 A 
ATOM     37  C   UNL A   1      38.363  28.224  29.639  1.00  0.00     0.010 A 
ATOM     38  C   UNL A   1      39.447  28.206  28.747  1.00  0.00    -0.014 A 
BRANCH  38  39
ATOM     39  C   UNL A   1      40.643  27.594  29.272  1.00  0.00     0.031 A 
ATOM     40  C   UNL A   1      40.947  26.226  28.799  1.00  0.00     0.074 A 
ATOM     41  C   UNL A   1      41.538  28.391  29.891  1.00  0.00     0.049 A 
ATOM     42  N   UNL A   1      41.931  25.517  29.223  1.00  0.00    -0.248 NA
ATOM     43  C   UNL A   1      40.107  25.501  27.837  1.00  0.00     0.031 C 
ATOM     44  C   UNL A   1      42.984  28.275  29.819  1.00  0.00     0.029 A 
ATOM     45  N   UNL A   1      41.340  29.477  30.731  1.00  0.00    -0.354 N 
ATOM     46  C   UNL A   1      42.053  24.436  28.376  1.00  0.00     0.074 A 
ATOM     47  C   UNL A   1      40.817  24.385  27.639  1.00  0.00     0.031 C 
ATOM     48  C   UNL A   1      43.537  29.112  30.713  1.00  0.00     0.029 A 
ATOM     49  C   UNL A   1      42.469  29.636  31.550  1.00  0.00     0.049 A 
ATOM     50  H   UNL A   1      40.536  30.045  30.750  1.00  0.00     0.167 HD
ATOM     51  C   UNL A   1      43.264  23.820  28.288  1.00  0.00     0.037 A 
ATOM     52  C   UNL A   1      42.418  29.424  32.910  1.00  0.00     0.037 A 
ATOM     53  C   UNL A   1      44.207  24.463  29.196  1.00  0.00     0.049 A 
ATOM     54  C   UNL A   1      43.125  28.173  33.381  1.00  0.00     0.074 A 
ATOM     55  C   UNL A   1      45.107  25.504  29.061  1.00  0.00     0.029 A 
ATOM     56  N   UNL A   1      44.039  24.269  30.545  1.00  0.00    -0.354 N 
ATOM     57  N   UNL A   1      43.734  27.331  32.598  1.00  0.00    -0.248 NA
ATOM     58  C   UNL A   1      43.110  27.727  34.774  1.00  0.00     0.031 C 
ATOM     59  C   UNL A   1      45.467  25.938  30.369  1.00  0.00     0.029 A 
ATOM     60  C   UNL A   1      44.794  25.150  31.286  1.00  0.00     0.049 A 
ATOM     61  H   UNL A   1      43.450  23.583  30.935  1.00  0.00     0.167 HD
ATOM     62  C   UNL A   1      44.092  26.223  33.312  1.00  0.00     0.074 A 
ATOM     63  C   UNL A   1      43.693  26.521  34.675  1.00  0.00     0.031 C 
ATOM     64  C   UNL A   1      44.646  25.122  32.728  1.00  0.00     0.037 A 
BRANCH  51  65
ATOM     65  C   UNL A   1      43.709  22.799  27.272  1.00  0.00     0.058 A 
ATOM     66  C   UNL A   1      43.003  21.578  27.178  1.00  0.00     0.135 A 
ATOM     67  C   UNL A   1      44.776  22.937  26.362  1.00  0.00     0.135 A 
ATOM     68  F   UNL A   1      41.945  21.309  27.957  1.00  0.00    -0.206 F 
ATOM     69  C   UNL A   1      43.341  20.565  26.290  1.00  0.00     0.059 A 
ATOM     70  C   UNL A   1      45.154  21.918  25.478  1.00  0.00     0.059 A 
ATOM     71  F   UNL A   1      45.469  24.078  26.257  1.00  0.00    -0.206 F 
ATOM     72  C   UNL A   1      44.426  20.735  25.448  1.00  0.00     0.060 A 
BRANCH  72  73
ATOM     73  S   UNL A   1      44.828  19.395  24.318  1.00  0.00     0.124 S 
ATOM     74  O   UNL A   1      46.273  19.277  24.488  1.00  0.00    -0.237 OA
ATOM     75  O   UNL A   1      44.035  18.295  24.857  1.00  0.00    -0.237 OA
ATOM     76  O   UNL A   1      44.395  19.902  23.019  1.00  0.00    -0.744 OA
ENDBRANCH  72  73
ENDBRANCH  51  65
BRANCH  52  77
ATOM     77  C   UNL A   1      41.175  29.933  33.564  1.00  0.00     0.058 A 
ATOM     78  C   UNL A   1      41.147  31.321  33.780  1.00  0.00     0.135 A 
ATOM     79  C   UNL A   1      39.977  29.271  33.262  1.00  0.00     0.135 A 
ATOM     80  F   UNL A   1      42.252  31.965  34.187  1.00  0.00    -0.206 F 
ATOM     81  C   UNL A   1      40.094  32.068  33.295  1.00  0.00     0.059 A 
ATOM     82  C   UNL A   1      38.908  29.998  32.771  1.00  0.00     0.059 A 
ATOM     83  F   UNL A   1      39.941  27.934  33.167  1.00  0.00    -0.206 F 
ATOM     84  C   UNL A   1      39.067  31.382  32.651  1.00  0.00     0.060 A 
BRANCH  84  85
ATOM     85  S   UNL A   1      38.386  32.189  31.190  1.00  0.00     0.124 S 
ATOM     86  O   UNL A   1      38.598  33.603  31.471  1.00  0.00    -0.237 OA
ATOM     87  O   UNL A   1      39.208  31.614  30.126  1.00  0.00    -0.237 OA
ATOM     88  O   UNL A   1      37.006  31.732  31.205  1.00  0.00    -0.744 OA
ENDBRANCH  84  85
ENDBRANCH  52  77
BRANCH  64  89
ATOM     89  C   UNL A   1      45.059  23.910  33.509  1.00  0.00     0.058 A 
ATOM     90  C   UNL A   1      44.134  22.912  33.845  1.00  0.00     0.135 A 
ATOM     91  C   UNL A   1      46.361  23.755  34.036  1.00  0.00     0.135 A 
ATOM     92  F   UNL A   1      42.848  23.011  33.471  1.00  0.00    -0.206 F 
ATOM     93  C   UNL A   1      44.498  21.784  34.574  1.00  0.00     0.059 A 
ATOM     94  C   UNL A   1      46.728  22.677  34.827  1.00  0.00     0.059 A 
ATOM     95  F   UNL A   1      47.347  24.622  33.766  1.00  0.00    -0.206 F 
ATOM     96  C   UNL A   1      45.801  21.674  35.056  1.00  0.00     0.060 A 
BRANCH  96  97
ATOM     97  S   UNL A   1      46.277  20.204  35.972  1.00  0.00     0.124 S 
ATOM     98  O   UNL A   1      47.721  20.154  35.758  1.00  0.00    -0.237 OA
ATOM     99  O   UNL A   1      45.850  20.557  37.321  1.00  0.00    -0.237 OA
ATOM    100  O   UNL A   1      45.515  19.138  35.328  1.00  0.00    -0.744 OA
ENDBRANCH  96  97
ENDBRANCH  64  89
ENDBRANCH  38  39
ENDBRANCH  31  33
ENDBRANCH  30  31
ENDBRANCH   1  30
TORSDOF 17
ENDMDL
