MODEL 1
REMARK VINA RESULT:     -13.4      0.000      0.000
REMARK SMILES O=C(OCCOC(=O)c1nccnc1C(=O)Nc1n[nH]c2ncccc12)c1ccc(-c2c3nc(c(-c4c(F)cc(S(=O)(=O)[O-])cc4F)c4ccc([nH]4)c(-c4c(F)cc(S(=O)(=O)[O-])cc4F)c4nc(c(-c5c(F)cc(S(=O)(=O)[O-])cc5F)c5ccc2[nH]5)C=C4)C=C3)cc1
REMARK SMILES IDX 4 1 3 2 2 3 1 4 27 5 28 6 92 7 29 8 91 9 30 10 31 11 32 12
REMARK SMILES IDX 85 13 33 14 90 15 84 16 86 17 34 18 89 19 83 20 82 21 35 23
REMARK SMILES IDX 69 24 48 25 68 26 49 27 52 28 67 29 87 30 50 31 51 32 66 34
REMARK SMILES IDX 88 35 53 36 36 37 37 38 46 39 38 40 39 41 45 42 47 43 40 44
REMARK SMILES IDX 41 45 42 46 43 47 44 48 70 49 71 50 80 51 72 52 73 53 79 54
REMARK SMILES IDX 81 55 74 56 75 57 76 58 77 59 78 60 54 61 55 62 64 63 56 64
REMARK SMILES IDX 57 65 63 66 65 67 58 68 59 69 60 70 61 71 62 72 5 73 6 74
REMARK SMILES IDX 7 75 8 76 9 77 10 78 14 79 11 80 13 81 12 82 15 83 16 84
REMARK SMILES IDX 17 85 18 87 19 88 26 89 20 90 21 91 25 92 22 94 24 95 23 96
REMARK H PARENT 86 22 52 33 17 86 20 93
REMARK Flexibility Score: inf
ROOT
ATOM      1  C   UNL A   1      37.354  21.163  24.968  1.00  0.00     0.275 C 
ENDROOT
BRANCH   1   2
ATOM      2  O   UNL A   1      38.193  22.356  25.499  1.00  0.00    -0.458 OA
BRANCH   2   3
ATOM      3  C   UNL A   1      37.918  23.652  25.967  1.00  0.00     0.338 C 
ATOM      4  O   UNL A   1      36.878  24.233  25.682  1.00  0.00    -0.246 OA
BRANCH   3   5
ATOM      5  C   UNL A   1      39.085  24.459  26.543  1.00  0.00     0.060 A 
ATOM      6  C   UNL A   1      39.407  24.167  27.817  1.00  0.00     0.016 A 
ATOM      7  C   UNL A   1      39.976  25.381  26.024  1.00  0.00     0.016 A 
ATOM      8  C   UNL A   1      39.778  25.162  28.706  1.00  0.00     0.010 A 
ATOM      9  C   UNL A   1      40.734  26.229  26.922  1.00  0.00     0.010 A 
ATOM     10  C   UNL A   1      40.423  26.285  28.301  1.00  0.00    -0.014 A 
BRANCH  10  11
ATOM     11  C   UNL A   1      40.500  27.480  29.252  1.00  0.00     0.031 A 
ATOM     12  C   UNL A   1      41.746  27.570  30.098  1.00  0.00     0.074 A 
ATOM     13  C   UNL A   1      39.715  28.604  29.262  1.00  0.00     0.049 A 
ATOM     14  N   UNL A   1      41.988  28.277  31.167  1.00  0.00    -0.248 NA
ATOM     15  C   UNL A   1      42.891  26.763  29.649  1.00  0.00     0.031 C 
ATOM     16  C   UNL A   1      38.675  28.959  28.304  1.00  0.00     0.029 A 
ATOM     17  N   UNL A   1      39.691  29.718  30.094  1.00  0.00    -0.354 N 
ATOM     18  C   UNL A   1      43.270  27.915  31.560  1.00  0.00     0.074 A 
ATOM     19  C   UNL A   1      43.738  26.903  30.648  1.00  0.00     0.031 C 
ATOM     20  C   UNL A   1      38.113  30.140  28.578  1.00  0.00     0.029 A 
ATOM     21  C   UNL A   1      38.682  30.632  29.803  1.00  0.00     0.049 A 
ATOM     22  H   UNL A   1      40.334  29.850  30.827  1.00  0.00     0.167 HD
ATOM     23  C   UNL A   1      44.016  28.406  32.572  1.00  0.00     0.037 A 
ATOM     24  C   UNL A   1      38.212  31.727  30.440  1.00  0.00     0.037 A 
ATOM     25  C   UNL A   1      43.593  29.489  33.407  1.00  0.00     0.049 A 
ATOM     26  C   UNL A   1      38.937  32.148  31.680  1.00  0.00     0.074 A 
ATOM     27  C   UNL A   1      44.190  29.980  34.551  1.00  0.00     0.029 A 
ATOM     28  N   UNL A   1      42.481  30.280  33.156  1.00  0.00    -0.354 N 
ATOM     29  N   UNL A   1      40.033  31.635  32.185  1.00  0.00    -0.248 NA
ATOM     30  C   UNL A   1      38.388  33.280  32.432  1.00  0.00     0.031 C 
ATOM     31  C   UNL A   1      43.413  31.046  35.017  1.00  0.00     0.029 A 
ATOM     32  C   UNL A   1      42.366  31.252  34.132  1.00  0.00     0.049 A 
ATOM     33  H   UNL A   1      41.866  30.166  32.395  1.00  0.00     0.167 HD
ATOM     34  C   UNL A   1      40.324  32.402  33.299  1.00  0.00     0.074 A 
ATOM     35  C   UNL A   1      39.301  33.426  33.384  1.00  0.00     0.031 C 
ATOM     36  C   UNL A   1      41.346  32.266  34.178  1.00  0.00     0.037 A 
BRANCH  23  37
ATOM     37  C   UNL A   1      45.304  27.693  32.854  1.00  0.00     0.058 A 
ATOM     38  C   UNL A   1      46.526  28.081  32.282  1.00  0.00     0.135 A 
ATOM     39  C   UNL A   1      45.281  26.528  33.636  1.00  0.00     0.135 A 
ATOM     40  F   UNL A   1      46.586  29.150  31.471  1.00  0.00    -0.206 F 
ATOM     41  C   UNL A   1      47.677  27.319  32.452  1.00  0.00     0.059 A 
ATOM     42  C   UNL A   1      46.425  25.769  33.845  1.00  0.00     0.059 A 
ATOM     43  F   UNL A   1      44.129  26.099  34.175  1.00  0.00    -0.206 F 
ATOM     44  C   UNL A   1      47.615  26.164  33.235  1.00  0.00     0.060 A 
BRANCH  44  45
ATOM     45  S   UNL A   1      49.112  25.180  33.444  1.00  0.00     0.124 S 
ATOM     46  O   UNL A   1      49.930  26.065  34.266  1.00  0.00    -0.237 OA
ATOM     47  O   UNL A   1      48.604  23.986  34.110  1.00  0.00    -0.237 OA
ATOM     48  O   UNL A   1      49.581  24.982  32.077  1.00  0.00    -0.744 OA
ENDBRANCH  44  45
ENDBRANCH  23  37
BRANCH  24  49
ATOM     49  C   UNL A   1      36.970  32.444  29.987  1.00  0.00     0.058 A 
ATOM     50  C   UNL A   1      37.005  33.501  29.061  1.00  0.00     0.135 A 
ATOM     51  C   UNL A   1      35.712  32.132  30.541  1.00  0.00     0.135 A 
ATOM     52  F   UNL A   1      38.169  33.851  28.492  1.00  0.00    -0.206 F 
ATOM     53  C   UNL A   1      35.868  34.248  28.745  1.00  0.00     0.059 A 
ATOM     54  C   UNL A   1      34.556  32.842  30.216  1.00  0.00     0.059 A 
ATOM     55  F   UNL A   1      35.595  31.120  31.416  1.00  0.00    -0.206 F 
ATOM     56  C   UNL A   1      34.649  33.917  29.337  1.00  0.00     0.060 A 
BRANCH  56  57
ATOM     57  S   UNL A   1      33.187  34.916  28.958  1.00  0.00     0.124 S 
ATOM     58  O   UNL A   1      32.535  34.988  30.260  1.00  0.00    -0.237 OA
ATOM     59  O   UNL A   1      33.782  36.157  28.472  1.00  0.00    -0.237 OA
ATOM     60  O   UNL A   1      32.491  34.123  27.950  1.00  0.00    -0.744 OA
ENDBRANCH  56  57
ENDBRANCH  24  49
BRANCH  36  61
ATOM     61  C   UNL A   1      41.427  33.276  35.277  1.00  0.00     0.058 A 
ATOM     62  C   UNL A   1      42.112  34.488  35.109  1.00  0.00     0.135 A 
ATOM     63  C   UNL A   1      40.765  33.045  36.492  1.00  0.00     0.135 A 
ATOM     64  F   UNL A   1      42.767  34.743  33.965  1.00  0.00    -0.206 F 
ATOM     65  C   UNL A   1      42.157  35.433  36.123  1.00  0.00     0.059 A 
ATOM     66  C   UNL A   1      40.769  33.991  37.507  1.00  0.00     0.059 A 
ATOM     67  F   UNL A   1      40.092  31.900  36.690  1.00  0.00    -0.206 F 
ATOM     68  C   UNL A   1      41.477  35.176  37.316  1.00  0.00     0.060 A 
BRANCH  68  69
ATOM     69  S   UNL A   1      41.507  36.431  38.609  1.00  0.00     0.124 S 
ATOM     70  O   UNL A   1      41.522  35.608  39.814  1.00  0.00    -0.237 OA
ATOM     71  O   UNL A   1      42.743  37.151  38.315  1.00  0.00    -0.237 OA
ATOM     72  O   UNL A   1      40.279  37.185  38.377  1.00  0.00    -0.744 OA
ENDBRANCH  68  69
ENDBRANCH  36  61
ENDBRANCH  10  11
ENDBRANCH   3   5
ENDBRANCH   2   3
ENDBRANCH   1   2
BRANCH   1  73
ATOM     73  C   UNL A   1      35.554  20.878  25.379  1.00  0.00     0.275 C 
BRANCH  73  74
ATOM     74  O   UNL A   1      34.357  22.091  26.540  1.00  0.00    -0.457 OA
BRANCH  74  75
ATOM     75  C   UNL A   1      33.052  22.660  26.968  1.00  0.00     0.359 C 
ATOM     76  O   UNL A   1      32.712  22.494  28.145  1.00  0.00    -0.244 OA
BRANCH  75  77
ATOM     77  C   UNL A   1      32.027  23.445  26.110  1.00  0.00     0.179 A 
ATOM     78  N   UNL A   1      31.171  24.125  26.955  1.00  0.00    -0.245 NA
ATOM     79  C   UNL A   1      31.965  23.725  24.726  1.00  0.00     0.161 A 
ATOM     80  C   UNL A   1      30.272  24.999  26.421  1.00  0.00     0.132 A 
ATOM     81  N   UNL A   1      30.956  24.544  24.231  1.00  0.00    -0.247 NA
ATOM     82  C   UNL A   1      30.124  25.163  25.073  1.00  0.00     0.132 A 
BRANCH  79  83
ATOM     83  C   UNL A   1      32.744  23.275  23.491  1.00  0.00     0.278 C 
ATOM     84  O   UNL A   1      32.713  22.077  23.170  1.00  0.00    -0.267 OA
ATOM     85  N   UNL A   1      33.519  24.034  22.670  1.00  0.00    -0.303 N 
ATOM     86  H   UNL A   1      34.034  23.540  21.992  1.00  0.00     0.172 HD
BRANCH  85  87
ATOM     87  C   UNL A   1      33.674  25.371  22.663  1.00  0.00     0.164 A 
ATOM     88  N   UNL A   1      33.512  25.975  21.476  1.00  0.00    -0.155 NA
ATOM     89  C   UNL A   1      33.818  26.228  23.764  1.00  0.00     0.063 A 
ATOM     90  N   UNL A   1      33.055  27.230  21.699  1.00  0.00    -0.259 N 
ATOM     91  C   UNL A   1      33.226  27.663  22.964  1.00  0.00     0.157 A 
ATOM     92  C   UNL A   1      34.038  26.353  25.615  1.00  0.00     0.017 A 
ATOM     93  H   UNL A   1      32.634  27.777  20.998  1.00  0.00     0.192 HD
ATOM     94  N   UNL A   1      32.841  29.103  23.750  1.00  0.00    -0.237 NA
ATOM     95  C   UNL A   1      33.589  27.840  26.459  1.00  0.00     0.021 A 
ATOM     96  C   UNL A   1      33.015  29.123  25.469  1.00  0.00     0.113 A 
ENDBRANCH  85  87
ENDBRANCH  79  83
ENDBRANCH  75  77
ENDBRANCH  74  75
ENDBRANCH  73  74
ENDBRANCH   1  73
TORSDOF 16
ENDMDL
MODEL 2
REMARK VINA RESULT:     -13.3      4.373      9.881
REMARK SMILES O=C(OCCOC(=O)c1nccnc1C(=O)Nc1n[nH]c2ncccc12)c1ccc(-c2c3nc(c(-c4c(F)cc(S(=O)(=O)[O-])cc4F)c4ccc([nH]4)c(-c4c(F)cc(S(=O)(=O)[O-])cc4F)c4nc(c(-c5c(F)cc(S(=O)(=O)[O-])cc5F)c5ccc2[nH]5)C=C4)C=C3)cc1
REMARK SMILES IDX 4 1 3 2 2 3 1 4 27 5 28 6 92 7 29 8 91 9 30 10 31 11 32 12
REMARK SMILES IDX 85 13 33 14 90 15 84 16 86 17 34 18 89 19 83 20 82 21 35 23
REMARK SMILES IDX 69 24 48 25 68 26 49 27 52 28 67 29 87 30 50 31 51 32 66 34
REMARK SMILES IDX 88 35 53 36 36 37 37 38 46 39 38 40 39 41 45 42 47 43 40 44
REMARK SMILES IDX 41 45 42 46 43 47 44 48 70 49 71 50 80 51 72 52 73 53 79 54
REMARK SMILES IDX 81 55 74 56 75 57 76 58 77 59 78 60 54 61 55 62 64 63 56 64
REMARK SMILES IDX 57 65 63 66 65 67 58 68 59 69 60 70 61 71 62 72 5 73 6 74
REMARK SMILES IDX 7 75 8 76 9 77 10 78 14 79 11 80 13 81 12 82 15 83 16 84
REMARK SMILES IDX 17 85 18 87 19 88 26 89 20 90 21 91 25 92 22 94 24 95 23 96
REMARK H PARENT 86 22 52 33 17 86 20 93
REMARK Flexibility Score: inf
ROOT
ATOM      1  C   UNL A   1      33.581  28.715  25.503  1.00  0.00     0.275 C 
ENDROOT
BRANCH   1   2
ATOM      2  O   UNL A   1      34.580  29.077  26.634  1.00  0.00    -0.458 OA
BRANCH   2   3
ATOM      3  C   UNL A   1      34.630  30.030  27.666  1.00  0.00     0.338 C 
ATOM      4  O   UNL A   1      33.882  30.999  27.687  1.00  0.00    -0.246 OA
BRANCH   3   5
ATOM      5  C   UNL A   1      35.864  30.026  28.573  1.00  0.00     0.060 A 
ATOM      6  C   UNL A   1      36.773  30.980  28.303  1.00  0.00     0.016 A 
ATOM      7  C   UNL A   1      36.238  29.312  29.698  1.00  0.00     0.016 A 
ATOM      8  C   UNL A   1      38.131  30.716  28.384  1.00  0.00     0.010 A 
ATOM      9  C   UNL A   1      37.628  29.298  30.108  1.00  0.00     0.010 A 
ATOM     10  C   UNL A   1      38.638  29.815  29.262  1.00  0.00    -0.014 A 
BRANCH  10  11
ATOM     11  C   UNL A   1      40.074  29.323  29.074  1.00  0.00     0.031 A 
ATOM     12  C   UNL A   1      41.160  30.288  29.477  1.00  0.00     0.074 A 
ATOM     13  C   UNL A   1      40.503  28.045  28.826  1.00  0.00     0.049 A 
ATOM     14  N   UNL A   1      42.433  30.290  29.193  1.00  0.00    -0.248 NA
ATOM     15  C   UNL A   1      40.746  31.397  30.352  1.00  0.00     0.031 C 
ATOM     16  C   UNL A   1      39.687  26.837  28.773  1.00  0.00     0.029 A 
ATOM     17  N   UNL A   1      41.769  27.509  28.616  1.00  0.00    -0.354 N 
ATOM     18  C   UNL A   1      42.934  31.448  29.773  1.00  0.00     0.074 A 
ATOM     19  C   UNL A   1      41.831  32.144  30.385  1.00  0.00     0.031 C 
ATOM     20  C   UNL A   1      40.416  25.741  28.538  1.00  0.00     0.029 A 
ATOM     21  C   UNL A   1      41.779  26.147  28.331  1.00  0.00     0.049 A 
ATOM     22  H   UNL A   1      42.591  28.050  28.664  1.00  0.00     0.167 HD
ATOM     23  C   UNL A   1      44.210  31.885  29.827  1.00  0.00     0.037 A 
ATOM     24  C   UNL A   1      42.740  25.295  27.913  1.00  0.00     0.037 A 
ATOM     25  C   UNL A   1      45.319  31.139  29.316  1.00  0.00     0.049 A 
ATOM     26  C   UNL A   1      44.125  25.849  27.790  1.00  0.00     0.074 A 
ATOM     27  C   UNL A   1      46.635  31.533  29.179  1.00  0.00     0.029 A 
ATOM     28  N   UNL A   1      45.243  29.818  28.896  1.00  0.00    -0.354 N 
ATOM     29  N   UNL A   1      44.545  27.046  28.120  1.00  0.00    -0.248 NA
ATOM     30  C   UNL A   1      45.162  24.964  27.253  1.00  0.00     0.031 C 
ATOM     31  C   UNL A   1      47.350  30.461  28.636  1.00  0.00     0.029 A 
ATOM     32  C   UNL A   1      46.490  29.383  28.488  1.00  0.00     0.049 A 
ATOM     33  H   UNL A   1      44.424  29.272  28.891  1.00  0.00     0.167 HD
ATOM     34  C   UNL A   1      45.904  27.049  27.860  1.00  0.00     0.074 A 
ATOM     35  C   UNL A   1      46.240  25.729  27.364  1.00  0.00     0.031 C 
ATOM     36  C   UNL A   1      46.794  28.058  28.015  1.00  0.00     0.037 A 
BRANCH  23  37
ATOM     37  C   UNL A   1      44.417  33.264  30.378  1.00  0.00     0.058 A 
ATOM     38  C   UNL A   1      44.666  33.507  31.738  1.00  0.00     0.135 A 
ATOM     39  C   UNL A   1      44.254  34.369  29.529  1.00  0.00     0.135 A 
ATOM     40  F   UNL A   1      44.762  32.484  32.603  1.00  0.00    -0.206 F 
ATOM     41  C   UNL A   1      44.716  34.803  32.243  1.00  0.00     0.059 A 
ATOM     42  C   UNL A   1      44.331  35.671  30.005  1.00  0.00     0.059 A 
ATOM     43  F   UNL A   1      43.981  34.186  28.227  1.00  0.00    -0.206 F 
ATOM     44  C   UNL A   1      44.547  35.877  31.367  1.00  0.00     0.060 A 
BRANCH  44  45
ATOM     45  S   UNL A   1      44.608  37.552  32.033  1.00  0.00     0.124 S 
ATOM     46  O   UNL A   1      44.180  38.339  30.880  1.00  0.00    -0.237 OA
ATOM     47  O   UNL A   1      43.657  37.478  33.138  1.00  0.00    -0.237 OA
ATOM     48  O   UNL A   1      46.005  37.713  32.419  1.00  0.00    -0.744 OA
ENDBRANCH  44  45
ENDBRANCH  23  37
BRANCH  24  49
ATOM     49  C   UNL A   1      42.432  23.881  27.503  1.00  0.00     0.058 A 
ATOM     50  C   UNL A   1      42.398  22.819  28.424  1.00  0.00     0.135 A 
ATOM     51  C   UNL A   1      42.239  23.546  26.148  1.00  0.00     0.135 A 
ATOM     52  F   UNL A   1      42.572  23.064  29.732  1.00  0.00    -0.206 F 
ATOM     53  C   UNL A   1      42.242  21.491  28.020  1.00  0.00     0.059 A 
ATOM     54  C   UNL A   1      42.050  22.231  25.722  1.00  0.00     0.059 A 
ATOM     55  F   UNL A   1      42.236  24.509  25.212  1.00  0.00    -0.206 F 
ATOM     56  C   UNL A   1      42.080  21.206  26.663  1.00  0.00     0.060 A 
BRANCH  56  57
ATOM     57  S   UNL A   1      41.922  19.481  26.140  1.00  0.00     0.124 S 
ATOM     58  O   UNL A   1      42.405  18.771  27.319  1.00  0.00    -0.237 OA
ATOM     59  O   UNL A   1      40.492  19.372  25.870  1.00  0.00    -0.237 OA
ATOM     60  O   UNL A   1      42.784  19.406  24.965  1.00  0.00    -0.744 OA
ENDBRANCH  56  57
ENDBRANCH  24  49
BRANCH  36  61
ATOM     61  C   UNL A   1      48.220  27.755  27.684  1.00  0.00     0.058 A 
ATOM     62  C   UNL A   1      48.720  27.916  26.384  1.00  0.00     0.135 A 
ATOM     63  C   UNL A   1      49.103  27.348  28.695  1.00  0.00     0.135 A 
ATOM     64  F   UNL A   1      47.906  28.293  25.386  1.00  0.00    -0.206 F 
ATOM     65  C   UNL A   1      50.052  27.661  26.091  1.00  0.00     0.059 A 
ATOM     66  C   UNL A   1      50.446  27.121  28.431  1.00  0.00     0.059 A 
ATOM     67  F   UNL A   1      48.665  27.189  29.954  1.00  0.00    -0.206 F 
ATOM     68  C   UNL A   1      50.907  27.269  27.124  1.00  0.00     0.060 A 
BRANCH  68  69
ATOM     69  S   UNL A   1      52.644  26.983  26.739  1.00  0.00     0.124 S 
ATOM     70  O   UNL A   1      53.163  26.551  28.033  1.00  0.00    -0.237 OA
ATOM     71  O   UNL A   1      52.569  25.953  25.708  1.00  0.00    -0.237 OA
ATOM     72  O   UNL A   1      53.108  28.289  26.279  1.00  0.00    -0.744 OA
ENDBRANCH  68  69
ENDBRANCH  36  61
ENDBRANCH  10  11
ENDBRANCH   3   5
ENDBRANCH   2   3
ENDBRANCH   1   2
BRANCH   1  73
ATOM     73  C   UNL A   1      34.033  28.616  23.693  1.00  0.00     0.275 C 
BRANCH  73  74
ATOM     74  O   UNL A   1      33.329  27.237  22.330  1.00  0.00    -0.457 OA
BRANCH  74  75
ATOM     75  C   UNL A   1      33.088  25.856  21.833  1.00  0.00     0.359 C 
ATOM     76  O   UNL A   1      33.227  25.650  20.622  1.00  0.00    -0.244 OA
BRANCH  75  77
ATOM     77  C   UNL A   1      32.664  24.610  22.651  1.00  0.00     0.179 A 
ATOM     78  N   UNL A   1      32.888  23.481  21.886  1.00  0.00    -0.245 NA
ATOM     79  C   UNL A   1      32.316  24.440  24.011  1.00  0.00     0.161 A 
ATOM     80  C   UNL A   1      32.721  22.254  22.455  1.00  0.00     0.132 A 
ATOM     81  N   UNL A   1      32.057  23.166  24.504  1.00  0.00    -0.247 NA
ATOM     82  C   UNL A   1      32.253  22.096  23.728  1.00  0.00     0.132 A 
BRANCH  79  83
ATOM     83  C   UNL A   1      32.060  25.375  25.191  1.00  0.00     0.278 C 
ATOM     84  O   UNL A   1      32.838  25.344  26.157  1.00  0.00    -0.267 OA
ATOM     85  N   UNL A   1      31.041  26.263  25.348  1.00  0.00    -0.303 N 
ATOM     86  H   UNL A   1      30.983  26.695  26.230  1.00  0.00     0.172 HD
BRANCH  85  87
ATOM     87  C   UNL A   1      30.104  26.629  24.455  1.00  0.00     0.164 A 
ATOM     88  N   UNL A   1      29.224  25.678  24.103  1.00  0.00    -0.155 NA
ATOM     89  C   UNL A   1      29.828  27.917  23.972  1.00  0.00     0.063 A 
ATOM     90  N   UNL A   1      28.057  26.281  23.778  1.00  0.00    -0.259 N 
ATOM     91  C   UNL A   1      28.166  27.603  23.536  1.00  0.00     0.157 A 
ATOM     92  C   UNL A   1      30.361  29.707  23.934  1.00  0.00     0.017 A 
ATOM     93  H   UNL A   1      27.202  25.796  23.725  1.00  0.00     0.192 HD
ATOM     94  N   UNL A   1      27.050  28.793  23.112  1.00  0.00    -0.237 NA
ATOM     95  C   UNL A   1      29.188  30.970  23.540  1.00  0.00     0.021 A 
ATOM     96  C   UNL A   1      27.602  30.430  23.156  1.00  0.00     0.113 A 
ENDBRANCH  85  87
ENDBRANCH  79  83
ENDBRANCH  75  77
ENDBRANCH  74  75
ENDBRANCH  73  74
ENDBRANCH   1  73
TORSDOF 16
ENDMDL
MODEL 3
REMARK VINA RESULT:     -12.9      1.473      2.448
REMARK SMILES O=C(OCCOC(=O)c1nccnc1C(=O)Nc1n[nH]c2ncccc12)c1ccc(-c2c3nc(c(-c4c(F)cc(S(=O)(=O)[O-])cc4F)c4ccc([nH]4)c(-c4c(F)cc(S(=O)(=O)[O-])cc4F)c4nc(c(-c5c(F)cc(S(=O)(=O)[O-])cc5F)c5ccc2[nH]5)C=C4)C=C3)cc1
REMARK SMILES IDX 4 1 3 2 2 3 1 4 27 5 28 6 92 7 29 8 91 9 30 10 31 11 32 12
REMARK SMILES IDX 85 13 33 14 90 15 84 16 86 17 34 18 89 19 83 20 82 21 35 23
REMARK SMILES IDX 69 24 48 25 68 26 49 27 52 28 67 29 87 30 50 31 51 32 66 34
REMARK SMILES IDX 88 35 53 36 36 37 37 38 46 39 38 40 39 41 45 42 47 43 40 44
REMARK SMILES IDX 41 45 42 46 43 47 44 48 70 49 71 50 80 51 72 52 73 53 79 54
REMARK SMILES IDX 81 55 74 56 75 57 76 58 77 59 78 60 54 61 55 62 64 63 56 64
REMARK SMILES IDX 57 65 63 66 65 67 58 68 59 69 60 70 61 71 62 72 5 73 6 74
REMARK SMILES IDX 7 75 8 76 9 77 10 78 14 79 11 80 13 81 12 82 15 83 16 84
REMARK SMILES IDX 17 85 18 87 19 88 26 89 20 90 21 91 25 92 22 94 24 95 23 96
REMARK H PARENT 86 22 52 33 17 86 20 93
REMARK Flexibility Score: inf
ROOT
ATOM      1  C   UNL A   1      40.942  20.924  25.706  1.00  0.00     0.275 C 
ENDROOT
BRANCH   1   2
ATOM      2  O   UNL A   1      42.006  22.024  25.967  1.00  0.00    -0.458 OA
BRANCH   2   3
ATOM      3  C   UNL A   1      42.080  23.416  25.793  1.00  0.00     0.338 C 
ATOM      4  O   UNL A   1      43.075  23.956  25.325  1.00  0.00    -0.246 OA
BRANCH   3   5
ATOM      5  C   UNL A   1      41.042  24.276  26.519  1.00  0.00     0.060 A 
ATOM      6  C   UNL A   1      40.884  25.518  26.026  1.00  0.00     0.016 A 
ATOM      7  C   UNL A   1      40.132  24.046  27.535  1.00  0.00     0.016 A 
ATOM      8  C   UNL A   1      40.684  26.601  26.866  1.00  0.00     0.010 A 
ATOM      9  C   UNL A   1      39.544  25.168  28.239  1.00  0.00     0.010 A 
ATOM     10  C   UNL A   1      40.043  26.480  28.056  1.00  0.00    -0.014 A 
BRANCH  10  11
ATOM     11  C   UNL A   1      40.153  27.613  29.076  1.00  0.00     0.031 A 
ATOM     12  C   UNL A   1      41.392  27.609  29.937  1.00  0.00     0.074 A 
ATOM     13  C   UNL A   1      39.409  28.763  29.145  1.00  0.00     0.049 A 
ATOM     14  N   UNL A   1      41.647  28.242  31.048  1.00  0.00    -0.248 NA
ATOM     15  C   UNL A   1      42.512  26.787  29.451  1.00  0.00     0.031 C 
ATOM     16  C   UNL A   1      38.393  29.212  28.200  1.00  0.00     0.029 A 
ATOM     17  N   UNL A   1      39.416  29.827  30.041  1.00  0.00    -0.354 N 
ATOM     18  C   UNL A   1      42.911  27.811  31.430  1.00  0.00     0.074 A 
ATOM     19  C   UNL A   1      43.353  26.837  30.464  1.00  0.00     0.031 C 
ATOM     20  C   UNL A   1      37.871  30.394  28.539  1.00  0.00     0.029 A 
ATOM     21  C   UNL A   1      38.444  30.793  29.796  1.00  0.00     0.049 A 
ATOM     22  H   UNL A   1      40.055  29.892  30.786  1.00  0.00     0.167 HD
ATOM     23  C   UNL A   1      43.663  28.215  32.475  1.00  0.00     0.037 A 
ATOM     24  C   UNL A   1      38.007  31.865  30.491  1.00  0.00     0.037 A 
ATOM     25  C   UNL A   1      43.271  29.261  33.369  1.00  0.00     0.049 A 
ATOM     26  C   UNL A   1      38.733  32.186  31.760  1.00  0.00     0.074 A 
ATOM     27  C   UNL A   1      43.872  29.663  34.545  1.00  0.00     0.029 A 
ATOM     28  N   UNL A   1      42.191  30.106  33.155  1.00  0.00    -0.354 N 
ATOM     29  N   UNL A   1      39.804  31.604  32.244  1.00  0.00    -0.248 NA
ATOM     30  C   UNL A   1      38.217  33.291  32.573  1.00  0.00     0.031 C 
ATOM     31  C   UNL A   1      43.129  30.727  35.066  1.00  0.00     0.029 A 
ATOM     32  C   UNL A   1      42.100  31.023  34.185  1.00  0.00     0.049 A 
ATOM     33  H   UNL A   1      41.580  30.060  32.384  1.00  0.00     0.167 HD
ATOM     34  C   UNL A   1      40.110  32.293  33.404  1.00  0.00     0.074 A 
ATOM     35  C   UNL A   1      39.124  33.348  33.539  1.00  0.00     0.031 C 
ATOM     36  C   UNL A   1      41.117  32.069  34.282  1.00  0.00     0.037 A 
BRANCH  23  37
ATOM     37  C   UNL A   1      44.922  27.439  32.726  1.00  0.00     0.058 A 
ATOM     38  C   UNL A   1      44.957  26.294  33.538  1.00  0.00     0.135 A 
ATOM     39  C   UNL A   1      46.135  27.928  32.220  1.00  0.00     0.135 A 
ATOM     40  F   UNL A   1      43.831  25.827  34.101  1.00  0.00    -0.206 F 
ATOM     41  C   UNL A   1      46.161  25.677  33.864  1.00  0.00     0.059 A 
ATOM     42  C   UNL A   1      47.346  27.309  32.506  1.00  0.00     0.059 A 
ATOM     43  F   UNL A   1      46.155  29.039  31.467  1.00  0.00    -0.206 F 
ATOM     44  C   UNL A   1      47.349  26.194  33.342  1.00  0.00     0.060 A 
BRANCH  44  45
ATOM     45  S   UNL A   1      48.904  25.390  33.775  1.00  0.00     0.124 S 
ATOM     46  O   UNL A   1      49.700  25.631  32.576  1.00  0.00    -0.237 OA
ATOM     47  O   UNL A   1      49.312  26.130  34.966  1.00  0.00    -0.237 OA
ATOM     48  O   UNL A   1      48.517  24.002  34.004  1.00  0.00    -0.744 OA
ENDBRANCH  44  45
ENDBRANCH  23  37
BRANCH  24  49
ATOM     49  C   UNL A   1      36.796  32.652  30.071  1.00  0.00     0.058 A 
ATOM     50  C   UNL A   1      36.876  33.738  29.181  1.00  0.00     0.135 A 
ATOM     51  C   UNL A   1      35.528  32.378  30.620  1.00  0.00     0.135 A 
ATOM     52  F   UNL A   1      38.051  34.056  28.618  1.00  0.00    -0.206 F 
ATOM     53  C   UNL A   1      35.771  34.546  28.898  1.00  0.00     0.059 A 
ATOM     54  C   UNL A   1      34.404  33.150  30.327  1.00  0.00     0.059 A 
ATOM     55  F   UNL A   1      35.369  31.342  31.460  1.00  0.00    -0.206 F 
ATOM     56  C   UNL A   1      34.541  34.250  29.486  1.00  0.00     0.060 A 
BRANCH  56  57
ATOM     57  S   UNL A   1      33.125  35.325  29.149  1.00  0.00     0.124 S 
ATOM     58  O   UNL A   1      32.453  35.340  30.444  1.00  0.00    -0.237 OA
ATOM     59  O   UNL A   1      33.773  36.572  28.753  1.00  0.00    -0.237 OA
ATOM     60  O   UNL A   1      32.417  34.626  28.082  1.00  0.00    -0.744 OA
ENDBRANCH  56  57
ENDBRANCH  24  49
BRANCH  36  61
ATOM     61  C   UNL A   1      41.222  33.010  35.439  1.00  0.00     0.058 A 
ATOM     62  C   UNL A   1      40.517  32.787  36.631  1.00  0.00     0.135 A 
ATOM     63  C   UNL A   1      42.082  34.116  35.367  1.00  0.00     0.135 A 
ATOM     64  F   UNL A   1      39.677  31.746  36.736  1.00  0.00    -0.206 F 
ATOM     65  C   UNL A   1      40.645  33.648  37.711  1.00  0.00     0.059 A 
ATOM     66  C   UNL A   1      42.250  34.971  36.447  1.00  0.00     0.059 A 
ATOM     67  F   UNL A   1      42.780  34.360  34.246  1.00  0.00    -0.206 F 
ATOM     68  C   UNL A   1      41.517  34.734  37.609  1.00  0.00     0.060 A 
BRANCH  68  69
ATOM     69  S   UNL A   1      41.706  35.820  39.035  1.00  0.00     0.124 S 
ATOM     70  O   UNL A   1      43.149  36.037  39.048  1.00  0.00    -0.237 OA
ATOM     71  O   UNL A   1      40.893  36.972  38.659  1.00  0.00    -0.237 OA
ATOM     72  O   UNL A   1      41.180  35.022  40.139  1.00  0.00    -0.744 OA
ENDBRANCH  68  69
ENDBRANCH  36  61
ENDBRANCH  10  11
ENDBRANCH   3   5
ENDBRANCH   2   3
ENDBRANCH   1   2
BRANCH   1  73
ATOM     73  C   UNL A   1      39.128  21.096  26.119  1.00  0.00     0.275 C 
BRANCH  73  74
ATOM     74  O   UNL A   1      37.602  21.478  24.786  1.00  0.00    -0.457 OA
BRANCH  74  75
ATOM     75  C   UNL A   1      36.303  22.079  24.383  1.00  0.00     0.359 C 
ATOM     76  O   UNL A   1      36.245  22.633  23.279  1.00  0.00    -0.244 OA
BRANCH  75  77
ATOM     77  C   UNL A   1      34.979  22.116  25.189  1.00  0.00     0.179 A 
ATOM     78  N   UNL A   1      35.245  22.602  26.455  1.00  0.00    -0.245 NA
ATOM     79  C   UNL A   1      33.629  21.950  24.805  1.00  0.00     0.161 A 
ATOM     80  C   UNL A   1      34.205  22.858  27.297  1.00  0.00     0.132 A 
ATOM     81  N   UNL A   1      32.617  22.125  25.743  1.00  0.00    -0.247 NA
ATOM     82  C   UNL A   1      32.911  22.567  26.969  1.00  0.00     0.132 A 
BRANCH  79  83
ATOM     83  C   UNL A   1      32.908  21.526  23.527  1.00  0.00     0.278 C 
ATOM     84  O   UNL A   1      32.633  20.327  23.367  1.00  0.00    -0.267 OA
ATOM     85  N   UNL A   1      32.528  22.310  22.482  1.00  0.00    -0.303 N 
ATOM     86  H   UNL A   1      32.177  21.834  21.696  1.00  0.00     0.172 HD
BRANCH  85  87
ATOM     87  C   UNL A   1      32.567  23.652  22.384  1.00  0.00     0.164 A 
ATOM     88  N   UNL A   1      33.269  24.145  21.351  1.00  0.00    -0.155 NA
ATOM     89  C   UNL A   1      31.836  24.593  23.123  1.00  0.00     0.063 A 
ATOM     90  N   UNL A   1      32.722  25.331  20.997  1.00  0.00    -0.259 N 
ATOM     91  C   UNL A   1      31.915  25.869  21.934  1.00  0.00     0.157 A 
ATOM     92  C   UNL A   1      30.661  24.873  24.549  1.00  0.00     0.017 A 
ATOM     93  H   UNL A   1      32.898  25.763  20.130  1.00  0.00     0.192 HD
ATOM     94  N   UNL A   1      31.006  27.288  21.994  1.00  0.00    -0.237 NA
ATOM     95  C   UNL A   1      29.665  26.332  24.598  1.00  0.00     0.021 A 
ATOM     96  C   UNL A   1      29.900  27.448  23.312  1.00  0.00     0.113 A 
ENDBRANCH  85  87
ENDBRANCH  79  83
ENDBRANCH  75  77
ENDBRANCH  74  75
ENDBRANCH  73  74
ENDBRANCH   1  73
TORSDOF 16
ENDMDL
