MODEL 1
REMARK VINA RESULT:     -12.1      0.000      0.000
REMARK SMILES CCCn1ncc(C(=O)N2CCC(C(=O)OCCOC(=O)c3ccc(-c4c5nc(c(-c6c(F)cc(S(=O)(=O)[O-])cc6F)c6ccc([nH]6)c(-c6c(F)cc(S(=O)(=O)[O-])cc6F)c6nc(c(-c7c(F)cc(S(=O)(=O)[O-])cc7F)c7ccc4[nH]7)C=C6)C=C5)cc3)CC2)c1C
REMARK SMILES IDX 17 1 16 2 14 3 15 4 13 5 8 6 9 7 10 8 11 9 89 10 12 11 88 12
REMARK SMILES IDX 7 13 4 14 5 15 90 16 6 17 91 18 3 19 2 20 1 21 18 22 19 23
REMARK SMILES IDX 20 24 21 25 22 26 23 27 87 28 24 29 86 30 25 31 26 32 27 33
REMARK SMILES IDX 80 34 28 35 85 36 79 37 81 38 29 39 84 40 78 41 77 42 30 44
REMARK SMILES IDX 64 45 43 46 63 47 44 48 47 49 62 50 82 51 45 52 46 53 61 55
REMARK SMILES IDX 83 56 48 57 31 58 32 59 41 60 33 61 34 62 40 63 42 64 35 65
REMARK SMILES IDX 36 66 37 67 38 68 39 69 65 70 66 71 75 72 67 73 68 74 74 75
REMARK SMILES IDX 76 76 69 77 70 78 71 79 72 80 73 81 49 82 50 83 59 84 51 85
REMARK SMILES IDX 52 86 58 87 60 88 53 89 54 90 55 91 56 92 57 93
REMARK H PARENT 81 43 47 54
REMARK Flexibility Score: inf
ROOT
ATOM      1  C   UNL A   1      37.049  21.808  24.350  1.00  0.00     0.274 C 
ENDROOT
BRANCH   1   2
ATOM      2  O   UNL A   1      35.815  22.265  24.934  1.00  0.00    -0.462 OA
BRANCH   2   3
ATOM      3  C   UNL A   1      34.728  21.473  24.732  1.00  0.00     0.309 C 
ATOM      4  O   UNL A   1      34.744  20.246  24.741  1.00  0.00    -0.252 OA
BRANCH   3   5
ATOM      5  C   UNL A   1      33.482  22.263  24.389  1.00  0.00     0.103 C 
ATOM      6  C   UNL A   1      31.266  25.416  25.712  1.00  0.00     0.257 C 
ATOM      7  O   UNL A   1      30.994  25.160  26.885  1.00  0.00    -0.269 OA
ATOM      8  N   UNL A   1      31.647  24.428  24.816  1.00  0.00    -0.338 N 
ATOM      9  C   UNL A   1      31.190  23.070  25.047  1.00  0.00     0.120 C 
ATOM     10  C   UNL A   1      32.692  24.585  23.810  1.00  0.00     0.120 C 
ATOM     11  C   UNL A   1      32.345  22.159  25.413  1.00  0.00     0.037 C 
ATOM     12  C   UNL A   1      33.895  23.718  24.160  1.00  0.00     0.037 C 
BRANCH   6  13
ATOM     13  C   UNL A   1      31.090  26.759  25.177  1.00  0.00     0.080 A 
ATOM     14  N   UNL A   1      30.413  28.457  23.948  1.00  0.00    -0.269 N 
ATOM     15  N   UNL A   1      31.490  28.935  24.602  1.00  0.00    -0.180 NA
ATOM     16  C   UNL A   1      30.063  27.188  24.345  1.00  0.00     0.048 A 
ATOM     17  C   UNL A   1      31.948  27.875  25.264  1.00  0.00     0.149 A 
ATOM     18  C   UNL A   1      28.852  26.456  23.886  1.00  0.00     0.067 C 
BRANCH  14  19
ATOM     19  C   UNL A   1      29.793  29.277  22.923  1.00  0.00     0.144 C 
BRANCH  19  20
ATOM     20  C   UNL A   1      29.223  30.612  23.419  1.00  0.00     0.020 C 
ATOM     21  C   UNL A   1      28.689  31.489  22.293  1.00  0.00     0.006 C 
ENDBRANCH  19  20
ENDBRANCH  14  19
ENDBRANCH   6  13
ENDBRANCH   3   5
ENDBRANCH   2   3
ENDBRANCH   1   2
BRANCH   1  22
ATOM     22  C   UNL A   1      38.083  21.452  25.411  1.00  0.00     0.275 C 
BRANCH  22  23
ATOM     23  O   UNL A   1      38.402  22.574  26.234  1.00  0.00    -0.458 OA
BRANCH  23  24
ATOM     24  C   UNL A   1      39.616  22.484  26.820  1.00  0.00     0.338 C 
ATOM     25  O   UNL A   1      40.103  21.489  27.326  1.00  0.00    -0.246 OA
BRANCH  24  26
ATOM     26  C   UNL A   1      40.218  23.806  26.980  1.00  0.00     0.060 A 
ATOM     27  C   UNL A   1      41.302  23.910  27.859  1.00  0.00     0.016 A 
ATOM     28  C   UNL A   1      39.508  24.927  26.535  1.00  0.00     0.016 A 
ATOM     29  C   UNL A   1      41.564  25.135  28.435  1.00  0.00     0.010 A 
ATOM     30  C   UNL A   1      39.760  26.142  27.123  1.00  0.00     0.010 A 
ATOM     31  C   UNL A   1      40.735  26.215  28.117  1.00  0.00    -0.014 A 
BRANCH  31  32
ATOM     32  C   UNL A   1      40.962  27.469  28.802  1.00  0.00     0.031 A 
ATOM     33  C   UNL A   1      42.123  28.217  28.279  1.00  0.00     0.074 A 
ATOM     34  C   UNL A   1      40.117  27.954  29.730  1.00  0.00     0.049 A 
ATOM     35  N   UNL A   1      43.253  28.432  28.861  1.00  0.00    -0.248 NA
ATOM     36  C   UNL A   1      42.081  28.628  26.867  1.00  0.00     0.031 C 
ATOM     37  C   UNL A   1      38.791  27.441  30.092  1.00  0.00     0.029 A 
ATOM     38  N   UNL A   1      40.227  29.086  30.475  1.00  0.00    -0.354 N 
ATOM     39  C   UNL A   1      43.984  29.209  27.967  1.00  0.00     0.074 A 
ATOM     40  C   UNL A   1      43.308  29.121  26.701  1.00  0.00     0.031 C 
ATOM     41  C   UNL A   1      38.138  28.376  30.818  1.00  0.00     0.029 A 
ATOM     42  C   UNL A   1      39.045  29.481  31.086  1.00  0.00     0.049 A 
ATOM     43  H   UNL A   1      41.071  29.581  30.573  1.00  0.00     0.167 HD
ATOM     44  C   UNL A   1      44.930  30.082  28.404  1.00  0.00     0.037 A 
ATOM     45  C   UNL A   1      38.822  30.662  31.711  1.00  0.00     0.037 A 
ATOM     46  C   UNL A   1      45.277  29.835  29.778  1.00  0.00     0.049 A 
ATOM     47  C   UNL A   1      40.144  31.227  32.078  1.00  0.00     0.074 A 
ATOM     48  C   UNL A   1      45.912  28.826  30.470  1.00  0.00     0.029 A 
ATOM     49  N   UNL A   1      44.603  30.592  30.703  1.00  0.00    -0.354 N 
ATOM     50  N   UNL A   1      40.947  30.691  32.957  1.00  0.00    -0.248 NA
ATOM     51  C   UNL A   1      40.765  32.204  31.193  1.00  0.00     0.031 C 
ATOM     52  C   UNL A   1      45.322  28.821  31.769  1.00  0.00     0.029 A 
ATOM     53  C   UNL A   1      44.372  29.843  31.827  1.00  0.00     0.049 A 
ATOM     54  H   UNL A   1      44.326  31.529  30.577  1.00  0.00     0.167 HD
ATOM     55  C   UNL A   1      42.220  30.933  32.470  1.00  0.00     0.074 A 
ATOM     56  C   UNL A   1      42.052  31.993  31.485  1.00  0.00     0.031 C 
ATOM     57  C   UNL A   1      43.237  30.052  32.703  1.00  0.00     0.037 A 
BRANCH  44  58
ATOM     58  C   UNL A   1      45.222  31.406  27.742  1.00  0.00     0.058 A 
ATOM     59  C   UNL A   1      46.505  31.639  27.206  1.00  0.00     0.135 A 
ATOM     60  C   UNL A   1      44.399  32.547  27.875  1.00  0.00     0.135 A 
ATOM     61  F   UNL A   1      47.375  30.628  27.054  1.00  0.00    -0.206 F 
ATOM     62  C   UNL A   1      46.957  32.920  26.888  1.00  0.00     0.059 A 
ATOM     63  C   UNL A   1      44.809  33.823  27.509  1.00  0.00     0.059 A 
ATOM     64  F   UNL A   1      43.199  32.500  28.466  1.00  0.00    -0.206 F 
ATOM     65  C   UNL A   1      46.103  34.007  27.056  1.00  0.00     0.060 A 
BRANCH  65  66
ATOM     66  S   UNL A   1      46.714  35.673  26.750  1.00  0.00     0.124 S 
ATOM     67  O   UNL A   1      47.667  35.837  27.841  1.00  0.00    -0.237 OA
ATOM     68  O   UNL A   1      47.284  35.546  25.413  1.00  0.00    -0.237 OA
ATOM     69  O   UNL A   1      45.508  36.491  26.836  1.00  0.00    -0.744 OA
ENDBRANCH  65  66
ENDBRANCH  44  58
BRANCH  45  70
ATOM     70  C   UNL A   1      37.570  31.458  31.751  1.00  0.00     0.058 A 
ATOM     71  C   UNL A   1      36.902  31.711  32.961  1.00  0.00     0.135 A 
ATOM     72  C   UNL A   1      37.156  32.219  30.640  1.00  0.00     0.135 A 
ATOM     73  F   UNL A   1      37.250  31.049  34.075  1.00  0.00    -0.206 F 
ATOM     74  C   UNL A   1      35.912  32.693  33.074  1.00  0.00     0.059 A 
ATOM     75  C   UNL A   1      36.166  33.197  30.725  1.00  0.00     0.059 A 
ATOM     76  F   UNL A   1      37.771  32.099  29.453  1.00  0.00    -0.206 F 
ATOM     77  C   UNL A   1      35.565  33.445  31.952  1.00  0.00     0.060 A 
BRANCH  77  78
ATOM     78  S   UNL A   1      34.410  34.826  32.131  1.00  0.00     0.124 S 
ATOM     79  O   UNL A   1      33.309  34.205  32.862  1.00  0.00    -0.237 OA
ATOM     80  O   UNL A   1      35.204  35.796  32.878  1.00  0.00    -0.237 OA
ATOM     81  O   UNL A   1      34.111  35.199  30.751  1.00  0.00    -0.744 OA
ENDBRANCH  77  78
ENDBRANCH  45  70
BRANCH  57  82
ATOM     82  C   UNL A   1      43.073  29.094  33.853  1.00  0.00     0.058 A 
ATOM     83  C   UNL A   1      43.311  29.410  35.202  1.00  0.00     0.135 A 
ATOM     84  C   UNL A   1      42.539  27.827  33.574  1.00  0.00     0.135 A 
ATOM     85  F   UNL A   1      43.733  30.631  35.559  1.00  0.00    -0.206 F 
ATOM     86  C   UNL A   1      43.065  28.491  36.222  1.00  0.00     0.059 A 
ATOM     87  C   UNL A   1      42.255  26.908  34.578  1.00  0.00     0.059 A 
ATOM     88  F   UNL A   1      42.239  27.487  32.309  1.00  0.00    -0.206 F 
ATOM     89  C   UNL A   1      42.534  27.241  35.900  1.00  0.00     0.060 A 
BRANCH  89  90
ATOM     90  S   UNL A   1      42.140  26.081  37.228  1.00  0.00     0.124 S 
ATOM     91  O   UNL A   1      42.258  24.793  36.555  1.00  0.00    -0.237 OA
ATOM     92  O   UNL A   1      43.167  26.375  38.223  1.00  0.00    -0.237 OA
ATOM     93  O   UNL A   1      40.783  26.459  37.617  1.00  0.00    -0.744 OA
ENDBRANCH  89  90
ENDBRANCH  57  82
ENDBRANCH  31  32
ENDBRANCH  24  26
ENDBRANCH  23  24
ENDBRANCH  22  23
ENDBRANCH   1  22
TORSDOF 17
ENDMDL
MODEL 2
REMARK VINA RESULT:     -12.0      1.289      1.753
REMARK SMILES CCCn1ncc(C(=O)N2CCC(C(=O)OCCOC(=O)c3ccc(-c4c5nc(c(-c6c(F)cc(S(=O)(=O)[O-])cc6F)c6ccc([nH]6)c(-c6c(F)cc(S(=O)(=O)[O-])cc6F)c6nc(c(-c7c(F)cc(S(=O)(=O)[O-])cc7F)c7ccc4[nH]7)C=C6)C=C5)cc3)CC2)c1C
REMARK SMILES IDX 17 1 16 2 14 3 15 4 13 5 8 6 9 7 10 8 11 9 89 10 12 11 88 12
REMARK SMILES IDX 7 13 4 14 5 15 90 16 6 17 91 18 3 19 2 20 1 21 18 22 19 23
REMARK SMILES IDX 20 24 21 25 22 26 23 27 87 28 24 29 86 30 25 31 26 32 27 33
REMARK SMILES IDX 80 34 28 35 85 36 79 37 81 38 29 39 84 40 78 41 77 42 30 44
REMARK SMILES IDX 64 45 43 46 63 47 44 48 47 49 62 50 82 51 45 52 46 53 61 55
REMARK SMILES IDX 83 56 48 57 31 58 32 59 41 60 33 61 34 62 40 63 42 64 35 65
REMARK SMILES IDX 36 66 37 67 38 68 39 69 65 70 66 71 75 72 67 73 68 74 74 75
REMARK SMILES IDX 76 76 69 77 70 78 71 79 72 80 73 81 49 82 50 83 59 84 51 85
REMARK SMILES IDX 52 86 58 87 60 88 53 89 54 90 55 91 56 92 57 93
REMARK H PARENT 81 43 47 54
REMARK Flexibility Score: inf
ROOT
ATOM      1  C   UNL A   1      37.205  21.334  24.663  1.00  0.00     0.274 C 
ENDROOT
BRANCH   1   2
ATOM      2  O   UNL A   1      36.121  20.693  25.360  1.00  0.00    -0.462 OA
BRANCH   2   3
ATOM      3  C   UNL A   1      34.871  21.145  25.068  1.00  0.00     0.309 C 
ATOM      4  O   UNL A   1      33.864  20.446  25.037  1.00  0.00    -0.252 OA
BRANCH   3   5
ATOM      5  C   UNL A   1      34.853  22.609  24.679  1.00  0.00     0.103 C 
ATOM      6  C   UNL A   1      32.369  25.838  24.609  1.00  0.00     0.257 C 
ATOM      7  O   UNL A   1      31.375  25.476  23.980  1.00  0.00    -0.269 OA
ATOM      8  N   UNL A   1      33.584  25.177  24.502  1.00  0.00    -0.338 N 
ATOM      9  C   UNL A   1      33.875  24.456  23.276  1.00  0.00     0.120 C 
ATOM     10  C   UNL A   1      34.482  24.917  25.622  1.00  0.00     0.120 C 
ATOM     11  C   UNL A   1      33.914  22.960  23.518  1.00  0.00     0.037 C 
ATOM     12  C   UNL A   1      34.522  23.424  25.930  1.00  0.00     0.037 C 
BRANCH   6  13
ATOM     13  C   UNL A   1      32.347  27.051  25.413  1.00  0.00     0.080 A 
ATOM     14  N   UNL A   1      32.788  29.068  26.183  1.00  0.00    -0.269 N 
ATOM     15  N   UNL A   1      32.107  28.477  27.184  1.00  0.00    -0.180 NA
ATOM     16  C   UNL A   1      32.861  28.291  25.051  1.00  0.00     0.048 A 
ATOM     17  C   UNL A   1      31.932  27.232  26.750  1.00  0.00     0.149 A 
ATOM     18  C   UNL A   1      33.446  28.728  23.755  1.00  0.00     0.067 C 
BRANCH  14  19
ATOM     19  C   UNL A   1      33.373  30.377  26.410  1.00  0.00     0.144 C 
BRANCH  19  20
ATOM     20  C   UNL A   1      34.072  30.548  27.764  1.00  0.00     0.020 C 
ATOM     21  C   UNL A   1      35.461  29.921  27.804  1.00  0.00     0.006 C 
ENDBRANCH  19  20
ENDBRANCH  14  19
ENDBRANCH   6  13
ENDBRANCH   3   5
ENDBRANCH   2   3
ENDBRANCH   1   2
BRANCH   1  22
ATOM     22  C   UNL A   1      38.497  21.304  25.470  1.00  0.00     0.275 C 
BRANCH  22  23
ATOM     23  O   UNL A   1      38.709  22.530  26.171  1.00  0.00    -0.458 OA
BRANCH  23  24
ATOM     24  C   UNL A   1      39.829  22.532  26.926  1.00  0.00     0.338 C 
ATOM     25  O   UNL A   1      40.273  21.594  27.564  1.00  0.00    -0.246 OA
BRANCH  24  26
ATOM     26  C   UNL A   1      40.356  23.886  27.077  1.00  0.00     0.060 A 
ATOM     27  C   UNL A   1      41.503  24.041  27.863  1.00  0.00     0.016 A 
ATOM     28  C   UNL A   1      39.538  24.968  26.730  1.00  0.00     0.016 A 
ATOM     29  C   UNL A   1      41.735  25.265  28.452  1.00  0.00     0.010 A 
ATOM     30  C   UNL A   1      39.761  26.182  27.333  1.00  0.00     0.010 A 
ATOM     31  C   UNL A   1      40.812  26.295  28.242  1.00  0.00    -0.014 A 
BRANCH  31  32
ATOM     32  C   UNL A   1      41.016  27.542  28.945  1.00  0.00     0.031 A 
ATOM     33  C   UNL A   1      42.167  28.315  28.438  1.00  0.00     0.074 A 
ATOM     34  C   UNL A   1      40.159  28.001  29.875  1.00  0.00     0.049 A 
ATOM     35  N   UNL A   1      43.292  28.541  29.027  1.00  0.00    -0.248 NA
ATOM     36  C   UNL A   1      42.125  28.745  27.031  1.00  0.00     0.031 C 
ATOM     37  C   UNL A   1      38.841  27.462  30.224  1.00  0.00     0.029 A 
ATOM     38  N   UNL A   1      40.249  29.124  30.636  1.00  0.00    -0.354 N 
ATOM     39  C   UNL A   1      44.013  29.341  28.148  1.00  0.00     0.074 A 
ATOM     40  C   UNL A   1      43.345  29.260  26.877  1.00  0.00     0.031 C 
ATOM     41  C   UNL A   1      38.169  28.377  30.961  1.00  0.00     0.029 A 
ATOM     42  C   UNL A   1      39.057  29.492  31.247  1.00  0.00     0.049 A 
ATOM     43  H   UNL A   1      41.084  29.632  30.745  1.00  0.00     0.167 HD
ATOM     44  C   UNL A   1      44.944  30.223  28.600  1.00  0.00     0.037 A 
ATOM     45  C   UNL A   1      38.813  30.661  31.887  1.00  0.00     0.037 A 
ATOM     46  C   UNL A   1      45.288  29.962  29.973  1.00  0.00     0.049 A 
ATOM     47  C   UNL A   1      40.124  31.242  32.268  1.00  0.00     0.074 A 
ATOM     48  C   UNL A   1      45.936  28.955  30.654  1.00  0.00     0.029 A 
ATOM     49  N   UNL A   1      44.598  30.696  30.905  1.00  0.00    -0.354 N 
ATOM     50  N   UNL A   1      40.931  30.706  33.143  1.00  0.00    -0.248 NA
ATOM     51  C   UNL A   1      40.733  32.240  31.399  1.00  0.00     0.031 C 
ATOM     52  C   UNL A   1      45.341  28.922  31.950  1.00  0.00     0.029 A 
ATOM     53  C   UNL A   1      44.375  29.928  32.017  1.00  0.00     0.049 A 
ATOM     54  H   UNL A   1      44.307  31.630  30.791  1.00  0.00     0.167 HD
ATOM     55  C   UNL A   1      42.203  30.975  32.665  1.00  0.00     0.074 A 
ATOM     56  C   UNL A   1      42.022  32.046  31.694  1.00  0.00     0.031 C 
ATOM     57  C   UNL A   1      43.233  30.108  32.892  1.00  0.00     0.037 A 
BRANCH  44  58
ATOM     58  C   UNL A   1      45.217  31.561  27.958  1.00  0.00     0.058 A 
ATOM     59  C   UNL A   1      46.514  31.843  27.482  1.00  0.00     0.135 A 
ATOM     60  C   UNL A   1      44.348  32.671  28.058  1.00  0.00     0.135 A 
ATOM     61  F   UNL A   1      47.426  30.865  27.366  1.00  0.00    -0.206 F 
ATOM     62  C   UNL A   1      46.934  33.141  27.191  1.00  0.00     0.059 A 
ATOM     63  C   UNL A   1      44.728  33.962  27.716  1.00  0.00     0.059 A 
ATOM     64  F   UNL A   1      43.126  32.577  28.594  1.00  0.00    -0.206 F 
ATOM     65  C   UNL A   1      46.034  34.195  27.324  1.00  0.00     0.060 A 
BRANCH  65  66
ATOM     66  S   UNL A   1      46.597  35.884  27.053  1.00  0.00     0.124 S 
ATOM     67  O   UNL A   1      47.960  35.821  27.567  1.00  0.00    -0.237 OA
ATOM     68  O   UNL A   1      46.462  36.020  25.607  1.00  0.00    -0.237 OA
ATOM     69  O   UNL A   1      45.660  36.679  27.841  1.00  0.00    -0.744 OA
ENDBRANCH  65  66
ENDBRANCH  44  58
BRANCH  45  70
ATOM     70  C   UNL A   1      37.548  31.436  31.933  1.00  0.00     0.058 A 
ATOM     71  C   UNL A   1      36.972  31.827  33.153  1.00  0.00     0.135 A 
ATOM     72  C   UNL A   1      37.028  32.047  30.774  1.00  0.00     0.135 A 
ATOM     73  F   UNL A   1      37.424  31.313  34.307  1.00  0.00    -0.206 F 
ATOM     74  C   UNL A   1      35.969  32.799  33.226  1.00  0.00     0.059 A 
ATOM     75  C   UNL A   1      36.023  33.012  30.820  1.00  0.00     0.059 A 
ATOM     76  F   UNL A   1      37.550  31.790  29.565  1.00  0.00    -0.206 F 
ATOM     77  C   UNL A   1      35.515  33.401  32.053  1.00  0.00     0.060 A 
BRANCH  77  78
ATOM     78  S   UNL A   1      34.343  34.775  32.156  1.00  0.00     0.124 S 
ATOM     79  O   UNL A   1      33.214  34.158  32.845  1.00  0.00    -0.237 OA
ATOM     80  O   UNL A   1      35.095  35.764  32.923  1.00  0.00    -0.237 OA
ATOM     81  O   UNL A   1      34.106  35.124  30.758  1.00  0.00    -0.744 OA
ENDBRANCH  77  78
ENDBRANCH  45  70
BRANCH  57  82
ATOM     82  C   UNL A   1      43.079  29.132  34.027  1.00  0.00     0.058 A 
ATOM     83  C   UNL A   1      43.319  29.429  35.380  1.00  0.00     0.135 A 
ATOM     84  C   UNL A   1      42.553  27.864  33.730  1.00  0.00     0.135 A 
ATOM     85  F   UNL A   1      43.732  30.648  35.754  1.00  0.00    -0.206 F 
ATOM     86  C   UNL A   1      43.082  28.493  36.387  1.00  0.00     0.059 A 
ATOM     87  C   UNL A   1      42.279  26.928  34.722  1.00  0.00     0.059 A 
ATOM     88  F   UNL A   1      42.252  27.541  32.462  1.00  0.00    -0.206 F 
ATOM     89  C   UNL A   1      42.560  27.244  36.048  1.00  0.00     0.060 A 
BRANCH  89  90
ATOM     90  S   UNL A   1      42.178  26.062  37.360  1.00  0.00     0.124 S 
ATOM     91  O   UNL A   1      40.771  26.342  37.624  1.00  0.00    -0.237 OA
ATOM     92  O   UNL A   1      42.463  24.779  36.725  1.00  0.00    -0.237 OA
ATOM     93  O   UNL A   1      43.100  26.434  38.431  1.00  0.00    -0.744 OA
ENDBRANCH  89  90
ENDBRANCH  57  82
ENDBRANCH  31  32
ENDBRANCH  24  26
ENDBRANCH  23  24
ENDBRANCH  22  23
ENDBRANCH   1  22
TORSDOF 17
ENDMDL
MODEL 3
REMARK VINA RESULT:     -11.9      4.236      7.058
REMARK SMILES CCCn1ncc(C(=O)N2CCC(C(=O)OCCOC(=O)c3ccc(-c4c5nc(c(-c6c(F)cc(S(=O)(=O)[O-])cc6F)c6ccc([nH]6)c(-c6c(F)cc(S(=O)(=O)[O-])cc6F)c6nc(c(-c7c(F)cc(S(=O)(=O)[O-])cc7F)c7ccc4[nH]7)C=C6)C=C5)cc3)CC2)c1C
REMARK SMILES IDX 17 1 16 2 14 3 15 4 13 5 8 6 9 7 10 8 11 9 89 10 12 11 88 12
REMARK SMILES IDX 7 13 4 14 5 15 90 16 6 17 91 18 3 19 2 20 1 21 18 22 19 23
REMARK SMILES IDX 20 24 21 25 22 26 23 27 87 28 24 29 86 30 25 31 26 32 27 33
REMARK SMILES IDX 80 34 28 35 85 36 79 37 81 38 29 39 84 40 78 41 77 42 30 44
REMARK SMILES IDX 64 45 43 46 63 47 44 48 47 49 62 50 82 51 45 52 46 53 61 55
REMARK SMILES IDX 83 56 48 57 31 58 32 59 41 60 33 61 34 62 40 63 42 64 35 65
REMARK SMILES IDX 36 66 37 67 38 68 39 69 65 70 66 71 75 72 67 73 68 74 74 75
REMARK SMILES IDX 76 76 69 77 70 78 71 79 72 80 73 81 49 82 50 83 59 84 51 85
REMARK SMILES IDX 52 86 58 87 60 88 53 89 54 90 55 91 56 92 57 93
REMARK H PARENT 81 43 47 54
REMARK Flexibility Score: inf
ROOT
ATOM      1  C   UNL A   1      42.170  19.348  26.386  1.00  0.00     0.274 C 
ENDROOT
BRANCH   1   2
ATOM      2  O   UNL A   1      42.705  19.544  25.065  1.00  0.00    -0.462 OA
BRANCH   2   3
ATOM      3  C   UNL A   1      44.041  19.333  24.923  1.00  0.00     0.309 C 
ATOM      4  O   UNL A   1      44.594  18.245  25.041  1.00  0.00    -0.252 OA
BRANCH   3   5
ATOM      5  C   UNL A   1      44.816  20.615  24.697  1.00  0.00     0.103 C 
ATOM      6  C   UNL A   1      44.679  24.594  25.561  1.00  0.00     0.257 C 
ATOM      7  O   UNL A   1      43.579  24.981  25.163  1.00  0.00    -0.269 OA
ATOM      8  N   UNL A   1      45.256  23.423  25.093  1.00  0.00    -0.338 N 
ATOM      9  C   UNL A   1      44.894  22.953  23.767  1.00  0.00     0.120 C 
ATOM     10  C   UNL A   1      45.990  22.476  25.925  1.00  0.00     0.120 C 
ATOM     11  C   UNL A   1      44.096  21.667  23.843  1.00  0.00     0.037 C 
ATOM     12  C   UNL A   1      45.204  21.178  26.065  1.00  0.00     0.037 C 
BRANCH   6  13
ATOM     13  C   UNL A   1      45.480  25.411  26.461  1.00  0.00     0.080 A 
ATOM     14  N   UNL A   1      47.056  26.726  27.260  1.00  0.00    -0.269 N 
ATOM     15  N   UNL A   1      46.461  26.224  28.359  1.00  0.00    -0.180 NA
ATOM     16  C   UNL A   1      46.430  26.356  26.093  1.00  0.00     0.048 A 
ATOM     17  C   UNL A   1      45.578  25.358  27.868  1.00  0.00     0.149 A 
ATOM     18  C   UNL A   1      46.792  26.853  24.738  1.00  0.00     0.067 C 
BRANCH  14  19
ATOM     19  C   UNL A   1      48.255  27.530  27.417  1.00  0.00     0.144 C 
BRANCH  19  20
ATOM     20  C   UNL A   1      49.374  26.871  28.232  1.00  0.00     0.020 C 
ATOM     21  C   UNL A   1      50.082  25.750  27.480  1.00  0.00     0.006 C 
ENDBRANCH  19  20
ENDBRANCH  14  19
ENDBRANCH   6  13
ENDBRANCH   3   5
ENDBRANCH   2   3
ENDBRANCH   1   2
BRANCH   1  22
ATOM     22  C   UNL A   1      40.783  19.962  26.535  1.00  0.00     0.275 C 
BRANCH  22  23
ATOM     23  O   UNL A   1      40.828  21.205  27.237  1.00  0.00    -0.458 OA
BRANCH  23  24
ATOM     24  C   UNL A   1      39.979  22.133  26.745  1.00  0.00     0.338 C 
ATOM     25  O   UNL A   1      38.966  21.919  26.104  1.00  0.00    -0.246 OA
BRANCH  24  26
ATOM     26  C   UNL A   1      40.536  23.476  26.882  1.00  0.00     0.060 A 
ATOM     27  C   UNL A   1      41.631  23.628  27.741  1.00  0.00     0.016 A 
ATOM     28  C   UNL A   1      39.778  24.567  26.441  1.00  0.00     0.016 A 
ATOM     29  C   UNL A   1      41.860  24.867  28.300  1.00  0.00     0.010 A 
ATOM     30  C   UNL A   1      39.997  25.796  27.014  1.00  0.00     0.010 A 
ATOM     31  C   UNL A   1      40.986  25.914  27.988  1.00  0.00    -0.014 A 
BRANCH  31  32
ATOM     32  C   UNL A   1      41.180  27.181  28.658  1.00  0.00     0.031 A 
ATOM     33  C   UNL A   1      42.340  27.938  28.149  1.00  0.00     0.074 A 
ATOM     34  C   UNL A   1      40.308  27.667  29.561  1.00  0.00     0.049 A 
ATOM     35  N   UNL A   1      43.455  28.179  28.750  1.00  0.00    -0.248 NA
ATOM     36  C   UNL A   1      42.322  28.327  26.730  1.00  0.00     0.031 C 
ATOM     37  C   UNL A   1      38.983  27.140  29.902  1.00  0.00     0.029 A 
ATOM     38  N   UNL A   1      40.386  28.812  30.290  1.00  0.00    -0.354 N 
ATOM     39  C   UNL A   1      44.193  28.953  27.860  1.00  0.00     0.074 A 
ATOM     40  C   UNL A   1      43.545  28.836  26.581  1.00  0.00     0.031 C 
ATOM     41  C   UNL A   1      38.301  28.076  30.601  1.00  0.00     0.029 A 
ATOM     42  C   UNL A   1      39.185  29.198  30.870  1.00  0.00     0.049 A 
ATOM     43  H   UNL A   1      41.220  29.322  30.398  1.00  0.00     0.167 HD
ATOM     44  C   UNL A   1      45.117  29.847  28.303  1.00  0.00     0.037 A 
ATOM     45  C   UNL A   1      38.932  30.386  31.471  1.00  0.00     0.037 A 
ATOM     46  C   UNL A   1      45.438  29.626  29.688  1.00  0.00     0.049 A 
ATOM     47  C   UNL A   1      40.237  30.976  31.858  1.00  0.00     0.074 A 
ATOM     48  C   UNL A   1      46.072  28.638  30.409  1.00  0.00     0.029 A 
ATOM     49  N   UNL A   1      44.733  30.387  30.587  1.00  0.00    -0.354 N 
ATOM     50  N   UNL A   1      41.029  30.465  32.761  1.00  0.00    -0.248 NA
ATOM     51  C   UNL A   1      40.862  31.948  30.970  1.00  0.00     0.031 C 
ATOM     52  C   UNL A   1      45.455  28.644  31.695  1.00  0.00     0.029 A 
ATOM     53  C   UNL A   1      44.489  29.652  31.717  1.00  0.00     0.049 A 
ATOM     54  H   UNL A   1      44.445  31.318  30.441  1.00  0.00     0.167 HD
ATOM     55  C   UNL A   1      42.309  30.720  32.298  1.00  0.00     0.074 A 
ATOM     56  C   UNL A   1      42.145  31.761  31.292  1.00  0.00     0.031 C 
ATOM     57  C   UNL A   1      43.333  29.858  32.566  1.00  0.00     0.037 A 
BRANCH  44  58
ATOM     58  C   UNL A   1      45.403  31.165  27.626  1.00  0.00     0.058 A 
ATOM     59  C   UNL A   1      46.696  31.412  27.122  1.00  0.00     0.135 A 
ATOM     60  C   UNL A   1      44.556  32.293  27.719  1.00  0.00     0.135 A 
ATOM     61  F   UNL A   1      47.587  30.415  27.010  1.00  0.00    -0.206 F 
ATOM     62  C   UNL A   1      47.134  32.696  26.794  1.00  0.00     0.059 A 
ATOM     63  C   UNL A   1      44.954  33.570  27.342  1.00  0.00     0.059 A 
ATOM     64  F   UNL A   1      43.343  32.234  28.279  1.00  0.00    -0.206 F 
ATOM     65  C   UNL A   1      46.256  33.770  26.921  1.00  0.00     0.060 A 
BRANCH  65  66
ATOM     66  S   UNL A   1      46.846  35.441  26.603  1.00  0.00     0.124 S 
ATOM     67  O   UNL A   1      45.591  36.171  26.471  1.00  0.00    -0.237 OA
ATOM     68  O   UNL A   1      47.627  35.720  27.803  1.00  0.00    -0.237 OA
ATOM     69  O   UNL A   1      47.623  35.293  25.376  1.00  0.00    -0.744 OA
ENDBRANCH  65  66
ENDBRANCH  44  58
BRANCH  45  70
ATOM     70  C   UNL A   1      37.667  31.163  31.473  1.00  0.00     0.058 A 
ATOM     71  C   UNL A   1      36.940  31.375  32.656  1.00  0.00     0.135 A 
ATOM     72  C   UNL A   1      37.295  31.948  30.363  1.00  0.00     0.135 A 
ATOM     73  F   UNL A   1      37.245  30.689  33.768  1.00  0.00    -0.206 F 
ATOM     74  C   UNL A   1      35.931  32.340  32.747  1.00  0.00     0.059 A 
ATOM     75  C   UNL A   1      36.287  32.909  30.426  1.00  0.00     0.059 A 
ATOM     76  F   UNL A   1      37.966  31.866  29.204  1.00  0.00    -0.206 F 
ATOM     77  C   UNL A   1      35.625  33.117  31.630  1.00  0.00     0.060 A 
BRANCH  77  78
ATOM     78  S   UNL A   1      34.443  34.476  31.789  1.00  0.00     0.124 S 
ATOM     79  O   UNL A   1      35.250  35.501  32.445  1.00  0.00    -0.237 OA
ATOM     80  O   UNL A   1      34.085  34.738  30.399  1.00  0.00    -0.237 OA
ATOM     81  O   UNL A   1      33.377  33.904  32.607  1.00  0.00    -0.744 OA
ENDBRANCH  77  78
ENDBRANCH  45  70
BRANCH  57  82
ATOM     82  C   UNL A   1      43.159  28.915  33.727  1.00  0.00     0.058 A 
ATOM     83  C   UNL A   1      43.430  29.235  35.068  1.00  0.00     0.135 A 
ATOM     84  C   UNL A   1      42.580  27.663  33.468  1.00  0.00     0.135 A 
ATOM     85  F   UNL A   1      43.896  30.445  35.407  1.00  0.00    -0.206 F 
ATOM     86  C   UNL A   1      43.173  28.333  36.101  1.00  0.00     0.059 A 
ATOM     87  C   UNL A   1      42.285  26.762  34.485  1.00  0.00     0.059 A 
ATOM     88  F   UNL A   1      42.248  27.322  32.212  1.00  0.00    -0.206 F 
ATOM     89  C   UNL A   1      42.597  27.097  35.800  1.00  0.00     0.060 A 
BRANCH  89  90
ATOM     90  S   UNL A   1      42.190  25.962  37.144  1.00  0.00     0.124 S 
ATOM     91  O   UNL A   1      42.570  24.671  36.581  1.00  0.00    -0.237 OA
ATOM     92  O   UNL A   1      43.025  26.450  38.237  1.00  0.00    -0.237 OA
ATOM     93  O   UNL A   1      40.754  26.161  37.334  1.00  0.00    -0.744 OA
ENDBRANCH  89  90
ENDBRANCH  57  82
ENDBRANCH  31  32
ENDBRANCH  24  26
ENDBRANCH  23  24
ENDBRANCH  22  23
ENDBRANCH   1  22
TORSDOF 17
ENDMDL
