MODEL 1
REMARK VINA RESULT:     -10.3      0.000      0.000
REMARK SMILES CC(C)N(CC(=O)OCCOC(=O)c1ccc(-c2c3nc(c(-c4c(F)cc(S(=O)(=O)[O-])cc4F)c4ccc([nH]4)c(-c4c(F)cc(S(=O)(=O)[O-])cc4F)c4nc(c(-c5c(F)cc(S(=O)(=O)[O-])cc5F)c5ccc2[nH]5)C=C4)C=C3)cc1)C(=O)NC1C(C)(C)C1(C)C
REMARK SMILES IDX 9 1 8 2 6 3 7 4 5 5 4 6 2 7 1 8 3 9 80 10 81 11 82 12 83 14
REMARK SMILES IDX 84 15 87 16 85 17 86 18 88 19 89 20 10 21 11 22 12 23 13 24
REMARK SMILES IDX 14 25 15 26 79 27 16 28 78 29 17 30 18 31 19 32 72 33 20 34
REMARK SMILES IDX 77 35 71 36 73 37 21 38 76 39 70 40 69 41 22 43 56 44 35 45
REMARK SMILES IDX 55 46 36 47 39 48 54 49 74 50 37 51 38 52 53 54 75 55 40 56
REMARK SMILES IDX 23 57 24 58 33 59 25 60 26 61 32 62 34 63 27 64 28 65 29 66
REMARK SMILES IDX 30 67 31 68 57 69 58 70 67 71 59 72 60 73 66 74 68 75 61 76
REMARK SMILES IDX 62 77 63 78 64 79 65 80 41 81 42 82 51 83 43 84 44 85 50 86
REMARK SMILES IDX 52 87 45 88 46 89 47 90 48 91 49 92
REMARK H PARENT 82 13 73 42 39 53
REMARK Flexibility Score: inf
ROOT
ATOM      1  C   UNL A   1      32.304  28.499  24.972  1.00  0.00     0.274 C 
ENDROOT
BRANCH   1   2
ATOM      2  O   UNL A   1      31.784  28.809  23.657  1.00  0.00    -0.461 OA
BRANCH   2   3
ATOM      3  C   UNL A   1      30.781  27.986  23.225  1.00  0.00     0.325 C 
ATOM      4  O   UNL A   1      29.596  28.220  23.403  1.00  0.00    -0.250 OA
BRANCH   3   5
ATOM      5  C   UNL A   1      31.267  26.854  22.286  1.00  0.00     0.244 C 
BRANCH   5   6
ATOM      6  N   UNL A   1      31.940  25.686  22.853  1.00  0.00    -0.311 N 
BRANCH   6   7
ATOM      7  C   UNL A   1      31.028  24.952  23.775  1.00  0.00     0.081 C 
ATOM      8  C   UNL A   1      30.801  23.498  23.327  1.00  0.00     0.031 C 
ATOM      9  C   UNL A   1      31.387  25.036  25.258  1.00  0.00     0.031 C 
ENDBRANCH   6   7
BRANCH   6  10
ATOM     10  C   UNL A   1      33.056  25.048  22.375  1.00  0.00     0.318 C 
ATOM     11  O   UNL A   1      33.125  24.779  21.164  1.00  0.00    -0.249 OA
ATOM     12  N   UNL A   1      34.175  24.651  23.025  1.00  0.00    -0.334 N 
ATOM     13  H   UNL A   1      34.865  24.449  22.353  1.00  0.00     0.165 HD
BRANCH  12  14
ATOM     14  C   UNL A   1      34.738  24.413  24.337  1.00  0.00     0.096 C 
ATOM     15  C   UNL A   1      34.585  23.027  25.030  1.00  0.00    -0.007 C 
ATOM     16  C   UNL A   1      35.963  23.477  24.558  1.00  0.00    -0.007 C 
ATOM     17  C   UNL A   1      34.371  22.889  26.532  1.00  0.00     0.014 C 
ATOM     18  C   UNL A   1      33.876  21.910  24.302  1.00  0.00     0.014 C 
ATOM     19  C   UNL A   1      36.652  22.851  23.372  1.00  0.00     0.014 C 
ATOM     20  C   UNL A   1      36.994  23.755  25.648  1.00  0.00     0.014 C 
ENDBRANCH  12  14
ENDBRANCH   6  10
ENDBRANCH   5   6
ENDBRANCH   3   5
ENDBRANCH   2   3
ENDBRANCH   1   2
BRANCH   1  21
ATOM     21  C   UNL A   1      33.248  29.587  25.548  1.00  0.00     0.275 C 
BRANCH  21  22
ATOM     22  O   UNL A   1      34.114  29.170  26.654  1.00  0.00    -0.458 OA
BRANCH  22  23
ATOM     23  C   UNL A   1      34.566  30.229  27.329  1.00  0.00     0.338 C 
ATOM     24  O   UNL A   1      33.928  31.303  27.303  1.00  0.00    -0.246 OA
BRANCH  23  25
ATOM     25  C   UNL A   1      35.825  30.318  28.073  1.00  0.00     0.060 A 
ATOM     26  C   UNL A   1      37.051  30.344  27.384  1.00  0.00     0.016 A 
ATOM     27  C   UNL A   1      35.785  29.729  29.340  1.00  0.00     0.016 A 
ATOM     28  C   UNL A   1      38.211  29.775  27.957  1.00  0.00     0.010 A 
ATOM     29  C   UNL A   1      36.920  29.115  29.884  1.00  0.00     0.010 A 
ATOM     30  C   UNL A   1      38.154  29.140  29.213  1.00  0.00    -0.014 A 
BRANCH  30  31
ATOM     31  C   UNL A   1      39.373  28.908  30.045  1.00  0.00     0.031 A 
ATOM     32  C   UNL A   1      39.893  29.810  31.139  1.00  0.00     0.074 A 
ATOM     33  C   UNL A   1      40.158  27.919  29.572  1.00  0.00     0.049 A 
ATOM     34  N   UNL A   1      40.998  29.686  31.839  1.00  0.00    -0.248 NA
ATOM     35  C   UNL A   1      39.112  31.006  31.480  1.00  0.00     0.031 C 
ATOM     36  C   UNL A   1      39.821  27.076  28.416  1.00  0.00     0.029 A 
ATOM     37  N   UNL A   1      41.414  27.511  29.924  1.00  0.00    -0.354 N 
ATOM     38  C   UNL A   1      41.046  30.770  32.714  1.00  0.00     0.074 A 
ATOM     39  C   UNL A   1      39.866  31.567  32.426  1.00  0.00     0.031 C 
ATOM     40  C   UNL A   1      40.871  26.313  28.106  1.00  0.00     0.029 A 
ATOM     41  C   UNL A   1      41.929  26.567  29.070  1.00  0.00     0.049 A 
ATOM     42  H   UNL A   1      41.898  27.857  30.707  1.00  0.00     0.167 HD
ATOM     43  C   UNL A   1      41.980  31.058  33.663  1.00  0.00     0.037 A 
ATOM     44  C   UNL A   1      43.115  25.940  29.064  1.00  0.00     0.037 A 
ATOM     45  C   UNL A   1      43.159  30.246  33.912  1.00  0.00     0.049 A 
ATOM     46  C   UNL A   1      44.055  26.173  30.196  1.00  0.00     0.074 A 
ATOM     47  C   UNL A   1      44.105  30.376  34.921  1.00  0.00     0.029 A 
ATOM     48  N   UNL A   1      43.567  29.169  33.138  1.00  0.00    -0.354 N 
ATOM     49  N   UNL A   1      43.994  27.087  31.132  1.00  0.00    -0.248 NA
ATOM     50  C   UNL A   1      45.181  25.244  30.317  1.00  0.00     0.031 C 
ATOM     51  C   UNL A   1      45.097  29.405  34.734  1.00  0.00     0.029 A 
ATOM     52  C   UNL A   1      44.747  28.633  33.640  1.00  0.00     0.049 A 
ATOM     53  H   UNL A   1      43.089  28.832  32.347  1.00  0.00     0.167 HD
ATOM     54  C   UNL A   1      45.058  26.821  31.981  1.00  0.00     0.074 A 
ATOM     55  C   UNL A   1      45.735  25.653  31.450  1.00  0.00     0.031 C 
ATOM     56  C   UNL A   1      45.428  27.481  33.105  1.00  0.00     0.037 A 
BRANCH  43  57
ATOM     57  C   UNL A   1      41.784  32.264  34.561  1.00  0.00     0.058 A 
ATOM     58  C   UNL A   1      42.153  33.554  34.143  1.00  0.00     0.135 A 
ATOM     59  C   UNL A   1      41.071  32.164  35.773  1.00  0.00     0.135 A 
ATOM     60  F   UNL A   1      42.821  33.723  32.992  1.00  0.00    -0.206 F 
ATOM     61  C   UNL A   1      41.837  34.689  34.889  1.00  0.00     0.059 A 
ATOM     62  C   UNL A   1      40.722  33.290  36.523  1.00  0.00     0.059 A 
ATOM     63  F   UNL A   1      40.668  30.965  36.222  1.00  0.00    -0.206 F 
ATOM     64  C   UNL A   1      41.115  34.550  36.076  1.00  0.00     0.060 A 
BRANCH  64  65
ATOM     65  S   UNL A   1      40.671  36.039  37.001  1.00  0.00     0.124 S 
ATOM     66  O   UNL A   1      41.985  36.582  37.329  1.00  0.00    -0.237 OA
ATOM     67  O   UNL A   1      39.900  36.799  36.021  1.00  0.00    -0.237 OA
ATOM     68  O   UNL A   1      39.905  35.524  38.132  1.00  0.00    -0.744 OA
ENDBRANCH  64  65
ENDBRANCH  43  57
BRANCH  44  69
ATOM     69  C   UNL A   1      43.361  24.916  28.024  1.00  0.00     0.058 A 
ATOM     70  C   UNL A   1      44.113  25.242  26.888  1.00  0.00     0.135 A 
ATOM     71  C   UNL A   1      42.974  23.581  28.207  1.00  0.00     0.135 A 
ATOM     72  F   UNL A   1      44.533  26.501  26.700  1.00  0.00    -0.206 F 
ATOM     73  C   UNL A   1      44.452  24.280  25.948  1.00  0.00     0.059 A 
ATOM     74  C   UNL A   1      43.320  22.597  27.289  1.00  0.00     0.059 A 
ATOM     75  F   UNL A   1      42.307  23.219  29.314  1.00  0.00    -0.206 F 
ATOM     76  C   UNL A   1      44.050  22.960  26.157  1.00  0.00     0.060 A 
BRANCH  76  77
ATOM     77  S   UNL A   1      44.544  21.713  24.951  1.00  0.00     0.124 S 
ATOM     78  O   UNL A   1      45.928  21.468  25.341  1.00  0.00    -0.237 OA
ATOM     79  O   UNL A   1      43.603  20.631  25.222  1.00  0.00    -0.237 OA
ATOM     80  O   UNL A   1      44.357  22.392  23.673  1.00  0.00    -0.744 OA
ENDBRANCH  76  77
ENDBRANCH  44  69
BRANCH  56  81
ATOM     81  C   UNL A   1      46.614  26.931  33.846  1.00  0.00     0.058 A 
ATOM     82  C   UNL A   1      47.924  27.343  33.552  1.00  0.00     0.135 A 
ATOM     83  C   UNL A   1      46.441  25.962  34.846  1.00  0.00     0.135 A 
ATOM     84  F   UNL A   1      48.146  28.257  32.592  1.00  0.00    -0.206 F 
ATOM     85  C   UNL A   1      49.024  26.785  34.194  1.00  0.00     0.059 A 
ATOM     86  C   UNL A   1      47.525  25.409  35.521  1.00  0.00     0.059 A 
ATOM     87  F   UNL A   1      45.210  25.534  35.168  1.00  0.00    -0.206 F 
ATOM     88  C   UNL A   1      48.814  25.813  35.174  1.00  0.00     0.060 A 
BRANCH  88  89
ATOM     89  S   UNL A   1      50.248  25.092  36.000  1.00  0.00     0.124 S 
ATOM     90  O   UNL A   1      50.040  23.668  35.761  1.00  0.00    -0.237 OA
ATOM     91  O   UNL A   1      51.364  25.699  35.280  1.00  0.00    -0.237 OA
ATOM     92  O   UNL A   1      50.094  25.526  37.386  1.00  0.00    -0.744 OA
ENDBRANCH  88  89
ENDBRANCH  56  81
ENDBRANCH  30  31
ENDBRANCH  23  25
ENDBRANCH  22  23
ENDBRANCH  21  22
ENDBRANCH   1  21
TORSDOF 18
ENDMDL
MODEL 2
REMARK VINA RESULT:     -10.2      4.936      6.270
REMARK SMILES CC(C)N(CC(=O)OCCOC(=O)c1ccc(-c2c3nc(c(-c4c(F)cc(S(=O)(=O)[O-])cc4F)c4ccc([nH]4)c(-c4c(F)cc(S(=O)(=O)[O-])cc4F)c4nc(c(-c5c(F)cc(S(=O)(=O)[O-])cc5F)c5ccc2[nH]5)C=C4)C=C3)cc1)C(=O)NC1C(C)(C)C1(C)C
REMARK SMILES IDX 9 1 8 2 6 3 7 4 5 5 4 6 2 7 1 8 3 9 80 10 81 11 82 12 83 14
REMARK SMILES IDX 84 15 87 16 85 17 86 18 88 19 89 20 10 21 11 22 12 23 13 24
REMARK SMILES IDX 14 25 15 26 79 27 16 28 78 29 17 30 18 31 19 32 72 33 20 34
REMARK SMILES IDX 77 35 71 36 73 37 21 38 76 39 70 40 69 41 22 43 56 44 35 45
REMARK SMILES IDX 55 46 36 47 39 48 54 49 74 50 37 51 38 52 53 54 75 55 40 56
REMARK SMILES IDX 23 57 24 58 33 59 25 60 26 61 32 62 34 63 27 64 28 65 29 66
REMARK SMILES IDX 30 67 31 68 57 69 58 70 67 71 59 72 60 73 66 74 68 75 61 76
REMARK SMILES IDX 62 77 63 78 64 79 65 80 41 81 42 82 51 83 43 84 44 85 50 86
REMARK SMILES IDX 52 87 45 88 46 89 47 90 48 91 49 92
REMARK H PARENT 82 13 73 42 39 53
REMARK Flexibility Score: inf
ROOT
ATOM      1  C   UNL A   1      33.804  30.596  27.483  1.00  0.00     0.274 C 
ENDROOT
BRANCH   1   2
ATOM      2  O   UNL A   1      32.627  29.770  27.312  1.00  0.00    -0.461 OA
BRANCH   2   3
ATOM      3  C   UNL A   1      32.013  29.887  26.096  1.00  0.00     0.325 C 
ATOM      4  O   UNL A   1      31.400  30.883  25.746  1.00  0.00    -0.250 OA
BRANCH   3   5
ATOM      5  C   UNL A   1      32.362  28.744  25.110  1.00  0.00     0.244 C 
BRANCH   5   6
ATOM      6  N   UNL A   1      31.476  27.585  25.007  1.00  0.00    -0.311 N 
BRANCH   6   7
ATOM      7  C   UNL A   1      30.976  27.430  23.612  1.00  0.00     0.081 C 
ATOM      8  C   UNL A   1      29.910  28.481  23.259  1.00  0.00     0.031 C 
ATOM      9  C   UNL A   1      32.055  27.336  22.534  1.00  0.00     0.031 C 
ENDBRANCH   6   7
BRANCH   6  10
ATOM     10  C   UNL A   1      31.385  26.521  25.867  1.00  0.00     0.318 C 
ATOM     11  O   UNL A   1      30.839  26.682  26.972  1.00  0.00    -0.249 OA
ATOM     12  N   UNL A   1      31.791  25.240  25.709  1.00  0.00    -0.334 N 
ATOM     13  H   UNL A   1      31.362  24.693  26.406  1.00  0.00     0.165 HD
BRANCH  12  14
ATOM     14  C   UNL A   1      32.618  24.371  24.898  1.00  0.00     0.096 C 
ATOM     15  C   UNL A   1      32.423  22.827  24.932  1.00  0.00    -0.007 C 
ATOM     16  C   UNL A   1      32.055  23.597  23.669  1.00  0.00    -0.007 C 
ATOM     17  C   UNL A   1      33.596  21.858  24.843  1.00  0.00     0.014 C 
ATOM     18  C   UNL A   1      31.331  22.237  25.791  1.00  0.00     0.014 C 
ATOM     19  C   UNL A   1      30.624  23.807  23.243  1.00  0.00     0.014 C 
ATOM     20  C   UNL A   1      32.911  23.324  22.437  1.00  0.00     0.014 C 
ENDBRANCH  12  14
ENDBRANCH   6  10
ENDBRANCH   5   6
ENDBRANCH   3   5
ENDBRANCH   2   3
ENDBRANCH   1   2
BRANCH   1  21
ATOM     21  C   UNL A   1      35.029  29.835  28.055  1.00  0.00     0.275 C 
BRANCH  21  22
ATOM     22  O   UNL A   1      35.845  30.565  29.028  1.00  0.00    -0.458 OA
BRANCH  22  23
ATOM     23  C   UNL A   1      36.487  29.721  29.839  1.00  0.00     0.338 C 
ATOM     24  O   UNL A   1      35.978  29.401  30.934  1.00  0.00    -0.246 OA
BRANCH  23  25
ATOM     25  C   UNL A   1      37.821  29.153  29.629  1.00  0.00     0.060 A 
ATOM     26  C   UNL A   1      38.680  28.946  30.723  1.00  0.00     0.016 A 
ATOM     27  C   UNL A   1      38.385  29.459  28.387  1.00  0.00     0.016 A 
ATOM     28  C   UNL A   1      40.081  29.060  30.570  1.00  0.00     0.010 A 
ATOM     29  C   UNL A   1      39.768  29.627  28.247  1.00  0.00     0.010 A 
ATOM     30  C   UNL A   1      40.641  29.416  29.327  1.00  0.00    -0.014 A 
BRANCH  30  31
ATOM     31  C   UNL A   1      42.070  29.143  28.990  1.00  0.00     0.031 A 
ATOM     32  C   UNL A   1      43.146  30.176  28.756  1.00  0.00     0.074 A 
ATOM     33  C   UNL A   1      42.298  27.859  28.646  1.00  0.00     0.049 A 
ATOM     34  N   UNL A   1      44.391  29.984  28.381  1.00  0.00    -0.248 NA
ATOM     35  C   UNL A   1      42.796  31.592  28.931  1.00  0.00     0.031 C 
ATOM     36  C   UNL A   1      41.282  26.798  28.689  1.00  0.00     0.029 A 
ATOM     37  N   UNL A   1      43.397  27.243  28.118  1.00  0.00    -0.354 N 
ATOM     38  C   UNL A   1      44.983  31.243  28.288  1.00  0.00     0.074 A 
ATOM     39  C   UNL A   1      43.940  32.199  28.613  1.00  0.00     0.031 C 
ATOM     40  C   UNL A   1      41.778  25.690  28.134  1.00  0.00     0.029 A 
ATOM     41  C   UNL A   1      43.158  25.941  27.752  1.00  0.00     0.049 A 
ATOM     42  H   UNL A   1      44.269  27.686  28.011  1.00  0.00     0.167 HD
ATOM     43  C   UNL A   1      46.271  31.556  27.971  1.00  0.00     0.037 A 
ATOM     44  C   UNL A   1      43.959  25.023  27.192  1.00  0.00     0.037 A 
ATOM     45  C   UNL A   1      47.285  30.572  27.634  1.00  0.00     0.049 A 
ATOM     46  C   UNL A   1      45.397  25.354  26.990  1.00  0.00     0.074 A 
ATOM     47  C   UNL A   1      48.643  30.766  27.413  1.00  0.00     0.029 A 
ATOM     48  N   UNL A   1      47.055  29.216  27.448  1.00  0.00    -0.354 N 
ATOM     49  N   UNL A   1      45.988  26.520  27.086  1.00  0.00    -0.248 NA
ATOM     50  C   UNL A   1      46.292  24.237  26.680  1.00  0.00     0.031 C 
ATOM     51  C   UNL A   1      49.220  29.539  27.060  1.00  0.00     0.029 A 
ATOM     52  C   UNL A   1      48.236  28.567  27.111  1.00  0.00     0.049 A 
ATOM     53  H   UNL A   1      46.179  28.777  27.542  1.00  0.00     0.167 HD
ATOM     54  C   UNL A   1      47.337  26.271  26.884  1.00  0.00     0.074 A 
ATOM     55  C   UNL A   1      47.472  24.842  26.673  1.00  0.00     0.031 C 
ATOM     56  C   UNL A   1      48.369  27.149  26.887  1.00  0.00     0.037 A 
BRANCH  43  57
ATOM     57  C   UNL A   1      46.716  33.005  28.008  1.00  0.00     0.058 A 
ATOM     58  C   UNL A   1      46.436  33.883  26.947  1.00  0.00     0.135 A 
ATOM     59  C   UNL A   1      47.274  33.568  29.173  1.00  0.00     0.135 A 
ATOM     60  F   UNL A   1      45.892  33.416  25.813  1.00  0.00    -0.206 F 
ATOM     61  C   UNL A   1      46.699  35.250  27.033  1.00  0.00     0.059 A 
ATOM     62  C   UNL A   1      47.521  34.938  29.290  1.00  0.00     0.059 A 
ATOM     63  F   UNL A   1      47.547  32.792  30.234  1.00  0.00    -0.206 F 
ATOM     64  C   UNL A   1      47.236  35.772  28.210  1.00  0.00     0.060 A 
BRANCH  64  65
ATOM     65  S   UNL A   1      47.520  37.555  28.319  1.00  0.00     0.124 S 
ATOM     66  O   UNL A   1      48.577  37.743  27.331  1.00  0.00    -0.237 OA
ATOM     67  O   UNL A   1      46.215  38.103  27.960  1.00  0.00    -0.237 OA
ATOM     68  O   UNL A   1      47.918  37.754  29.709  1.00  0.00    -0.744 OA
ENDBRANCH  64  65
ENDBRANCH  43  57
BRANCH  44  69
ATOM     69  C   UNL A   1      43.416  23.666  26.960  1.00  0.00     0.058 A 
ATOM     70  C   UNL A   1      43.180  23.221  25.652  1.00  0.00     0.135 A 
ATOM     71  C   UNL A   1      43.254  22.754  28.013  1.00  0.00     0.135 A 
ATOM     72  F   UNL A   1      43.362  24.056  24.618  1.00  0.00    -0.206 F 
ATOM     73  C   UNL A   1      42.773  21.921  25.395  1.00  0.00     0.059 A 
ATOM     74  C   UNL A   1      42.867  21.441  27.777  1.00  0.00     0.059 A 
ATOM     75  F   UNL A   1      43.531  23.124  29.273  1.00  0.00    -0.206 F 
ATOM     76  C   UNL A   1      42.619  21.038  26.465  1.00  0.00     0.060 A 
BRANCH  76  77
ATOM     77  S   UNL A   1      42.139  19.336  26.107  1.00  0.00     0.124 S 
ATOM     78  O   UNL A   1      40.721  19.495  25.801  1.00  0.00    -0.237 OA
ATOM     79  O   UNL A   1      43.003  19.002  24.979  1.00  0.00    -0.237 OA
ATOM     80  O   UNL A   1      42.443  18.635  27.350  1.00  0.00    -0.744 OA
ENDBRANCH  76  77
ENDBRANCH  44  69
BRANCH  56  81
ATOM     81  C   UNL A   1      49.741  26.574  26.675  1.00  0.00     0.058 A 
ATOM     82  C   UNL A   1      50.569  26.224  27.754  1.00  0.00     0.135 A 
ATOM     83  C   UNL A   1      50.243  26.393  25.377  1.00  0.00     0.135 A 
ATOM     84  F   UNL A   1      50.141  26.392  29.017  1.00  0.00    -0.206 F 
ATOM     85  C   UNL A   1      51.862  25.754  27.556  1.00  0.00     0.059 A 
ATOM     86  C   UNL A   1      51.524  25.898  25.154  1.00  0.00     0.059 A 
ATOM     87  F   UNL A   1      49.492  26.709  24.311  1.00  0.00    -0.206 F 
ATOM     88  C   UNL A   1      52.333  25.599  26.250  1.00  0.00     0.060 A 
BRANCH  88  89
ATOM     89  S   UNL A   1      54.014  24.990  26.003  1.00  0.00     0.124 S 
ATOM     90  O   UNL A   1      54.565  26.003  25.109  1.00  0.00    -0.237 OA
ATOM     91  O   UNL A   1      54.550  24.985  27.361  1.00  0.00    -0.237 OA
ATOM     92  O   UNL A   1      53.813  23.671  25.410  1.00  0.00    -0.744 OA
ENDBRANCH  88  89
ENDBRANCH  56  81
ENDBRANCH  30  31
ENDBRANCH  23  25
ENDBRANCH  22  23
ENDBRANCH  21  22
ENDBRANCH   1  21
TORSDOF 18
ENDMDL
MODEL 3
REMARK VINA RESULT:     -10.1      3.196      9.384
REMARK SMILES CC(C)N(CC(=O)OCCOC(=O)c1ccc(-c2c3nc(c(-c4c(F)cc(S(=O)(=O)[O-])cc4F)c4ccc([nH]4)c(-c4c(F)cc(S(=O)(=O)[O-])cc4F)c4nc(c(-c5c(F)cc(S(=O)(=O)[O-])cc5F)c5ccc2[nH]5)C=C4)C=C3)cc1)C(=O)NC1C(C)(C)C1(C)C
REMARK SMILES IDX 9 1 8 2 6 3 7 4 5 5 4 6 2 7 1 8 3 9 80 10 81 11 82 12 83 14
REMARK SMILES IDX 84 15 87 16 85 17 86 18 88 19 89 20 10 21 11 22 12 23 13 24
REMARK SMILES IDX 14 25 15 26 79 27 16 28 78 29 17 30 18 31 19 32 72 33 20 34
REMARK SMILES IDX 77 35 71 36 73 37 21 38 76 39 70 40 69 41 22 43 56 44 35 45
REMARK SMILES IDX 55 46 36 47 39 48 54 49 74 50 37 51 38 52 53 54 75 55 40 56
REMARK SMILES IDX 23 57 24 58 33 59 25 60 26 61 32 62 34 63 27 64 28 65 29 66
REMARK SMILES IDX 30 67 31 68 57 69 58 70 67 71 59 72 60 73 66 74 68 75 61 76
REMARK SMILES IDX 62 77 63 78 64 79 65 80 41 81 42 82 51 83 43 84 44 85 50 86
REMARK SMILES IDX 52 87 45 88 46 89 47 90 48 91 49 92
REMARK H PARENT 82 13 73 42 39 53
REMARK Flexibility Score: inf
ROOT
ATOM      1  C   UNL A   1      35.704  22.179  24.590  1.00  0.00     0.274 C 
ENDROOT
BRANCH   1   2
ATOM      2  O   UNL A   1      34.775  21.729  25.606  1.00  0.00    -0.461 OA
BRANCH   2   3
ATOM      3  C   UNL A   1      33.622  21.173  25.125  1.00  0.00     0.325 C 
ATOM      4  O   UNL A   1      33.593  20.138  24.479  1.00  0.00    -0.250 OA
BRANCH   3   5
ATOM      5  C   UNL A   1      32.335  21.839  25.674  1.00  0.00     0.244 C 
BRANCH   5   6
ATOM      6  N   UNL A   1      32.098  23.260  25.424  1.00  0.00    -0.311 N 
BRANCH   6   7
ATOM      7  C   UNL A   1      31.971  23.522  23.962  1.00  0.00     0.081 C 
ATOM      8  C   UNL A   1      30.587  24.080  23.592  1.00  0.00     0.031 C 
ATOM      9  C   UNL A   1      33.098  24.348  23.343  1.00  0.00     0.031 C 
ENDBRANCH   6   7
BRANCH   6  10
ATOM     10  C   UNL A   1      31.636  24.201  26.309  1.00  0.00     0.318 C 
ATOM     11  O   UNL A   1      30.624  23.949  26.984  1.00  0.00    -0.249 OA
ATOM     12  N   UNL A   1      32.130  25.424  26.612  1.00  0.00    -0.334 N 
ATOM     13  H   UNL A   1      31.706  25.728  27.447  1.00  0.00     0.165 HD
BRANCH  12  14
ATOM     14  C   UNL A   1      33.048  26.453  26.170  1.00  0.00     0.096 C 
ATOM     15  C   UNL A   1      32.584  27.563  25.182  1.00  0.00    -0.007 C 
ATOM     16  C   UNL A   1      32.912  27.937  26.623  1.00  0.00    -0.007 C 
ATOM     17  C   UNL A   1      33.495  28.112  24.092  1.00  0.00     0.014 C 
ATOM     18  C   UNL A   1      31.148  27.585  24.715  1.00  0.00     0.014 C 
ATOM     19  C   UNL A   1      31.847  28.324  27.617  1.00  0.00     0.014 C 
ATOM     20  C   UNL A   1      34.136  28.824  26.829  1.00  0.00     0.014 C 
ENDBRANCH  12  14
ENDBRANCH   6  10
ENDBRANCH   5   6
ENDBRANCH   3   5
ENDBRANCH   2   3
ENDBRANCH   1   2
BRANCH   1  21
ATOM     21  C   UNL A   1      37.183  22.209  25.059  1.00  0.00     0.275 C 
BRANCH  21  22
ATOM     22  O   UNL A   1      37.612  23.421  25.762  1.00  0.00    -0.458 OA
BRANCH  22  23
ATOM     23  C   UNL A   1      38.871  23.301  26.190  1.00  0.00     0.338 C 
ATOM     24  O   UNL A   1      39.551  22.307  25.856  1.00  0.00    -0.246 OA
BRANCH  23  25
ATOM     25  C   UNL A   1      39.567  24.199  27.115  1.00  0.00     0.060 A 
ATOM     26  C   UNL A   1      38.958  24.574  28.326  1.00  0.00     0.016 A 
ATOM     27  C   UNL A   1      40.430  25.106  26.494  1.00  0.00     0.016 A 
ATOM     28  C   UNL A   1      39.205  25.846  28.892  1.00  0.00     0.010 A 
ATOM     29  C   UNL A   1      40.631  26.387  27.024  1.00  0.00     0.010 A 
ATOM     30  C   UNL A   1      40.037  26.775  28.236  1.00  0.00    -0.014 A 
BRANCH  30  31
ATOM     31  C   UNL A   1      40.667  27.924  28.951  1.00  0.00     0.031 A 
ATOM     32  C   UNL A   1      41.950  27.887  29.748  1.00  0.00     0.074 A 
ATOM     33  C   UNL A   1      39.854  28.995  29.055  1.00  0.00     0.049 A 
ATOM     34  N   UNL A   1      42.496  28.851  30.456  1.00  0.00    -0.248 NA
ATOM     35  C   UNL A   1      42.702  26.627  29.790  1.00  0.00     0.031 C 
ATOM     36  C   UNL A   1      38.518  29.081  28.447  1.00  0.00     0.029 A 
ATOM     37  N   UNL A   1      39.971  30.159  29.761  1.00  0.00    -0.354 N 
ATOM     38  C   UNL A   1      43.662  28.329  31.015  1.00  0.00     0.074 A 
ATOM     39  C   UNL A   1      43.722  26.942  30.590  1.00  0.00     0.031 C 
ATOM     40  C   UNL A   1      37.911  30.192  28.871  1.00  0.00     0.029 A 
ATOM     41  C   UNL A   1      38.830  30.923  29.728  1.00  0.00     0.049 A 
ATOM     42  H   UNL A   1      40.788  30.422  30.243  1.00  0.00     0.167 HD
ATOM     43  C   UNL A   1      44.585  28.956  31.796  1.00  0.00     0.037 A 
ATOM     44  C   UNL A   1      38.545  32.103  30.299  1.00  0.00     0.037 A 
ATOM     45  C   UNL A   1      44.484  30.343  32.217  1.00  0.00     0.049 A 
ATOM     46  C   UNL A   1      39.624  32.826  31.028  1.00  0.00     0.074 A 
ATOM     47  C   UNL A   1      45.414  31.111  32.906  1.00  0.00     0.029 A 
ATOM     48  N   UNL A   1      43.385  31.164  32.009  1.00  0.00    -0.354 N 
ATOM     49  N   UNL A   1      40.802  32.383  31.392  1.00  0.00    -0.248 NA
ATOM     50  C   UNL A   1      39.368  34.231  31.354  1.00  0.00     0.031 C 
ATOM     51  C   UNL A   1      44.863  32.377  33.144  1.00  0.00     0.029 A 
ATOM     52  C   UNL A   1      43.609  32.420  32.559  1.00  0.00     0.049 A 
ATOM     53  H   UNL A   1      42.563  30.895  31.540  1.00  0.00     0.167 HD
ATOM     54  C   UNL A   1      41.448  33.470  31.962  1.00  0.00     0.074 A 
ATOM     55  C   UNL A   1      40.531  34.591  31.881  1.00  0.00     0.031 C 
ATOM     56  C   UNL A   1      42.693  33.531  32.492  1.00  0.00     0.037 A 
BRANCH  43  57
ATOM     57  C   UNL A   1      45.828  28.204  32.231  1.00  0.00     0.058 A 
ATOM     58  C   UNL A   1      45.822  27.379  33.368  1.00  0.00     0.135 A 
ATOM     59  C   UNL A   1      46.980  28.166  31.420  1.00  0.00     0.135 A 
ATOM     60  F   UNL A   1      44.751  27.354  34.177  1.00  0.00    -0.206 F 
ATOM     61  C   UNL A   1      46.905  26.561  33.691  1.00  0.00     0.059 A 
ATOM     62  C   UNL A   1      48.065  27.335  31.711  1.00  0.00     0.059 A 
ATOM     63  F   UNL A   1      47.047  28.912  30.306  1.00  0.00    -0.206 F 
ATOM     64  C   UNL A   1      48.021  26.539  32.854  1.00  0.00     0.060 A 
BRANCH  64  65
ATOM     65  S   UNL A   1      49.392  25.433  33.264  1.00  0.00     0.124 S 
ATOM     66  O   UNL A   1      50.342  26.357  33.874  1.00  0.00    -0.237 OA
ATOM     67  O   UNL A   1      48.764  24.479  34.174  1.00  0.00    -0.237 OA
ATOM     68  O   UNL A   1      49.790  24.888  31.970  1.00  0.00    -0.744 OA
ENDBRANCH  64  65
ENDBRANCH  43  57
BRANCH  44  69
ATOM     69  C   UNL A   1      37.222  32.709  30.032  1.00  0.00     0.058 A 
ATOM     70  C   UNL A   1      36.166  32.509  30.932  1.00  0.00     0.135 A 
ATOM     71  C   UNL A   1      37.027  33.596  28.963  1.00  0.00     0.135 A 
ATOM     72  F   UNL A   1      36.330  31.697  31.987  1.00  0.00    -0.206 F 
ATOM     73  C   UNL A   1      34.947  33.148  30.767  1.00  0.00     0.059 A 
ATOM     74  C   UNL A   1      35.821  34.263  28.790  1.00  0.00     0.059 A 
ATOM     75  F   UNL A   1      38.034  33.861  28.116  1.00  0.00    -0.206 F 
ATOM     76  C   UNL A   1      34.784  34.023  29.692  1.00  0.00     0.060 A 
BRANCH  76  77
ATOM     77  S   UNL A   1      33.208  34.886  29.523  1.00  0.00     0.124 S 
ATOM     78  O   UNL A   1      32.491  33.999  28.613  1.00  0.00    -0.237 OA
ATOM     79  O   UNL A   1      32.724  34.916  30.899  1.00  0.00    -0.237 OA
ATOM     80  O   UNL A   1      33.594  36.181  28.972  1.00  0.00    -0.744 OA
ENDBRANCH  76  77
ENDBRANCH  44  69
BRANCH  56  81
ATOM     81  C   UNL A   1      43.139  34.871  33.005  1.00  0.00     0.058 A 
ATOM     82  C   UNL A   1      42.966  35.241  34.349  1.00  0.00     0.135 A 
ATOM     83  C   UNL A   1      43.726  35.805  32.138  1.00  0.00     0.135 A 
ATOM     84  F   UNL A   1      42.395  34.389  35.217  1.00  0.00    -0.206 F 
ATOM     85  C   UNL A   1      43.319  36.506  34.807  1.00  0.00     0.059 A 
ATOM     86  C   UNL A   1      44.113  37.067  32.580  1.00  0.00     0.059 A 
ATOM     87  F   UNL A   1      43.916  35.502  30.845  1.00  0.00    -0.206 F 
ATOM     88  C   UNL A   1      43.888  37.414  33.912  1.00  0.00     0.060 A 
BRANCH  88  89
ATOM     89  S   UNL A   1      44.342  39.054  34.515  1.00  0.00     0.124 S 
ATOM     90  O   UNL A   1      44.218  38.881  35.958  1.00  0.00    -0.237 OA
ATOM     91  O   UNL A   1      45.703  39.209  34.010  1.00  0.00    -0.237 OA
ATOM     92  O   UNL A   1      43.348  39.928  33.899  1.00  0.00    -0.744 OA
ENDBRANCH  88  89
ENDBRANCH  56  81
ENDBRANCH  30  31
ENDBRANCH  23  25
ENDBRANCH  22  23
ENDBRANCH  21  22
ENDBRANCH   1  21
TORSDOF 18
ENDMDL
