MODEL 1
REMARK VINA RESULT:      -9.5      0.000      0.000
REMARK SMILES O=C(COC[C@@H]1CCCCO1)OCCOC(=O)c1ccc(-c2c3nc(c(-c4c(F)cc(S(=O)(=O)[O-])cc4F)c4ccc([nH]4)c(-c4c(F)cc(S(=O)(=O)[O-])cc4F)c4nc(c(-c5c(F)cc(S(=O)(=O)[O-])cc5F)c5ccc2[nH]5)C=C4)C=C3)cc1
REMARK SMILES IDX 13 1 12 2 2 3 1 4 3 5 4 6 5 7 6 8 7 9 11 10 8 11 10 12 9 13
REMARK SMILES IDX 14 14 15 15 16 16 17 17 18 18 19 19 83 20 20 21 82 22 21 23
REMARK SMILES IDX 22 24 23 25 76 26 24 27 81 28 75 29 77 30 25 31 80 32 74 33
REMARK SMILES IDX 73 34 26 36 60 37 39 38 59 39 40 40 43 41 58 42 78 43 41 44
REMARK SMILES IDX 42 45 57 47 79 48 44 49 27 50 28 51 37 52 29 53 30 54 36 55
REMARK SMILES IDX 38 56 31 57 32 58 33 59 34 60 35 61 61 62 62 63 71 64 63 65
REMARK SMILES IDX 64 66 70 67 72 68 65 69 66 70 67 71 68 72 69 73 45 74 46 75
REMARK SMILES IDX 55 76 47 77 48 78 54 79 56 80 49 81 50 82 51 83 52 84 53 85
REMARK H PARENT 77 35 43 46
REMARK Flexibility Score: inf
ROOT
ATOM      1  C   UNL A   1      33.467  34.179  28.322  1.00  0.00     0.274 C 
ENDROOT
BRANCH   1   2
ATOM      2  O   UNL A   1      32.850  34.734  29.497  1.00  0.00    -0.460 OA
BRANCH   2   3
ATOM      3  C   UNL A   1      32.882  36.048  29.832  1.00  0.00     0.332 C 
ATOM      4  O   UNL A   1      33.223  36.875  28.989  1.00  0.00    -0.250 OA
BRANCH   3   5
ATOM      5  C   UNL A   1      32.607  36.441  31.294  1.00  0.00     0.282 C 
BRANCH   5   6
ATOM      6  O   UNL A   1      33.636  36.506  32.268  1.00  0.00    -0.367 OA
BRANCH   6   7
ATOM      7  C   UNL A   1      34.085  35.274  32.824  1.00  0.00     0.193 C 
BRANCH   7   8
ATOM      8  C   UNL A   1      35.558  34.884  32.579  1.00  0.00     0.144 C 
ATOM      9  C   UNL A   1      35.817  33.562  31.869  1.00  0.00     0.034 C 
ATOM     10  O   UNL A   1      36.358  34.994  33.767  1.00  0.00    -0.376 OA
ATOM     11  C   UNL A   1      35.768  32.356  32.808  1.00  0.00     0.005 C 
ATOM     12  C   UNL A   1      36.265  33.898  34.674  1.00  0.00     0.160 C 
ATOM     13  C   UNL A   1      36.663  32.593  34.009  1.00  0.00     0.029 C 
ENDBRANCH   7   8
ENDBRANCH   6   7
ENDBRANCH   5   6
ENDBRANCH   3   5
ENDBRANCH   2   3
ENDBRANCH   1   2
BRANCH   1  14
ATOM     14  C   UNL A   1      34.026  32.775  28.567  1.00  0.00     0.275 C 
BRANCH  14  15
ATOM     15  O   UNL A   1      34.261  32.036  27.351  1.00  0.00    -0.458 OA
BRANCH  15  16
ATOM     16  C   UNL A   1      34.332  30.681  27.498  1.00  0.00     0.338 C 
ATOM     17  O   UNL A   1      33.478  29.885  27.160  1.00  0.00    -0.246 OA
BRANCH  16  18
ATOM     18  C   UNL A   1      35.644  30.263  28.066  1.00  0.00     0.060 A 
ATOM     19  C   UNL A   1      35.663  29.741  29.366  1.00  0.00     0.016 A 
ATOM     20  C   UNL A   1      36.850  30.417  27.373  1.00  0.00     0.016 A 
ATOM     21  C   UNL A   1      36.872  29.373  29.973  1.00  0.00     0.010 A 
ATOM     22  C   UNL A   1      38.061  30.048  27.984  1.00  0.00     0.010 A 
ATOM     23  C   UNL A   1      38.088  29.525  29.292  1.00  0.00    -0.014 A 
BRANCH  23  24
ATOM     24  C   UNL A   1      39.386  29.173  29.946  1.00  0.00     0.031 A 
ATOM     25  C   UNL A   1      39.928  30.030  31.048  1.00  0.00     0.074 A 
ATOM     26  C   UNL A   1      40.102  28.097  29.563  1.00  0.00     0.049 A 
ATOM     27  N   UNL A   1      41.016  29.857  31.754  1.00  0.00    -0.248 NA
ATOM     28  C   UNL A   1      39.135  31.207  31.433  1.00  0.00     0.031 C 
ATOM     29  C   UNL A   1      39.670  27.128  28.571  1.00  0.00     0.029 A 
ATOM     30  N   UNL A   1      41.347  27.643  29.926  1.00  0.00    -0.354 N 
ATOM     31  C   UNL A   1      40.999  30.852  32.718  1.00  0.00     0.074 A 
ATOM     32  C   UNL A   1      39.847  31.687  32.443  1.00  0.00     0.031 C 
ATOM     33  C   UNL A   1      40.666  26.271  28.299  1.00  0.00     0.029 A 
ATOM     34  C   UNL A   1      41.797  26.591  29.157  1.00  0.00     0.049 A 
ATOM     35  H   UNL A   1      41.869  28.032  30.665  1.00  0.00     0.167 HD
ATOM     36  C   UNL A   1      41.833  31.014  33.772  1.00  0.00     0.037 A 
ATOM     37  C   UNL A   1      42.977  25.943  29.148  1.00  0.00     0.037 A 
ATOM     38  C   UNL A   1      42.997  30.207  34.030  1.00  0.00     0.049 A 
ATOM     39  C   UNL A   1      43.978  26.253  30.222  1.00  0.00     0.074 A 
ATOM     40  C   UNL A   1      43.885  30.291  35.088  1.00  0.00     0.029 A 
ATOM     41  N   UNL A   1      43.452  29.183  33.211  1.00  0.00    -0.354 N 
ATOM     42  N   UNL A   1      43.894  27.136  31.189  1.00  0.00    -0.248 NA
ATOM     43  C   UNL A   1      45.203  25.443  30.250  1.00  0.00     0.031 C 
ATOM     44  C   UNL A   1      44.900  29.349  34.887  1.00  0.00     0.029 A 
ATOM     45  C   UNL A   1      44.624  28.649  33.725  1.00  0.00     0.049 A 
ATOM     46  H   UNL A   1      43.007  28.879  32.388  1.00  0.00     0.167 HD
ATOM     47  C   UNL A   1      45.020  26.939  31.978  1.00  0.00     0.074 A 
ATOM     48  C   UNL A   1      45.778  25.866  31.367  1.00  0.00     0.031 C 
ATOM     49  C   UNL A   1      45.376  27.576  33.120  1.00  0.00     0.037 A 
BRANCH  36  50
ATOM     50  C   UNL A   1      41.479  32.093  34.751  1.00  0.00     0.058 A 
ATOM     51  C   UNL A   1      40.580  31.844  35.801  1.00  0.00     0.135 A 
ATOM     52  C   UNL A   1      42.057  33.368  34.666  1.00  0.00     0.135 A 
ATOM     53  F   UNL A   1      39.987  30.644  35.915  1.00  0.00    -0.206 F 
ATOM     54  C   UNL A   1      40.249  32.830  36.721  1.00  0.00     0.059 A 
ATOM     55  C   UNL A   1      41.754  34.365  35.589  1.00  0.00     0.059 A 
ATOM     56  F   UNL A   1      42.916  33.655  33.677  1.00  0.00    -0.206 F 
ATOM     57  C   UNL A   1      40.840  34.088  36.606  1.00  0.00     0.060 A 
BRANCH  57  58
ATOM     58  S   UNL A   1      40.401  35.357  37.812  1.00  0.00     0.124 S 
ATOM     59  O   UNL A   1      40.126  36.498  36.945  1.00  0.00    -0.237 OA
ATOM     60  O   UNL A   1      39.241  34.770  38.474  1.00  0.00    -0.237 OA
ATOM     61  O   UNL A   1      41.599  35.470  38.637  1.00  0.00    -0.744 OA
ENDBRANCH  57  58
ENDBRANCH  36  50
BRANCH  37  62
ATOM     62  C   UNL A   1      43.271  24.912  28.116  1.00  0.00     0.058 A 
ATOM     63  C   UNL A   1      43.004  23.554  28.338  1.00  0.00     0.135 A 
ATOM     64  C   UNL A   1      43.882  25.268  26.903  1.00  0.00     0.135 A 
ATOM     65  F   UNL A   1      42.422  23.165  29.482  1.00  0.00    -0.206 F 
ATOM     66  C   UNL A   1      43.375  22.578  27.418  1.00  0.00     0.059 A 
ATOM     67  C   UNL A   1      44.245  24.312  25.958  1.00  0.00     0.059 A 
ATOM     68  F   UNL A   1      44.144  26.557  26.634  1.00  0.00    -0.206 F 
ATOM     69  C   UNL A   1      44.007  22.966  26.235  1.00  0.00     0.060 A 
BRANCH  69  70
ATOM     70  S   UNL A   1      44.516  21.687  25.064  1.00  0.00     0.124 S 
ATOM     71  O   UNL A   1      44.323  22.366  23.787  1.00  0.00    -0.237 OA
ATOM     72  O   UNL A   1      45.900  21.446  25.456  1.00  0.00    -0.237 OA
ATOM     73  O   UNL A   1      43.590  20.592  25.340  1.00  0.00    -0.744 OA
ENDBRANCH  69  70
ENDBRANCH  37  62
BRANCH  49  74
ATOM     74  C   UNL A   1      46.619  27.096  33.813  1.00  0.00     0.058 A 
ATOM     75  C   UNL A   1      46.584  26.077  34.778  1.00  0.00     0.135 A 
ATOM     76  C   UNL A   1      47.868  27.657  33.500  1.00  0.00     0.135 A 
ATOM     77  F   UNL A   1      45.414  25.514  35.122  1.00  0.00    -0.206 F 
ATOM     78  C   UNL A   1      47.736  25.654  35.432  1.00  0.00     0.059 A 
ATOM     79  C   UNL A   1      49.038  27.230  34.121  1.00  0.00     0.059 A 
ATOM     80  F   UNL A   1      47.962  28.630  32.580  1.00  0.00    -0.206 F 
ATOM     81  C   UNL A   1      48.959  26.239  35.099  1.00  0.00     0.060 A 
BRANCH  81  82
ATOM     82  S   UNL A   1      50.452  25.670  35.939  1.00  0.00     0.124 S 
ATOM     83  O   UNL A   1      49.893  25.012  37.115  1.00  0.00    -0.237 OA
ATOM     84  O   UNL A   1      51.056  24.787  34.946  1.00  0.00    -0.237 OA
ATOM     85  O   UNL A   1      51.184  26.905  36.199  1.00  0.00    -0.744 OA
ENDBRANCH  81  82
ENDBRANCH  49  74
ENDBRANCH  23  24
ENDBRANCH  16  18
ENDBRANCH  15  16
ENDBRANCH  14  15
ENDBRANCH   1  14
TORSDOF 17
ENDMDL
MODEL 2
REMARK VINA RESULT:      -9.5      4.476     12.405
REMARK SMILES O=C(COC[C@@H]1CCCCO1)OCCOC(=O)c1ccc(-c2c3nc(c(-c4c(F)cc(S(=O)(=O)[O-])cc4F)c4ccc([nH]4)c(-c4c(F)cc(S(=O)(=O)[O-])cc4F)c4nc(c(-c5c(F)cc(S(=O)(=O)[O-])cc5F)c5ccc2[nH]5)C=C4)C=C3)cc1
REMARK SMILES IDX 13 1 12 2 2 3 1 4 3 5 4 6 5 7 6 8 7 9 11 10 8 11 10 12 9 13
REMARK SMILES IDX 14 14 15 15 16 16 17 17 18 18 19 19 83 20 20 21 82 22 21 23
REMARK SMILES IDX 22 24 23 25 76 26 24 27 81 28 75 29 77 30 25 31 80 32 74 33
REMARK SMILES IDX 73 34 26 36 60 37 39 38 59 39 40 40 43 41 58 42 78 43 41 44
REMARK SMILES IDX 42 45 57 47 79 48 44 49 27 50 28 51 37 52 29 53 30 54 36 55
REMARK SMILES IDX 38 56 31 57 32 58 33 59 34 60 35 61 61 62 62 63 71 64 63 65
REMARK SMILES IDX 64 66 70 67 72 68 65 69 66 70 67 71 68 72 69 73 45 74 46 75
REMARK SMILES IDX 55 76 47 77 48 78 54 79 56 80 49 81 50 82 51 83 52 84 53 85
REMARK H PARENT 77 35 43 46
REMARK Flexibility Score: inf
ROOT
ATOM      1  C   UNL A   1      41.462  20.084  26.699  1.00  0.00     0.274 C 
ENDROOT
BRANCH   1   2
ATOM      2  O   UNL A   1      42.788  19.983  26.151  1.00  0.00    -0.460 OA
BRANCH   2   3
ATOM      3  C   UNL A   1      43.268  18.894  25.500  1.00  0.00     0.332 C 
ATOM      4  O   UNL A   1      42.795  17.787  25.750  1.00  0.00    -0.250 OA
BRANCH   3   5
ATOM      5  C   UNL A   1      44.473  19.070  24.560  1.00  0.00     0.282 C 
BRANCH   5   6
ATOM      6  O   UNL A   1      45.687  19.667  24.987  1.00  0.00    -0.367 OA
BRANCH   6   7
ATOM      7  C   UNL A   1      45.640  21.039  25.368  1.00  0.00     0.193 C 
BRANCH   7   8
ATOM      8  C   UNL A   1      45.361  22.070  24.254  1.00  0.00     0.144 C 
ATOM      9  C   UNL A   1      46.194  23.345  24.264  1.00  0.00     0.034 C 
ATOM     10  O   UNL A   1      43.963  22.372  24.126  1.00  0.00    -0.376 OA
ATOM     11  C   UNL A   1      45.659  24.405  25.228  1.00  0.00     0.005 C 
ATOM     12  C   UNL A   1      43.448  23.312  25.065  1.00  0.00     0.160 C 
ATOM     13  C   UNL A   1      44.182  24.639  24.980  1.00  0.00     0.029 C 
ENDBRANCH   7   8
ENDBRANCH   6   7
ENDBRANCH   5   6
ENDBRANCH   3   5
ENDBRANCH   2   3
ENDBRANCH   1   2
BRANCH   1  14
ATOM     14  C   UNL A   1      40.688  21.275  26.129  1.00  0.00     0.275 C 
BRANCH  14  15
ATOM     15  O   UNL A   1      39.527  21.627  26.911  1.00  0.00    -0.458 OA
BRANCH  15  16
ATOM     16  C   UNL A   1      38.778  22.652  26.412  1.00  0.00     0.338 C 
ATOM     17  O   UNL A   1      37.786  22.533  25.720  1.00  0.00    -0.246 OA
BRANCH  16  18
ATOM     18  C   UNL A   1      39.277  23.973  26.886  1.00  0.00     0.060 A 
ATOM     19  C   UNL A   1      39.897  24.815  25.954  1.00  0.00     0.016 A 
ATOM     20  C   UNL A   1      39.194  24.376  28.223  1.00  0.00     0.016 A 
ATOM     21  C   UNL A   1      40.429  26.052  26.348  1.00  0.00     0.010 A 
ATOM     22  C   UNL A   1      39.729  25.615  28.616  1.00  0.00     0.010 A 
ATOM     23  C   UNL A   1      40.356  26.467  27.685  1.00  0.00    -0.014 A 
BRANCH  23  24
ATOM     24  C   UNL A   1      40.956  27.765  28.122  1.00  0.00     0.031 A 
ATOM     25  C   UNL A   1      42.444  27.922  28.181  1.00  0.00     0.074 A 
ATOM     26  C   UNL A   1      40.188  28.814  28.481  1.00  0.00     0.049 A 
ATOM     27  N   UNL A   1      43.139  28.984  28.499  1.00  0.00    -0.248 NA
ATOM     28  C   UNL A   1      43.256  26.756  27.802  1.00  0.00     0.031 C 
ATOM     29  C   UNL A   1      38.739  28.842  28.397  1.00  0.00     0.029 A 
ATOM     30  N   UNL A   1      40.499  30.042  29.013  1.00  0.00    -0.354 N 
ATOM     31  C   UNL A   1      44.464  28.644  28.282  1.00  0.00     0.074 A 
ATOM     32  C   UNL A   1      44.485  27.245  27.903  1.00  0.00     0.031 C 
ATOM     33  C   UNL A   1      38.266  29.958  28.974  1.00  0.00     0.029 A 
ATOM     34  C   UNL A   1      39.395  30.765  29.411  1.00  0.00     0.049 A 
ATOM     35  H   UNL A   1      41.421  30.374  29.101  1.00  0.00     0.167 HD
ATOM     36  C   UNL A   1      45.556  29.443  28.332  1.00  0.00     0.037 A 
ATOM     37  C   UNL A   1      39.295  31.950  30.043  1.00  0.00     0.037 A 
ATOM     38  C   UNL A   1      45.544  30.823  28.740  1.00  0.00     0.049 A 
ATOM     39  C   UNL A   1      40.540  32.761  30.257  1.00  0.00     0.074 A 
ATOM     40  C   UNL A   1      46.603  31.713  28.799  1.00  0.00     0.029 A 
ATOM     41  N   UNL A   1      44.423  31.513  29.181  1.00  0.00    -0.354 N 
ATOM     42  N   UNL A   1      41.777  32.456  29.949  1.00  0.00    -0.248 NA
ATOM     43  C   UNL A   1      40.375  34.098  30.842  1.00  0.00     0.031 C 
ATOM     44  C   UNL A   1      46.133  32.925  29.317  1.00  0.00     0.029 A 
ATOM     45  C   UNL A   1      44.772  32.806  29.543  1.00  0.00     0.049 A 
ATOM     46  H   UNL A   1      43.513  31.140  29.228  1.00  0.00     0.167 HD
ATOM     47  C   UNL A   1      42.527  33.589  30.237  1.00  0.00     0.074 A 
ATOM     48  C   UNL A   1      41.608  34.579  30.760  1.00  0.00     0.031 C 
ATOM     49  C   UNL A   1      43.856  33.794  30.059  1.00  0.00     0.037 A 
BRANCH  36  50
ATOM     50  C   UNL A   1      46.854  28.838  27.890  1.00  0.00     0.058 A 
ATOM     51  C   UNL A   1      47.222  28.836  26.535  1.00  0.00     0.135 A 
ATOM     52  C   UNL A   1      47.750  28.287  28.818  1.00  0.00     0.135 A 
ATOM     53  F   UNL A   1      46.390  29.337  25.607  1.00  0.00    -0.206 F 
ATOM     54  C   UNL A   1      48.425  28.288  26.110  1.00  0.00     0.059 A 
ATOM     55  C   UNL A   1      48.970  27.751  28.417  1.00  0.00     0.059 A 
ATOM     56  F   UNL A   1      47.441  28.261  30.122  1.00  0.00    -0.206 F 
ATOM     57  C   UNL A   1      49.292  27.746  27.060  1.00  0.00     0.060 A 
BRANCH  57  58
ATOM     58  S   UNL A   1      50.853  27.041  26.491  1.00  0.00     0.124 S 
ATOM     59  O   UNL A   1      50.390  26.061  25.514  1.00  0.00    -0.237 OA
ATOM     60  O   UNL A   1      51.542  28.206  25.944  1.00  0.00    -0.237 OA
ATOM     61  O   UNL A   1      51.438  26.485  27.708  1.00  0.00    -0.744 OA
ENDBRANCH  57  58
ENDBRANCH  36  50
BRANCH  37  62
ATOM     62  C   UNL A   1      37.972  32.465  30.490  1.00  0.00     0.058 A 
ATOM     63  C   UNL A   1      37.166  33.245  29.649  1.00  0.00     0.135 A 
ATOM     64  C   UNL A   1      37.516  32.229  31.796  1.00  0.00     0.135 A 
ATOM     65  F   UNL A   1      37.559  33.498  28.391  1.00  0.00    -0.206 F 
ATOM     66  C   UNL A   1      35.979  33.814  30.100  1.00  0.00     0.059 A 
ATOM     67  C   UNL A   1      36.323  32.771  32.265  1.00  0.00     0.059 A 
ATOM     68  F   UNL A   1      38.242  31.474  32.636  1.00  0.00    -0.206 F 
ATOM     69  C   UNL A   1      35.571  33.582  31.415  1.00  0.00     0.060 A 
BRANCH  69  70
ATOM     70  S   UNL A   1      34.046  34.355  31.999  1.00  0.00     0.124 S 
ATOM     71  O   UNL A   1      34.559  35.546  32.667  1.00  0.00    -0.237 OA
ATOM     72  O   UNL A   1      33.322  34.584  30.753  1.00  0.00    -0.237 OA
ATOM     73  O   UNL A   1      33.470  33.341  32.876  1.00  0.00    -0.744 OA
ENDBRANCH  69  70
ENDBRANCH  37  62
BRANCH  49  74
ATOM     74  C   UNL A   1      44.388  35.160  30.387  1.00  0.00     0.058 A 
ATOM     75  C   UNL A   1      44.922  35.463  31.649  1.00  0.00     0.135 A 
ATOM     76  C   UNL A   1      44.372  36.179  29.420  1.00  0.00     0.135 A 
ATOM     77  F   UNL A   1      44.950  34.528  32.612  1.00  0.00    -0.206 F 
ATOM     78  C   UNL A   1      45.391  36.737  31.953  1.00  0.00     0.059 A 
ATOM     79  C   UNL A   1      44.863  37.452  29.693  1.00  0.00     0.059 A 
ATOM     80  F   UNL A   1      43.880  35.942  28.194  1.00  0.00    -0.206 F 
ATOM     81  C   UNL A   1      45.355  37.726  30.969  1.00  0.00     0.060 A 
BRANCH  81  82
ATOM     82  S   UNL A   1      45.983  39.371  31.366  1.00  0.00     0.124 S 
ATOM     83  O   UNL A   1      46.869  39.082  32.489  1.00  0.00    -0.237 OA
ATOM     84  O   UNL A   1      46.642  39.765  30.124  1.00  0.00    -0.237 OA
ATOM     85  O   UNL A   1      44.777  40.124  31.694  1.00  0.00    -0.744 OA
ENDBRANCH  81  82
ENDBRANCH  49  74
ENDBRANCH  23  24
ENDBRANCH  16  18
ENDBRANCH  15  16
ENDBRANCH  14  15
ENDBRANCH   1  14
TORSDOF 17
ENDMDL
MODEL 3
REMARK VINA RESULT:      -9.1      3.109     11.915
REMARK SMILES O=C(COC[C@@H]1CCCCO1)OCCOC(=O)c1ccc(-c2c3nc(c(-c4c(F)cc(S(=O)(=O)[O-])cc4F)c4ccc([nH]4)c(-c4c(F)cc(S(=O)(=O)[O-])cc4F)c4nc(c(-c5c(F)cc(S(=O)(=O)[O-])cc5F)c5ccc2[nH]5)C=C4)C=C3)cc1
REMARK SMILES IDX 13 1 12 2 2 3 1 4 3 5 4 6 5 7 6 8 7 9 11 10 8 11 10 12 9 13
REMARK SMILES IDX 14 14 15 15 16 16 17 17 18 18 19 19 83 20 20 21 82 22 21 23
REMARK SMILES IDX 22 24 23 25 76 26 24 27 81 28 75 29 77 30 25 31 80 32 74 33
REMARK SMILES IDX 73 34 26 36 60 37 39 38 59 39 40 40 43 41 58 42 78 43 41 44
REMARK SMILES IDX 42 45 57 47 79 48 44 49 27 50 28 51 37 52 29 53 30 54 36 55
REMARK SMILES IDX 38 56 31 57 32 58 33 59 34 60 35 61 61 62 62 63 71 64 63 65
REMARK SMILES IDX 64 66 70 67 72 68 65 69 66 70 67 71 68 72 69 73 45 74 46 75
REMARK SMILES IDX 55 76 47 77 48 78 54 79 56 80 49 81 50 82 51 83 52 84 53 85
REMARK H PARENT 77 35 43 46
REMARK Flexibility Score: inf
ROOT
ATOM      1  C   UNL A   1      45.397  22.022  26.064  1.00  0.00     0.274 C 
ENDROOT
BRANCH   1   2
ATOM      2  O   UNL A   1      46.313  21.375  25.165  1.00  0.00    -0.460 OA
BRANCH   2   3
ATOM      3  C   UNL A   1      46.289  20.052  24.865  1.00  0.00     0.332 C 
ATOM      4  O   UNL A   1      46.990  19.631  23.947  1.00  0.00    -0.250 OA
BRANCH   3   5
ATOM      5  C   UNL A   1      45.292  19.147  25.610  1.00  0.00     0.282 C 
BRANCH   5   6
ATOM      6  O   UNL A   1      43.980  18.905  25.125  1.00  0.00    -0.367 OA
BRANCH   6   7
ATOM      7  C   UNL A   1      43.004  19.918  25.357  1.00  0.00     0.193 C 
BRANCH   7   8
ATOM      8  C   UNL A   1      41.974  19.661  26.476  1.00  0.00     0.144 C 
ATOM      9  C   UNL A   1      40.505  19.861  26.127  1.00  0.00     0.034 C 
ATOM     10  O   UNL A   1      42.309  20.344  27.695  1.00  0.00    -0.376 OA
ATOM     11  C   UNL A   1      40.062  21.322  26.204  1.00  0.00     0.005 C 
ATOM     12  C   UNL A   1      41.954  21.723  27.743  1.00  0.00     0.160 C 
ATOM     13  C   UNL A   1      40.462  21.919  27.539  1.00  0.00     0.029 C 
ENDBRANCH   7   8
ENDBRANCH   6   7
ENDBRANCH   5   6
ENDBRANCH   3   5
ENDBRANCH   2   3
ENDBRANCH   1   2
BRANCH   1  14
ATOM     14  C   UNL A   1      44.906  23.368  25.523  1.00  0.00     0.275 C 
BRANCH  14  15
ATOM     15  O   UNL A   1      44.382  24.237  26.550  1.00  0.00    -0.458 OA
BRANCH  15  16
ATOM     16  C   UNL A   1      43.138  24.740  26.307  1.00  0.00     0.338 C 
ATOM     17  O   UNL A   1      42.418  24.433  25.376  1.00  0.00    -0.246 OA
BRANCH  16  18
ATOM     18  C   UNL A   1      42.712  25.680  27.380  1.00  0.00     0.060 A 
ATOM     19  C   UNL A   1      43.507  26.807  27.623  1.00  0.00     0.016 A 
ATOM     20  C   UNL A   1      41.584  25.454  28.177  1.00  0.00     0.016 A 
ATOM     21  C   UNL A   1      43.183  27.705  28.651  1.00  0.00     0.010 A 
ATOM     22  C   UNL A   1      41.262  26.355  29.207  1.00  0.00     0.010 A 
ATOM     23  C   UNL A   1      42.059  27.489  29.460  1.00  0.00    -0.014 A 
BRANCH  23  24
ATOM     24  C   UNL A   1      41.729  28.418  30.583  1.00  0.00     0.031 A 
ATOM     25  C   UNL A   1      42.408  28.265  31.909  1.00  0.00     0.074 A 
ATOM     26  C   UNL A   1      40.815  29.401  30.444  1.00  0.00     0.049 A 
ATOM     27  N   UNL A   1      42.275  29.001  32.983  1.00  0.00    -0.248 NA
ATOM     28  C   UNL A   1      43.385  27.174  32.038  1.00  0.00     0.031 C 
ATOM     29  C   UNL A   1      40.137  29.727  29.202  1.00  0.00     0.029 A 
ATOM     30  N   UNL A   1      40.273  30.288  31.343  1.00  0.00    -0.354 N 
ATOM     31  C   UNL A   1      43.207  28.518  33.887  1.00  0.00     0.074 A 
ATOM     32  C   UNL A   1      43.827  27.359  33.275  1.00  0.00     0.031 C 
ATOM     33  C   UNL A   1      39.179  30.640  29.425  1.00  0.00     0.029 A 
ATOM     34  C   UNL A   1      39.223  31.019  30.830  1.00  0.00     0.049 A 
ATOM     35  H   UNL A   1      40.602  30.390  32.265  1.00  0.00     0.167 HD
ATOM     36  C   UNL A   1      43.555  29.031  35.090  1.00  0.00     0.037 A 
ATOM     37  C   UNL A   1      38.396  31.907  31.413  1.00  0.00     0.037 A 
ATOM     38  C   UNL A   1      42.919  30.161  35.715  1.00  0.00     0.049 A 
ATOM     39  C   UNL A   1      38.685  32.347  32.819  1.00  0.00     0.074 A 
ATOM     40  C   UNL A   1      43.225  30.760  36.925  1.00  0.00     0.029 A 
ATOM     41  N   UNL A   1      41.832  30.850  35.195  1.00  0.00    -0.354 N 
ATOM     42  N   UNL A   1      39.639  31.943  33.622  1.00  0.00    -0.248 NA
ATOM     43  C   UNL A   1      37.832  33.404  33.379  1.00  0.00     0.031 C 
ATOM     44  C   UNL A   1      42.297  31.782  37.158  1.00  0.00     0.029 A 
ATOM     45  C   UNL A   1      41.437  31.847  36.074  1.00  0.00     0.049 A 
ATOM     46  H   UNL A   1      41.406  30.661  34.329  1.00  0.00     0.167 HD
ATOM     47  C   UNL A   1      39.544  32.744  34.753  1.00  0.00     0.074 A 
ATOM     48  C   UNL A   1      38.430  33.644  34.537  1.00  0.00     0.031 C 
ATOM     49  C   UNL A   1      40.330  32.747  35.858  1.00  0.00     0.037 A 
BRANCH  36  50
ATOM     50  C   UNL A   1      44.716  28.387  35.787  1.00  0.00     0.058 A 
ATOM     51  C   UNL A   1      44.514  27.348  36.710  1.00  0.00     0.135 A 
ATOM     52  C   UNL A   1      46.034  28.781  35.516  1.00  0.00     0.135 A 
ATOM     53  F   UNL A   1      43.269  26.947  37.016  1.00  0.00    -0.206 F 
ATOM     54  C   UNL A   1      45.578  26.735  37.357  1.00  0.00     0.059 A 
ATOM     55  C   UNL A   1      47.117  28.168  36.137  1.00  0.00     0.059 A 
ATOM     56  F   UNL A   1      46.277  29.774  34.647  1.00  0.00    -0.206 F 
ATOM     57  C   UNL A   1      46.877  27.154  37.065  1.00  0.00     0.060 A 
BRANCH  57  58
ATOM     58  S   UNL A   1      48.250  26.345  37.912  1.00  0.00     0.124 S 
ATOM     59  O   UNL A   1      47.594  25.847  39.118  1.00  0.00    -0.237 OA
ATOM     60  O   UNL A   1      48.658  25.329  36.948  1.00  0.00    -0.237 OA
ATOM     61  O   UNL A   1      49.206  27.427  38.120  1.00  0.00    -0.744 OA
ENDBRANCH  57  58
ENDBRANCH  36  50
BRANCH  37  62
ATOM     62  C   UNL A   1      37.238  32.472  30.668  1.00  0.00     0.058 A 
ATOM     63  C   UNL A   1      37.376  33.592  29.835  1.00  0.00     0.135 A 
ATOM     64  C   UNL A   1      35.954  31.929  30.824  1.00  0.00     0.135 A 
ATOM     65  F   UNL A   1      38.585  34.146  29.655  1.00  0.00    -0.206 F 
ATOM     66  C   UNL A   1      36.277  34.184  29.222  1.00  0.00     0.059 A 
ATOM     67  C   UNL A   1      34.840  32.491  30.205  1.00  0.00     0.059 A 
ATOM     68  F   UNL A   1      35.770  30.847  31.597  1.00  0.00    -0.206 F 
ATOM     69  C   UNL A   1      35.009  33.634  29.423  1.00  0.00     0.060 A 
BRANCH  69  70
ATOM     70  S   UNL A   1      33.585  34.432  28.649  1.00  0.00     0.124 S 
ATOM     71  O   UNL A   1      34.218  35.543  27.947  1.00  0.00    -0.237 OA
ATOM     72  O   UNL A   1      33.055  33.365  27.808  1.00  0.00    -0.237 OA
ATOM     73  O   UNL A   1      32.748  34.802  29.787  1.00  0.00    -0.744 OA
ENDBRANCH  69  70
ENDBRANCH  37  62
BRANCH  49  74
ATOM     74  C   UNL A   1      40.042  33.789  36.900  1.00  0.00     0.058 A 
ATOM     75  C   UNL A   1      40.629  35.064  36.857  1.00  0.00     0.135 A 
ATOM     76  C   UNL A   1      39.156  33.512  37.955  1.00  0.00     0.135 A 
ATOM     77  F   UNL A   1      41.491  35.376  35.877  1.00  0.00    -0.206 F 
ATOM     78  C   UNL A   1      40.374  36.015  37.839  1.00  0.00     0.059 A 
ATOM     79  C   UNL A   1      38.864  34.458  38.932  1.00  0.00     0.059 A 
ATOM     80  F   UNL A   1      38.560  32.312  38.041  1.00  0.00    -0.206 F 
ATOM     81  C   UNL A   1      39.492  35.702  38.875  1.00  0.00     0.060 A 
BRANCH  81  82
ATOM     82  S   UNL A   1      39.154  36.950  40.135  1.00  0.00     0.124 S 
ATOM     83  O   UNL A   1      40.494  37.227  40.640  1.00  0.00    -0.237 OA
ATOM     84  O   UNL A   1      38.534  38.020  39.360  1.00  0.00    -0.237 OA
ATOM     85  O   UNL A   1      38.263  36.260  41.063  1.00  0.00    -0.744 OA
ENDBRANCH  81  82
ENDBRANCH  49  74
ENDBRANCH  23  24
ENDBRANCH  16  18
ENDBRANCH  15  16
ENDBRANCH  14  15
ENDBRANCH   1  14
TORSDOF 17
ENDMDL
