MODEL 1
REMARK VINA RESULT:     -13.2      0.000      0.000
REMARK SMILES CS(=O)(=O)c1ccc(C2=NN(c3ccc(C(=O)OCCOC(=O)c4ccc(-c5c6nc(c(-c7c(F)cc(S(=O)(=O)[O-])cc7F)c7ccc([nH]7)c(-c7c(F)cc(S(=O)(=O)[O-])cc7F)c7nc(c(-c8c(F)cc(S(=O)(=O)[O-])cc8F)c8ccc5[nH]8)C=C7)C=C6)cc4)cc3)[C@H](c3ccc(Cl)cc3)C2)cc1
REMARK SMILES IDX 19 1 18 2 16 3 17 4 15 5 12 6 13 7 91 8 14 9 90 10 11 11
REMARK SMILES IDX 9 12 10 13 100 14 92 15 8 16 5 17 6 18 102 19 7 20 101 21
REMARK SMILES IDX 2 22 1 23 3 24 4 25 93 26 94 27 99 28 95 29 98 30 96 31
REMARK SMILES IDX 97 32 20 33 21 34 22 35 23 36 24 37 25 38 89 39 26 40 88 41
REMARK SMILES IDX 27 42 28 43 29 44 82 45 30 46 87 47 81 48 83 49 31 50 86 51
REMARK SMILES IDX 80 52 79 53 32 55 66 56 45 57 65 58 46 59 49 60 64 61 84 62
REMARK SMILES IDX 47 63 48 64 63 66 85 67 50 68 33 69 34 70 43 71 35 72 36 73
REMARK SMILES IDX 42 74 44 75 37 76 38 77 39 78 40 79 41 80 67 81 68 82 77 83
REMARK SMILES IDX 69 84 70 85 76 86 78 87 71 88 72 89 73 90 74 91 75 92 51 93
REMARK SMILES IDX 52 94 61 95 53 96 54 97 60 98 62 99 55 100 56 101 57 102
REMARK SMILES IDX 58 103 59 104
REMARK H PARENT 83 54 49 65
REMARK Flexibility Score: inf
ROOT
ATOM      1  C   UNL A   1      40.607  22.820  27.021  1.00  0.00     0.275 C 
ENDROOT
BRANCH   1   2
ATOM      2  O   UNL A   1      39.371  23.250  26.420  1.00  0.00    -0.458 OA
BRANCH   2   3
ATOM      3  C   UNL A   1      38.665  22.282  25.787  1.00  0.00     0.338 C 
ATOM      4  O   UNL A   1      39.000  21.114  25.654  1.00  0.00    -0.246 OA
BRANCH   3   5
ATOM      5  C   UNL A   1      37.365  22.797  25.293  1.00  0.00     0.060 A 
ATOM      6  C   UNL A   1      34.805  23.670  24.537  1.00  0.00     0.060 A 
ATOM      7  C   UNL A   1      35.319  24.004  25.791  1.00  0.00     0.029 A 
ATOM      8  C   UNL A   1      35.612  22.958  23.639  1.00  0.00     0.029 A 
ATOM      9  C   UNL A   1      36.578  23.547  26.178  1.00  0.00     0.018 A 
ATOM     10  C   UNL A   1      36.888  22.523  24.008  1.00  0.00     0.018 A 
BRANCH   6  11
ATOM     11  N   UNL A   1      33.459  23.880  24.239  1.00  0.00    -0.257 N 
ATOM     12  C   UNL A   1      31.794  25.199  24.109  1.00  0.00     0.071 C 
ATOM     13  N   UNL A   1      33.041  25.078  23.769  1.00  0.00    -0.176 NA
ATOM     14  C   UNL A   1      31.245  24.089  24.968  1.00  0.00     0.091 C 
ATOM     15  C   UNL A   1      32.441  23.132  24.985  1.00  0.00     0.144 C 
BRANCH  12  16
ATOM     16  C   UNL A   1      30.954  26.337  23.681  1.00  0.00    -0.002 A 
ATOM     17  C   UNL A   1      29.296  28.477  22.993  1.00  0.00     0.067 A 
ATOM     18  C   UNL A   1      28.735  27.273  23.435  1.00  0.00     0.021 A 
ATOM     19  C   UNL A   1      30.682  28.607  22.866  1.00  0.00     0.021 A 
ATOM     20  C   UNL A   1      29.565  26.203  23.772  1.00  0.00     0.011 A 
ATOM     21  C   UNL A   1      31.513  27.534  23.219  1.00  0.00     0.011 A 
BRANCH  17  22
ATOM     22  S   UNL A   1      28.172  29.806  22.635  1.00  0.00     0.175 S 
ATOM     23  C   UNL A   1      28.815  31.272  23.387  1.00  0.00     0.163 C 
ATOM     24  O   UNL A   1      26.934  29.477  23.316  1.00  0.00    -0.224 OA
ATOM     25  O   UNL A   1      28.208  30.008  21.200  1.00  0.00    -0.224 OA
ENDBRANCH  17  22
ENDBRANCH  12  16
BRANCH  15  26
ATOM     26  C   UNL A   1      32.290  21.760  24.341  1.00  0.00    -0.023 A 
ATOM     27  C   UNL A   1      32.084  21.573  22.968  1.00  0.00     0.007 A 
ATOM     28  C   UNL A   1      32.522  20.621  25.141  1.00  0.00     0.007 A 
ATOM     29  C   UNL A   1      32.112  20.289  22.411  1.00  0.00     0.021 A 
ATOM     30  C   UNL A   1      32.576  19.342  24.584  1.00  0.00     0.021 A 
ATOM     31  C   UNL A   1      32.372  19.183  23.218  1.00  0.00     0.041 A 
ATOM     32  Cl  UNL A   1      32.473  17.614  22.517  1.00  0.00    -0.084 Cl
ENDBRANCH  15  26
ENDBRANCH   6  11
ENDBRANCH   3   5
ENDBRANCH   2   3
ENDBRANCH   1   2
BRANCH   1  33
ATOM     33  C   UNL A   1      41.803  23.302  26.202  1.00  0.00     0.275 C 
BRANCH  33  34
ATOM     34  O   UNL A   1      42.352  24.497  26.783  1.00  0.00    -0.458 OA
BRANCH  34  35
ATOM     35  C   UNL A   1      41.885  25.664  26.282  1.00  0.00     0.338 C 
ATOM     36  O   UNL A   1      41.767  25.976  25.111  1.00  0.00    -0.246 OA
BRANCH  35  37
ATOM     37  C   UNL A   1      41.502  26.550  27.392  1.00  0.00     0.060 A 
ATOM     38  C   UNL A   1      42.217  27.728  27.596  1.00  0.00     0.016 A 
ATOM     39  C   UNL A   1      40.517  26.161  28.298  1.00  0.00     0.016 A 
ATOM     40  C   UNL A   1      41.992  28.499  28.733  1.00  0.00     0.010 A 
ATOM     41  C   UNL A   1      40.242  26.973  29.406  1.00  0.00     0.010 A 
ATOM     42  C   UNL A   1      40.995  28.137  29.651  1.00  0.00    -0.014 A 
BRANCH  42  43
ATOM     43  C   UNL A   1      40.777  28.946  30.884  1.00  0.00     0.031 A 
ATOM     44  C   UNL A   1      39.661  29.959  30.934  1.00  0.00     0.074 A 
ATOM     45  C   UNL A   1      41.562  28.771  31.966  1.00  0.00     0.049 A 
ATOM     46  N   UNL A   1      39.408  30.868  31.841  1.00  0.00    -0.248 NA
ATOM     47  C   UNL A   1      38.712  29.955  29.810  1.00  0.00     0.031 C 
ATOM     48  C   UNL A   1      42.651  27.798  32.075  1.00  0.00     0.029 A 
ATOM     49  N   UNL A   1      41.562  29.403  33.186  1.00  0.00    -0.354 N 
ATOM     50  C   UNL A   1      38.310  31.580  31.370  1.00  0.00     0.074 A 
ATOM     51  C   UNL A   1      37.943  30.996  30.098  1.00  0.00     0.031 C 
ATOM     52  C   UNL A   1      43.191  27.877  33.301  1.00  0.00     0.029 A 
ATOM     53  C   UNL A   1      42.544  28.956  34.039  1.00  0.00     0.049 A 
ATOM     54  H   UNL A   1      40.920  30.110  33.427  1.00  0.00     0.167 HD
ATOM     55  C   UNL A   1      37.668  32.626  31.946  1.00  0.00     0.037 A 
ATOM     56  C   UNL A   1      42.911  29.388  35.262  1.00  0.00     0.037 A 
ATOM     57  C   UNL A   1      38.000  33.167  33.240  1.00  0.00     0.049 A 
ATOM     58  C   UNL A   1      42.193  30.556  35.877  1.00  0.00     0.074 A 
ATOM     59  C   UNL A   1      37.395  34.214  33.915  1.00  0.00     0.029 A 
ATOM     60  N   UNL A   1      39.013  32.695  34.061  1.00  0.00    -0.354 N 
ATOM     61  N   UNL A   1      41.191  31.254  35.395  1.00  0.00    -0.248 NA
ATOM     62  C   UNL A   1      42.667  31.011  37.192  1.00  0.00     0.031 C 
ATOM     63  C   UNL A   1      38.062  34.393  35.134  1.00  0.00     0.029 A 
ATOM     64  C   UNL A   1      39.058  33.434  35.232  1.00  0.00     0.049 A 
ATOM     65  H   UNL A   1      39.613  31.945  33.843  1.00  0.00     0.167 HD
ATOM     66  C   UNL A   1      40.914  32.226  36.348  1.00  0.00     0.074 A 
ATOM     67  C   UNL A   1      41.837  32.014  37.444  1.00  0.00     0.031 C 
ATOM     68  C   UNL A   1      39.983  33.211  36.314  1.00  0.00     0.037 A 
BRANCH  55  69
ATOM     69  C   UNL A   1      36.562  33.279  31.166  1.00  0.00     0.058 A 
ATOM     70  C   UNL A   1      35.208  33.064  31.464  1.00  0.00     0.135 A 
ATOM     71  C   UNL A   1      36.868  34.164  30.118  1.00  0.00     0.135 A 
ATOM     72  F   UNL A   1      34.861  32.216  32.446  1.00  0.00    -0.206 F 
ATOM     73  C   UNL A   1      34.195  33.679  30.736  1.00  0.00     0.059 A 
ATOM     74  C   UNL A   1      35.872  34.810  29.391  1.00  0.00     0.059 A 
ATOM     75  F   UNL A   1      38.147  34.408  29.791  1.00  0.00    -0.206 F 
ATOM     76  C   UNL A   1      34.537  34.549  29.697  1.00  0.00     0.060 A 
BRANCH  76  77
ATOM     77  S   UNL A   1      33.217  35.346  28.759  1.00  0.00     0.124 S 
ATOM     78  O   UNL A   1      32.505  36.066  29.812  1.00  0.00    -0.237 OA
ATOM     79  O   UNL A   1      33.958  36.176  27.814  1.00  0.00    -0.237 OA
ATOM     80  O   UNL A   1      32.495  34.224  28.168  1.00  0.00    -0.744 OA
ENDBRANCH  76  77
ENDBRANCH  55  69
BRANCH  56  81
ATOM     81  C   UNL A   1      44.041  28.728  35.969  1.00  0.00     0.058 A 
ATOM     82  C   UNL A   1      43.823  27.636  36.820  1.00  0.00     0.135 A 
ATOM     83  C   UNL A   1      45.364  29.160  35.784  1.00  0.00     0.135 A 
ATOM     84  F   UNL A   1      42.575  27.195  37.039  1.00  0.00    -0.206 F 
ATOM     85  C   UNL A   1      44.875  26.992  37.463  1.00  0.00     0.059 A 
ATOM     86  C   UNL A   1      46.435  28.517  36.395  1.00  0.00     0.059 A 
ATOM     87  F   UNL A   1      45.625  30.196  34.971  1.00  0.00    -0.206 F 
ATOM     88  C   UNL A   1      46.179  27.437  37.240  1.00  0.00     0.060 A 
BRANCH  88  89
ATOM     89  S   UNL A   1      47.548  26.550  38.015  1.00  0.00     0.124 S 
ATOM     90  O   UNL A   1      47.408  25.223  37.427  1.00  0.00    -0.237 OA
ATOM     91  O   UNL A   1      48.706  27.322  37.577  1.00  0.00    -0.237 OA
ATOM     92  O   UNL A   1      47.244  26.647  39.439  1.00  0.00    -0.744 OA
ENDBRANCH  88  89
ENDBRANCH  56  81
BRANCH  68  93
ATOM     93  C   UNL A   1      39.903  34.121  37.506  1.00  0.00     0.058 A 
ATOM     94  C   UNL A   1      40.635  35.318  37.565  1.00  0.00     0.135 A 
ATOM     95  C   UNL A   1      39.058  33.812  38.583  1.00  0.00     0.135 A 
ATOM     96  F   UNL A   1      41.461  35.653  36.563  1.00  0.00    -0.206 F 
ATOM     97  C   UNL A   1      40.547  36.167  38.662  1.00  0.00     0.059 A 
ATOM     98  C   UNL A   1      38.940  34.658  39.682  1.00  0.00     0.059 A 
ATOM     99  F   UNL A   1      38.333  32.683  38.571  1.00  0.00    -0.206 F 
ATOM    100  C   UNL A   1      39.697  35.828  39.718  1.00  0.00     0.060 A 
BRANCH 100 101
ATOM    101  S   UNL A   1      39.573  36.949  41.128  1.00  0.00     0.124 S 
ATOM    102  O   UNL A   1      40.979  37.203  41.425  1.00  0.00    -0.237 OA
ATOM    103  O   UNL A   1      38.829  38.075  40.572  1.00  0.00    -0.237 OA
ATOM    104  O   UNL A   1      38.853  36.160  42.123  1.00  0.00    -0.744 OA
ENDBRANCH 100 101
ENDBRANCH  68  93
ENDBRANCH  42  43
ENDBRANCH  35  37
ENDBRANCH  34  35
ENDBRANCH  33  34
ENDBRANCH   1  33
TORSDOF 18
ENDMDL
MODEL 2
REMARK VINA RESULT:     -13.2      0.682      7.765
REMARK SMILES CS(=O)(=O)c1ccc(C2=NN(c3ccc(C(=O)OCCOC(=O)c4ccc(-c5c6nc(c(-c7c(F)cc(S(=O)(=O)[O-])cc7F)c7ccc([nH]7)c(-c7c(F)cc(S(=O)(=O)[O-])cc7F)c7nc(c(-c8c(F)cc(S(=O)(=O)[O-])cc8F)c8ccc5[nH]8)C=C7)C=C6)cc4)cc3)[C@H](c3ccc(Cl)cc3)C2)cc1
REMARK SMILES IDX 19 1 18 2 16 3 17 4 15 5 12 6 13 7 91 8 14 9 90 10 11 11
REMARK SMILES IDX 9 12 10 13 100 14 92 15 8 16 5 17 6 18 102 19 7 20 101 21
REMARK SMILES IDX 2 22 1 23 3 24 4 25 93 26 94 27 99 28 95 29 98 30 96 31
REMARK SMILES IDX 97 32 20 33 21 34 22 35 23 36 24 37 25 38 89 39 26 40 88 41
REMARK SMILES IDX 27 42 28 43 29 44 82 45 30 46 87 47 81 48 83 49 31 50 86 51
REMARK SMILES IDX 80 52 79 53 32 55 66 56 45 57 65 58 46 59 49 60 64 61 84 62
REMARK SMILES IDX 47 63 48 64 63 66 85 67 50 68 33 69 34 70 43 71 35 72 36 73
REMARK SMILES IDX 42 74 44 75 37 76 38 77 39 78 40 79 41 80 67 81 68 82 77 83
REMARK SMILES IDX 69 84 70 85 76 86 78 87 71 88 72 89 73 90 74 91 75 92 51 93
REMARK SMILES IDX 52 94 61 95 53 96 54 97 60 98 62 99 55 100 56 101 57 102
REMARK SMILES IDX 58 103 59 104
REMARK H PARENT 83 54 49 65
REMARK Flexibility Score: inf
ROOT
ATOM      1  C   UNL A   1      40.421  22.525  27.089  1.00  0.00     0.275 C 
ENDROOT
BRANCH   1   2
ATOM      2  O   UNL A   1      39.249  23.015  26.410  1.00  0.00    -0.458 OA
BRANCH   2   3
ATOM      3  C   UNL A   1      38.535  22.081  25.736  1.00  0.00     0.338 C 
ATOM      4  O   UNL A   1      38.851  20.912  25.570  1.00  0.00    -0.246 OA
BRANCH   3   5
ATOM      5  C   UNL A   1      37.252  22.636  25.241  1.00  0.00     0.060 A 
ATOM      6  C   UNL A   1      34.717  23.563  24.464  1.00  0.00     0.060 A 
ATOM      7  C   UNL A   1      35.165  23.756  25.773  1.00  0.00     0.029 A 
ATOM      8  C   UNL A   1      35.577  22.968  23.532  1.00  0.00     0.029 A 
ATOM      9  C   UNL A   1      36.411  23.271  26.166  1.00  0.00     0.018 A 
ATOM     10  C   UNL A   1      36.841  22.507  23.911  1.00  0.00     0.018 A 
BRANCH   6  11
ATOM     11  N   UNL A   1      33.383  23.791  24.127  1.00  0.00    -0.257 N 
ATOM     12  C   UNL A   1      31.731  25.125  23.982  1.00  0.00     0.071 C 
ATOM     13  N   UNL A   1      32.989  25.007  23.681  1.00  0.00    -0.176 NA
ATOM     14  C   UNL A   1      31.147  23.992  24.784  1.00  0.00     0.091 C 
ATOM     15  C   UNL A   1      32.336  23.027  24.811  1.00  0.00     0.144 C 
BRANCH  12  16
ATOM     16  C   UNL A   1      30.914  26.282  23.562  1.00  0.00    -0.002 A 
ATOM     17  C   UNL A   1      29.325  28.483  22.902  1.00  0.00     0.067 A 
ATOM     18  C   UNL A   1      28.778  27.420  23.631  1.00  0.00     0.021 A 
ATOM     19  C   UNL A   1      30.655  28.438  22.476  1.00  0.00     0.021 A 
ATOM     20  C   UNL A   1      29.572  26.320  23.955  1.00  0.00     0.011 A 
ATOM     21  C   UNL A   1      31.453  27.336  22.814  1.00  0.00     0.011 A 
BRANCH  17  22
ATOM     22  S   UNL A   1      28.262  29.870  22.579  1.00  0.00     0.175 S 
ATOM     23  C   UNL A   1      28.890  31.253  23.483  1.00  0.00     0.163 C 
ATOM     24  O   UNL A   1      26.973  29.527  23.150  1.00  0.00    -0.224 OA
ATOM     25  O   UNL A   1      28.398  30.180  21.169  1.00  0.00    -0.224 OA
ENDBRANCH  17  22
ENDBRANCH  12  16
BRANCH  15  26
ATOM     26  C   UNL A   1      32.200  21.677  24.118  1.00  0.00    -0.023 A 
ATOM     27  C   UNL A   1      32.019  21.537  22.736  1.00  0.00     0.007 A 
ATOM     28  C   UNL A   1      32.420  20.512  24.883  1.00  0.00     0.007 A 
ATOM     29  C   UNL A   1      32.060  20.273  22.136  1.00  0.00     0.021 A 
ATOM     30  C   UNL A   1      32.487  19.253  24.283  1.00  0.00     0.021 A 
ATOM     31  C   UNL A   1      32.309  19.141  22.908  1.00  0.00     0.041 A 
ATOM     32  Cl  UNL A   1      32.426  17.598  22.156  1.00  0.00    -0.084 Cl
ENDBRANCH  15  26
ENDBRANCH   6  11
ENDBRANCH   3   5
ENDBRANCH   2   3
ENDBRANCH   1   2
BRANCH   1  33
ATOM     33  C   UNL A   1      41.680  22.826  26.277  1.00  0.00     0.275 C 
BRANCH  33  34
ATOM     34  O   UNL A   1      42.389  23.935  26.856  1.00  0.00    -0.458 OA
BRANCH  34  35
ATOM     35  C   UNL A   1      42.238  25.123  26.227  1.00  0.00     0.338 C 
ATOM     36  O   UNL A   1      42.353  25.354  25.037  1.00  0.00    -0.246 OA
BRANCH  35  37
ATOM     37  C   UNL A   1      41.882  26.153  27.215  1.00  0.00     0.060 A 
ATOM     38  C   UNL A   1      42.555  27.372  27.195  1.00  0.00     0.016 A 
ATOM     39  C   UNL A   1      40.970  25.871  28.231  1.00  0.00     0.016 A 
ATOM     40  C   UNL A   1      42.363  28.298  28.217  1.00  0.00     0.010 A 
ATOM     41  C   UNL A   1      40.724  26.832  29.220  1.00  0.00     0.010 A 
ATOM     42  C   UNL A   1      41.438  28.045  29.241  1.00  0.00    -0.014 A 
BRANCH  42  43
ATOM     43  C   UNL A   1      41.258  29.023  30.351  1.00  0.00     0.031 A 
ATOM     44  C   UNL A   1      42.225  29.039  31.506  1.00  0.00     0.074 A 
ATOM     45  C   UNL A   1      40.242  29.909  30.324  1.00  0.00     0.049 A 
ATOM     46  N   UNL A   1      42.152  29.693  32.638  1.00  0.00    -0.248 NA
ATOM     47  C   UNL A   1      43.427  28.200  31.377  1.00  0.00     0.031 C 
ATOM     48  C   UNL A   1      39.256  30.037  29.249  1.00  0.00     0.029 A 
ATOM     49  N   UNL A   1      39.871  30.876  31.227  1.00  0.00    -0.354 N 
ATOM     50  C   UNL A   1      43.264  29.300  33.377  1.00  0.00     0.074 A 
ATOM     51  C   UNL A   1      43.996  28.353  32.564  1.00  0.00     0.031 C 
ATOM     52  C   UNL A   1      38.414  31.041  29.540  1.00  0.00     0.029 A 
ATOM     53  C   UNL A   1      38.749  31.579  30.855  1.00  0.00     0.049 A 
ATOM     54  H   UNL A   1      40.361  31.049  32.064  1.00  0.00     0.167 HD
ATOM     55  C   UNL A   1      43.637  29.693  34.620  1.00  0.00     0.037 A 
ATOM     56  C   UNL A   1      38.043  32.521  31.509  1.00  0.00     0.037 A 
ATOM     57  C   UNL A   1      42.936  30.680  35.402  1.00  0.00     0.049 A 
ATOM     58  C   UNL A   1      38.467  32.934  32.891  1.00  0.00     0.074 A 
ATOM     59  C   UNL A   1      43.249  31.158  36.663  1.00  0.00     0.029 A 
ATOM     60  N   UNL A   1      41.795  31.353  34.992  1.00  0.00    -0.354 N 
ATOM     61  N   UNL A   1      39.490  32.514  33.597  1.00  0.00    -0.248 NA
ATOM     62  C   UNL A   1      37.633  33.932  33.574  1.00  0.00     0.031 C 
ATOM     63  C   UNL A   1      42.279  32.099  37.028  1.00  0.00     0.029 A 
ATOM     64  C   UNL A   1      41.384  32.234  35.978  1.00  0.00     0.049 A 
ATOM     65  H   UNL A   1      41.343  31.222  34.127  1.00  0.00     0.167 HD
ATOM     66  C   UNL A   1      39.424  33.198  34.804  1.00  0.00     0.074 A 
ATOM     67  C   UNL A   1      38.274  34.077  34.725  1.00  0.00     0.031 C 
ATOM     68  C   UNL A   1      40.237  33.102  35.884  1.00  0.00     0.037 A 
BRANCH  55  69
ATOM     69  C   UNL A   1      44.840  29.029  35.227  1.00  0.00     0.058 A 
ATOM     70  C   UNL A   1      44.743  27.846  35.977  1.00  0.00     0.135 A 
ATOM     71  C   UNL A   1      46.120  29.573  35.027  1.00  0.00     0.135 A 
ATOM     72  F   UNL A   1      43.542  27.293  36.211  1.00  0.00    -0.206 F 
ATOM     73  C   UNL A   1      45.867  27.240  36.529  1.00  0.00     0.059 A 
ATOM     74  C   UNL A   1      47.261  28.971  35.549  1.00  0.00     0.059 A 
ATOM     75  F   UNL A   1      46.271  30.702  34.317  1.00  0.00    -0.206 F 
ATOM     76  C   UNL A   1      47.123  27.812  36.312  1.00  0.00     0.060 A 
BRANCH  76  77
ATOM     77  S   UNL A   1      48.577  27.018  37.030  1.00  0.00     0.124 S 
ATOM     78  O   UNL A   1      48.287  25.607  36.786  1.00  0.00    -0.237 OA
ATOM     79  O   UNL A   1      49.667  27.586  36.244  1.00  0.00    -0.237 OA
ATOM     80  O   UNL A   1      48.536  27.434  38.428  1.00  0.00    -0.744 OA
ENDBRANCH  76  77
ENDBRANCH  55  69
BRANCH  56  81
ATOM     81  C   UNL A   1      36.835  33.113  30.874  1.00  0.00     0.058 A 
ATOM     82  C   UNL A   1      35.547  32.763  31.304  1.00  0.00     0.135 A 
ATOM     83  C   UNL A   1      36.947  34.062  29.846  1.00  0.00     0.135 A 
ATOM     84  F   UNL A   1      35.388  31.850  32.274  1.00  0.00    -0.206 F 
ATOM     85  C   UNL A   1      34.411  33.332  30.738  1.00  0.00     0.059 A 
ATOM     86  C   UNL A   1      35.827  34.665  29.283  1.00  0.00     0.059 A 
ATOM     87  F   UNL A   1      38.158  34.437  29.406  1.00  0.00    -0.206 F 
ATOM     88  C   UNL A   1      34.562  34.287  29.731  1.00  0.00     0.060 A 
BRANCH  88  89
ATOM     89  S   UNL A   1      33.087  35.081  29.054  1.00  0.00     0.124 S 
ATOM     90  O   UNL A   1      32.641  34.089  28.083  1.00  0.00    -0.237 OA
ATOM     91  O   UNL A   1      32.248  35.236  30.238  1.00  0.00    -0.237 OA
ATOM     92  O   UNL A   1      33.605  36.326  28.496  1.00  0.00    -0.744 OA
ENDBRANCH  88  89
ENDBRANCH  56  81
BRANCH  68  93
ATOM     93  C   UNL A   1      39.924  33.983  37.060  1.00  0.00     0.058 A 
ATOM     94  C   UNL A   1      40.427  35.290  37.151  1.00  0.00     0.135 A 
ATOM     95  C   UNL A   1      39.084  33.527  38.088  1.00  0.00     0.135 A 
ATOM     96  F   UNL A   1      41.241  35.768  36.197  1.00  0.00    -0.206 F 
ATOM     97  C   UNL A   1      40.124  36.109  38.233  1.00  0.00     0.059 A 
ATOM     98  C   UNL A   1      38.750  34.338  39.169  1.00  0.00     0.059 A 
ATOM     99  F   UNL A   1      38.572  32.288  38.044  1.00  0.00    -0.206 F 
ATOM    100  C   UNL A   1      39.285  35.623  39.239  1.00  0.00     0.060 A 
BRANCH 100 101
ATOM    101  S   UNL A   1      38.879  36.703  40.628  1.00  0.00     0.124 S 
ATOM    102  O   UNL A   1      40.197  36.946  41.206  1.00  0.00    -0.237 OA
ATOM    103  O   UNL A   1      38.255  37.846  39.968  1.00  0.00    -0.237 OA
ATOM    104  O   UNL A   1      37.979  35.886  41.437  1.00  0.00    -0.744 OA
ENDBRANCH 100 101
ENDBRANCH  68  93
ENDBRANCH  42  43
ENDBRANCH  35  37
ENDBRANCH  34  35
ENDBRANCH  33  34
ENDBRANCH   1  33
TORSDOF 18
ENDMDL
MODEL 3
REMARK VINA RESULT:     -13.1      0.579      1.726
REMARK SMILES CS(=O)(=O)c1ccc(C2=NN(c3ccc(C(=O)OCCOC(=O)c4ccc(-c5c6nc(c(-c7c(F)cc(S(=O)(=O)[O-])cc7F)c7ccc([nH]7)c(-c7c(F)cc(S(=O)(=O)[O-])cc7F)c7nc(c(-c8c(F)cc(S(=O)(=O)[O-])cc8F)c8ccc5[nH]8)C=C7)C=C6)cc4)cc3)[C@H](c3ccc(Cl)cc3)C2)cc1
REMARK SMILES IDX 19 1 18 2 16 3 17 4 15 5 12 6 13 7 91 8 14 9 90 10 11 11
REMARK SMILES IDX 9 12 10 13 100 14 92 15 8 16 5 17 6 18 102 19 7 20 101 21
REMARK SMILES IDX 2 22 1 23 3 24 4 25 93 26 94 27 99 28 95 29 98 30 96 31
REMARK SMILES IDX 97 32 20 33 21 34 22 35 23 36 24 37 25 38 89 39 26 40 88 41
REMARK SMILES IDX 27 42 28 43 29 44 82 45 30 46 87 47 81 48 83 49 31 50 86 51
REMARK SMILES IDX 80 52 79 53 32 55 66 56 45 57 65 58 46 59 49 60 64 61 84 62
REMARK SMILES IDX 47 63 48 64 63 66 85 67 50 68 33 69 34 70 43 71 35 72 36 73
REMARK SMILES IDX 42 74 44 75 37 76 38 77 39 78 40 79 41 80 67 81 68 82 77 83
REMARK SMILES IDX 69 84 70 85 76 86 78 87 71 88 72 89 73 90 74 91 75 92 51 93
REMARK SMILES IDX 52 94 61 95 53 96 54 97 60 98 62 99 55 100 56 101 57 102
REMARK SMILES IDX 58 103 59 104
REMARK H PARENT 83 54 49 65
REMARK Flexibility Score: inf
ROOT
ATOM      1  C   UNL A   1      40.739  22.749  26.804  1.00  0.00     0.275 C 
ENDROOT
BRANCH   1   2
ATOM      2  O   UNL A   1      39.460  23.207  26.324  1.00  0.00    -0.458 OA
BRANCH   2   3
ATOM      3  C   UNL A   1      38.680  22.257  25.754  1.00  0.00     0.338 C 
ATOM      4  O   UNL A   1      38.940  21.067  25.664  1.00  0.00    -0.246 OA
BRANCH   3   5
ATOM      5  C   UNL A   1      37.399  22.829  25.271  1.00  0.00     0.060 A 
ATOM      6  C   UNL A   1      34.874  23.818  24.540  1.00  0.00     0.060 A 
ATOM      7  C   UNL A   1      35.422  24.140  25.783  1.00  0.00     0.029 A 
ATOM      8  C   UNL A   1      35.633  23.057  23.639  1.00  0.00     0.029 A 
ATOM      9  C   UNL A   1      36.662  23.627  26.158  1.00  0.00     0.018 A 
ATOM     10  C   UNL A   1      36.892  22.565  23.997  1.00  0.00     0.018 A 
BRANCH   6  11
ATOM     11  N   UNL A   1      33.536  24.089  24.258  1.00  0.00    -0.257 N 
ATOM     12  C   UNL A   1      31.917  25.469  24.206  1.00  0.00     0.071 C 
ATOM     13  N   UNL A   1      33.158  25.325  23.856  1.00  0.00    -0.176 NA
ATOM     14  C   UNL A   1      31.331  24.333  25.004  1.00  0.00     0.091 C 
ATOM     15  C   UNL A   1      32.494  23.337  24.963  1.00  0.00     0.144 C 
BRANCH  12  16
ATOM     16  C   UNL A   1      31.116  26.657  23.844  1.00  0.00    -0.002 A 
ATOM     17  C   UNL A   1      29.518  28.875  23.269  1.00  0.00     0.067 A 
ATOM     18  C   UNL A   1      28.927  27.624  23.476  1.00  0.00     0.021 A 
ATOM     19  C   UNL A   1      30.908  29.018  23.319  1.00  0.00     0.021 A 
ATOM     20  C   UNL A   1      29.727  26.516  23.757  1.00  0.00     0.011 A 
ATOM     21  C   UNL A   1      31.708  27.905  23.615  1.00  0.00     0.011 A 
BRANCH  17  22
ATOM     22  S   UNL A   1      28.425  30.244  22.970  1.00  0.00     0.175 S 
ATOM     23  C   UNL A   1      28.607  30.718  21.276  1.00  0.00     0.163 C 
ATOM     24  O   UNL A   1      28.922  31.338  23.782  1.00  0.00    -0.224 OA
ATOM     25  O   UNL A   1      27.074  29.743  23.133  1.00  0.00    -0.224 OA
ENDBRANCH  17  22
ENDBRANCH  12  16
BRANCH  15  26
ATOM     26  C   UNL A   1      32.295  22.008  24.245  1.00  0.00    -0.023 A 
ATOM     27  C   UNL A   1      32.062  21.906  22.867  1.00  0.00     0.007 A 
ATOM     28  C   UNL A   1      32.510  20.819  24.974  1.00  0.00     0.007 A 
ATOM     29  C   UNL A   1      32.046  20.656  22.238  1.00  0.00     0.021 A 
ATOM     30  C   UNL A   1      32.521  19.574  24.344  1.00  0.00     0.021 A 
ATOM     31  C   UNL A   1      32.290  19.499  22.975  1.00  0.00     0.041 A 
ATOM     32  Cl  UNL A   1      32.337  17.971  22.184  1.00  0.00    -0.084 Cl
ENDBRANCH  15  26
ENDBRANCH   6  11
ENDBRANCH   3   5
ENDBRANCH   2   3
ENDBRANCH   1   2
BRANCH   1  33
ATOM     33  C   UNL A   1      41.864  23.242  25.896  1.00  0.00     0.275 C 
BRANCH  33  34
ATOM     34  O   UNL A   1      42.536  24.360  26.503  1.00  0.00    -0.458 OA
BRANCH  34  35
ATOM     35  C   UNL A   1      41.991  25.575  26.264  1.00  0.00     0.338 C 
ATOM     36  O   UNL A   1      41.624  26.028  25.194  1.00  0.00    -0.246 OA
BRANCH  35  37
ATOM     37  C   UNL A   1      41.876  26.313  27.531  1.00  0.00     0.060 A 
ATOM     38  C   UNL A   1      40.879  25.954  28.435  1.00  0.00     0.016 A 
ATOM     39  C   UNL A   1      42.675  27.428  27.774  1.00  0.00     0.016 A 
ATOM     40  C   UNL A   1      40.636  26.737  29.561  1.00  0.00     0.010 A 
ATOM     41  C   UNL A   1      42.477  28.176  28.942  1.00  0.00     0.010 A 
ATOM     42  C   UNL A   1      41.437  27.855  29.835  1.00  0.00    -0.014 A 
BRANCH  42  43
ATOM     43  C   UNL A   1      41.155  28.710  31.023  1.00  0.00     0.031 A 
ATOM     44  C   UNL A   1      40.017  29.698  30.987  1.00  0.00     0.074 A 
ATOM     45  C   UNL A   1      41.901  28.598  32.140  1.00  0.00     0.049 A 
ATOM     46  N   UNL A   1      39.710  30.639  31.844  1.00  0.00    -0.248 NA
ATOM     47  C   UNL A   1      39.111  29.625  29.830  1.00  0.00     0.031 C 
ATOM     48  C   UNL A   1      43.005  27.656  32.331  1.00  0.00     0.029 A 
ATOM     49  N   UNL A   1      41.841  29.281  33.331  1.00  0.00    -0.354 N 
ATOM     50  C   UNL A   1      38.616  31.305  31.303  1.00  0.00     0.074 A 
ATOM     51  C   UNL A   1      38.310  30.660  30.044  1.00  0.00     0.031 C 
ATOM     52  C   UNL A   1      43.497  27.799  33.572  1.00  0.00     0.029 A 
ATOM     53  C   UNL A   1      42.799  28.893  34.239  1.00  0.00     0.049 A 
ATOM     54  H   UNL A   1      41.176  29.983  33.517  1.00  0.00     0.167 HD
ATOM     55  C   UNL A   1      37.931  32.360  31.809  1.00  0.00     0.037 A 
ATOM     56  C   UNL A   1      43.109  29.384  35.454  1.00  0.00     0.037 A 
ATOM     57  C   UNL A   1      38.201  32.962  33.090  1.00  0.00     0.049 A 
ATOM     58  C   UNL A   1      42.344  30.561  35.992  1.00  0.00     0.074 A 
ATOM     59  C   UNL A   1      37.549  34.022  33.697  1.00  0.00     0.029 A 
ATOM     60  N   UNL A   1      39.191  32.548  33.967  1.00  0.00    -0.354 N 
ATOM     61  N   UNL A   1      41.347  31.214  35.443  1.00  0.00    -0.248 NA
ATOM     62  C   UNL A   1      42.757  31.081  37.302  1.00  0.00     0.031 C 
ATOM     63  C   UNL A   1      38.164  34.268  34.930  1.00  0.00     0.029 A 
ATOM     64  C   UNL A   1      39.176  33.336  35.107  1.00  0.00     0.049 A 
ATOM     65  H   UNL A   1      39.815  31.804  33.805  1.00  0.00     0.167 HD
ATOM     66  C   UNL A   1      41.013  32.219  36.342  1.00  0.00     0.074 A 
ATOM     67  C   UNL A   1      41.898  32.075  37.480  1.00  0.00     0.031 C 
ATOM     68  C   UNL A   1      40.064  33.180  36.231  1.00  0.00     0.037 A 
BRANCH  55  69
ATOM     69  C   UNL A   1      36.842  32.954  30.960  1.00  0.00     0.058 A 
ATOM     70  C   UNL A   1      37.111  33.879  29.939  1.00  0.00     0.135 A 
ATOM     71  C   UNL A   1      35.506  32.564  31.155  1.00  0.00     0.135 A 
ATOM     72  F   UNL A   1      38.368  34.297  29.722  1.00  0.00    -0.206 F 
ATOM     73  C   UNL A   1      36.092  34.417  29.158  1.00  0.00     0.059 A 
ATOM     74  C   UNL A   1      34.474  33.071  30.370  1.00  0.00     0.059 A 
ATOM     75  F   UNL A   1      35.193  31.682  32.116  1.00  0.00    -0.206 F 
ATOM     76  C   UNL A   1      34.775  34.009  29.384  1.00  0.00     0.060 A 
BRANCH  76  77
ATOM     77  S   UNL A   1      33.461  34.710  28.364  1.00  0.00     0.124 S 
ATOM     78  O   UNL A   1      34.222  35.559  27.452  1.00  0.00    -0.237 OA
ATOM     79  O   UNL A   1      32.856  33.522  27.768  1.00  0.00    -0.237 OA
ATOM     80  O   UNL A   1      32.623  35.417  29.328  1.00  0.00    -0.744 OA
ENDBRANCH  76  77
ENDBRANCH  55  69
BRANCH  56  81
ATOM     81  C   UNL A   1      44.225  28.781  36.231  1.00  0.00     0.058 A 
ATOM     82  C   UNL A   1      45.521  29.314  36.168  1.00  0.00     0.135 A 
ATOM     83  C   UNL A   1      44.011  27.679  37.074  1.00  0.00     0.135 A 
ATOM     84  F   UNL A   1      45.778  30.358  35.366  1.00  0.00    -0.206 F 
ATOM     85  C   UNL A   1      46.566  28.777  36.912  1.00  0.00     0.059 A 
ATOM     86  C   UNL A   1      45.033  27.141  37.848  1.00  0.00     0.059 A 
ATOM     87  F   UNL A   1      42.786  27.139  37.176  1.00  0.00    -0.206 F 
ATOM     88  C   UNL A   1      46.311  27.693  37.755  1.00  0.00     0.060 A 
BRANCH  88  89
ATOM     89  S   UNL A   1      47.653  27.050  38.779  1.00  0.00     0.124 S 
ATOM     90  O   UNL A   1      48.389  26.237  37.818  1.00  0.00    -0.237 OA
ATOM     91  O   UNL A   1      48.317  28.271  39.222  1.00  0.00    -0.237 OA
ATOM     92  O   UNL A   1      46.950  26.314  39.825  1.00  0.00    -0.744 OA
ENDBRANCH  88  89
ENDBRANCH  56  81
BRANCH  68  93
ATOM     93  C   UNL A   1      39.919  34.138  37.379  1.00  0.00     0.058 A 
ATOM     94  C   UNL A   1      39.074  33.861  38.464  1.00  0.00     0.135 A 
ATOM     95  C   UNL A   1      40.661  35.330  37.410  1.00  0.00     0.135 A 
ATOM     96  F   UNL A   1      38.339  32.738  38.477  1.00  0.00    -0.206 F 
ATOM     97  C   UNL A   1      38.954  34.742  39.533  1.00  0.00     0.059 A 
ATOM     98  C   UNL A   1      40.571  36.216  38.479  1.00  0.00     0.059 A 
ATOM     99  F   UNL A   1      41.488  35.638  36.399  1.00  0.00    -0.206 F 
ATOM    100  C   UNL A   1      39.706  35.919  39.531  1.00  0.00     0.060 A 
BRANCH 100 101
ATOM    101  S   UNL A   1      39.560  37.046  40.934  1.00  0.00     0.124 S 
ATOM    102  O   UNL A   1      38.915  36.194  41.929  1.00  0.00    -0.237 OA
ATOM    103  O   UNL A   1      40.951  37.395  41.205  1.00  0.00    -0.237 OA
ATOM    104  O   UNL A   1      38.738  38.132  40.410  1.00  0.00    -0.744 OA
ENDBRANCH 100 101
ENDBRANCH  68  93
ENDBRANCH  42  43
ENDBRANCH  35  37
ENDBRANCH  34  35
ENDBRANCH  33  34
ENDBRANCH   1  33
TORSDOF 18
ENDMDL
