MODEL 1
REMARK VINA RESULT:     -12.5      0.000      0.000
REMARK SMILES NS(=O)(=O)c1ccc(-n2nc(C(=O)OCCOC(=O)c3ccc(-c4c5nc(c(-c6c(F)cc(S(=O)(=O)[O-])cc6F)c6ccc([nH]6)c(-c6c(F)cc(S(=O)(=O)[O-])cc6F)c6nc(c(-c7c(F)cc(S(=O)(=O)[O-])cc7F)c7ccc4[nH]7)C=C6)C=C5)cc3)cc2-c2ccc(Cl)s2)cc1
REMARK SMILES IDX 15 1 14 2 12 3 13 4 11 5 9 6 10 7 87 8 86 9 8 10 5 11 6 12
REMARK SMILES IDX 95 13 7 14 94 15 2 16 3 17 4 18 1 19 88 22 89 23 93 24 90 25
REMARK SMILES IDX 91 26 92 27 16 28 17 29 18 30 19 31 20 32 21 33 85 34 22 35
REMARK SMILES IDX 84 36 23 37 24 38 25 39 78 40 26 41 83 42 77 43 79 44 27 45
REMARK SMILES IDX 82 46 76 47 75 48 28 50 62 51 41 52 61 53 42 54 45 55 60 56
REMARK SMILES IDX 80 57 43 58 44 59 59 61 81 62 46 63 29 64 30 65 39 66 31 67
REMARK SMILES IDX 32 68 38 69 40 70 33 71 34 72 35 73 36 74 37 75 63 76 64 77
REMARK SMILES IDX 73 78 65 79 66 80 72 81 74 82 67 83 68 84 69 85 70 86 71 87
REMARK SMILES IDX 47 88 48 89 57 90 49 91 50 92 56 93 58 94 51 95 52 96 53 97
REMARK SMILES IDX 54 98 55 99
REMARK H PARENT 1 20 1 21 79 49 45 60
REMARK Flexibility Score: inf
ROOT
ATOM      1  C   UNL A   1      37.021  22.850  24.493  1.00  0.00     0.275 C 
ENDROOT
BRANCH   1   2
ATOM      2  O   UNL A   1      35.589  22.955  24.602  1.00  0.00    -0.457 OA
BRANCH   2   3
ATOM      3  C   UNL A   1      34.924  23.522  23.539  1.00  0.00     0.358 C 
ATOM      4  O   UNL A   1      35.023  23.125  22.382  1.00  0.00    -0.244 OA
BRANCH   3   5
ATOM      5  C   UNL A   1      34.054  24.629  23.974  1.00  0.00     0.171 A 
ATOM      6  N   UNL A   1      32.452  26.056  24.031  1.00  0.00    -0.231 N 
ATOM      7  N   UNL A   1      32.921  24.990  23.334  1.00  0.00    -0.160 NA
ATOM      8  C   UNL A   1      33.278  26.391  25.091  1.00  0.00     0.085 A 
ATOM      9  C   UNL A   1      34.270  25.442  25.112  1.00  0.00     0.068 A 
BRANCH   6  10
ATOM     10  C   UNL A   1      31.352  26.805  23.552  1.00  0.00     0.065 A 
ATOM     11  C   UNL A   1      29.236  28.491  22.916  1.00  0.00     0.082 A 
ATOM     12  C   UNL A   1      30.533  28.825  22.510  1.00  0.00     0.024 A 
ATOM     13  C   UNL A   1      28.988  27.305  23.620  1.00  0.00     0.024 A 
ATOM     14  C   UNL A   1      31.595  27.984  22.836  1.00  0.00     0.030 A 
ATOM     15  C   UNL A   1      30.051  26.442  23.921  1.00  0.00     0.030 A 
BRANCH  11  16
ATOM     16  S   UNL A   1      27.948  29.641  22.531  1.00  0.00     0.238 S 
ATOM     17  O   UNL A   1      27.960  29.878  21.109  1.00  0.00    -0.207 OA
ATOM     18  O   UNL A   1      28.006  30.722  23.493  1.00  0.00    -0.207 OA
BRANCH  16  19
ATOM     19  N   UNL A   1      26.518  28.833  22.859  1.00  0.00    -0.225 NA
ATOM     20  H   UNL A   1      25.728  29.460  22.700  1.00  0.00     0.137 HD
ATOM     21  H   UNL A   1      26.516  28.525  23.832  1.00  0.00     0.137 HD
ENDBRANCH  16  19
ENDBRANCH  11  16
ENDBRANCH   6  10
BRANCH   8  22
ATOM     22  C   UNL A   1      33.116  27.508  25.971  1.00  0.00     0.054 A 
ATOM     23  C   UNL A   1      32.176  27.603  26.979  1.00  0.00     0.024 A 
ATOM     24  S   UNL A   1      34.087  28.917  25.879  1.00  0.00    -0.122 S 
ATOM     25  C   UNL A   1      32.305  28.810  27.724  1.00  0.00     0.033 A 
ATOM     26  C   UNL A   1      33.315  29.591  27.224  1.00  0.00     0.094 A 
ATOM     27  Cl  UNL A   1      33.823  31.114  27.831  1.00  0.00    -0.072 Cl
ENDBRANCH   8  22
ENDBRANCH   3   5
ENDBRANCH   2   3
ENDBRANCH   1   2
BRANCH   1  28
ATOM     28  C   UNL A   1      37.630  22.186  25.722  1.00  0.00     0.275 C 
BRANCH  28  29
ATOM     29  O   UNL A   1      38.290  23.161  26.520  1.00  0.00    -0.458 OA
BRANCH  29  30
ATOM     30  C   UNL A   1      39.552  22.848  26.899  1.00  0.00     0.338 C 
ATOM     31  O   UNL A   1      39.937  21.770  27.319  1.00  0.00    -0.246 OA
BRANCH  30  32
ATOM     32  C   UNL A   1      40.352  24.076  26.916  1.00  0.00     0.060 A 
ATOM     33  C   UNL A   1      41.464  24.066  27.762  1.00  0.00     0.016 A 
ATOM     34  C   UNL A   1      39.771  25.263  26.450  1.00  0.00     0.016 A 
ATOM     35  C   UNL A   1      41.802  25.244  28.384  1.00  0.00     0.010 A 
ATOM     36  C   UNL A   1      40.092  26.431  27.088  1.00  0.00     0.010 A 
ATOM     37  C   UNL A   1      41.024  26.375  28.121  1.00  0.00    -0.014 A 
BRANCH  37  38
ATOM     38  C   UNL A   1      41.228  27.546  28.936  1.00  0.00     0.031 A 
ATOM     39  C   UNL A   1      42.284  28.429  28.403  1.00  0.00     0.074 A 
ATOM     40  C   UNL A   1      40.420  27.827  29.976  1.00  0.00     0.049 A 
ATOM     41  N   UNL A   1      43.449  28.665  28.905  1.00  0.00    -0.248 NA
ATOM     42  C   UNL A   1      42.100  28.940  27.033  1.00  0.00     0.031 C 
ATOM     43  C   UNL A   1      39.183  27.155  30.385  1.00  0.00     0.029 A 
ATOM     44  N   UNL A   1      40.491  28.879  30.830  1.00  0.00    -0.354 N 
ATOM     45  C   UNL A   1      44.047  29.556  28.022  1.00  0.00     0.074 A 
ATOM     46  C   UNL A   1      43.288  29.496  26.801  1.00  0.00     0.031 C 
ATOM     47  C   UNL A   1      38.508  27.952  31.246  1.00  0.00     0.029 A 
ATOM     48  C   UNL A   1      39.319  29.119  31.539  1.00  0.00     0.049 A 
ATOM     49  H   UNL A   1      41.303  29.423  30.941  1.00  0.00     0.167 HD
ATOM     50  C   UNL A   1      44.940  30.486  28.452  1.00  0.00     0.037 A 
ATOM     51  C   UNL A   1      39.034  30.276  32.191  1.00  0.00     0.037 A 
ATOM     52  C   UNL A   1      45.471  30.151  29.749  1.00  0.00     0.049 A 
ATOM     53  C   UNL A   1      40.343  30.956  32.439  1.00  0.00     0.074 A 
ATOM     54  C   UNL A   1      46.169  29.068  30.249  1.00  0.00     0.029 A 
ATOM     55  N   UNL A   1      44.954  30.800  30.845  1.00  0.00    -0.354 N 
ATOM     56  N   UNL A   1      41.277  30.464  33.214  1.00  0.00    -0.248 NA
ATOM     57  C   UNL A   1      40.810  31.902  31.433  1.00  0.00     0.031 C 
ATOM     58  C   UNL A   1      45.624  28.845  31.548  1.00  0.00     0.029 A 
ATOM     59  C   UNL A   1      44.677  29.841  31.791  1.00  0.00     0.049 A 
ATOM     60  H   UNL A   1      44.809  31.769  30.936  1.00  0.00     0.167 HD
ATOM     61  C   UNL A   1      42.471  30.712  32.548  1.00  0.00     0.074 A 
ATOM     62  C   UNL A   1      42.122  31.648  31.480  1.00  0.00     0.031 C 
ATOM     63  C   UNL A   1      43.573  29.922  32.726  1.00  0.00     0.037 A 
BRANCH  50  64
ATOM     64  C   UNL A   1      45.030  31.867  27.859  1.00  0.00     0.058 A 
ATOM     65  C   UNL A   1      46.219  32.271  27.226  1.00  0.00     0.135 A 
ATOM     66  C   UNL A   1      44.093  32.897  28.117  1.00  0.00     0.135 A 
ATOM     67  F   UNL A   1      47.183  31.378  26.950  1.00  0.00    -0.206 F 
ATOM     68  C   UNL A   1      46.484  33.607  26.927  1.00  0.00     0.059 A 
ATOM     69  C   UNL A   1      44.309  34.222  27.772  1.00  0.00     0.059 A 
ATOM     70  F   UNL A   1      42.968  32.689  28.811  1.00  0.00    -0.206 F 
ATOM     71  C   UNL A   1      45.526  34.576  27.218  1.00  0.00     0.060 A 
BRANCH  71  72
ATOM     72  S   UNL A   1      45.908  36.313  26.945  1.00  0.00     0.124 S 
ATOM     73  O   UNL A   1      46.714  36.244  25.731  1.00  0.00    -0.237 OA
ATOM     74  O   UNL A   1      44.579  36.895  26.799  1.00  0.00    -0.237 OA
ATOM     75  O   UNL A   1      46.624  36.695  28.159  1.00  0.00    -0.744 OA
ENDBRANCH  71  72
ENDBRANCH  50  64
BRANCH  51  76
ATOM     76  C   UNL A   1      37.728  30.997  32.164  1.00  0.00     0.058 A 
ATOM     77  C   UNL A   1      37.118  31.466  33.341  1.00  0.00     0.135 A 
ATOM     78  C   UNL A   1      37.172  31.468  30.955  1.00  0.00     0.135 A 
ATOM     79  F   UNL A   1      37.598  31.099  34.540  1.00  0.00    -0.206 F 
ATOM     80  C   UNL A   1      36.042  32.366  33.320  1.00  0.00     0.059 A 
ATOM     81  C   UNL A   1      36.098  32.353  30.908  1.00  0.00     0.059 A 
ATOM     82  F   UNL A   1      37.714  31.152  29.770  1.00  0.00    -0.206 F 
ATOM     83  C   UNL A   1      35.548  32.816  32.095  1.00  0.00     0.060 A 
BRANCH  83  84
ATOM     84  S   UNL A   1      34.261  34.088  32.053  1.00  0.00     0.124 S 
ATOM     85  O   UNL A   1      33.843  34.048  30.656  1.00  0.00    -0.237 OA
ATOM     86  O   UNL A   1      33.296  33.584  33.024  1.00  0.00    -0.237 OA
ATOM     87  O   UNL A   1      34.970  35.301  32.456  1.00  0.00    -0.744 OA
ENDBRANCH  83  84
ENDBRANCH  51  76
BRANCH  63  88
ATOM     88  C   UNL A   1      43.553  28.890  33.829  1.00  0.00     0.058 A 
ATOM     89  C   UNL A   1      43.828  29.173  35.180  1.00  0.00     0.135 A 
ATOM     90  C   UNL A   1      43.053  27.612  33.538  1.00  0.00     0.135 A 
ATOM     91  F   UNL A   1      44.205  30.401  35.561  1.00  0.00    -0.206 F 
ATOM     92  C   UNL A   1      43.647  28.222  36.188  1.00  0.00     0.059 A 
ATOM     93  C   UNL A   1      42.837  26.657  34.529  1.00  0.00     0.059 A 
ATOM     94  F   UNL A   1      42.707  27.298  32.279  1.00  0.00    -0.206 F 
ATOM     95  C   UNL A   1      43.147  26.964  35.853  1.00  0.00     0.060 A 
BRANCH  95  96
ATOM     96  S   UNL A   1      42.833  25.763  37.165  1.00  0.00     0.124 S 
ATOM     97  O   UNL A   1      41.424  25.445  36.960  1.00  0.00    -0.237 OA
ATOM     98  O   UNL A   1      43.776  24.694  36.849  1.00  0.00    -0.237 OA
ATOM     99  O   UNL A   1      43.134  26.506  38.387  1.00  0.00    -0.744 OA
ENDBRANCH  95  96
ENDBRANCH  63  88
ENDBRANCH  37  38
ENDBRANCH  30  32
ENDBRANCH  29  30
ENDBRANCH  28  29
ENDBRANCH   1  28
TORSDOF 18
ENDMDL
MODEL 2
REMARK VINA RESULT:     -12.1      3.194      4.590
REMARK SMILES NS(=O)(=O)c1ccc(-n2nc(C(=O)OCCOC(=O)c3ccc(-c4c5nc(c(-c6c(F)cc(S(=O)(=O)[O-])cc6F)c6ccc([nH]6)c(-c6c(F)cc(S(=O)(=O)[O-])cc6F)c6nc(c(-c7c(F)cc(S(=O)(=O)[O-])cc7F)c7ccc4[nH]7)C=C6)C=C5)cc3)cc2-c2ccc(Cl)s2)cc1
REMARK SMILES IDX 15 1 14 2 12 3 13 4 11 5 9 6 10 7 87 8 86 9 8 10 5 11 6 12
REMARK SMILES IDX 95 13 7 14 94 15 2 16 3 17 4 18 1 19 88 22 89 23 93 24 90 25
REMARK SMILES IDX 91 26 92 27 16 28 17 29 18 30 19 31 20 32 21 33 85 34 22 35
REMARK SMILES IDX 84 36 23 37 24 38 25 39 78 40 26 41 83 42 77 43 79 44 27 45
REMARK SMILES IDX 82 46 76 47 75 48 28 50 62 51 41 52 61 53 42 54 45 55 60 56
REMARK SMILES IDX 80 57 43 58 44 59 59 61 81 62 46 63 29 64 30 65 39 66 31 67
REMARK SMILES IDX 32 68 38 69 40 70 33 71 34 72 35 73 36 74 37 75 63 76 64 77
REMARK SMILES IDX 73 78 65 79 66 80 72 81 74 82 67 83 68 84 69 85 70 86 71 87
REMARK SMILES IDX 47 88 48 89 57 90 49 91 50 92 56 93 58 94 51 95 52 96 53 97
REMARK SMILES IDX 54 98 55 99
REMARK H PARENT 1 20 1 21 79 49 45 60
REMARK Flexibility Score: inf
ROOT
ATOM      1  C   UNL A   1      40.678  20.048  26.826  1.00  0.00     0.275 C 
ENDROOT
BRANCH   1   2
ATOM      2  O   UNL A   1      39.687  20.559  25.915  1.00  0.00    -0.457 OA
BRANCH   2   3
ATOM      3  C   UNL A   1      39.280  21.859  26.105  1.00  0.00     0.358 C 
ATOM      4  O   UNL A   1      40.020  22.757  26.492  1.00  0.00    -0.244 OA
BRANCH   3   5
ATOM      5  C   UNL A   1      37.862  22.039  25.743  1.00  0.00     0.171 A 
ATOM      6  N   UNL A   1      35.911  22.907  25.530  1.00  0.00    -0.231 N 
ATOM      7  N   UNL A   1      37.164  23.171  25.979  1.00  0.00    -0.160 NA
ATOM      8  C   UNL A   1      35.794  21.621  25.033  1.00  0.00     0.085 A 
ATOM      9  C   UNL A   1      37.054  21.076  25.095  1.00  0.00     0.068 A 
BRANCH   6  10
ATOM     10  C   UNL A   1      34.855  23.820  25.762  1.00  0.00     0.065 A 
ATOM     11  C   UNL A   1      32.583  25.408  25.967  1.00  0.00     0.082 A 
ATOM     12  C   UNL A   1      32.708  24.271  26.773  1.00  0.00     0.024 A 
ATOM     13  C   UNL A   1      33.602  25.768  25.074  1.00  0.00     0.024 A 
ATOM     14  C   UNL A   1      33.842  23.470  26.664  1.00  0.00     0.030 A 
ATOM     15  C   UNL A   1      34.758  24.981  24.986  1.00  0.00     0.030 A 
BRANCH  11  16
ATOM     16  S   UNL A   1      31.084  26.337  26.106  1.00  0.00     0.238 S 
ATOM     17  O   UNL A   1      30.041  25.450  26.556  1.00  0.00    -0.207 OA
ATOM     18  O   UNL A   1      30.945  27.149  24.915  1.00  0.00    -0.207 OA
BRANCH  16  19
ATOM     19  N   UNL A   1      31.348  27.422  27.354  1.00  0.00    -0.225 NA
ATOM     20  H   UNL A   1      31.255  26.940  28.249  1.00  0.00     0.137 HD
ATOM     21  H   UNL A   1      30.661  28.175  27.301  1.00  0.00     0.137 HD
ENDBRANCH  16  19
ENDBRANCH  11  16
ENDBRANCH   6  10
BRANCH   8  22
ATOM     22  C   UNL A   1      34.595  21.001  24.559  1.00  0.00     0.054 A 
ATOM     23  C   UNL A   1      33.577  21.642  23.878  1.00  0.00     0.024 A 
ATOM     24  S   UNL A   1      34.248  19.339  24.793  1.00  0.00    -0.122 S 
ATOM     25  C   UNL A   1      32.544  20.744  23.484  1.00  0.00     0.033 A 
ATOM     26  C   UNL A   1      32.809  19.470  23.915  1.00  0.00     0.094 A 
ATOM     27  Cl  UNL A   1      31.840  18.079  23.643  1.00  0.00    -0.072 Cl
ENDBRANCH   8  22
ENDBRANCH   3   5
ENDBRANCH   2   3
ENDBRANCH   1   2
BRANCH   1  28
ATOM     28  C   UNL A   1      41.955  19.644  26.099  1.00  0.00     0.275 C 
BRANCH  28  29
ATOM     29  O   UNL A   1      42.963  20.625  26.313  1.00  0.00    -0.458 OA
BRANCH  29  30
ATOM     30  C   UNL A   1      43.763  20.881  25.251  1.00  0.00     0.338 C 
ATOM     31  O   UNL A   1      44.245  20.058  24.491  1.00  0.00    -0.246 OA
BRANCH  30  32
ATOM     32  C   UNL A   1      44.129  22.300  25.274  1.00  0.00     0.060 A 
ATOM     33  C   UNL A   1      45.144  22.653  26.165  1.00  0.00     0.016 A 
ATOM     34  C   UNL A   1      43.221  23.236  24.758  1.00  0.00     0.016 A 
ATOM     35  C   UNL A   1      45.060  23.882  26.774  1.00  0.00     0.010 A 
ATOM     36  C   UNL A   1      43.124  24.449  25.382  1.00  0.00     0.010 A 
ATOM     37  C   UNL A   1      43.975  24.703  26.453  1.00  0.00    -0.014 A 
BRANCH  37  38
ATOM     38  C   UNL A   1      43.757  25.884  27.250  1.00  0.00     0.031 A 
ATOM     39  C   UNL A   1      44.766  26.931  26.996  1.00  0.00     0.074 A 
ATOM     40  C   UNL A   1      42.658  26.022  28.016  1.00  0.00     0.049 A 
ATOM     41  N   UNL A   1      45.693  27.349  27.791  1.00  0.00    -0.248 NA
ATOM     42  C   UNL A   1      44.891  27.418  25.611  1.00  0.00     0.031 C 
ATOM     43  C   UNL A   1      41.478  25.154  28.093  1.00  0.00     0.029 A 
ATOM     44  N   UNL A   1      42.321  27.063  28.818  1.00  0.00    -0.354 N 
ATOM     45  C   UNL A   1      46.364  28.332  27.075  1.00  0.00     0.074 A 
ATOM     46  C   UNL A   1      45.993  28.161  25.695  1.00  0.00     0.031 C 
ATOM     47  C   UNL A   1      40.474  25.823  28.705  1.00  0.00     0.029 A 
ATOM     48  C   UNL A   1      40.976  27.104  29.167  1.00  0.00     0.049 A 
ATOM     49  H   UNL A   1      42.974  27.731  29.128  1.00  0.00     0.167 HD
ATOM     50  C   UNL A   1      46.944  29.392  27.699  1.00  0.00     0.037 A 
ATOM     51  C   UNL A   1      40.342  28.193  29.673  1.00  0.00     0.037 A 
ATOM     52  C   UNL A   1      47.139  29.135  29.104  1.00  0.00     0.049 A 
ATOM     53  C   UNL A   1      41.406  29.074  30.247  1.00  0.00     0.074 A 
ATOM     54  C   UNL A   1      47.833  28.175  29.816  1.00  0.00     0.029 A 
ATOM     55  N   UNL A   1      46.242  29.682  29.991  1.00  0.00    -0.354 N 
ATOM     56  N   UNL A   1      42.153  28.733  31.266  1.00  0.00    -0.248 NA
ATOM     57  C   UNL A   1      41.978  30.092  29.374  1.00  0.00     0.031 C 
ATOM     58  C   UNL A   1      46.991  27.855  30.922  1.00  0.00     0.029 A 
ATOM     59  C   UNL A   1      45.869  28.683  30.859  1.00  0.00     0.049 A 
ATOM     60  H   UNL A   1      45.926  30.614  30.003  1.00  0.00     0.167 HD
ATOM     61  C   UNL A   1      43.431  29.177  30.946  1.00  0.00     0.074 A 
ATOM     62  C   UNL A   1      43.248  30.054  29.790  1.00  0.00     0.031 C 
ATOM     63  C   UNL A   1      44.551  28.575  31.449  1.00  0.00     0.037 A 
BRANCH  50  64
ATOM     64  C   UNL A   1      46.974  30.774  27.104  1.00  0.00     0.058 A 
ATOM     65  C   UNL A   1      48.195  31.471  27.039  1.00  0.00     0.135 A 
ATOM     66  C   UNL A   1      45.816  31.542  26.837  1.00  0.00     0.135 A 
ATOM     67  F   UNL A   1      49.354  30.842  27.292  1.00  0.00    -0.206 F 
ATOM     68  C   UNL A   1      48.254  32.841  26.788  1.00  0.00     0.059 A 
ATOM     69  C   UNL A   1      45.856  32.892  26.523  1.00  0.00     0.059 A 
ATOM     70  F   UNL A   1      44.578  31.049  26.969  1.00  0.00    -0.206 F 
ATOM     71  C   UNL A   1      47.076  33.544  26.545  1.00  0.00     0.060 A 
BRANCH  71  72
ATOM     72  S   UNL A   1      47.134  35.330  26.337  1.00  0.00     0.124 S 
ATOM     73  O   UNL A   1      47.409  35.771  27.700  1.00  0.00    -0.237 OA
ATOM     74  O   UNL A   1      48.222  35.488  25.380  1.00  0.00    -0.237 OA
ATOM     75  O   UNL A   1      45.804  35.652  25.825  1.00  0.00    -0.744 OA
ENDBRANCH  71  72
ENDBRANCH  50  64
BRANCH  51  76
ATOM     76  C   UNL A   1      38.998  28.693  29.261  1.00  0.00     0.058 A 
ATOM     77  C   UNL A   1      37.946  28.834  30.184  1.00  0.00     0.135 A 
ATOM     78  C   UNL A   1      38.789  29.287  27.997  1.00  0.00     0.135 A 
ATOM     79  F   UNL A   1      38.067  28.331  31.422  1.00  0.00    -0.206 F 
ATOM     80  C   UNL A   1      36.774  29.543  29.881  1.00  0.00     0.059 A 
ATOM     81  C   UNL A   1      37.629  29.986  27.670  1.00  0.00     0.059 A 
ATOM     82  F   UNL A   1      39.748  29.285  27.060  1.00  0.00    -0.206 F 
ATOM     83  C   UNL A   1      36.632  30.128  28.623  1.00  0.00     0.060 A 
BRANCH  83  84
ATOM     84  S   UNL A   1      35.194  31.169  28.269  1.00  0.00     0.124 S 
ATOM     85  O   UNL A   1      34.776  31.572  29.607  1.00  0.00    -0.237 OA
ATOM     86  O   UNL A   1      35.769  32.218  27.436  1.00  0.00    -0.237 OA
ATOM     87  O   UNL A   1      34.280  30.261  27.580  1.00  0.00    -0.744 OA
ENDBRANCH  83  84
ENDBRANCH  51  76
BRANCH  63  88
ATOM     88  C   UNL A   1      44.388  27.544  32.541  1.00  0.00     0.058 A 
ATOM     89  C   UNL A   1      44.198  27.856  33.901  1.00  0.00     0.135 A 
ATOM     90  C   UNL A   1      44.230  26.200  32.172  1.00  0.00     0.135 A 
ATOM     91  F   UNL A   1      44.224  29.127  34.323  1.00  0.00    -0.206 F 
ATOM     92  C   UNL A   1      43.899  26.876  34.852  1.00  0.00     0.059 A 
ATOM     93  C   UNL A   1      43.903  25.210  33.096  1.00  0.00     0.059 A 
ATOM     94  F   UNL A   1      44.331  25.843  30.881  1.00  0.00    -0.206 F 
ATOM     95  C   UNL A   1      43.749  25.553  34.438  1.00  0.00     0.060 A 
BRANCH  95  96
ATOM     96  S   UNL A   1      43.280  24.300  35.651  1.00  0.00     0.124 S 
ATOM     97  O   UNL A   1      44.280  23.263  35.424  1.00  0.00    -0.237 OA
ATOM     98  O   UNL A   1      43.392  25.022  36.915  1.00  0.00    -0.237 OA
ATOM     99  O   UNL A   1      41.915  23.947  35.266  1.00  0.00    -0.744 OA
ENDBRANCH  95  96
ENDBRANCH  63  88
ENDBRANCH  37  38
ENDBRANCH  30  32
ENDBRANCH  29  30
ENDBRANCH  28  29
ENDBRANCH   1  28
TORSDOF 18
ENDMDL
MODEL 3
REMARK VINA RESULT:     -11.6      3.400      5.264
REMARK SMILES NS(=O)(=O)c1ccc(-n2nc(C(=O)OCCOC(=O)c3ccc(-c4c5nc(c(-c6c(F)cc(S(=O)(=O)[O-])cc6F)c6ccc([nH]6)c(-c6c(F)cc(S(=O)(=O)[O-])cc6F)c6nc(c(-c7c(F)cc(S(=O)(=O)[O-])cc7F)c7ccc4[nH]7)C=C6)C=C5)cc3)cc2-c2ccc(Cl)s2)cc1
REMARK SMILES IDX 15 1 14 2 12 3 13 4 11 5 9 6 10 7 87 8 86 9 8 10 5 11 6 12
REMARK SMILES IDX 95 13 7 14 94 15 2 16 3 17 4 18 1 19 88 22 89 23 93 24 90 25
REMARK SMILES IDX 91 26 92 27 16 28 17 29 18 30 19 31 20 32 21 33 85 34 22 35
REMARK SMILES IDX 84 36 23 37 24 38 25 39 78 40 26 41 83 42 77 43 79 44 27 45
REMARK SMILES IDX 82 46 76 47 75 48 28 50 62 51 41 52 61 53 42 54 45 55 60 56
REMARK SMILES IDX 80 57 43 58 44 59 59 61 81 62 46 63 29 64 30 65 39 66 31 67
REMARK SMILES IDX 32 68 38 69 40 70 33 71 34 72 35 73 36 74 37 75 63 76 64 77
REMARK SMILES IDX 73 78 65 79 66 80 72 81 74 82 67 83 68 84 69 85 70 86 71 87
REMARK SMILES IDX 47 88 48 89 57 90 49 91 50 92 56 93 58 94 51 95 52 96 53 97
REMARK SMILES IDX 54 98 55 99
REMARK H PARENT 1 20 1 21 79 49 45 60
REMARK Flexibility Score: inf
ROOT
ATOM      1  C   UNL A   1      40.866  23.185  27.315  1.00  0.00     0.275 C 
ENDROOT
BRANCH   1   2
ATOM      2  O   UNL A   1      39.719  22.965  26.473  1.00  0.00    -0.457 OA
BRANCH   2   3
ATOM      3  C   UNL A   1      38.700  23.886  26.558  1.00  0.00     0.358 C 
ATOM      4  O   UNL A   1      38.844  25.027  26.985  1.00  0.00    -0.244 OA
BRANCH   3   5
ATOM      5  C   UNL A   1      37.434  23.342  26.034  1.00  0.00     0.171 A 
ATOM      6  N   UNL A   1      35.877  21.965  25.503  1.00  0.00    -0.231 N 
ATOM      7  N   UNL A   1      37.076  22.044  26.133  1.00  0.00    -0.160 NA
ATOM      8  C   UNL A   1      35.476  23.186  24.987  1.00  0.00     0.085 A 
ATOM      9  C   UNL A   1      36.428  24.094  25.382  1.00  0.00     0.068 A 
BRANCH   6  10
ATOM     10  C   UNL A   1      35.266  20.711  25.268  1.00  0.00     0.065 A 
ATOM     11  C   UNL A   1      34.074  18.340  24.441  1.00  0.00     0.082 A 
ATOM     12  C   UNL A   1      35.469  18.437  24.476  1.00  0.00     0.024 A 
ATOM     13  C   UNL A   1      33.270  19.417  24.840  1.00  0.00     0.024 A 
ATOM     14  C   UNL A   1      36.067  19.628  24.882  1.00  0.00     0.030 A 
ATOM     15  C   UNL A   1      33.870  20.605  25.278  1.00  0.00     0.030 A 
BRANCH  11  16
ATOM     16  S   UNL A   1      33.384  16.824  23.845  1.00  0.00     0.238 S 
ATOM     17  O   UNL A   1      34.345  15.771  24.064  1.00  0.00    -0.207 OA
ATOM     18  O   UNL A   1      32.799  17.075  22.544  1.00  0.00    -0.207 OA
BRANCH  16  19
ATOM     19  N   UNL A   1      32.091  16.496  24.857  1.00  0.00    -0.225 NA
ATOM     20  H   UNL A   1      31.295  17.077  24.592  1.00  0.00     0.137 HD
ATOM     21  H   UNL A   1      32.353  16.699  25.821  1.00  0.00     0.137 HD
ENDBRANCH  16  19
ENDBRANCH  11  16
ENDBRANCH   6  10
BRANCH   8  22
ATOM     22  C   UNL A   1      34.306  23.431  24.200  1.00  0.00     0.054 A 
ATOM     23  C   UNL A   1      34.198  23.218  22.839  1.00  0.00     0.024 A 
ATOM     24  S   UNL A   1      32.851  24.052  24.859  1.00  0.00    -0.122 S 
ATOM     25  C   UNL A   1      32.889  23.498  22.352  1.00  0.00     0.033 A 
ATOM     26  C   UNL A   1      32.074  23.943  23.361  1.00  0.00     0.094 A 
ATOM     27  Cl  UNL A   1      30.419  24.374  23.220  1.00  0.00    -0.072 Cl
ENDBRANCH   8  22
ENDBRANCH   3   5
ENDBRANCH   2   3
ENDBRANCH   1   2
BRANCH   1  28
ATOM     28  C   UNL A   1      42.095  23.571  26.500  1.00  0.00     0.275 C 
BRANCH  28  29
ATOM     29  O   UNL A   1      41.987  24.925  26.076  1.00  0.00    -0.458 OA
BRANCH  29  30
ATOM     30  C   UNL A   1      43.037  25.398  25.363  1.00  0.00     0.338 C 
ATOM     31  O   UNL A   1      43.803  24.743  24.676  1.00  0.00    -0.246 OA
BRANCH  30  32
ATOM     32  C   UNL A   1      43.235  26.809  25.706  1.00  0.00     0.060 A 
ATOM     33  C   UNL A   1      44.144  27.064  26.736  1.00  0.00     0.016 A 
ATOM     34  C   UNL A   1      42.262  27.739  25.314  1.00  0.00     0.016 A 
ATOM     35  C   UNL A   1      43.880  28.121  27.572  1.00  0.00     0.010 A 
ATOM     36  C   UNL A   1      41.986  28.777  26.161  1.00  0.00     0.010 A 
ATOM     37  C   UNL A   1      42.732  28.880  27.332  1.00  0.00    -0.014 A 
BRANCH  37  38
ATOM     38  C   UNL A   1      42.328  29.839  28.330  1.00  0.00     0.031 A 
ATOM     39  C   UNL A   1      43.329  30.906  28.527  1.00  0.00     0.074 A 
ATOM     40  C   UNL A   1      41.102  29.801  28.886  1.00  0.00     0.049 A 
ATOM     41  N   UNL A   1      44.078  31.111  29.557  1.00  0.00    -0.248 NA
ATOM     42  C   UNL A   1      43.692  31.708  27.346  1.00  0.00     0.031 C 
ATOM     43  C   UNL A   1      39.960  28.952  28.532  1.00  0.00     0.029 A 
ATOM     44  N   UNL A   1      40.587  30.623  29.834  1.00  0.00    -0.354 N 
ATOM     45  C   UNL A   1      44.835  32.231  29.235  1.00  0.00     0.074 A 
ATOM     46  C   UNL A   1      44.732  32.398  27.809  1.00  0.00     0.031 C 
ATOM     47  C   UNL A   1      38.837  29.466  29.085  1.00  0.00     0.029 A 
ATOM     48  C   UNL A   1      39.199  30.593  29.923  1.00  0.00     0.049 A 
ATOM     49  H   UNL A   1      41.147  31.190  30.410  1.00  0.00     0.167 HD
ATOM     50  C   UNL A   1      45.252  33.103  30.190  1.00  0.00     0.037 A 
ATOM     51  C   UNL A   1      38.445  31.536  30.545  1.00  0.00     0.037 A 
ATOM     52  C   UNL A   1      45.193  32.516  31.504  1.00  0.00     0.049 A 
ATOM     53  C   UNL A   1      39.353  32.243  31.501  1.00  0.00     0.074 A 
ATOM     54  C   UNL A   1      45.776  31.406  32.086  1.00  0.00     0.029 A 
ATOM     55  N   UNL A   1      44.128  32.843  32.311  1.00  0.00    -0.354 N 
ATOM     56  N   UNL A   1      39.910  31.660  32.532  1.00  0.00    -0.248 NA
ATOM     57  C   UNL A   1      40.040  33.434  31.018  1.00  0.00     0.031 C 
ATOM     58  C   UNL A   1      44.756  30.839  32.906  1.00  0.00     0.029 A 
ATOM     59  C   UNL A   1      43.636  31.670  32.831  1.00  0.00     0.049 A 
ATOM     60  H   UNL A   1      43.783  33.749  32.484  1.00  0.00     0.167 HD
ATOM     61  C   UNL A   1      41.208  32.155  32.572  1.00  0.00     0.074 A 
ATOM     62  C   UNL A   1      41.212  33.285  31.644  1.00  0.00     0.031 C 
ATOM     63  C   UNL A   1      42.236  31.437  33.120  1.00  0.00     0.037 A 
BRANCH  50  64
ATOM     64  C   UNL A   1      45.343  34.588  29.956  1.00  0.00     0.058 A 
ATOM     65  C   UNL A   1      44.198  35.294  29.546  1.00  0.00     0.135 A 
ATOM     66  C   UNL A   1      46.565  35.296  29.863  1.00  0.00     0.135 A 
ATOM     67  F   UNL A   1      42.989  34.711  29.577  1.00  0.00    -0.206 F 
ATOM     68  C   UNL A   1      44.270  36.586  29.026  1.00  0.00     0.059 A 
ATOM     69  C   UNL A   1      46.652  36.602  29.408  1.00  0.00     0.059 A 
ATOM     70  F   UNL A   1      47.750  34.723  30.108  1.00  0.00    -0.206 F 
ATOM     71  C   UNL A   1      45.505  37.225  28.948  1.00  0.00     0.060 A 
BRANCH  71  72
ATOM     72  S   UNL A   1      45.621  38.843  28.170  1.00  0.00     0.124 S 
ATOM     73  O   UNL A   1      44.812  38.646  26.973  1.00  0.00    -0.237 OA
ATOM     74  O   UNL A   1      45.052  39.712  29.194  1.00  0.00    -0.237 OA
ATOM     75  O   UNL A   1      47.055  39.006  27.945  1.00  0.00    -0.744 OA
ENDBRANCH  71  72
ENDBRANCH  50  64
BRANCH  51  76
ATOM     76  C   UNL A   1      37.184  32.135  30.018  1.00  0.00     0.058 A 
ATOM     77  C   UNL A   1      35.939  31.889  30.625  1.00  0.00     0.135 A 
ATOM     78  C   UNL A   1      37.205  33.168  29.055  1.00  0.00     0.135 A 
ATOM     79  F   UNL A   1      35.828  30.948  31.575  1.00  0.00    -0.206 F 
ATOM     80  C   UNL A   1      34.795  32.641  30.317  1.00  0.00     0.059 A 
ATOM     81  C   UNL A   1      36.079  33.919  28.726  1.00  0.00     0.059 A 
ATOM     82  F   UNL A   1      38.347  33.544  28.464  1.00  0.00    -0.206 F 
ATOM     83  C   UNL A   1      34.880  33.665  29.374  1.00  0.00     0.060 A 
BRANCH  83  84
ATOM     84  S   UNL A   1      33.453  34.737  29.075  1.00  0.00     0.124 S 
ATOM     85  O   UNL A   1      32.879  34.856  30.410  1.00  0.00    -0.237 OA
ATOM     86  O   UNL A   1      34.077  35.942  28.539  1.00  0.00    -0.237 OA
ATOM     87  O   UNL A   1      32.651  33.977  28.118  1.00  0.00    -0.744 OA
ENDBRANCH  83  84
ENDBRANCH  51  76
BRANCH  63  88
ATOM     88  C   UNL A   1      41.911  30.177  33.886  1.00  0.00     0.058 A 
ATOM     89  C   UNL A   1      41.750  28.911  33.292  1.00  0.00     0.135 A 
ATOM     90  C   UNL A   1      41.951  30.218  35.288  1.00  0.00     0.135 A 
ATOM     91  F   UNL A   1      41.808  28.765  31.962  1.00  0.00    -0.206 F 
ATOM     92  C   UNL A   1      41.602  27.748  34.053  1.00  0.00     0.059 A 
ATOM     93  C   UNL A   1      41.836  29.069  36.067  1.00  0.00     0.059 A 
ATOM     94  F   UNL A   1      42.169  31.384  35.918  1.00  0.00    -0.206 F 
ATOM     95  C   UNL A   1      41.650  27.837  35.444  1.00  0.00     0.060 A 
BRANCH  95  96
ATOM     96  S   UNL A   1      41.544  26.325  36.427  1.00  0.00     0.124 S 
ATOM     97  O   UNL A   1      40.730  26.751  37.559  1.00  0.00    -0.237 OA
ATOM     98  O   UNL A   1      40.907  25.390  35.504  1.00  0.00    -0.237 OA
ATOM     99  O   UNL A   1      42.940  26.023  36.740  1.00  0.00    -0.744 OA
ENDBRANCH  95  96
ENDBRANCH  63  88
ENDBRANCH  37  38
ENDBRANCH  30  32
ENDBRANCH  29  30
ENDBRANCH  28  29
ENDBRANCH   1  28
TORSDOF 18
ENDMDL
