MODEL 1
REMARK VINA RESULT:     -10.4      0.000      0.000
REMARK SMILES CCOC(=O)[C@@H]1CCCCN1C(=O)N[C@](C)(CC)C(=O)OCCOC(=O)c1ccc(-c2c3nc(c(-c4c(F)cc(S(=O)(=O)[O-])cc4F)c4ccc([nH]4)c(-c4c(F)cc(S(=O)(=O)[O-])cc4F)c4nc(c(-c5c(F)cc(S(=O)(=O)[O-])cc5F)c5ccc2[nH]5)C=C4)C=C3)cc1
REMARK SMILES IDX 22 1 21 2 19 3 20 4 15 5 16 6 14 7 12 8 13 9 11 11 6 12 7 13
REMARK SMILES IDX 8 14 10 15 9 16 4 17 5 18 3 19 2 20 1 21 17 22 18 23 23 24
REMARK SMILES IDX 24 25 25 26 26 27 27 28 28 29 92 30 29 31 91 32 30 33 31 34
REMARK SMILES IDX 32 35 85 36 33 37 90 38 84 39 86 40 34 41 89 42 83 43 82 44
REMARK SMILES IDX 35 46 69 47 48 48 68 49 49 50 52 51 67 52 87 53 50 54 51 55
REMARK SMILES IDX 66 57 88 58 53 59 36 60 37 61 46 62 38 63 39 64 45 65 47 66
REMARK SMILES IDX 40 67 41 68 42 69 43 70 44 71 70 72 71 73 80 74 72 75 73 76
REMARK SMILES IDX 79 77 81 78 74 79 75 80 76 81 77 82 78 83 54 84 55 85 64 86
REMARK SMILES IDX 56 87 57 88 63 89 65 90 58 91 59 92 60 93 61 94 62 95
REMARK H PARENT 14 10 86 45 52 56
REMARK Flexibility Score: inf
ROOT
ATOM      1  C   UNL A   1      32.579  29.909  25.505  1.00  0.00     0.274 C 
ENDROOT
BRANCH   1   2
ATOM      2  O   UNL A   1      31.515  29.146  24.884  1.00  0.00    -0.460 OA
BRANCH   2   3
ATOM      3  C   UNL A   1      31.932  28.380  23.845  1.00  0.00     0.331 C 
ATOM      4  O   UNL A   1      32.377  28.872  22.808  1.00  0.00    -0.249 OA
BRANCH   3   5
ATOM      5  C   UNL A   1      31.780  26.836  24.028  1.00  0.00     0.136 C 
ATOM      6  C   UNL A   1      30.589  26.710  25.029  1.00  0.00     0.047 C 
BRANCH   5   7
ATOM      7  N   UNL A   1      33.026  26.425  24.727  1.00  0.00    -0.322 N 
ATOM      8  C   UNL A   1      33.490  25.332  25.362  1.00  0.00     0.319 C 
ATOM      9  O   UNL A   1      34.537  25.522  25.988  1.00  0.00    -0.249 OA
ATOM     10  H   UNL A   1      33.694  27.149  24.725  1.00  0.00     0.166 HD
BRANCH   8  11
ATOM     11  N   UNL A   1      32.914  24.081  25.281  1.00  0.00    -0.311 N 
ATOM     12  C   UNL A   1      33.749  23.033  24.630  1.00  0.00     0.196 C 
ATOM     13  C   UNL A   1      32.860  21.881  24.103  1.00  0.00     0.037 C 
ATOM     14  C   UNL A   1      31.977  21.280  25.182  1.00  0.00     0.005 C 
ATOM     15  C   UNL A   1      32.018  23.520  26.297  1.00  0.00     0.122 C 
ATOM     16  C   UNL A   1      31.143  22.373  25.812  1.00  0.00     0.022 C 
BRANCH  12  17
ATOM     17  C   UNL A   1      34.645  23.359  23.419  1.00  0.00     0.328 C 
ATOM     18  O   UNL A   1      34.176  23.572  22.302  1.00  0.00    -0.250 OA
BRANCH  17  19
ATOM     19  O   UNL A   1      35.946  23.570  23.759  1.00  0.00    -0.464 OA
BRANCH  19  20
ATOM     20  C   UNL A   1      36.424  22.750  24.834  1.00  0.00     0.229 C 
ATOM     21  C   UNL A   1      37.507  23.487  25.601  1.00  0.00     0.049 C 
ENDBRANCH  19  20
ENDBRANCH  17  19
ENDBRANCH  12  17
ENDBRANCH   8  11
ENDBRANCH   5   7
BRANCH   5  22
ATOM     22  C   UNL A   1      31.503  25.765  22.942  1.00  0.00     0.037 C 
ATOM     23  C   UNL A   1      30.367  24.789  23.146  1.00  0.00     0.007 C 
ENDBRANCH   5  22
ENDBRANCH   3   5
ENDBRANCH   2   3
ENDBRANCH   1   2
BRANCH   1  24
ATOM     24  C   UNL A   1      32.590  29.666  27.011  1.00  0.00     0.275 C 
BRANCH  24  25
ATOM     25  O   UNL A   1      33.951  29.415  27.383  1.00  0.00    -0.458 OA
BRANCH  25  26
ATOM     26  C   UNL A   1      34.564  30.453  27.983  1.00  0.00     0.338 C 
ATOM     27  O   UNL A   1      34.064  31.501  28.370  1.00  0.00    -0.246 OA
BRANCH  26  28
ATOM     28  C   UNL A   1      35.937  30.040  28.260  1.00  0.00     0.060 A 
ATOM     29  C   UNL A   1      36.284  29.631  29.553  1.00  0.00     0.016 A 
ATOM     30  C   UNL A   1      36.876  30.079  27.238  1.00  0.00     0.016 A 
ATOM     31  C   UNL A   1      37.602  29.297  29.845  1.00  0.00     0.010 A 
ATOM     32  C   UNL A   1      38.179  29.687  27.518  1.00  0.00     0.010 A 
ATOM     33  C   UNL A   1      38.556  29.312  28.823  1.00  0.00    -0.014 A 
BRANCH  33  34
ATOM     34  C   UNL A   1      39.975  28.975  29.072  1.00  0.00     0.031 A 
ATOM     35  C   UNL A   1      40.907  30.078  29.476  1.00  0.00     0.074 A 
ATOM     36  C   UNL A   1      40.433  27.734  28.828  1.00  0.00     0.049 A 
ATOM     37  N   UNL A   1      42.206  30.144  29.377  1.00  0.00    -0.248 NA
ATOM     38  C   UNL A   1      40.279  31.289  30.033  1.00  0.00     0.031 C 
ATOM     39  C   UNL A   1      39.607  26.572  28.490  1.00  0.00     0.029 A 
ATOM     40  N   UNL A   1      41.717  27.252  28.785  1.00  0.00    -0.354 N 
ATOM     41  C   UNL A   1      42.548  31.426  29.790  1.00  0.00     0.074 A 
ATOM     42  C   UNL A   1      41.320  32.100  30.152  1.00  0.00     0.031 C 
ATOM     43  C   UNL A   1      40.405  25.519  28.256  1.00  0.00     0.029 A 
ATOM     44  C   UNL A   1      41.794  25.952  28.343  1.00  0.00     0.049 A 
ATOM     45  H   UNL A   1      42.503  27.785  29.044  1.00  0.00     0.167 HD
ATOM     46  C   UNL A   1      43.781  31.984  29.842  1.00  0.00     0.037 A 
ATOM     47  C   UNL A   1      42.865  25.218  27.984  1.00  0.00     0.037 A 
ATOM     48  C   UNL A   1      44.983  31.266  29.507  1.00  0.00     0.049 A 
ATOM     49  C   UNL A   1      44.224  25.859  28.036  1.00  0.00     0.074 A 
ATOM     50  C   UNL A   1      46.291  31.715  29.521  1.00  0.00     0.029 A 
ATOM     51  N   UNL A   1      45.019  29.935  29.111  1.00  0.00    -0.354 N 
ATOM     52  N   UNL A   1      44.541  27.089  28.364  1.00  0.00    -0.248 NA
ATOM     53  C   UNL A   1      45.369  25.021  27.657  1.00  0.00     0.031 C 
ATOM     54  C   UNL A   1      47.116  30.663  29.108  1.00  0.00     0.029 A 
ATOM     55  C   UNL A   1      46.327  29.546  28.880  1.00  0.00     0.049 A 
ATOM     56  H   UNL A   1      44.231  29.354  29.009  1.00  0.00     0.167 HD
ATOM     57  C   UNL A   1      45.925  27.167  28.256  1.00  0.00     0.074 A 
ATOM     58  C   UNL A   1      46.382  25.857  27.836  1.00  0.00     0.031 C 
ATOM     59  C   UNL A   1      46.745  28.222  28.485  1.00  0.00     0.037 A 
BRANCH  46  60
ATOM     60  C   UNL A   1      43.879  33.432  30.230  1.00  0.00     0.058 A 
ATOM     61  C   UNL A   1      43.837  34.465  29.280  1.00  0.00     0.135 A 
ATOM     62  C   UNL A   1      44.008  33.795  31.582  1.00  0.00     0.135 A 
ATOM     63  F   UNL A   1      43.737  34.175  27.973  1.00  0.00    -0.206 F 
ATOM     64  C   UNL A   1      43.949  35.802  29.652  1.00  0.00     0.059 A 
ATOM     65  C   UNL A   1      44.094  35.127  31.979  1.00  0.00     0.059 A 
ATOM     66  F   UNL A   1      44.059  32.851  32.534  1.00  0.00    -0.206 F 
ATOM     67  C   UNL A   1      44.081  36.123  31.004  1.00  0.00     0.060 A 
BRANCH  67  68
ATOM     68  S   UNL A   1      44.234  37.860  31.470  1.00  0.00     0.124 S 
ATOM     69  O   UNL A   1      43.539  38.519  30.368  1.00  0.00    -0.237 OA
ATOM     70  O   UNL A   1      43.554  37.900  32.761  1.00  0.00    -0.237 OA
ATOM     71  O   UNL A   1      45.677  38.074  31.519  1.00  0.00    -0.744 OA
ENDBRANCH  67  68
ENDBRANCH  46  60
BRANCH  47  72
ATOM     72  C   UNL A   1      42.680  23.819  27.516  1.00  0.00     0.058 A 
ATOM     73  C   UNL A   1      42.702  22.750  28.424  1.00  0.00     0.135 A 
ATOM     74  C   UNL A   1      42.438  23.523  26.164  1.00  0.00     0.135 A 
ATOM     75  F   UNL A   1      42.938  22.981  29.724  1.00  0.00    -0.206 F 
ATOM     76  C   UNL A   1      42.495  21.438  28.010  1.00  0.00     0.059 A 
ATOM     77  C   UNL A   1      42.201  22.221  25.731  1.00  0.00     0.059 A 
ATOM     78  F   UNL A   1      42.390  24.511  25.257  1.00  0.00    -0.206 F 
ATOM     79  C   UNL A   1      42.239  21.184  26.662  1.00  0.00     0.060 A 
BRANCH  79  80
ATOM     80  S   UNL A   1      41.906  19.485  26.147  1.00  0.00     0.124 S 
ATOM     81  O   UNL A   1      42.795  19.346  25.001  1.00  0.00    -0.237 OA
ATOM     82  O   UNL A   1      42.276  18.725  27.339  1.00  0.00    -0.237 OA
ATOM     83  O   UNL A   1      40.478  19.500  25.843  1.00  0.00    -0.744 OA
ENDBRANCH  79  80
ENDBRANCH  47  72
BRANCH  59  84
ATOM     84  C   UNL A   1      48.220  27.985  28.348  1.00  0.00     0.058 A 
ATOM     85  C   UNL A   1      48.990  27.493  29.410  1.00  0.00     0.135 A 
ATOM     86  C   UNL A   1      48.851  28.190  27.110  1.00  0.00     0.135 A 
ATOM     87  F   UNL A   1      48.432  27.289  30.614  1.00  0.00    -0.206 F 
ATOM     88  C   UNL A   1      50.345  27.222  29.255  1.00  0.00     0.059 A 
ATOM     89  C   UNL A   1      50.199  27.905  26.926  1.00  0.00     0.059 A 
ATOM     90  F   UNL A   1      48.151  28.653  26.062  1.00  0.00    -0.206 F 
ATOM     91  C   UNL A   1      50.939  27.427  28.007  1.00  0.00     0.060 A 
BRANCH  91  92
ATOM     92  S   UNL A   1      52.686  27.023  27.801  1.00  0.00     0.124 S 
ATOM     93  O   UNL A   1      52.613  25.662  27.280  1.00  0.00    -0.237 OA
ATOM     94  O   UNL A   1      53.134  28.042  26.857  1.00  0.00    -0.237 OA
ATOM     95  O   UNL A   1      53.225  27.151  29.152  1.00  0.00    -0.744 OA
ENDBRANCH  91  92
ENDBRANCH  59  84
ENDBRANCH  33  34
ENDBRANCH  26  28
ENDBRANCH  25  26
ENDBRANCH  24  25
ENDBRANCH   1  24
TORSDOF 20
ENDMDL
MODEL 2
REMARK VINA RESULT:     -10.0      3.938      9.771
REMARK SMILES CCOC(=O)[C@@H]1CCCCN1C(=O)N[C@](C)(CC)C(=O)OCCOC(=O)c1ccc(-c2c3nc(c(-c4c(F)cc(S(=O)(=O)[O-])cc4F)c4ccc([nH]4)c(-c4c(F)cc(S(=O)(=O)[O-])cc4F)c4nc(c(-c5c(F)cc(S(=O)(=O)[O-])cc5F)c5ccc2[nH]5)C=C4)C=C3)cc1
REMARK SMILES IDX 22 1 21 2 19 3 20 4 15 5 16 6 14 7 12 8 13 9 11 11 6 12 7 13
REMARK SMILES IDX 8 14 10 15 9 16 4 17 5 18 3 19 2 20 1 21 17 22 18 23 23 24
REMARK SMILES IDX 24 25 25 26 26 27 27 28 28 29 92 30 29 31 91 32 30 33 31 34
REMARK SMILES IDX 32 35 85 36 33 37 90 38 84 39 86 40 34 41 89 42 83 43 82 44
REMARK SMILES IDX 35 46 69 47 48 48 68 49 49 50 52 51 67 52 87 53 50 54 51 55
REMARK SMILES IDX 66 57 88 58 53 59 36 60 37 61 46 62 38 63 39 64 45 65 47 66
REMARK SMILES IDX 40 67 41 68 42 69 43 70 44 71 70 72 71 73 80 74 72 75 73 76
REMARK SMILES IDX 79 77 81 78 74 79 75 80 76 81 77 82 78 83 54 84 55 85 64 86
REMARK SMILES IDX 56 87 57 88 63 89 65 90 58 91 59 92 60 93 61 94 62 95
REMARK H PARENT 14 10 86 45 52 56
REMARK Flexibility Score: inf
ROOT
ATOM      1  C   UNL A   1      36.034  22.496  24.168  1.00  0.00     0.274 C 
ENDROOT
BRANCH   1   2
ATOM      2  O   UNL A   1      34.831  21.688  24.211  1.00  0.00    -0.460 OA
BRANCH   2   3
ATOM      3  C   UNL A   1      33.700  22.384  23.936  1.00  0.00     0.331 C 
ATOM      4  O   UNL A   1      33.384  22.690  22.787  1.00  0.00    -0.249 OA
BRANCH   3   5
ATOM      5  C   UNL A   1      32.841  22.807  25.170  1.00  0.00     0.136 C 
ATOM      6  C   UNL A   1      31.435  23.080  24.551  1.00  0.00     0.047 C 
BRANCH   5   7
ATOM      7  N   UNL A   1      33.425  24.104  25.599  1.00  0.00    -0.322 N 
ATOM      8  C   UNL A   1      33.399  25.386  25.188  1.00  0.00     0.319 C 
ATOM      9  O   UNL A   1      34.230  26.109  25.746  1.00  0.00    -0.249 OA
ATOM     10  H   UNL A   1      33.985  23.997  26.403  1.00  0.00     0.166 HD
BRANCH   8  11
ATOM     11  N   UNL A   1      32.492  25.894  24.281  1.00  0.00    -0.311 N 
ATOM     12  C   UNL A   1      31.475  26.825  24.848  1.00  0.00     0.196 C 
ATOM     13  C   UNL A   1      30.232  26.894  23.930  1.00  0.00     0.037 C 
ATOM     14  C   UNL A   1      30.578  27.271  22.500  1.00  0.00     0.005 C 
ATOM     15  C   UNL A   1      32.811  26.209  22.885  1.00  0.00     0.122 C 
ATOM     16  C   UNL A   1      31.606  26.301  21.962  1.00  0.00     0.022 C 
BRANCH  12  17
ATOM     17  C   UNL A   1      30.862  26.591  26.242  1.00  0.00     0.328 C 
ATOM     18  O   UNL A   1      30.233  25.569  26.512  1.00  0.00    -0.250 OA
BRANCH  17  19
ATOM     19  O   UNL A   1      31.251  27.518  27.160  1.00  0.00    -0.464 OA
BRANCH  19  20
ATOM     20  C   UNL A   1      31.831  28.704  26.602  1.00  0.00     0.229 C 
ATOM     21  C   UNL A   1      33.137  29.020  27.308  1.00  0.00     0.049 C 
ENDBRANCH  19  20
ENDBRANCH  17  19
ENDBRANCH  12  17
ENDBRANCH   8  11
ENDBRANCH   5   7
BRANCH   5  22
ATOM     22  C   UNL A   1      32.557  21.997  26.462  1.00  0.00     0.037 C 
ATOM     23  C   UNL A   1      33.523  22.101  27.621  1.00  0.00     0.007 C 
ENDBRANCH   5  22
ENDBRANCH   3   5
ENDBRANCH   2   3
ENDBRANCH   1   2
BRANCH   1  24
ATOM     24  C   UNL A   1      36.722  22.486  25.529  1.00  0.00     0.275 C 
BRANCH  24  25
ATOM     25  O   UNL A   1      37.688  23.545  25.515  1.00  0.00    -0.458 OA
BRANCH  25  26
ATOM     26  C   UNL A   1      38.878  23.219  26.057  1.00  0.00     0.338 C 
ATOM     27  O   UNL A   1      39.561  22.229  25.832  1.00  0.00    -0.246 OA
BRANCH  26  28
ATOM     28  C   UNL A   1      39.313  24.360  26.856  1.00  0.00     0.060 A 
ATOM     29  C   UNL A   1      38.873  24.481  28.179  1.00  0.00     0.016 A 
ATOM     30  C   UNL A   1      40.143  25.313  26.281  1.00  0.00     0.016 A 
ATOM     31  C   UNL A   1      39.228  25.597  28.930  1.00  0.00     0.010 A 
ATOM     32  C   UNL A   1      40.546  26.396  27.051  1.00  0.00     0.010 A 
ATOM     33  C   UNL A   1      40.079  26.556  28.372  1.00  0.00    -0.014 A 
BRANCH  33  34
ATOM     34  C   UNL A   1      40.487  27.769  29.117  1.00  0.00     0.031 A 
ATOM     35  C   UNL A   1      41.732  27.705  29.950  1.00  0.00     0.074 A 
ATOM     36  C   UNL A   1      39.695  28.856  29.133  1.00  0.00     0.049 A 
ATOM     37  N   UNL A   1      42.091  28.444  30.963  1.00  0.00    -0.248 NA
ATOM     38  C   UNL A   1      42.685  26.633  29.615  1.00  0.00     0.031 C 
ATOM     39  C   UNL A   1      38.495  29.048  28.316  1.00  0.00     0.029 A 
ATOM     40  N   UNL A   1      39.760  29.990  29.901  1.00  0.00    -0.354 N 
ATOM     41  C   UNL A   1      43.273  27.886  31.434  1.00  0.00     0.074 A 
ATOM     42  C   UNL A   1      43.576  26.752  30.587  1.00  0.00     0.031 C 
ATOM     43  C   UNL A   1      37.927  30.220  28.638  1.00  0.00     0.029 A 
ATOM     44  C   UNL A   1      38.672  30.817  29.740  1.00  0.00     0.049 A 
ATOM     45  H   UNL A   1      40.509  30.193  30.506  1.00  0.00     0.167 HD
ATOM     46  C   UNL A   1      44.019  28.285  32.491  1.00  0.00     0.037 A 
ATOM     47  C   UNL A   1      38.286  31.894  30.450  1.00  0.00     0.037 A 
ATOM     48  C   UNL A   1      43.702  29.442  33.286  1.00  0.00     0.049 A 
ATOM     49  C   UNL A   1      39.121  32.314  31.628  1.00  0.00     0.074 A 
ATOM     50  C   UNL A   1      44.377  29.952  34.380  1.00  0.00     0.029 A 
ATOM     51  N   UNL A   1      42.616  30.278  33.058  1.00  0.00    -0.354 N 
ATOM     52  N   UNL A   1      40.202  31.749  32.113  1.00  0.00    -0.248 NA
ATOM     53  C   UNL A   1      38.680  33.506  32.364  1.00  0.00     0.031 C 
ATOM     54  C   UNL A   1      43.686  31.083  34.829  1.00  0.00     0.029 A 
ATOM     55  C   UNL A   1      42.605  31.302  33.988  1.00  0.00     0.049 A 
ATOM     56  H   UNL A   1      41.953  30.160  32.341  1.00  0.00     0.167 HD
ATOM     57  C   UNL A   1      40.586  32.531  33.196  1.00  0.00     0.074 A 
ATOM     58  C   UNL A   1      39.623  33.610  33.291  1.00  0.00     0.031 C 
ATOM     59  C   UNL A   1      41.640  32.374  34.035  1.00  0.00     0.037 A 
BRANCH  46  60
ATOM     60  C   UNL A   1      45.210  27.447  32.863  1.00  0.00     0.058 A 
ATOM     61  C   UNL A   1      45.117  26.375  33.764  1.00  0.00     0.135 A 
ATOM     62  C   UNL A   1      46.470  27.717  32.300  1.00  0.00     0.135 A 
ATOM     63  F   UNL A   1      43.945  26.086  34.350  1.00  0.00    -0.206 F 
ATOM     64  C   UNL A   1      46.233  25.620  34.116  1.00  0.00     0.059 A 
ATOM     65  C   UNL A   1      47.593  26.957  32.616  1.00  0.00     0.059 A 
ATOM     66  F   UNL A   1      46.620  28.733  31.436  1.00  0.00    -0.206 F 
ATOM     67  C   UNL A   1      47.468  25.921  33.539  1.00  0.00     0.060 A 
BRANCH  67  68
ATOM     68  S   UNL A   1      48.907  24.939  34.010  1.00  0.00     0.124 S 
ATOM     69  O   UNL A   1      49.735  25.043  32.812  1.00  0.00    -0.237 OA
ATOM     70  O   UNL A   1      49.402  25.650  35.184  1.00  0.00    -0.237 OA
ATOM     71  O   UNL A   1      48.346  23.617  34.273  1.00  0.00    -0.744 OA
ENDBRANCH  67  68
ENDBRANCH  46  60
BRANCH  47  72
ATOM     72  C   UNL A   1      37.040  32.617  30.082  1.00  0.00     0.058 A 
ATOM     73  C   UNL A   1      35.840  32.373  30.765  1.00  0.00     0.135 A 
ATOM     74  C   UNL A   1      37.030  33.593  29.071  1.00  0.00     0.135 A 
ATOM     75  F   UNL A   1      35.797  31.445  31.733  1.00  0.00    -0.206 F 
ATOM     76  C   UNL A   1      34.673  33.067  30.459  1.00  0.00     0.059 A 
ATOM     77  C   UNL A   1      35.881  34.318  28.766  1.00  0.00     0.059 A 
ATOM     78  F   UNL A   1      38.156  33.876  28.398  1.00  0.00    -0.206 F 
ATOM     79  C   UNL A   1      34.705  34.042  29.461  1.00  0.00     0.060 A 
BRANCH  79  80
ATOM     80  S   UNL A   1      33.201  34.981  29.117  1.00  0.00     0.124 S 
ATOM     81  O   UNL A   1      32.550  34.980  30.421  1.00  0.00    -0.237 OA
ATOM     82  O   UNL A   1      33.735  36.265  28.670  1.00  0.00    -0.237 OA
ATOM     83  O   UNL A   1      32.543  34.191  28.080  1.00  0.00    -0.744 OA
ENDBRANCH  79  80
ENDBRANCH  47  72
BRANCH  59  84
ATOM     84  C   UNL A   1      41.840  33.427  35.086  1.00  0.00     0.058 A 
ATOM     85  C   UNL A   1      41.344  33.276  36.387  1.00  0.00     0.135 A 
ATOM     86  C   UNL A   1      42.603  34.570  34.795  1.00  0.00     0.135 A 
ATOM     87  F   UNL A   1      40.603  32.204  36.708  1.00  0.00    -0.206 F 
ATOM     88  C   UNL A   1      41.586  34.232  37.368  1.00  0.00     0.059 A 
ATOM     89  C   UNL A   1      42.877  35.527  35.765  1.00  0.00     0.059 A 
ATOM     90  F   UNL A   1      43.106  34.753  33.564  1.00  0.00    -0.206 F 
ATOM     91  C   UNL A   1      42.357  35.352  37.047  1.00  0.00     0.060 A 
BRANCH  91  92
ATOM     92  S   UNL A   1      42.710  36.560  38.341  1.00  0.00     0.124 S 
ATOM     93  O   UNL A   1      43.102  35.696  39.450  1.00  0.00    -0.237 OA
ATOM     94  O   UNL A   1      43.780  37.353  37.745  1.00  0.00    -0.237 OA
ATOM     95  O   UNL A   1      41.439  37.259  38.507  1.00  0.00    -0.744 OA
ENDBRANCH  91  92
ENDBRANCH  59  84
ENDBRANCH  33  34
ENDBRANCH  26  28
ENDBRANCH  25  26
ENDBRANCH  24  25
ENDBRANCH   1  24
TORSDOF 20
ENDMDL
MODEL 3
REMARK VINA RESULT:     -10.0      3.831      9.682
REMARK SMILES CCOC(=O)[C@@H]1CCCCN1C(=O)N[C@](C)(CC)C(=O)OCCOC(=O)c1ccc(-c2c3nc(c(-c4c(F)cc(S(=O)(=O)[O-])cc4F)c4ccc([nH]4)c(-c4c(F)cc(S(=O)(=O)[O-])cc4F)c4nc(c(-c5c(F)cc(S(=O)(=O)[O-])cc5F)c5ccc2[nH]5)C=C4)C=C3)cc1
REMARK SMILES IDX 22 1 21 2 19 3 20 4 15 5 16 6 14 7 12 8 13 9 11 11 6 12 7 13
REMARK SMILES IDX 8 14 10 15 9 16 4 17 5 18 3 19 2 20 1 21 17 22 18 23 23 24
REMARK SMILES IDX 24 25 25 26 26 27 27 28 28 29 92 30 29 31 91 32 30 33 31 34
REMARK SMILES IDX 32 35 85 36 33 37 90 38 84 39 86 40 34 41 89 42 83 43 82 44
REMARK SMILES IDX 35 46 69 47 48 48 68 49 49 50 52 51 67 52 87 53 50 54 51 55
REMARK SMILES IDX 66 57 88 58 53 59 36 60 37 61 46 62 38 63 39 64 45 65 47 66
REMARK SMILES IDX 40 67 41 68 42 69 43 70 44 71 70 72 71 73 80 74 72 75 73 76
REMARK SMILES IDX 79 77 81 78 74 79 75 80 76 81 77 82 78 83 54 84 55 85 64 86
REMARK SMILES IDX 56 87 57 88 63 89 65 90 58 91 59 92 60 93 61 94 62 95
REMARK H PARENT 14 10 86 45 52 56
REMARK Flexibility Score: inf
ROOT
ATOM      1  C   UNL A   1      35.827  23.390  23.847  1.00  0.00     0.274 C 
ENDROOT
BRANCH   1   2
ATOM      2  O   UNL A   1      34.597  22.676  24.128  1.00  0.00    -0.460 OA
BRANCH   2   3
ATOM      3  C   UNL A   1      33.705  22.708  23.107  1.00  0.00     0.331 C 
ATOM      4  O   UNL A   1      33.957  23.261  22.036  1.00  0.00    -0.249 OA
BRANCH   3   5
ATOM      5  C   UNL A   1      32.324  22.033  23.384  1.00  0.00     0.136 C 
ATOM      6  C   UNL A   1      32.190  21.001  22.221  1.00  0.00     0.047 C 
BRANCH   5   7
ATOM      7  N   UNL A   1      31.333  23.119  23.164  1.00  0.00    -0.322 N 
ATOM      8  C   UNL A   1      31.136  24.380  23.592  1.00  0.00     0.319 C 
ATOM      9  O   UNL A   1      30.030  24.843  23.295  1.00  0.00    -0.249 OA
ATOM     10  H   UNL A   1      30.629  22.839  22.534  1.00  0.00     0.166 HD
BRANCH   8  11
ATOM     11  N   UNL A   1      32.087  25.140  24.240  1.00  0.00    -0.311 N 
ATOM     12  C   UNL A   1      32.290  26.512  23.694  1.00  0.00     0.196 C 
ATOM     13  C   UNL A   1      33.684  27.053  24.092  1.00  0.00     0.037 C 
ATOM     14  C   UNL A   1      33.919  27.025  25.592  1.00  0.00     0.005 C 
ATOM     15  C   UNL A   1      32.351  25.075  25.681  1.00  0.00     0.122 C 
ATOM     16  C   UNL A   1      33.708  25.617  26.105  1.00  0.00     0.022 C 
BRANCH  12  17
ATOM     17  C   UNL A   1      32.233  26.789  22.179  1.00  0.00     0.328 C 
ATOM     18  O   UNL A   1      33.083  26.351  21.406  1.00  0.00    -0.250 OA
BRANCH  17  19
ATOM     19  O   UNL A   1      31.071  27.382  21.788  1.00  0.00    -0.464 OA
BRANCH  19  20
ATOM     20  C   UNL A   1      30.641  28.463  22.625  1.00  0.00     0.229 C 
ATOM     21  C   UNL A   1      29.181  28.275  22.998  1.00  0.00     0.049 C 
ENDBRANCH  19  20
ENDBRANCH  17  19
ENDBRANCH  12  17
ENDBRANCH   8  11
ENDBRANCH   5   7
BRANCH   5  22
ATOM     22  C   UNL A   1      31.870  21.265  24.652  1.00  0.00     0.037 C 
ATOM     23  C   UNL A   1      32.498  19.925  24.963  1.00  0.00     0.007 C 
ENDBRANCH   5  22
ENDBRANCH   3   5
ENDBRANCH   2   3
ENDBRANCH   1   2
BRANCH   1  24
ATOM     24  C   UNL A   1      37.004  22.694  24.522  1.00  0.00     0.275 C 
BRANCH  24  25
ATOM     25  O   UNL A   1      37.496  23.589  25.527  1.00  0.00    -0.458 OA
BRANCH  25  26
ATOM     26  C   UNL A   1      38.683  23.233  26.056  1.00  0.00     0.338 C 
ATOM     27  O   UNL A   1      39.330  22.218  25.837  1.00  0.00    -0.246 OA
BRANCH  26  28
ATOM     28  C   UNL A   1      39.168  24.372  26.829  1.00  0.00     0.060 A 
ATOM     29  C   UNL A   1      38.771  24.516  28.164  1.00  0.00     0.016 A 
ATOM     30  C   UNL A   1      40.001  25.301  26.220  1.00  0.00     0.016 A 
ATOM     31  C   UNL A   1      39.174  25.630  28.892  1.00  0.00     0.010 A 
ATOM     32  C   UNL A   1      40.450  26.382  26.967  1.00  0.00     0.010 A 
ATOM     33  C   UNL A   1      40.028  26.565  28.299  1.00  0.00    -0.014 A 
BRANCH  33  34
ATOM     34  C   UNL A   1      40.485  27.775  29.019  1.00  0.00     0.031 A 
ATOM     35  C   UNL A   1      41.768  27.700  29.792  1.00  0.00     0.074 A 
ATOM     36  C   UNL A   1      39.708  28.872  29.068  1.00  0.00     0.049 A 
ATOM     37  N   UNL A   1      42.183  28.438  30.784  1.00  0.00    -0.248 NA
ATOM     38  C   UNL A   1      42.691  26.614  29.417  1.00  0.00     0.031 C 
ATOM     39  C   UNL A   1      38.474  29.076  28.307  1.00  0.00     0.029 A 
ATOM     40  N   UNL A   1      39.823  30.008  29.826  1.00  0.00    -0.354 N 
ATOM     41  C   UNL A   1      43.379  27.867  31.201  1.00  0.00     0.074 A 
ATOM     42  C   UNL A   1      43.628  26.726  30.346  1.00  0.00     0.031 C 
ATOM     43  C   UNL A   1      37.935  30.256  28.651  1.00  0.00     0.029 A 
ATOM     44  C   UNL A   1      38.739  30.847  29.714  1.00  0.00     0.049 A 
ATOM     45  H   UNL A   1      40.603  30.204  30.395  1.00  0.00     0.167 HD
ATOM     46  C   UNL A   1      44.180  28.261  32.220  1.00  0.00     0.037 A 
ATOM     47  C   UNL A   1      38.400  31.932  30.437  1.00  0.00     0.037 A 
ATOM     48  C   UNL A   1      43.914  29.424  33.024  1.00  0.00     0.049 A 
ATOM     49  C   UNL A   1      39.295  32.346  31.572  1.00  0.00     0.074 A 
ATOM     50  C   UNL A   1      44.646  29.930  34.082  1.00  0.00     0.029 A 
ATOM     51  N   UNL A   1      42.828  30.273  32.844  1.00  0.00    -0.354 N 
ATOM     52  N   UNL A   1      40.390  31.770  32.008  1.00  0.00    -0.248 NA
ATOM     53  C   UNL A   1      38.904  33.546  32.323  1.00  0.00     0.031 C 
ATOM     54  C   UNL A   1      43.990  31.071  34.558  1.00  0.00     0.029 A 
ATOM     55  C   UNL A   1      42.874  31.301  33.769  1.00  0.00     0.049 A 
ATOM     56  H   UNL A   1      42.131  30.160  32.159  1.00  0.00     0.167 HD
ATOM     57  C   UNL A   1      40.835  32.551  33.068  1.00  0.00     0.074 A 
ATOM     58  C   UNL A   1      39.891  33.642  33.204  1.00  0.00     0.031 C 
ATOM     59  C   UNL A   1      41.925  32.385  33.857  1.00  0.00     0.037 A 
BRANCH  46  60
ATOM     60  C   UNL A   1      45.377  27.409  32.539  1.00  0.00     0.058 A 
ATOM     61  C   UNL A   1      45.305  26.320  33.421  1.00  0.00     0.135 A 
ATOM     62  C   UNL A   1      46.619  27.685  31.943  1.00  0.00     0.135 A 
ATOM     63  F   UNL A   1      44.149  26.025  34.036  1.00  0.00    -0.206 F 
ATOM     64  C   UNL A   1      46.426  25.552  33.724  1.00  0.00     0.059 A 
ATOM     65  C   UNL A   1      47.748  26.913  32.209  1.00  0.00     0.059 A 
ATOM     66  F   UNL A   1      46.749  28.717  31.095  1.00  0.00    -0.206 F 
ATOM     67  C   UNL A   1      47.645  25.859  33.115  1.00  0.00     0.060 A 
BRANCH  67  68
ATOM     68  S   UNL A   1      49.092  24.861  33.523  1.00  0.00     0.124 S 
ATOM     69  O   UNL A   1      49.786  25.728  34.471  1.00  0.00    -0.237 OA
ATOM     70  O   UNL A   1      48.493  23.656  34.090  1.00  0.00    -0.237 OA
ATOM     71  O   UNL A   1      49.756  24.681  32.235  1.00  0.00    -0.744 OA
ENDBRANCH  67  68
ENDBRANCH  46  60
BRANCH  47  72
ATOM     72  C   UNL A   1      37.147  32.669  30.124  1.00  0.00     0.058 A 
ATOM     73  C   UNL A   1      37.146  33.723  29.199  1.00  0.00     0.135 A 
ATOM     74  C   UNL A   1      35.920  32.311  30.707  1.00  0.00     0.135 A 
ATOM     75  F   UNL A   1      38.294  34.108  28.622  1.00  0.00    -0.206 F 
ATOM     76  C   UNL A   1      35.977  34.400  28.866  1.00  0.00     0.059 A 
ATOM     77  C   UNL A   1      34.734  32.956  30.370  1.00  0.00     0.059 A 
ATOM     78  F   UNL A   1      35.863  31.298  31.586  1.00  0.00    -0.206 F 
ATOM     79  C   UNL A   1      34.773  34.005  29.453  1.00  0.00     0.060 A 
BRANCH  79  80
ATOM     80  S   UNL A   1      33.253  34.847  28.964  1.00  0.00     0.124 S 
ATOM     81  O   UNL A   1      32.539  34.925  30.232  1.00  0.00    -0.237 OA
ATOM     82  O   UNL A   1      33.758  36.112  28.436  1.00  0.00    -0.237 OA
ATOM     83  O   UNL A   1      32.677  33.949  27.968  1.00  0.00    -0.744 OA
ENDBRANCH  79  80
ENDBRANCH  47  72
BRANCH  59  84
ATOM     84  C   UNL A   1      42.188  33.439  34.892  1.00  0.00     0.058 A 
ATOM     85  C   UNL A   1      41.737  33.307  36.212  1.00  0.00     0.135 A 
ATOM     86  C   UNL A   1      42.965  34.563  34.566  1.00  0.00     0.135 A 
ATOM     87  F   UNL A   1      40.984  32.254  36.568  1.00  0.00    -0.206 F 
ATOM     88  C   UNL A   1      42.036  34.262  37.177  1.00  0.00     0.059 A 
ATOM     89  C   UNL A   1      43.295  35.519  35.519  1.00  0.00     0.059 A 
ATOM     90  F   UNL A   1      43.426  34.727  33.316  1.00  0.00    -0.206 F 
ATOM     91  C   UNL A   1      42.820  35.363  36.820  1.00  0.00     0.060 A 
BRANCH  91  92
ATOM     92  S   UNL A   1      43.247  36.570  38.092  1.00  0.00     0.124 S 
ATOM     93  O   UNL A   1      44.215  35.826  38.890  1.00  0.00    -0.237 OA
ATOM     94  O   UNL A   1      43.787  37.675  37.306  1.00  0.00    -0.237 OA
ATOM     95  O   UNL A   1      41.969  36.841  38.745  1.00  0.00    -0.744 OA
ENDBRANCH  91  92
ENDBRANCH  59  84
ENDBRANCH  33  34
ENDBRANCH  26  28
ENDBRANCH  25  26
ENDBRANCH  24  25
ENDBRANCH   1  24
TORSDOF 20
ENDMDL
