MODEL 1
REMARK VINA RESULT:     -11.8      0.000      0.000
REMARK SMILES O=C(OCCOC(=O)[C@H](NC(=O)[C@H]1CC[C@@H](CNC(=O)[C@@H]2Cc3ccccc3C[NH2+]2)CC1)c1ccccc1)c1ccc(-c2c3nc(c(-c4c(F)cc(S(=O)(=O)[O-])cc4F)c4ccc([nH]4)c(-c4c(F)cc(S(=O)(=O)[O-])cc4F)c4nc(c(-c5c(F)cc(S(=O)(=O)[O-])cc5F)c5ccc2[nH]5)C=C4)C=C3)cc1
REMARK SMILES IDX 5 1 4 2 3 3 2 4 1 5 39 6 40 7 104 8 41 9 103 10 42 11 43 12
REMARK SMILES IDX 44 13 97 14 45 15 102 16 96 17 98 18 46 19 101 20 95 21
REMARK SMILES IDX 94 22 47 24 81 25 60 26 80 27 61 28 64 29 79 30 99 31 62 32
REMARK SMILES IDX 63 33 78 35 100 36 65 37 48 38 49 39 58 40 50 41 51 42 57 43
REMARK SMILES IDX 59 44 52 45 53 46 54 47 55 48 56 49 82 50 83 51 92 52 84 53
REMARK SMILES IDX 85 54 91 55 93 56 86 57 87 58 88 59 89 60 90 61 66 62 67 63
REMARK SMILES IDX 76 64 68 65 69 66 75 67 77 68 70 69 71 70 72 71 73 72 74 73
REMARK SMILES IDX 6 74 7 75 8 76 9 77 33 78 34 79 38 80 35 81 37 82 36 83
REMARK SMILES IDX 10 84 11 85 12 87 13 88 32 89 14 90 31 91 15 92 16 93 17 94
REMARK SMILES IDX 18 95 19 96 20 98 21 99 22 100 30 101 23 102 29 103 24 106
REMARK SMILES IDX 28 107 25 108 27 109 26 110
REMARK H PARENT 98 23 64 34 10 86 18 97 30 104 30 105
REMARK Flexibility Score: inf
ROOT
ATOM      1  C   UNL A   1      35.282  33.360  30.499  1.00  0.00     0.274 C 
ENDROOT
BRANCH   1   2
ATOM      2  C   UNL A   1      35.976  32.532  31.579  1.00  0.00     0.275 C 
BRANCH   2   3
ATOM      3  O   UNL A   1      37.368  32.422  31.232  1.00  0.00    -0.458 OA
BRANCH   3   4
ATOM      4  C   UNL A   1      38.090  31.677  32.103  1.00  0.00     0.338 C 
ATOM      5  O   UNL A   1      37.829  31.532  33.299  1.00  0.00    -0.246 OA
BRANCH   4   6
ATOM      6  C   UNL A   1      39.364  31.237  31.475  1.00  0.00     0.060 A 
ATOM      7  C   UNL A   1      40.140  30.222  32.053  1.00  0.00     0.016 A 
ATOM      8  C   UNL A   1      39.704  31.720  30.207  1.00  0.00     0.016 A 
ATOM      9  C   UNL A   1      41.199  29.648  31.347  1.00  0.00     0.010 A 
ATOM     10  C   UNL A   1      40.789  31.168  29.511  1.00  0.00     0.010 A 
ATOM     11  C   UNL A   1      41.526  30.110  30.065  1.00  0.00    -0.014 A 
BRANCH  11  12
ATOM     12  C   UNL A   1      42.858  29.742  29.525  1.00  0.00     0.031 A 
ATOM     13  C   UNL A   1      42.892  28.407  28.846  1.00  0.00     0.074 A 
ATOM     14  C   UNL A   1      43.946  30.541  29.535  1.00  0.00     0.049 A 
ATOM     15  N   UNL A   1      43.910  27.753  28.373  1.00  0.00    -0.248 NA
ATOM     16  C   UNL A   1      41.603  27.695  28.729  1.00  0.00     0.031 C 
ATOM     17  C   UNL A   1      44.029  31.859  30.138  1.00  0.00     0.029 A 
ATOM     18  N   UNL A   1      45.194  30.385  28.979  1.00  0.00    -0.354 N 
ATOM     19  C   UNL A   1      43.400  26.524  27.989  1.00  0.00     0.074 A 
ATOM     20  C   UNL A   1      41.982  26.529  28.242  1.00  0.00     0.031 C 
ATOM     21  C   UNL A   1      45.188  32.450  29.819  1.00  0.00     0.029 A 
ATOM     22  C   UNL A   1      46.010  31.495  29.105  1.00  0.00     0.049 A 
ATOM     23  H   UNL A   1      45.481  29.557  28.530  1.00  0.00     0.167 HD
ATOM     24  C   UNL A   1      44.079  25.467  27.503  1.00  0.00     0.037 A 
ATOM     25  C   UNL A   1      47.290  31.701  28.735  1.00  0.00     0.037 A 
ATOM     26  C   UNL A   1      45.483  25.509  27.230  1.00  0.00     0.049 A 
ATOM     27  C   UNL A   1      48.011  30.522  28.143  1.00  0.00     0.074 A 
ATOM     28  C   UNL A   1      46.299  24.500  26.762  1.00  0.00     0.029 A 
ATOM     29  N   UNL A   1      46.275  26.639  27.387  1.00  0.00    -0.354 N 
ATOM     30  N   UNL A   1      47.533  29.335  27.846  1.00  0.00    -0.248 NA
ATOM     31  C   UNL A   1      49.450  30.674  27.897  1.00  0.00     0.031 C 
ATOM     32  C   UNL A   1      47.594  25.013  26.665  1.00  0.00     0.029 A 
ATOM     33  C   UNL A   1      47.576  26.352  27.031  1.00  0.00     0.049 A 
ATOM     34  H   UNL A   1      45.956  27.514  27.707  1.00  0.00     0.167 HD
ATOM     35  C   UNL A   1      48.615  28.592  27.401  1.00  0.00     0.074 A 
ATOM     36  C   UNL A   1      49.762  29.479  27.413  1.00  0.00     0.031 C 
ATOM     37  C   UNL A   1      48.673  27.285  27.051  1.00  0.00     0.037 A 
BRANCH  24  38
ATOM     38  C   UNL A   1      43.316  24.193  27.345  1.00  0.00     0.058 A 
ATOM     39  C   UNL A   1      43.195  23.260  28.385  1.00  0.00     0.135 A 
ATOM     40  C   UNL A   1      42.750  23.876  26.099  1.00  0.00     0.135 A 
ATOM     41  F   UNL A   1      43.776  23.490  29.572  1.00  0.00    -0.206 F 
ATOM     42  C   UNL A   1      42.541  22.049  28.193  1.00  0.00     0.059 A 
ATOM     43  C   UNL A   1      42.069  22.683  25.894  1.00  0.00     0.059 A 
ATOM     44  F   UNL A   1      42.880  24.719  25.063  1.00  0.00    -0.206 F 
ATOM     45  C   UNL A   1      41.976  21.774  26.946  1.00  0.00     0.060 A 
BRANCH  45  46
ATOM     46  S   UNL A   1      41.096  20.215  26.725  1.00  0.00     0.124 S 
ATOM     47  O   UNL A   1      42.126  19.382  26.111  1.00  0.00    -0.237 OA
ATOM     48  O   UNL A   1      40.735  19.867  28.096  1.00  0.00    -0.237 OA
ATOM     49  O   UNL A   1      39.980  20.575  25.858  1.00  0.00    -0.744 OA
ENDBRANCH  45  46
ENDBRANCH  24  38
BRANCH  25  50
ATOM     50  C   UNL A   1      48.002  32.993  29.001  1.00  0.00     0.058 A 
ATOM     51  C   UNL A   1      48.136  33.976  28.006  1.00  0.00     0.135 A 
ATOM     52  C   UNL A   1      48.616  33.256  30.239  1.00  0.00     0.135 A 
ATOM     53  F   UNL A   1      47.588  33.784  26.796  1.00  0.00    -0.206 F 
ATOM     54  C   UNL A   1      48.873  35.144  28.213  1.00  0.00     0.059 A 
ATOM     55  C   UNL A   1      49.322  34.431  30.484  1.00  0.00     0.059 A 
ATOM     56  F   UNL A   1      48.532  32.361  31.236  1.00  0.00    -0.206 F 
ATOM     57  C   UNL A   1      49.467  35.361  29.456  1.00  0.00     0.060 A 
BRANCH  57  58
ATOM     58  S   UNL A   1      50.426  36.869  29.726  1.00  0.00     0.124 S 
ATOM     59  O   UNL A   1      50.976  37.108  28.395  1.00  0.00    -0.237 OA
ATOM     60  O   UNL A   1      49.406  37.813  30.172  1.00  0.00    -0.237 OA
ATOM     61  O   UNL A   1      51.393  36.474  30.745  1.00  0.00    -0.744 OA
ENDBRANCH  57  58
ENDBRANCH  25  50
BRANCH  37  62
ATOM     62  C   UNL A   1      50.011  26.755  26.653  1.00  0.00     0.058 A 
ATOM     63  C   UNL A   1      50.849  26.130  27.587  1.00  0.00     0.135 A 
ATOM     64  C   UNL A   1      50.413  26.793  25.310  1.00  0.00     0.135 A 
ATOM     65  F   UNL A   1      50.502  26.080  28.883  1.00  0.00    -0.206 F 
ATOM     66  C   UNL A   1      52.054  25.562  27.201  1.00  0.00     0.059 A 
ATOM     67  C   UNL A   1      51.601  26.207  24.898  1.00  0.00     0.059 A 
ATOM     68  F   UNL A   1      49.631  27.373  24.385  1.00  0.00    -0.206 F 
ATOM     69  C   UNL A   1      52.416  25.598  25.852  1.00  0.00     0.060 A 
BRANCH  69  70
ATOM     70  S   UNL A   1      53.951  24.796  25.354  1.00  0.00     0.124 S 
ATOM     71  O   UNL A   1      53.489  23.448  25.043  1.00  0.00    -0.237 OA
ATOM     72  O   UNL A   1      54.368  25.604  24.213  1.00  0.00    -0.237 OA
ATOM     73  O   UNL A   1      54.794  24.913  26.540  1.00  0.00    -0.744 OA
ENDBRANCH  69  70
ENDBRANCH  37  62
ENDBRANCH  11  12
ENDBRANCH   4   6
ENDBRANCH   3   4
ENDBRANCH   2   3
ENDBRANCH   1   2
BRANCH   1  74
ATOM     74  O   UNL A   1      34.609  32.495  29.561  1.00  0.00    -0.460 OA
BRANCH  74  75
ATOM     75  C   UNL A   1      34.918  32.520  28.242  1.00  0.00     0.333 C 
ATOM     76  O   UNL A   1      35.196  33.545  27.632  1.00  0.00    -0.249 OA
BRANCH  75  77
ATOM     77  C   UNL A   1      34.971  31.080  27.639  1.00  0.00     0.223 C 
BRANCH  77  78
ATOM     78  C   UNL A   1      36.197  30.284  28.160  1.00  0.00    -0.014 A 
ATOM     79  C   UNL A   1      36.208  29.704  29.440  1.00  0.00     0.006 A 
ATOM     80  C   UNL A   1      37.348  30.071  27.368  1.00  0.00     0.006 A 
ATOM     81  C   UNL A   1      37.233  28.838  29.841  1.00  0.00     0.000 A 
ATOM     82  C   UNL A   1      38.356  29.176  27.753  1.00  0.00     0.000 A 
ATOM     83  C   UNL A   1      38.284  28.539  28.982  1.00  0.00     0.000 A 
ENDBRANCH  77  78
BRANCH  77  84
ATOM     84  N   UNL A   1      33.736  30.295  27.888  1.00  0.00    -0.339 N 
ATOM     85  C   UNL A   1      33.190  29.232  27.227  1.00  0.00     0.224 C 
ATOM     86  H   UNL A   1      33.217  30.596  28.668  1.00  0.00     0.164 HD
ATOM     87  O   UNL A   1      32.799  28.238  27.826  1.00  0.00    -0.275 OA
BRANCH  85  88
ATOM     88  C   UNL A   1      32.929  29.392  25.767  1.00  0.00     0.078 C 
ATOM     89  C   UNL A   1      33.737  28.403  24.961  1.00  0.00     0.014 C 
ATOM     90  C   UNL A   1      31.445  29.349  25.392  1.00  0.00     0.014 C 
ATOM     91  C   UNL A   1      33.661  28.831  23.508  1.00  0.00     0.006 C 
ATOM     92  C   UNL A   1      31.306  29.754  23.923  1.00  0.00     0.006 C 
ATOM     93  C   UNL A   1      32.207  28.911  23.000  1.00  0.00     0.008 C 
BRANCH  93  94
ATOM     94  C   UNL A   1      31.616  27.499  22.808  1.00  0.00     0.119 C 
BRANCH  94  95
ATOM     95  N   UNL A   1      32.116  26.888  21.590  1.00  0.00    -0.351 N 
ATOM     96  C   UNL A   1      32.706  25.657  21.475  1.00  0.00     0.278 C 
ATOM     97  H   UNL A   1      32.021  27.412  20.763  1.00  0.00     0.163 HD
ATOM     98  O   UNL A   1      33.063  25.265  20.364  1.00  0.00    -0.268 OA
BRANCH  96  99
ATOM     99  C   UNL A   1      32.842  24.794  22.745  1.00  0.00     0.277 C 
ATOM    100  C   UNL A   1      34.282  24.836  23.284  1.00  0.00     0.111 C 
ATOM    101  N   UNL A   1      32.225  23.464  22.515  1.00  0.00    -0.332 N 
ATOM    102  C   UNL A   1      34.444  23.797  24.362  1.00  0.00    -0.033 A 
ATOM    103  C   UNL A   1      33.110  22.345  22.830  1.00  0.00     0.298 C 
ATOM    104  H   UNL A   1      31.959  23.397  21.532  1.00  0.00     0.347 HD
ATOM    105  H   UNL A   1      31.421  23.394  23.139  1.00  0.00     0.347 HD
ATOM    106  C   UNL A   1      35.158  24.032  25.538  1.00  0.00     0.004 A 
ATOM    107  C   UNL A   1      33.847  22.546  24.130  1.00  0.00     0.010 A 
ATOM    108  C   UNL A   1      35.286  23.013  26.482  1.00  0.00     0.000 A 
ATOM    109  C   UNL A   1      33.992  21.526  25.074  1.00  0.00     0.010 A 
ATOM    110  C   UNL A   1      34.709  21.762  26.248  1.00  0.00     0.001 A 
ENDBRANCH  96  99
ENDBRANCH  94  95
ENDBRANCH  93  94
ENDBRANCH  85  88
ENDBRANCH  77  84
ENDBRANCH  75  77
ENDBRANCH  74  75
ENDBRANCH   1  74
TORSDOF 20
ENDMDL
MODEL 2
REMARK VINA RESULT:     -11.7      3.437      9.946
REMARK SMILES O=C(OCCOC(=O)[C@H](NC(=O)[C@H]1CC[C@@H](CNC(=O)[C@@H]2Cc3ccccc3C[NH2+]2)CC1)c1ccccc1)c1ccc(-c2c3nc(c(-c4c(F)cc(S(=O)(=O)[O-])cc4F)c4ccc([nH]4)c(-c4c(F)cc(S(=O)(=O)[O-])cc4F)c4nc(c(-c5c(F)cc(S(=O)(=O)[O-])cc5F)c5ccc2[nH]5)C=C4)C=C3)cc1
REMARK SMILES IDX 5 1 4 2 3 3 2 4 1 5 39 6 40 7 104 8 41 9 103 10 42 11 43 12
REMARK SMILES IDX 44 13 97 14 45 15 102 16 96 17 98 18 46 19 101 20 95 21
REMARK SMILES IDX 94 22 47 24 81 25 60 26 80 27 61 28 64 29 79 30 99 31 62 32
REMARK SMILES IDX 63 33 78 35 100 36 65 37 48 38 49 39 58 40 50 41 51 42 57 43
REMARK SMILES IDX 59 44 52 45 53 46 54 47 55 48 56 49 82 50 83 51 92 52 84 53
REMARK SMILES IDX 85 54 91 55 93 56 86 57 87 58 88 59 89 60 90 61 66 62 67 63
REMARK SMILES IDX 76 64 68 65 69 66 75 67 77 68 70 69 71 70 72 71 73 72 74 73
REMARK SMILES IDX 6 74 7 75 8 76 9 77 33 78 34 79 38 80 35 81 37 82 36 83
REMARK SMILES IDX 10 84 11 85 12 87 13 88 32 89 14 90 31 91 15 92 16 93 17 94
REMARK SMILES IDX 18 95 19 96 20 98 21 99 22 100 30 101 23 102 29 103 24 106
REMARK SMILES IDX 28 107 25 108 27 109 26 110
REMARK H PARENT 98 23 64 34 10 86 18 97 30 104 30 105
REMARK Flexibility Score: inf
ROOT
ATOM      1  C   UNL A   1      36.385  21.338  24.781  1.00  0.00     0.274 C 
ENDROOT
BRANCH   1   2
ATOM      2  C   UNL A   1      37.862  21.169  25.128  1.00  0.00     0.275 C 
BRANCH   2   3
ATOM      3  O   UNL A   1      38.297  22.354  25.819  1.00  0.00    -0.458 OA
BRANCH   3   4
ATOM      4  C   UNL A   1      39.529  22.243  26.370  1.00  0.00     0.338 C 
ATOM      5  O   UNL A   1      40.127  21.182  26.565  1.00  0.00    -0.246 OA
BRANCH   4   6
ATOM      6  C   UNL A   1      39.972  23.555  26.914  1.00  0.00     0.060 A 
ATOM      7  C   UNL A   1      39.317  24.742  26.554  1.00  0.00     0.016 A 
ATOM      8  C   UNL A   1      40.941  23.585  27.923  1.00  0.00     0.016 A 
ATOM      9  C   UNL A   1      39.575  25.930  27.241  1.00  0.00     0.010 A 
ATOM     10  C   UNL A   1      41.224  24.785  28.589  1.00  0.00     0.010 A 
ATOM     11  C   UNL A   1      40.524  25.960  28.272  1.00  0.00    -0.014 A 
BRANCH  11  12
ATOM     12  C   UNL A   1      41.024  27.288  28.703  1.00  0.00     0.031 A 
ATOM     13  C   UNL A   1      42.455  27.545  28.344  1.00  0.00     0.074 A 
ATOM     14  C   UNL A   1      40.273  28.247  29.284  1.00  0.00     0.049 A 
ATOM     15  N   UNL A   1      43.215  28.549  28.669  1.00  0.00    -0.248 NA
ATOM     16  C   UNL A   1      43.132  26.503  27.546  1.00  0.00     0.031 C 
ATOM     17  C   UNL A   1      38.875  28.125  29.657  1.00  0.00     0.029 A 
ATOM     18  N   UNL A   1      40.564  29.547  29.628  1.00  0.00    -0.354 N 
ATOM     19  C   UNL A   1      44.473  28.213  28.197  1.00  0.00     0.074 A 
ATOM     20  C   UNL A   1      44.376  26.940  27.529  1.00  0.00     0.031 C 
ATOM     21  C   UNL A   1      38.387  29.310  30.047  1.00  0.00     0.029 A 
ATOM     22  C   UNL A   1      39.478  30.262  30.098  1.00  0.00     0.049 A 
ATOM     23  H   UNL A   1      41.466  29.934  29.545  1.00  0.00     0.167 HD
ATOM     24  C   UNL A   1      45.619  28.902  28.351  1.00  0.00     0.037 A 
ATOM     25  C   UNL A   1      39.382  31.523  30.566  1.00  0.00     0.037 A 
ATOM     26  C   UNL A   1      45.673  30.182  28.989  1.00  0.00     0.049 A 
ATOM     27  C   UNL A   1      40.669  32.293  30.677  1.00  0.00     0.074 A 
ATOM     28  C   UNL A   1      46.775  30.975  29.235  1.00  0.00     0.029 A 
ATOM     29  N   UNL A   1      44.561  30.863  29.467  1.00  0.00    -0.354 N 
ATOM     30  N   UNL A   1      41.871  31.937  30.287  1.00  0.00    -0.248 NA
ATOM     31  C   UNL A   1      40.610  33.599  31.344  1.00  0.00     0.031 C 
ATOM     32  C   UNL A   1      46.331  32.125  29.891  1.00  0.00     0.029 A 
ATOM     33  C   UNL A   1      44.949  32.067  30.014  1.00  0.00     0.049 A 
ATOM     34  H   UNL A   1      43.634  30.534  29.423  1.00  0.00     0.167 HD
ATOM     35  C   UNL A   1      42.716  32.961  30.683  1.00  0.00     0.074 A 
ATOM     36  C   UNL A   1      41.880  33.978  31.292  1.00  0.00     0.031 C 
ATOM     37  C   UNL A   1      44.065  33.045  30.593  1.00  0.00     0.037 A 
BRANCH  24  38
ATOM     38  C   UNL A   1      46.875  28.226  27.906  1.00  0.00     0.058 A 
ATOM     39  C   UNL A   1      47.370  28.353  26.599  1.00  0.00     0.135 A 
ATOM     40  C   UNL A   1      47.558  27.382  28.796  1.00  0.00     0.135 A 
ATOM     41  F   UNL A   1      46.713  29.096  25.695  1.00  0.00    -0.206 F 
ATOM     42  C   UNL A   1      48.501  27.658  26.187  1.00  0.00     0.059 A 
ATOM     43  C   UNL A   1      48.706  26.699  28.412  1.00  0.00     0.059 A 
ATOM     44  F   UNL A   1      47.096  27.195  30.042  1.00  0.00    -0.206 F 
ATOM     45  C   UNL A   1      49.164  26.840  27.104  1.00  0.00     0.060 A 
BRANCH  45  46
ATOM     46  S   UNL A   1      50.653  25.975  26.565  1.00  0.00     0.124 S 
ATOM     47  O   UNL A   1      51.701  26.870  27.047  1.00  0.00    -0.237 OA
ATOM     48  O   UNL A   1      50.539  24.699  27.264  1.00  0.00    -0.237 OA
ATOM     49  O   UNL A   1      50.500  25.909  25.116  1.00  0.00    -0.744 OA
ENDBRANCH  45  46
ENDBRANCH  24  38
BRANCH  25  50
ATOM     50  C   UNL A   1      38.089  32.097  31.062  1.00  0.00     0.058 A 
ATOM     51  C   UNL A   1      37.375  33.050  30.316  1.00  0.00     0.135 A 
ATOM     52  C   UNL A   1      37.562  31.751  32.319  1.00  0.00     0.135 A 
ATOM     53  F   UNL A   1      37.828  33.438  29.114  1.00  0.00    -0.206 F 
ATOM     54  C   UNL A   1      36.216  33.657  30.806  1.00  0.00     0.059 A 
ATOM     55  C   UNL A   1      36.387  32.312  32.813  1.00  0.00     0.059 A 
ATOM     56  F   UNL A   1      38.192  30.849  33.089  1.00  0.00    -0.206 F 
ATOM     57  C   UNL A   1      35.732  33.284  32.060  1.00  0.00     0.060 A 
BRANCH  57  58
ATOM     58  S   UNL A   1      34.237  34.073  32.699  1.00  0.00     0.124 S 
ATOM     59  O   UNL A   1      34.788  34.966  33.714  1.00  0.00    -0.237 OA
ATOM     60  O   UNL A   1      33.691  34.720  31.510  1.00  0.00    -0.237 OA
ATOM     61  O   UNL A   1      33.455  32.949  33.207  1.00  0.00    -0.744 OA
ENDBRANCH  57  58
ENDBRANCH  25  50
BRANCH  37  62
ATOM     62  C   UNL A   1      44.701  34.273  31.159  1.00  0.00     0.058 A 
ATOM     63  C   UNL A   1      45.162  34.305  32.482  1.00  0.00     0.135 A 
ATOM     64  C   UNL A   1      44.931  35.388  30.340  1.00  0.00     0.135 A 
ATOM     65  F   UNL A   1      44.955  33.259  33.298  1.00  0.00    -0.206 F 
ATOM     66  C   UNL A   1      45.829  35.414  32.981  1.00  0.00     0.059 A 
ATOM     67  C   UNL A   1      45.620  36.496  30.811  1.00  0.00     0.059 A 
ATOM     68  F   UNL A   1      44.513  35.389  29.064  1.00  0.00    -0.206 F 
ATOM     69  C   UNL A   1      46.061  36.500  32.134  1.00  0.00     0.060 A 
BRANCH  69  70
ATOM     70  S   UNL A   1      46.988  37.906  32.776  1.00  0.00     0.124 S 
ATOM     71  O   UNL A   1      47.719  37.295  33.880  1.00  0.00    -0.237 OA
ATOM     72  O   UNL A   1      47.792  38.301  31.624  1.00  0.00    -0.237 OA
ATOM     73  O   UNL A   1      45.945  38.853  33.159  1.00  0.00    -0.744 OA
ENDBRANCH  69  70
ENDBRANCH  37  62
ENDBRANCH  11  12
ENDBRANCH   4   6
ENDBRANCH   3   4
ENDBRANCH   2   3
ENDBRANCH   1   2
BRANCH   1  74
ATOM     74  O   UNL A   1      35.593  21.417  25.984  1.00  0.00    -0.460 OA
BRANCH  74  75
ATOM     75  C   UNL A   1      34.344  20.895  26.033  1.00  0.00     0.333 C 
ATOM     76  O   UNL A   1      33.588  21.038  26.986  1.00  0.00    -0.249 OA
BRANCH  75  77
ATOM     77  C   UNL A   1      33.968  20.182  24.695  1.00  0.00     0.223 C 
BRANCH  77  78
ATOM     78  C   UNL A   1      33.842  18.646  24.880  1.00  0.00    -0.014 A 
ATOM     79  C   UNL A   1      32.676  18.061  25.402  1.00  0.00     0.006 A 
ATOM     80  C   UNL A   1      34.873  17.755  24.503  1.00  0.00     0.006 A 
ATOM     81  C   UNL A   1      32.491  16.673  25.400  1.00  0.00     0.000 A 
ATOM     82  C   UNL A   1      34.676  16.368  24.467  1.00  0.00     0.000 A 
ATOM     83  C   UNL A   1      33.472  15.828  24.892  1.00  0.00     0.000 A 
ENDBRANCH  77  78
BRANCH  77  84
ATOM     84  N   UNL A   1      32.722  20.706  24.083  1.00  0.00    -0.339 N 
ATOM     85  C   UNL A   1      32.516  21.633  23.102  1.00  0.00     0.224 C 
ATOM     86  H   UNL A   1      31.897  20.315  24.450  1.00  0.00     0.164 HD
ATOM     87  O   UNL A   1      31.752  21.420  22.169  1.00  0.00    -0.275 OA
BRANCH  85  88
ATOM     88  C   UNL A   1      33.121  22.983  23.296  1.00  0.00     0.078 C 
ATOM     89  C   UNL A   1      32.875  23.864  22.094  1.00  0.00     0.014 C 
ATOM     90  C   UNL A   1      32.704  23.672  24.597  1.00  0.00     0.014 C 
ATOM     91  C   UNL A   1      33.772  25.079  22.229  1.00  0.00     0.006 C 
ATOM     92  C   UNL A   1      33.564  24.924  24.780  1.00  0.00     0.006 C 
ATOM     93  C   UNL A   1      33.520  25.844  23.545  1.00  0.00     0.008 C 
BRANCH  93  94
ATOM     94  C   UNL A   1      32.182  26.608  23.486  1.00  0.00     0.119 C 
BRANCH  94  95
ATOM     95  N   UNL A   1      31.389  26.358  24.675  1.00  0.00    -0.351 N 
ATOM     96  C   UNL A   1      31.423  27.069  25.847  1.00  0.00     0.278 C 
ATOM     97  H   UNL A   1      30.761  25.601  24.636  1.00  0.00     0.163 HD
ATOM     98  O   UNL A   1      30.671  26.746  26.766  1.00  0.00    -0.268 OA
BRANCH  96  99
ATOM     99  C   UNL A   1      32.369  28.282  25.934  1.00  0.00     0.277 C 
ATOM    100  C   UNL A   1      33.375  28.111  27.084  1.00  0.00     0.111 C 
ATOM    101  N   UNL A   1      31.580  29.537  25.882  1.00  0.00    -0.332 N 
ATOM    102  C   UNL A   1      34.112  29.406  27.303  1.00  0.00    -0.033 A 
ATOM    103  C   UNL A   1      31.870  30.457  26.979  1.00  0.00     0.298 C 
ATOM    104  H   UNL A   1      30.589  29.297  25.916  1.00  0.00     0.347 HD
ATOM    105  H   UNL A   1      31.832  30.015  25.017  1.00  0.00     0.347 HD
ATOM    106  C   UNL A   1      35.481  29.462  27.568  1.00  0.00     0.004 A 
ATOM    107  C   UNL A   1      33.349  30.585  27.244  1.00  0.00     0.010 A 
ATOM    108  C   UNL A   1      36.091  30.698  27.784  1.00  0.00     0.000 A 
ATOM    109  C   UNL A   1      33.965  31.818  27.475  1.00  0.00     0.010 A 
ATOM    110  C   UNL A   1      35.334  31.872  27.742  1.00  0.00     0.001 A 
ENDBRANCH  96  99
ENDBRANCH  94  95
ENDBRANCH  93  94
ENDBRANCH  85  88
ENDBRANCH  77  84
ENDBRANCH  75  77
ENDBRANCH  74  75
ENDBRANCH   1  74
TORSDOF 20
ENDMDL
MODEL 3
REMARK VINA RESULT:     -11.6      3.233      8.537
REMARK SMILES O=C(OCCOC(=O)[C@H](NC(=O)[C@H]1CC[C@@H](CNC(=O)[C@@H]2Cc3ccccc3C[NH2+]2)CC1)c1ccccc1)c1ccc(-c2c3nc(c(-c4c(F)cc(S(=O)(=O)[O-])cc4F)c4ccc([nH]4)c(-c4c(F)cc(S(=O)(=O)[O-])cc4F)c4nc(c(-c5c(F)cc(S(=O)(=O)[O-])cc5F)c5ccc2[nH]5)C=C4)C=C3)cc1
REMARK SMILES IDX 5 1 4 2 3 3 2 4 1 5 39 6 40 7 104 8 41 9 103 10 42 11 43 12
REMARK SMILES IDX 44 13 97 14 45 15 102 16 96 17 98 18 46 19 101 20 95 21
REMARK SMILES IDX 94 22 47 24 81 25 60 26 80 27 61 28 64 29 79 30 99 31 62 32
REMARK SMILES IDX 63 33 78 35 100 36 65 37 48 38 49 39 58 40 50 41 51 42 57 43
REMARK SMILES IDX 59 44 52 45 53 46 54 47 55 48 56 49 82 50 83 51 92 52 84 53
REMARK SMILES IDX 85 54 91 55 93 56 86 57 87 58 88 59 89 60 90 61 66 62 67 63
REMARK SMILES IDX 76 64 68 65 69 66 75 67 77 68 70 69 71 70 72 71 73 72 74 73
REMARK SMILES IDX 6 74 7 75 8 76 9 77 33 78 34 79 38 80 35 81 37 82 36 83
REMARK SMILES IDX 10 84 11 85 12 87 13 88 32 89 14 90 31 91 15 92 16 93 17 94
REMARK SMILES IDX 18 95 19 96 20 98 21 99 22 100 30 101 23 102 29 103 24 106
REMARK SMILES IDX 28 107 25 108 27 109 26 110
REMARK H PARENT 98 23 64 34 10 86 18 97 30 104 30 105
REMARK Flexibility Score: inf
ROOT
ATOM      1  C   UNL A   1      34.394  33.688  30.205  1.00  0.00     0.274 C 
ENDROOT
BRANCH   1   2
ATOM      2  C   UNL A   1      34.464  33.167  31.639  1.00  0.00     0.275 C 
BRANCH   2   3
ATOM      3  O   UNL A   1      35.373  32.052  31.665  1.00  0.00    -0.458 OA
BRANCH   3   4
ATOM      4  C   UNL A   1      36.335  32.155  32.614  1.00  0.00     0.338 C 
ATOM      5  O   UNL A   1      36.133  32.385  33.808  1.00  0.00    -0.246 OA
BRANCH   4   6
ATOM      6  C   UNL A   1      37.682  32.176  31.983  1.00  0.00     0.060 A 
ATOM      7  C   UNL A   1      38.770  31.527  32.585  1.00  0.00     0.016 A 
ATOM      8  C   UNL A   1      37.826  32.703  30.695  1.00  0.00     0.016 A 
ATOM      9  C   UNL A   1      39.963  31.344  31.884  1.00  0.00     0.010 A 
ATOM     10  C   UNL A   1      39.035  32.550  30.004  1.00  0.00     0.010 A 
ATOM     11  C   UNL A   1      40.103  31.845  30.583  1.00  0.00    -0.014 A 
BRANCH  11  12
ATOM     12  C   UNL A   1      41.477  31.957  30.037  1.00  0.00     0.031 A 
ATOM     13  C   UNL A   1      42.163  33.245  30.373  1.00  0.00     0.074 A 
ATOM     14  C   UNL A   1      42.130  30.979  29.373  1.00  0.00     0.049 A 
ATOM     15  N   UNL A   1      43.311  33.696  29.962  1.00  0.00    -0.248 NA
ATOM     16  C   UNL A   1      41.428  34.171  31.260  1.00  0.00     0.031 C 
ATOM     17  C   UNL A   1      41.582  29.684  29.011  1.00  0.00     0.029 A 
ATOM     18  N   UNL A   1      43.425  30.896  28.917  1.00  0.00    -0.354 N 
ATOM     19  C   UNL A   1      43.391  34.985  30.462  1.00  0.00     0.074 A 
ATOM     20  C   UNL A   1      42.204  35.238  31.240  1.00  0.00     0.031 C 
ATOM     21  C   UNL A   1      42.540  28.889  28.518  1.00  0.00     0.029 A 
ATOM     22  C   UNL A   1      43.757  29.664  28.384  1.00  0.00     0.049 A 
ATOM     23  H   UNL A   1      44.059  31.648  28.966  1.00  0.00     0.167 HD
ATOM     24  C   UNL A   1      44.363  35.891  30.249  1.00  0.00     0.037 A 
ATOM     25  C   UNL A   1      44.894  29.225  27.808  1.00  0.00     0.037 A 
ATOM     26  C   UNL A   1      45.547  35.595  29.501  1.00  0.00     0.049 A 
ATOM     27  C   UNL A   1      45.987  30.241  27.631  1.00  0.00     0.074 A 
ATOM     28  C   UNL A   1      46.598  36.430  29.186  1.00  0.00     0.029 A 
ATOM     29  N   UNL A   1      45.838  34.347  28.964  1.00  0.00    -0.354 N 
ATOM     30  N   UNL A   1      46.025  31.485  28.051  1.00  0.00    -0.248 NA
ATOM     31  C   UNL A   1      47.161  29.831  26.851  1.00  0.00     0.031 C 
ATOM     32  C   UNL A   1      47.514  35.695  28.432  1.00  0.00     0.029 A 
ATOM     33  C   UNL A   1      47.053  34.390  28.314  1.00  0.00     0.049 A 
ATOM     34  H   UNL A   1      45.262  33.552  29.036  1.00  0.00     0.167 HD
ATOM     35  C   UNL A   1      47.211  32.013  27.567  1.00  0.00     0.074 A 
ATOM     36  C   UNL A   1      47.891  30.938  26.871  1.00  0.00     0.031 C 
ATOM     37  C   UNL A   1      47.684  33.279  27.650  1.00  0.00     0.037 A 
BRANCH  24  38
ATOM     38  C   UNL A   1      44.115  37.275  30.753  1.00  0.00     0.058 A 
ATOM     39  C   UNL A   1      44.297  37.626  32.098  1.00  0.00     0.135 A 
ATOM     40  C   UNL A   1      43.621  38.252  29.874  1.00  0.00     0.135 A 
ATOM     41  F   UNL A   1      44.704  36.707  32.988  1.00  0.00    -0.206 F 
ATOM     42  C   UNL A   1      43.991  38.901  32.558  1.00  0.00     0.059 A 
ATOM     43  C   UNL A   1      43.335  39.541  30.307  1.00  0.00     0.059 A 
ATOM     44  F   UNL A   1      43.388  37.950  28.587  1.00  0.00    -0.206 F 
ATOM     45  C   UNL A   1      43.517  39.852  31.653  1.00  0.00     0.060 A 
BRANCH  45  46
ATOM     46  S   UNL A   1      43.163  41.514  32.258  1.00  0.00     0.124 S 
ATOM     47  O   UNL A   1      44.469  41.926  32.765  1.00  0.00    -0.237 OA
ATOM     48  O   UNL A   1      42.711  42.194  31.047  1.00  0.00    -0.237 OA
ATOM     49  O   UNL A   1      42.136  41.295  33.270  1.00  0.00    -0.744 OA
ENDBRANCH  45  46
ENDBRANCH  24  38
BRANCH  25  50
ATOM     50  C   UNL A   1      45.030  27.835  27.262  1.00  0.00     0.058 A 
ATOM     51  C   UNL A   1      44.495  27.481  26.012  1.00  0.00     0.135 A 
ATOM     52  C   UNL A   1      45.650  26.811  28.000  1.00  0.00     0.135 A 
ATOM     53  F   UNL A   1      43.877  28.406  25.262  1.00  0.00    -0.206 F 
ATOM     54  C   UNL A   1      44.538  26.170  25.533  1.00  0.00     0.059 A 
ATOM     55  C   UNL A   1      45.742  25.504  27.527  1.00  0.00     0.059 A 
ATOM     56  F   UNL A   1      46.182  27.074  29.205  1.00  0.00    -0.206 F 
ATOM     57  C   UNL A   1      45.161  25.186  26.301  1.00  0.00     0.060 A 
BRANCH  57  58
ATOM     58  S   UNL A   1      45.213  23.487  25.686  1.00  0.00     0.124 S 
ATOM     59  O   UNL A   1      45.309  23.700  24.246  1.00  0.00    -0.237 OA
ATOM     60  O   UNL A   1      46.408  22.956  26.333  1.00  0.00    -0.237 OA
ATOM     61  O   UNL A   1      43.951  22.921  26.156  1.00  0.00    -0.744 OA
ENDBRANCH  57  58
ENDBRANCH  25  50
BRANCH  37  62
ATOM     62  C   UNL A   1      48.990  33.553  26.979  1.00  0.00     0.058 A 
ATOM     63  C   UNL A   1      49.046  34.233  25.754  1.00  0.00     0.135 A 
ATOM     64  C   UNL A   1      50.194  33.213  27.615  1.00  0.00     0.135 A 
ATOM     65  F   UNL A   1      47.916  34.568  25.113  1.00  0.00    -0.206 F 
ATOM     66  C   UNL A   1      50.262  34.563  25.174  1.00  0.00     0.059 A 
ATOM     67  C   UNL A   1      51.420  33.558  27.064  1.00  0.00     0.059 A 
ATOM     68  F   UNL A   1      50.179  32.572  28.794  1.00  0.00    -0.206 F 
ATOM     69  C   UNL A   1      51.443  34.229  25.842  1.00  0.00     0.060 A 
BRANCH  69  70
ATOM     70  S   UNL A   1      53.013  34.724  25.110  1.00  0.00     0.124 S 
ATOM     71  O   UNL A   1      52.576  35.303  23.844  1.00  0.00    -0.237 OA
ATOM     72  O   UNL A   1      53.532  35.667  26.094  1.00  0.00    -0.237 OA
ATOM     73  O   UNL A   1      53.749  33.468  25.005  1.00  0.00    -0.744 OA
ENDBRANCH  69  70
ENDBRANCH  37  62
ENDBRANCH  11  12
ENDBRANCH   4   6
ENDBRANCH   3   4
ENDBRANCH   2   3
ENDBRANCH   1   2
BRANCH   1  74
ATOM     74  O   UNL A   1      34.171  32.598  29.286  1.00  0.00    -0.460 OA
BRANCH  74  75
ATOM     75  C   UNL A   1      34.887  32.492  28.142  1.00  0.00     0.333 C 
ATOM     76  O   UNL A   1      35.445  33.440  27.602  1.00  0.00    -0.249 OA
BRANCH  75  77
ATOM     77  C   UNL A   1      34.990  31.007  27.666  1.00  0.00     0.223 C 
BRANCH  77  78
ATOM     78  C   UNL A   1      36.204  30.283  28.304  1.00  0.00    -0.014 A 
ATOM     79  C   UNL A   1      36.152  29.767  29.610  1.00  0.00     0.006 A 
ATOM     80  C   UNL A   1      37.411  30.073  27.598  1.00  0.00     0.006 A 
ATOM     81  C   UNL A   1      37.176  28.959  30.118  1.00  0.00     0.000 A 
ATOM     82  C   UNL A   1      38.421  29.236  28.091  1.00  0.00     0.000 A 
ATOM     83  C   UNL A   1      38.291  28.657  29.344  1.00  0.00     0.000 A 
ENDBRANCH  77  78
BRANCH  77  84
ATOM     84  N   UNL A   1      33.758  30.222  27.929  1.00  0.00    -0.339 N 
ATOM     85  C   UNL A   1      33.189  29.178  27.257  1.00  0.00     0.224 C 
ATOM     86  H   UNL A   1      33.262  30.506  28.730  1.00  0.00     0.164 HD
ATOM     87  O   UNL A   1      32.809  28.171  27.842  1.00  0.00    -0.275 OA
BRANCH  85  88
ATOM     88  C   UNL A   1      32.889  29.375  25.810  1.00  0.00     0.078 C 
ATOM     89  C   UNL A   1      33.735  28.464  24.952  1.00  0.00     0.014 C 
ATOM     90  C   UNL A   1      31.403  29.261  25.460  1.00  0.00     0.014 C 
ATOM     91  C   UNL A   1      33.606  28.939  23.518  1.00  0.00     0.006 C 
ATOM     92  C   UNL A   1      31.211  29.709  24.010  1.00  0.00     0.006 C 
ATOM     93  C   UNL A   1      32.139  28.953  23.040  1.00  0.00     0.008 C 
BRANCH  93  94
ATOM     94  C   UNL A   1      31.626  27.518  22.807  1.00  0.00     0.119 C 
BRANCH  94  95
ATOM     95  N   UNL A   1      32.252  26.926  21.639  1.00  0.00    -0.351 N 
ATOM     96  C   UNL A   1      32.792  25.670  21.547  1.00  0.00     0.278 C 
ATOM     97  H   UNL A   1      32.291  27.484  20.829  1.00  0.00     0.163 HD
ATOM     98  O   UNL A   1      33.272  25.300  20.476  1.00  0.00    -0.268 OA
BRANCH  96  99
ATOM     99  C   UNL A   1      32.718  24.755  22.785  1.00  0.00     0.277 C 
ATOM    100  C   UNL A   1      34.019  24.829  23.600  1.00  0.00     0.111 C 
ATOM    101  N   UNL A   1      32.223  23.413  22.387  1.00  0.00    -0.332 N 
ATOM    102  C   UNL A   1      34.017  23.749  24.649  1.00  0.00    -0.033 A 
ATOM    103  C   UNL A   1      33.082  22.318  22.829  1.00  0.00     0.298 C 
ATOM    104  H   UNL A   1      32.159  23.382  21.369  1.00  0.00     0.347 HD
ATOM    105  H   UNL A   1      31.317  23.282  22.836  1.00  0.00     0.347 HD
ATOM    106  C   UNL A   1      34.474  23.957  25.951  1.00  0.00     0.004 A 
ATOM    107  C   UNL A   1      33.539  22.487  24.256  1.00  0.00     0.010 A 
ATOM    108  C   UNL A   1      34.464  22.901  26.862  1.00  0.00     0.000 A 
ATOM    109  C   UNL A   1      33.546  21.431  25.171  1.00  0.00     0.010 A 
ATOM    110  C   UNL A   1      34.005  21.641  26.472  1.00  0.00     0.001 A 
ENDBRANCH  96  99
ENDBRANCH  94  95
ENDBRANCH  93  94
ENDBRANCH  85  88
ENDBRANCH  77  84
ENDBRANCH  75  77
ENDBRANCH  74  75
ENDBRANCH   1  74
TORSDOF 20
ENDMDL
