MODEL 1
REMARK VINA RESULT:     -13.3      0.000      0.000
REMARK SMILES Cc1ccc(-c2nc(C)cc(N3CCCC[C@H]3C(=O)OCCOC(=O)c3ccc(-c4c5nc(c(-c6c(F)cc(S(=O)(=O)[O-])cc6F)c6ccc([nH]6)c(-c6c(F)cc(S(=O)(=O)[O-])cc6F)c6nc(c(-c7c(F)cc(S(=O)(=O)[O-])cc7F)c7ccc4[nH]7)C=C6)C=C5)cc3)n2)cc1
REMARK SMILES IDX 22 1 21 2 20 3 18 4 19 5 17 6 12 7 13 8 14 9 16 10 15 11
REMARK SMILES IDX 11 12 6 13 7 14 92 15 8 16 9 17 10 18 5 19 1 20 2 21 3 22
REMARK SMILES IDX 94 23 4 24 93 25 23 26 24 27 25 28 26 29 27 30 91 31 28 32
REMARK SMILES IDX 90 33 29 34 30 35 31 36 84 37 32 38 89 39 83 40 85 41 33 42
REMARK SMILES IDX 88 43 82 44 81 45 34 47 68 48 47 49 67 50 48 51 51 52 66 53
REMARK SMILES IDX 86 54 49 55 50 56 65 58 87 59 52 60 35 61 36 62 45 63 37 64
REMARK SMILES IDX 38 65 44 66 46 67 39 68 40 69 41 70 42 71 43 72 69 73 70 74
REMARK SMILES IDX 79 75 71 76 72 77 78 78 80 79 73 80 74 81 75 82 76 83 77 84
REMARK SMILES IDX 53 85 54 86 63 87 55 88 56 89 62 90 64 91 57 92 58 93 59 94
REMARK SMILES IDX 60 95 61 96
REMARK H PARENT 85 46 51 57
REMARK Flexibility Score: inf
ROOT
ATOM      1  C   UNL A   1      32.875  31.296  26.526  1.00  0.00     0.275 C 
ENDROOT
BRANCH   1   2
ATOM      2  C   UNL A   1      31.853  30.231  26.961  1.00  0.00     0.274 C 
BRANCH   2   3
ATOM      3  O   UNL A   1      32.564  29.031  27.344  1.00  0.00    -0.461 OA
BRANCH   3   4
ATOM      4  C   UNL A   1      31.995  27.765  26.868  1.00  0.00     0.328 C 
ATOM      5  O   UNL A   1      31.028  27.562  27.656  1.00  0.00    -0.250 OA
BRANCH   4   6
ATOM      6  C   UNL A   1      32.738  26.618  25.132  1.00  0.00     0.193 C 
ATOM      7  N   UNL A   1      32.248  25.003  24.633  1.00  0.00    -0.343 N 
ATOM      8  C   UNL A   1      31.154  24.908  23.641  1.00  0.00     0.119 C 
ATOM      9  C   UNL A   1      31.407  25.645  22.339  1.00  0.00     0.022 C 
ATOM     10  C   UNL A   1      33.164  27.072  23.480  1.00  0.00     0.037 C 
ATOM     11  C   UNL A   1      32.046  27.011  22.442  1.00  0.00     0.005 C 
BRANCH   7  12
ATOM     12  C   UNL A   1      32.854  23.742  24.869  1.00  0.00     0.133 A 
ATOM     13  C   UNL A   1      34.864  22.571  25.034  1.00  0.00     0.161 A 
ATOM     14  N   UNL A   1      34.372  21.399  24.627  1.00  0.00    -0.233 NA
ATOM     15  N   UNL A   1      34.169  23.723  25.194  1.00  0.00    -0.211 NA
ATOM     16  C   UNL A   1      33.061  21.383  24.396  1.00  0.00     0.043 A 
ATOM     17  C   UNL A   1      32.534  20.081  23.873  1.00  0.00     0.067 C 
ATOM     18  C   UNL A   1      32.269  22.517  24.560  1.00  0.00     0.070 A 
BRANCH  13  19
ATOM     19  C   UNL A   1      36.293  22.550  25.343  1.00  0.00     0.019 A 
ATOM     20  C   UNL A   1      40.447  22.426  26.530  1.00  0.00     0.044 C 
ATOM     21  C   UNL A   1      39.004  22.466  26.126  1.00  0.00    -0.051 A 
ATOM     22  C   UNL A   1      38.407  21.346  25.540  1.00  0.00     0.004 A 
ATOM     23  C   UNL A   1      38.241  23.622  26.322  1.00  0.00     0.004 A 
ATOM     24  C   UNL A   1      37.062  21.386  25.162  1.00  0.00     0.012 A 
ATOM     25  C   UNL A   1      36.903  23.665  25.926  1.00  0.00     0.012 A 
ENDBRANCH  13  19
ENDBRANCH   7  12
ENDBRANCH   4   6
ENDBRANCH   3   4
ENDBRANCH   2   3
ENDBRANCH   1   2
BRANCH   1  26
ATOM     26  O   UNL A   1      33.349  32.095  27.635  1.00  0.00    -0.458 OA
BRANCH  26  27
ATOM     27  C   UNL A   1      34.697  32.162  27.799  1.00  0.00     0.338 C 
ATOM     28  O   UNL A   1      35.367  33.176  27.900  1.00  0.00    -0.246 OA
BRANCH  27  29
ATOM     29  C   UNL A   1      35.137  30.863  28.349  1.00  0.00     0.060 A 
ATOM     30  C   UNL A   1      35.387  30.661  30.123  1.00  0.00     0.016 A 
ATOM     31  C   UNL A   1      36.209  30.014  27.203  1.00  0.00     0.016 A 
ATOM     32  C   UNL A   1      36.802  29.681  30.731  1.00  0.00     0.010 A 
ATOM     33  C   UNL A   1      37.634  29.091  27.814  1.00  0.00     0.010 A 
ATOM     34  C   UNL A   1      37.959  28.984  29.560  1.00  0.00    -0.014 A 
BRANCH  34  35
ATOM     35  C   UNL A   1      39.374  28.862  29.835  1.00  0.00     0.031 A 
ATOM     36  C   UNL A   1      40.027  27.597  29.470  1.00  0.00     0.074 A 
ATOM     37  C   UNL A   1      40.047  30.008  30.111  1.00  0.00     0.049 A 
ATOM     38  N   UNL A   1      41.240  27.333  29.775  1.00  0.00    -0.248 NA
ATOM     39  C   UNL A   1      39.379  26.486  28.763  1.00  0.00     0.031 C 
ATOM     40  C   UNL A   1      41.472  30.294  29.985  1.00  0.00     0.029 A 
ATOM     41  N   UNL A   1      39.582  31.201  30.644  1.00  0.00    -0.354 N 
ATOM     42  C   UNL A   1      41.637  26.260  29.015  1.00  0.00     0.074 A 
ATOM     43  C   UNL A   1      40.419  25.674  28.531  1.00  0.00     0.031 C 
ATOM     44  C   UNL A   1      41.769  31.391  30.710  1.00  0.00     0.029 A 
ATOM     45  C   UNL A   1      40.565  31.793  31.417  1.00  0.00     0.049 A 
ATOM     46  H   UNL A   1      38.682  31.572  30.494  1.00  0.00     0.167 HD
ATOM     47  C   UNL A   1      42.971  26.132  28.782  1.00  0.00     0.037 A 
ATOM     48  C   UNL A   1      40.425  31.865  32.775  1.00  0.00     0.037 A 
ATOM     49  C   UNL A   1      43.705  27.033  29.680  1.00  0.00     0.049 A 
ATOM     50  C   UNL A   1      41.353  30.855  33.445  1.00  0.00     0.074 A 
ATOM     51  C   UNL A   1      44.366  28.235  29.505  1.00  0.00     0.029 A 
ATOM     52  N   UNL A   1      43.476  26.914  31.052  1.00  0.00    -0.354 N 
ATOM     53  N   UNL A   1      41.914  29.852  32.810  1.00  0.00    -0.248 NA
ATOM     54  C   UNL A   1      41.817  30.942  34.825  1.00  0.00     0.031 C 
ATOM     55  C   UNL A   1      44.404  28.893  30.776  1.00  0.00     0.029 A 
ATOM     56  C   UNL A   1      43.807  28.074  31.727  1.00  0.00     0.049 A 
ATOM     57  H   UNL A   1      43.120  26.104  31.485  1.00  0.00     0.167 HD
ATOM     58  C   UNL A   1      42.823  29.217  33.611  1.00  0.00     0.074 A 
ATOM     59  C   UNL A   1      42.722  29.944  34.867  1.00  0.00     0.031 C 
ATOM     60  C   UNL A   1      43.600  28.171  33.177  1.00  0.00     0.037 A 
BRANCH  47  61
ATOM     61  C   UNL A   1      43.598  25.353  27.646  1.00  0.00     0.058 A 
ATOM     62  C   UNL A   1      43.696  23.948  27.733  1.00  0.00     0.135 A 
ATOM     63  C   UNL A   1      44.219  25.916  26.506  1.00  0.00     0.135 A 
ATOM     64  F   UNL A   1      43.182  23.284  28.778  1.00  0.00    -0.206 F 
ATOM     65  C   UNL A   1      44.345  23.167  26.770  1.00  0.00     0.059 A 
ATOM     66  C   UNL A   1      44.834  25.153  25.509  1.00  0.00     0.059 A 
ATOM     67  F   UNL A   1      44.319  27.237  26.325  1.00  0.00    -0.206 F 
ATOM     68  C   UNL A   1      44.903  23.777  25.655  1.00  0.00     0.060 A 
BRANCH  68  69
ATOM     69  S   UNL A   1      45.726  22.761  24.414  1.00  0.00     0.124 S 
ATOM     70  O   UNL A   1      46.264  21.673  25.224  1.00  0.00    -0.237 OA
ATOM     71  O   UNL A   1      44.624  22.409  23.525  1.00  0.00    -0.237 OA
ATOM     72  O   UNL A   1      46.722  23.661  23.841  1.00  0.00    -0.744 OA
ENDBRANCH  68  69
ENDBRANCH  47  61
BRANCH  48  73
ATOM     73  C   UNL A   1      39.079  32.379  33.198  1.00  0.00     0.058 A 
ATOM     74  C   UNL A   1      38.792  33.736  32.904  1.00  0.00     0.135 A 
ATOM     75  C   UNL A   1      37.973  31.564  33.447  1.00  0.00     0.135 A 
ATOM     76  F   UNL A   1      39.804  34.596  32.706  1.00  0.00    -0.206 F 
ATOM     77  C   UNL A   1      37.493  34.218  32.700  1.00  0.00     0.059 A 
ATOM     78  C   UNL A   1      36.662  32.038  33.257  1.00  0.00     0.059 A 
ATOM     79  F   UNL A   1      38.133  30.261  33.721  1.00  0.00    -0.206 F 
ATOM     80  C   UNL A   1      36.426  33.346  32.839  1.00  0.00     0.060 A 
BRANCH  80  81
ATOM     81  S   UNL A   1      34.761  33.895  32.360  1.00  0.00     0.124 S 
ATOM     82  O   UNL A   1      34.518  34.985  33.297  1.00  0.00    -0.237 OA
ATOM     83  O   UNL A   1      34.943  34.283  30.966  1.00  0.00    -0.237 OA
ATOM     84  O   UNL A   1      33.942  32.702  32.568  1.00  0.00    -0.744 OA
ENDBRANCH  80  81
ENDBRANCH  48  73
BRANCH  60  85
ATOM     85  C   UNL A   1      44.318  27.170  34.078  1.00  0.00     0.058 A 
ATOM     86  C   UNL A   1      45.695  27.196  34.355  1.00  0.00     0.135 A 
ATOM     87  C   UNL A   1      43.588  26.201  34.823  1.00  0.00     0.135 A 
ATOM     88  F   UNL A   1      46.500  28.151  33.872  1.00  0.00    -0.206 F 
ATOM     89  C   UNL A   1      46.315  26.268  35.194  1.00  0.00     0.059 A 
ATOM     90  C   UNL A   1      44.172  25.333  35.740  1.00  0.00     0.059 A 
ATOM     91  F   UNL A   1      42.261  26.059  34.708  1.00  0.00    -0.206 F 
ATOM     92  C   UNL A   1      45.545  25.337  35.880  1.00  0.00     0.060 A 
BRANCH  92  93
ATOM     93  S   UNL A   1      46.351  24.157  36.967  1.00  0.00     0.124 S 
ATOM     94  O   UNL A   1      46.441  22.985  36.101  1.00  0.00    -0.237 OA
ATOM     95  O   UNL A   1      47.617  24.819  37.270  1.00  0.00    -0.237 OA
ATOM     96  O   UNL A   1      45.427  24.041  38.090  1.00  0.00    -0.744 OA
ENDBRANCH  92  93
ENDBRANCH  60  85
ENDBRANCH  34  35
ENDBRANCH  27  29
ENDBRANCH  26  27
ENDBRANCH   1  26
TORSDOF 16
ENDMDL
MODEL 2
REMARK VINA RESULT:     -13.0      1.056      2.164
REMARK SMILES Cc1ccc(-c2nc(C)cc(N3CCCC[C@H]3C(=O)OCCOC(=O)c3ccc(-c4c5nc(c(-c6c(F)cc(S(=O)(=O)[O-])cc6F)c6ccc([nH]6)c(-c6c(F)cc(S(=O)(=O)[O-])cc6F)c6nc(c(-c7c(F)cc(S(=O)(=O)[O-])cc7F)c7ccc4[nH]7)C=C6)C=C5)cc3)n2)cc1
REMARK SMILES IDX 22 1 21 2 20 3 18 4 19 5 17 6 12 7 13 8 14 9 16 10 15 11
REMARK SMILES IDX 11 12 6 13 7 14 92 15 8 16 9 17 10 18 5 19 1 20 2 21 3 22
REMARK SMILES IDX 94 23 4 24 93 25 23 26 24 27 25 28 26 29 27 30 91 31 28 32
REMARK SMILES IDX 90 33 29 34 30 35 31 36 84 37 32 38 89 39 83 40 85 41 33 42
REMARK SMILES IDX 88 43 82 44 81 45 34 47 68 48 47 49 67 50 48 51 51 52 66 53
REMARK SMILES IDX 86 54 49 55 50 56 65 58 87 59 52 60 35 61 36 62 45 63 37 64
REMARK SMILES IDX 38 65 44 66 46 67 39 68 40 69 41 70 42 71 43 72 69 73 70 74
REMARK SMILES IDX 79 75 71 76 72 77 78 78 80 79 73 80 74 81 75 82 76 83 77 84
REMARK SMILES IDX 53 85 54 86 63 87 55 88 56 89 62 90 64 91 57 92 58 93 59 94
REMARK SMILES IDX 60 95 61 96
REMARK H PARENT 85 46 51 57
REMARK Flexibility Score: inf
ROOT
ATOM      1  C   UNL A   1      33.277  31.314  27.791  1.00  0.00     0.275 C 
ENDROOT
BRANCH   1   2
ATOM      2  C   UNL A   1      32.587  30.781  26.523  1.00  0.00     0.274 C 
BRANCH   2   3
ATOM      3  O   UNL A   1      33.388  29.710  25.972  1.00  0.00    -0.461 OA
BRANCH   3   4
ATOM      4  C   UNL A   1      32.911  28.348  26.235  1.00  0.00     0.328 C 
ATOM      5  O   UNL A   1      32.584  28.382  27.455  1.00  0.00    -0.250 OA
BRANCH   4   6
ATOM      6  C   UNL A   1      32.806  26.732  24.733  1.00  0.00     0.193 C 
ATOM      7  N   UNL A   1      32.916  24.999  25.022  1.00  0.00    -0.343 N 
ATOM      8  C   UNL A   1      31.644  24.268  25.219  1.00  0.00     0.119 C 
ATOM      9  C   UNL A   1      30.649  24.399  24.081  1.00  0.00     0.022 C 
ATOM     10  C   UNL A   1      31.828  26.496  23.283  1.00  0.00     0.037 C 
ATOM     11  C   UNL A   1      30.497  25.770  23.463  1.00  0.00     0.005 C 
BRANCH   7  12
ATOM     12  C   UNL A   1      34.018  24.114  24.907  1.00  0.00     0.133 A 
ATOM     13  C   UNL A   1      34.715  21.888  24.953  1.00  0.00     0.161 A 
ATOM     14  N   UNL A   1      35.947  22.140  25.400  1.00  0.00    -0.233 NA
ATOM     15  N   UNL A   1      33.757  22.805  24.674  1.00  0.00    -0.211 NA
ATOM     16  C   UNL A   1      36.246  23.430  25.543  1.00  0.00     0.043 A 
ATOM     17  C   UNL A   1      37.607  23.697  26.111  1.00  0.00     0.067 C 
ATOM     18  C   UNL A   1      35.327  24.437  25.255  1.00  0.00     0.070 A 
BRANCH  13  19
ATOM     19  C   UNL A   1      34.429  20.471  24.742  1.00  0.00     0.019 A 
ATOM     20  C   UNL A   1      33.644  16.317  23.839  1.00  0.00     0.044 C 
ATOM     21  C   UNL A   1      33.919  17.758  24.145  1.00  0.00    -0.051 A 
ATOM     22  C   UNL A   1      35.168  18.146  24.638  1.00  0.00     0.004 A 
ATOM     23  C   UNL A   1      32.931  18.729  23.948  1.00  0.00     0.004 A 
ATOM     24  C   UNL A   1      35.422  19.490  24.925  1.00  0.00     0.012 A 
ATOM     25  C   UNL A   1      33.182  20.069  24.252  1.00  0.00     0.012 A 
ENDBRANCH  13  19
ENDBRANCH   7  12
ENDBRANCH   4   6
ENDBRANCH   3   4
ENDBRANCH   2   3
ENDBRANCH   1   2
BRANCH   1  26
ATOM     26  O   UNL A   1      34.030  32.526  27.544  1.00  0.00    -0.458 OA
BRANCH  26  27
ATOM     27  C   UNL A   1      35.322  32.530  27.967  1.00  0.00     0.338 C 
ATOM     28  O   UNL A   1      35.974  33.504  28.302  1.00  0.00    -0.246 OA
BRANCH  27  29
ATOM     29  C   UNL A   1      35.632  31.166  28.444  1.00  0.00     0.060 A 
ATOM     30  C   UNL A   1      35.789  30.831  30.209  1.00  0.00     0.016 A 
ATOM     31  C   UNL A   1      36.680  30.305  27.285  1.00  0.00     0.016 A 
ATOM     32  C   UNL A   1      37.094  29.700  30.803  1.00  0.00     0.010 A 
ATOM     33  C   UNL A   1      37.999  29.230  27.885  1.00  0.00     0.010 A 
ATOM     34  C   UNL A   1      38.239  28.986  29.632  1.00  0.00    -0.014 A 
BRANCH  34  35
ATOM     35  C   UNL A   1      39.627  28.729  29.950  1.00  0.00     0.031 A 
ATOM     36  C   UNL A   1      40.199  27.452  29.500  1.00  0.00     0.074 A 
ATOM     37  C   UNL A   1      40.370  29.789  30.354  1.00  0.00     0.049 A 
ATOM     38  N   UNL A   1      41.373  27.068  29.828  1.00  0.00    -0.248 NA
ATOM     39  C   UNL A   1      39.503  26.461  28.671  1.00  0.00     0.031 C 
ATOM     40  C   UNL A   1      41.817  29.972  30.310  1.00  0.00     0.029 A 
ATOM     41  N   UNL A   1      39.972  30.966  30.973  1.00  0.00    -0.354 N 
ATOM     42  C   UNL A   1      41.723  26.036  28.991  1.00  0.00     0.074 A 
ATOM     43  C   UNL A   1      40.488  25.592  28.408  1.00  0.00     0.031 C 
ATOM     44  C   UNL A   1      42.162  30.976  31.142  1.00  0.00     0.029 A 
ATOM     45  C   UNL A   1      40.961  31.409  31.834  1.00  0.00     0.049 A 
ATOM     46  H   UNL A   1      39.111  31.418  30.821  1.00  0.00     0.167 HD
ATOM     47  C   UNL A   1      43.053  25.824  28.800  1.00  0.00     0.037 A 
ATOM     48  C   UNL A   1      40.764  31.375  33.186  1.00  0.00     0.037 A 
ATOM     49  C   UNL A   1      43.810  26.583  29.803  1.00  0.00     0.049 A 
ATOM     50  C   UNL A   1      41.581  30.241  33.799  1.00  0.00     0.074 A 
ATOM     51  C   UNL A   1      44.567  27.740  29.763  1.00  0.00     0.029 A 
ATOM     52  N   UNL A   1      43.509  26.365  31.149  1.00  0.00    -0.354 N 
ATOM     53  N   UNL A   1      42.093  29.255  33.100  1.00  0.00    -0.248 NA
ATOM     54  C   UNL A   1      41.986  30.172  35.199  1.00  0.00     0.031 C 
ATOM     55  C   UNL A   1      44.596  28.281  31.089  1.00  0.00     0.029 A 
ATOM     56  C   UNL A   1      43.896  27.433  31.938  1.00  0.00     0.049 A 
ATOM     57  H   UNL A   1      43.074  25.552  31.494  1.00  0.00     0.167 HD
ATOM     58  C   UNL A   1      42.914  28.483  33.876  1.00  0.00     0.074 A 
ATOM     59  C   UNL A   1      42.809  29.105  35.188  1.00  0.00     0.031 C 
ATOM     60  C   UNL A   1      43.629  27.420  33.382  1.00  0.00     0.037 A 
BRANCH  47  61
ATOM     61  C   UNL A   1      43.671  25.099  27.625  1.00  0.00     0.058 A 
ATOM     62  C   UNL A   1      43.990  23.729  27.739  1.00  0.00     0.135 A 
ATOM     63  C   UNL A   1      44.079  25.697  26.410  1.00  0.00     0.135 A 
ATOM     64  F   UNL A   1      43.694  23.041  28.851  1.00  0.00    -0.206 F 
ATOM     65  C   UNL A   1      44.649  23.012  26.733  1.00  0.00     0.059 A 
ATOM     66  C   UNL A   1      44.698  24.992  25.373  1.00  0.00     0.059 A 
ATOM     67  F   UNL A   1      43.958  27.009  26.183  1.00  0.00    -0.206 F 
ATOM     68  C   UNL A   1      44.990  23.649  25.548  1.00  0.00     0.060 A 
BRANCH  68  69
ATOM     69  S   UNL A   1      45.827  22.714  24.254  1.00  0.00     0.124 S 
ATOM     70  O   UNL A   1      44.724  22.387  23.357  1.00  0.00    -0.237 OA
ATOM     71  O   UNL A   1      46.793  23.684  23.749  1.00  0.00    -0.237 OA
ATOM     72  O   UNL A   1      46.403  21.580  24.970  1.00  0.00    -0.744 OA
ENDBRANCH  68  69
ENDBRANCH  47  61
BRANCH  48  73
ATOM     73  C   UNL A   1      39.442  31.955  33.600  1.00  0.00     0.058 A 
ATOM     74  C   UNL A   1      39.312  33.365  33.526  1.00  0.00     0.135 A 
ATOM     75  C   UNL A   1      38.246  31.235  33.629  1.00  0.00     0.135 A 
ATOM     76  F   UNL A   1      40.415  34.131  33.547  1.00  0.00    -0.206 F 
ATOM     77  C   UNL A   1      38.087  34.012  33.321  1.00  0.00     0.059 A 
ATOM     78  C   UNL A   1      37.007  31.873  33.436  1.00  0.00     0.059 A 
ATOM     79  F   UNL A   1      38.257  29.895  33.685  1.00  0.00    -0.206 F 
ATOM     80  C   UNL A   1      36.934  33.251  33.235  1.00  0.00     0.060 A 
BRANCH  80  81
ATOM     81  S   UNL A   1      35.375  34.048  32.747  1.00  0.00     0.124 S 
ATOM     82  O   UNL A   1      34.390  33.272  33.489  1.00  0.00    -0.237 OA
ATOM     83  O   UNL A   1      35.568  35.423  33.193  1.00  0.00    -0.237 OA
ATOM     84  O   UNL A   1      35.346  33.866  31.297  1.00  0.00    -0.744 OA
ENDBRANCH  80  81
ENDBRANCH  48  73
BRANCH  60  85
ATOM     85  C   UNL A   1      44.227  26.292  34.217  1.00  0.00     0.058 A 
ATOM     86  C   UNL A   1      45.604  26.102  34.427  1.00  0.00     0.135 A 
ATOM     87  C   UNL A   1      43.393  25.416  34.968  1.00  0.00     0.135 A 
ATOM     88  F   UNL A   1      46.520  26.944  33.933  1.00  0.00    -0.206 F 
ATOM     89  C   UNL A   1      46.113  25.063  35.208  1.00  0.00     0.059 A 
ATOM     90  C   UNL A   1      43.880  24.439  35.830  1.00  0.00     0.059 A 
ATOM     91  F   UNL A   1      42.056  25.478  34.914  1.00  0.00    -0.206 F 
ATOM     92  C   UNL A   1      45.243  24.233  35.903  1.00  0.00     0.060 A 
BRANCH  92  93
ATOM     93  S   UNL A   1      45.909  22.907  36.915  1.00  0.00     0.124 S 
ATOM     94  O   UNL A   1      45.326  21.735  36.270  1.00  0.00    -0.237 OA
ATOM     95  O   UNL A   1      47.349  23.074  36.746  1.00  0.00    -0.237 OA
ATOM     96  O   UNL A   1      45.402  23.209  38.250  1.00  0.00    -0.744 OA
ENDBRANCH  92  93
ENDBRANCH  60  85
ENDBRANCH  34  35
ENDBRANCH  27  29
ENDBRANCH  26  27
ENDBRANCH   1  26
TORSDOF 16
ENDMDL
MODEL 3
REMARK VINA RESULT:     -12.3      3.874      5.596
REMARK SMILES Cc1ccc(-c2nc(C)cc(N3CCCC[C@H]3C(=O)OCCOC(=O)c3ccc(-c4c5nc(c(-c6c(F)cc(S(=O)(=O)[O-])cc6F)c6ccc([nH]6)c(-c6c(F)cc(S(=O)(=O)[O-])cc6F)c6nc(c(-c7c(F)cc(S(=O)(=O)[O-])cc7F)c7ccc4[nH]7)C=C6)C=C5)cc3)n2)cc1
REMARK SMILES IDX 22 1 21 2 20 3 18 4 19 5 17 6 12 7 13 8 14 9 16 10 15 11
REMARK SMILES IDX 11 12 6 13 7 14 92 15 8 16 9 17 10 18 5 19 1 20 2 21 3 22
REMARK SMILES IDX 94 23 4 24 93 25 23 26 24 27 25 28 26 29 27 30 91 31 28 32
REMARK SMILES IDX 90 33 29 34 30 35 31 36 84 37 32 38 89 39 83 40 85 41 33 42
REMARK SMILES IDX 88 43 82 44 81 45 34 47 68 48 47 49 67 50 48 51 51 52 66 53
REMARK SMILES IDX 86 54 49 55 50 56 65 58 87 59 52 60 35 61 36 62 45 63 37 64
REMARK SMILES IDX 38 65 44 66 46 67 39 68 40 69 41 70 42 71 43 72 69 73 70 74
REMARK SMILES IDX 79 75 71 76 72 77 78 78 80 79 73 80 74 81 75 82 76 83 77 84
REMARK SMILES IDX 53 85 54 86 63 87 55 88 56 89 62 90 64 91 57 92 58 93 59 94
REMARK SMILES IDX 60 95 61 96
REMARK H PARENT 85 46 51 57
REMARK Flexibility Score: inf
ROOT
ATOM      1  C   UNL A   1      36.552  31.525  29.024  1.00  0.00     0.275 C 
ENDROOT
BRANCH   1   2
ATOM      2  C   UNL A   1      35.111  31.322  28.524  1.00  0.00     0.274 C 
BRANCH   2   3
ATOM      3  O   UNL A   1      35.146  30.550  27.301  1.00  0.00    -0.461 OA
BRANCH   3   4
ATOM      4  C   UNL A   1      33.861  30.008  26.845  1.00  0.00     0.328 C 
ATOM      5  O   UNL A   1      33.010  30.746  27.417  1.00  0.00    -0.250 OA
BRANCH   4   6
ATOM      6  C   UNL A   1      33.629  28.316  25.443  1.00  0.00     0.193 C 
ATOM      7  N   UNL A   1      32.356  27.100  25.443  1.00  0.00    -0.343 N 
ATOM      8  C   UNL A   1      31.173  27.364  24.593  1.00  0.00     0.119 C 
ATOM      9  C   UNL A   1      31.478  27.592  23.125  1.00  0.00     0.022 C 
ATOM     10  C   UNL A   1      33.882  28.147  23.705  1.00  0.00     0.037 C 
ATOM     11  C   UNL A   1      32.686  28.443  22.804  1.00  0.00     0.005 C 
BRANCH   7  12
ATOM     12  C   UNL A   1      32.339  25.784  25.973  1.00  0.00     0.133 A 
ATOM     13  C   UNL A   1      33.256  23.643  25.845  1.00  0.00     0.161 A 
ATOM     14  N   UNL A   1      32.163  23.002  26.262  1.00  0.00    -0.233 NA
ATOM     15  N   UNL A   1      33.402  24.984  25.715  1.00  0.00    -0.211 NA
ATOM     16  C   UNL A   1      31.143  23.785  26.610  1.00  0.00     0.043 A 
ATOM     17  C   UNL A   1      29.898  23.051  27.009  1.00  0.00     0.067 C 
ATOM     18  C   UNL A   1      31.218  25.174  26.529  1.00  0.00     0.070 A 
BRANCH  13  19
ATOM     19  C   UNL A   1      34.384  22.769  25.530  1.00  0.00     0.019 A 
ATOM     20  C   UNL A   1      37.726  20.107  24.877  1.00  0.00     0.044 C 
ATOM     21  C   UNL A   1      36.567  21.027  25.111  1.00  0.00    -0.051 A 
ATOM     22  C   UNL A   1      35.263  20.594  24.853  1.00  0.00     0.004 A 
ATOM     23  C   UNL A   1      36.773  22.328  25.582  1.00  0.00     0.004 A 
ATOM     24  C   UNL A   1      34.183  21.454  25.069  1.00  0.00     0.012 A 
ATOM     25  C   UNL A   1      35.694  23.191  25.781  1.00  0.00     0.012 A 
ENDBRANCH  13  19
ENDBRANCH   7  12
ENDBRANCH   4   6
ENDBRANCH   3   4
ENDBRANCH   2   3
ENDBRANCH   1   2
BRANCH   1  26
ATOM     26  O   UNL A   1      36.828  30.783  30.236  1.00  0.00    -0.458 OA
BRANCH  26  27
ATOM     27  C   UNL A   1      37.752  29.791  30.140  1.00  0.00     0.338 C 
ATOM     28  O   UNL A   1      37.593  28.619  30.434  1.00  0.00    -0.246 OA
BRANCH  27  29
ATOM     29  C   UNL A   1      38.770  30.233  29.163  1.00  0.00     0.060 A 
ATOM     30  C   UNL A   1      38.851  29.480  27.527  1.00  0.00     0.016 A 
ATOM     31  C   UNL A   1      40.275  30.724  29.986  1.00  0.00     0.016 A 
ATOM     32  C   UNL A   1      40.476  29.123  26.775  1.00  0.00     0.010 A 
ATOM     33  C   UNL A   1      41.876  30.320  29.257  1.00  0.00     0.010 A 
ATOM     34  C   UNL A   1      41.968  29.469  27.696  1.00  0.00    -0.014 A 
BRANCH  34  35
ATOM     35  C   UNL A   1      43.153  28.646  27.606  1.00  0.00     0.031 A 
ATOM     36  C   UNL A   1      43.019  27.225  27.959  1.00  0.00     0.074 A 
ATOM     37  C   UNL A   1      44.205  29.157  26.917  1.00  0.00     0.049 A 
ATOM     38  N   UNL A   1      44.021  26.434  28.032  1.00  0.00    -0.248 NA
ATOM     39  C   UNL A   1      41.759  26.556  28.302  1.00  0.00     0.031 C 
ATOM     40  C   UNL A   1      45.314  28.460  26.274  1.00  0.00     0.029 A 
ATOM     41  N   UNL A   1      44.551  30.481  26.684  1.00  0.00    -0.354 N 
ATOM     42  C   UNL A   1      43.537  25.149  28.040  1.00  0.00     0.074 A 
ATOM     43  C   UNL A   1      42.145  25.276  28.368  1.00  0.00     0.031 C 
ATOM     44  C   UNL A   1      46.313  29.336  26.044  1.00  0.00     0.029 A 
ATOM     45  C   UNL A   1      45.928  30.610  26.627  1.00  0.00     0.049 A 
ATOM     46  H   UNL A   1      43.910  31.220  26.576  1.00  0.00     0.167 HD
ATOM     47  C   UNL A   1      44.377  24.173  27.601  1.00  0.00     0.037 A 
ATOM     48  C   UNL A   1      46.601  31.268  27.616  1.00  0.00     0.037 A 
ATOM     49  C   UNL A   1      45.738  24.717  27.506  1.00  0.00     0.049 A 
ATOM     50  C   UNL A   1      47.337  30.264  28.499  1.00  0.00     0.074 A 
ATOM     51  C   UNL A   1      46.549  25.101  26.454  1.00  0.00     0.029 A 
ATOM     52  N   UNL A   1      46.287  25.300  28.650  1.00  0.00    -0.354 N 
ATOM     53  N   UNL A   1      47.071  28.979  28.513  1.00  0.00    -0.248 NA
ATOM     54  C   UNL A   1      48.487  30.583  29.339  1.00  0.00     0.031 C 
ATOM     55  C   UNL A   1      47.507  26.033  26.968  1.00  0.00     0.029 A 
ATOM     56  C   UNL A   1      47.306  26.180  28.335  1.00  0.00     0.049 A 
ATOM     57  H   UNL A   1      45.985  25.110  29.567  1.00  0.00     0.167 HD
ATOM     58  C   UNL A   1      47.993  28.300  29.263  1.00  0.00     0.074 A 
ATOM     59  C   UNL A   1      48.860  29.357  29.758  1.00  0.00     0.031 C 
ATOM     60  C   UNL A   1      47.988  26.932  29.395  1.00  0.00     0.037 A 
BRANCH  47  61
ATOM     61  C   UNL A   1      43.958  22.812  27.089  1.00  0.00     0.058 A 
ATOM     62  C   UNL A   1      43.031  22.044  27.825  1.00  0.00     0.135 A 
ATOM     63  C   UNL A   1      44.501  22.155  25.959  1.00  0.00     0.135 A 
ATOM     64  F   UNL A   1      42.464  22.528  28.939  1.00  0.00    -0.206 F 
ATOM     65  C   UNL A   1      42.666  20.741  27.468  1.00  0.00     0.059 A 
ATOM     66  C   UNL A   1      44.118  20.871  25.558  1.00  0.00     0.059 A 
ATOM     67  F   UNL A   1      45.474  22.693  25.218  1.00  0.00    -0.206 F 
ATOM     68  C   UNL A   1      43.207  20.165  26.326  1.00  0.00     0.060 A 
BRANCH  68  69
ATOM     69  S   UNL A   1      42.721  18.491  25.869  1.00  0.00     0.124 S 
ATOM     70  O   UNL A   1      43.436  18.302  24.611  1.00  0.00    -0.237 OA
ATOM     71  O   UNL A   1      43.206  17.709  27.001  1.00  0.00    -0.237 OA
ATOM     72  O   UNL A   1      41.268  18.577  25.752  1.00  0.00    -0.744 OA
ENDBRANCH  68  69
ENDBRANCH  47  61
BRANCH  48  73
ATOM     73  C   UNL A   1      45.988  32.596  27.957  1.00  0.00     0.058 A 
ATOM     74  C   UNL A   1      46.152  33.638  27.009  1.00  0.00     0.135 A 
ATOM     75  C   UNL A   1      44.947  32.766  28.873  1.00  0.00     0.135 A 
ATOM     76  F   UNL A   1      47.164  33.575  26.129  1.00  0.00    -0.206 F 
ATOM     77  C   UNL A   1      45.243  34.694  26.866  1.00  0.00     0.059 A 
ATOM     78  C   UNL A   1      44.033  33.828  28.748  1.00  0.00     0.059 A 
ATOM     79  F   UNL A   1      44.698  31.833  29.804  1.00  0.00    -0.206 F 
ATOM     80  C   UNL A   1      44.154  34.760  27.719  1.00  0.00     0.060 A 
BRANCH  80  81
ATOM     81  S   UNL A   1      42.850  35.987  27.403  1.00  0.00     0.124 S 
ATOM     82  O   UNL A   1      42.358  35.578  26.094  1.00  0.00    -0.237 OA
ATOM     83  O   UNL A   1      41.938  35.775  28.520  1.00  0.00    -0.237 OA
ATOM     84  O   UNL A   1      43.573  37.257  27.427  1.00  0.00    -0.744 OA
ENDBRANCH  80  81
ENDBRANCH  48  73
BRANCH  60  85
ATOM     85  C   UNL A   1      48.696  26.149  30.497  1.00  0.00     0.058 A 
ATOM     86  C   UNL A   1      48.156  25.906  31.771  1.00  0.00     0.135 A 
ATOM     87  C   UNL A   1      49.927  25.481  30.245  1.00  0.00     0.135 A 
ATOM     88  F   UNL A   1      46.928  26.317  32.113  1.00  0.00    -0.206 F 
ATOM     89  C   UNL A   1      48.830  25.174  32.751  1.00  0.00     0.059 A 
ATOM     90  C   UNL A   1      50.566  24.666  31.173  1.00  0.00     0.059 A 
ATOM     91  F   UNL A   1      50.567  25.575  29.071  1.00  0.00    -0.206 F 
ATOM     92  C   UNL A   1      50.037  24.560  32.444  1.00  0.00     0.060 A 
BRANCH  92  93
ATOM     93  S   UNL A   1      50.890  23.611  33.707  1.00  0.00     0.124 S 
ATOM     94  O   UNL A   1      51.722  22.732  32.892  1.00  0.00    -0.237 OA
ATOM     95  O   UNL A   1      51.601  24.645  34.453  1.00  0.00    -0.237 OA
ATOM     96  O   UNL A   1      49.805  22.958  34.433  1.00  0.00    -0.744 OA
ENDBRANCH  92  93
ENDBRANCH  60  85
ENDBRANCH  34  35
ENDBRANCH  27  29
ENDBRANCH  26  27
ENDBRANCH   1  26
TORSDOF 16
ENDMDL
