MODEL 1
REMARK VINA RESULT:     -11.8      0.000      0.000
REMARK SMILES Cc1ccc(N2CCC[C@@H](Cn3cc(C(=O)OCCOC(=O)c4ccc(-c5c6nc(c(-c7c(F)cc(S(=O)(=O)[O-])cc7F)c7ccc([nH]7)c(-c7c(F)cc(S(=O)(=O)[O-])cc7F)c7nc(c(-c8c(F)cc(S(=O)(=O)[O-])cc8F)c8ccc5[nH]8)C=C7)C=C6)cc4)nn3)C2)nn1
REMARK SMILES IDX 18 1 17 2 15 3 16 4 14 5 12 6 13 7 90 8 89 9 11 10 10 11
REMARK SMILES IDX 6 12 7 13 91 14 8 15 9 16 5 17 1 18 2 19 3 20 93 21 4 22
REMARK SMILES IDX 92 23 19 24 20 25 21 26 22 27 23 28 24 29 88 30 25 31 87 32
REMARK SMILES IDX 26 33 27 34 28 35 81 36 29 37 86 38 80 39 82 40 30 41 85 42
REMARK SMILES IDX 79 43 78 44 31 46 65 47 44 48 64 49 45 50 48 51 63 52 83 53
REMARK SMILES IDX 46 54 47 55 62 57 84 58 49 59 32 60 33 61 42 62 34 63 35 64
REMARK SMILES IDX 41 65 43 66 36 67 37 68 38 69 39 70 40 71 66 72 67 73 76 74
REMARK SMILES IDX 68 75 69 76 75 77 77 78 70 79 71 80 72 81 73 82 74 83 50 84
REMARK SMILES IDX 51 85 60 86 52 87 53 88 59 89 61 90 54 91 55 92 56 93 57 94
REMARK SMILES IDX 58 95
REMARK H PARENT 82 45 48 56
REMARK Flexibility Score: inf
ROOT
ATOM      1  C   UNL A   1      41.352  19.582  26.930  1.00  0.00     0.275 C 
ENDROOT
BRANCH   1   2
ATOM      2  O   UNL A   1      41.856  18.740  25.882  1.00  0.00    -0.457 OA
BRANCH   2   3
ATOM      3  C   UNL A   1      43.104  18.211  26.112  1.00  0.00     0.360 C 
ATOM      4  O   UNL A   1      43.309  17.232  26.807  1.00  0.00    -0.244 OA
BRANCH   3   5
ATOM      5  C   UNL A   1      44.151  18.936  25.406  1.00  0.00     0.190 A 
ATOM      6  N   UNL A   1      45.416  20.469  24.584  1.00  0.00    -0.251 N 
ATOM      7  C   UNL A   1      44.114  20.217  24.894  1.00  0.00     0.146 A 
ATOM      8  N   UNL A   1      46.143  19.338  24.594  1.00  0.00    -0.067 NA
ATOM      9  N   UNL A   1      45.389  18.396  25.148  1.00  0.00    -0.123 NA
BRANCH   6  10
ATOM     10  C   UNL A   1      46.085  21.749  24.695  1.00  0.00     0.151 C 
BRANCH  10  11
ATOM     11  C   UNL A   1      45.268  22.787  25.502  1.00  0.00     0.030 C 
ATOM     12  N   UNL A   1      45.191  24.257  27.415  1.00  0.00    -0.355 N 
ATOM     13  C   UNL A   1      44.910  25.471  26.672  1.00  0.00     0.118 C 
ATOM     14  C   UNL A   1      46.020  23.263  26.765  1.00  0.00     0.123 C 
ATOM     15  C   UNL A   1      44.086  25.076  25.453  1.00  0.00     0.022 C 
ATOM     16  C   UNL A   1      44.796  23.988  24.642  1.00  0.00     0.009 C 
BRANCH  12  17
ATOM     17  C   UNL A   1      45.008  24.201  28.776  1.00  0.00     0.151 A 
ATOM     18  C   UNL A   1      44.118  24.124  32.911  1.00  0.00     0.069 C 
ATOM     19  C   UNL A   1      44.481  24.177  31.464  1.00  0.00     0.060 A 
ATOM     20  C   UNL A   1      44.969  25.337  30.892  1.00  0.00     0.029 A 
ATOM     21  N   UNL A   1      44.251  23.076  30.719  1.00  0.00    -0.154 NA
ATOM     22  C   UNL A   1      45.257  25.335  29.535  1.00  0.00     0.051 A 
ATOM     23  N   UNL A   1      44.499  23.100  29.366  1.00  0.00    -0.133 NA
ENDBRANCH  12  17
ENDBRANCH  10  11
ENDBRANCH   6  10
ENDBRANCH   3   5
ENDBRANCH   2   3
ENDBRANCH   1   2
BRANCH   1  24
ATOM     24  C   UNL A   1      40.260  20.519  26.418  1.00  0.00     0.275 C 
BRANCH  24  25
ATOM     25  O   UNL A   1      40.737  21.848  26.195  1.00  0.00    -0.458 OA
BRANCH  25  26
ATOM     26  C   UNL A   1      39.806  22.800  26.433  1.00  0.00     0.338 C 
ATOM     27  O   UNL A   1      38.604  22.719  26.231  1.00  0.00    -0.246 OA
BRANCH  26  28
ATOM     28  C   UNL A   1      40.440  24.070  26.759  1.00  0.00     0.060 A 
ATOM     29  C   UNL A   1      41.463  24.070  27.711  1.00  0.00     0.016 A 
ATOM     30  C   UNL A   1      39.734  25.225  26.411  1.00  0.00     0.016 A 
ATOM     31  C   UNL A   1      41.676  25.223  28.440  1.00  0.00     0.010 A 
ATOM     32  C   UNL A   1      39.917  26.355  27.170  1.00  0.00     0.010 A 
ATOM     33  C   UNL A   1      40.842  26.325  28.213  1.00  0.00    -0.014 A 
BRANCH  33  34
ATOM     34  C   UNL A   1      41.070  27.542  28.966  1.00  0.00     0.031 A 
ATOM     35  C   UNL A   1      42.206  28.319  28.413  1.00  0.00     0.074 A 
ATOM     36  C   UNL A   1      40.242  27.966  29.941  1.00  0.00     0.049 A 
ATOM     37  N   UNL A   1      43.364  28.504  28.953  1.00  0.00    -0.248 NA
ATOM     38  C   UNL A   1      42.133  28.749  27.003  1.00  0.00     0.031 C 
ATOM     39  C   UNL A   1      38.959  27.389  30.352  1.00  0.00     0.029 A 
ATOM     40  N   UNL A   1      40.333  29.079  30.720  1.00  0.00    -0.354 N 
ATOM     41  C   UNL A   1      44.068  29.296  28.050  1.00  0.00     0.074 A 
ATOM     42  C   UNL A   1      43.372  29.195  26.799  1.00  0.00     0.031 C 
ATOM     43  C   UNL A   1      38.300  28.274  31.136  1.00  0.00     0.029 A 
ATOM     44  C   UNL A   1      39.155  29.424  31.382  1.00  0.00     0.049 A 
ATOM     45  H   UNL A   1      41.164  29.599  30.809  1.00  0.00     0.167 HD
ATOM     46  C   UNL A   1      44.983  30.202  28.487  1.00  0.00     0.037 A 
ATOM     47  C   UNL A   1      38.902  30.602  32.017  1.00  0.00     0.037 A 
ATOM     48  C   UNL A   1      45.389  29.899  29.838  1.00  0.00     0.049 A 
ATOM     49  C   UNL A   1      40.226  31.218  32.312  1.00  0.00     0.074 A 
ATOM     50  C   UNL A   1      45.986  28.814  30.448  1.00  0.00     0.029 A 
ATOM     51  N   UNL A   1      44.819  30.639  30.847  1.00  0.00    -0.354 N 
ATOM     52  N   UNL A   1      41.093  30.705  33.143  1.00  0.00    -0.248 NA
ATOM     53  C   UNL A   1      40.779  32.121  31.312  1.00  0.00     0.031 C 
ATOM     54  C   UNL A   1      45.353  28.709  31.719  1.00  0.00     0.029 A 
ATOM     55  C   UNL A   1      44.467  29.779  31.854  1.00  0.00     0.049 A 
ATOM     56  H   UNL A   1      44.687  31.614  30.845  1.00  0.00     0.167 HD
ATOM     57  C   UNL A   1      42.322  30.863  32.515  1.00  0.00     0.074 A 
ATOM     58  C   UNL A   1      42.071  31.798  31.419  1.00  0.00     0.031 C 
ATOM     59  C   UNL A   1      43.354  30.001  32.754  1.00  0.00     0.037 A 
BRANCH  46  60
ATOM     60  C   UNL A   1      45.189  31.566  27.865  1.00  0.00     0.058 A 
ATOM     61  C   UNL A   1      46.461  31.890  27.350  1.00  0.00     0.135 A 
ATOM     62  C   UNL A   1      44.298  32.656  28.000  1.00  0.00     0.135 A 
ATOM     63  F   UNL A   1      47.393  30.939  27.180  1.00  0.00    -0.206 F 
ATOM     64  C   UNL A   1      46.845  33.202  27.074  1.00  0.00     0.059 A 
ATOM     65  C   UNL A   1      44.643  33.963  27.677  1.00  0.00     0.059 A 
ATOM     66  F   UNL A   1      43.078  32.539  28.536  1.00  0.00    -0.206 F 
ATOM     67  C   UNL A   1      45.930  34.233  27.254  1.00  0.00     0.060 A 
BRANCH  67  68
ATOM     68  S   UNL A   1      46.447  35.933  26.979  1.00  0.00     0.124 S 
ATOM     69  O   UNL A   1      45.262  36.671  27.403  1.00  0.00    -0.237 OA
ATOM     70  O   UNL A   1      47.613  36.035  27.851  1.00  0.00    -0.237 OA
ATOM     71  O   UNL A   1      46.736  35.971  25.549  1.00  0.00    -0.744 OA
ENDBRANCH  67  68
ENDBRANCH  46  60
BRANCH  47  72
ATOM     72  C   UNL A   1      37.631  31.388  32.037  1.00  0.00     0.058 A 
ATOM     73  C   UNL A   1      37.000  31.747  33.245  1.00  0.00     0.135 A 
ATOM     74  C   UNL A   1      37.155  32.046  30.883  1.00  0.00     0.135 A 
ATOM     75  F   UNL A   1      37.397  31.197  34.403  1.00  0.00    -0.206 F 
ATOM     76  C   UNL A   1      35.994  32.726  33.310  1.00  0.00     0.059 A 
ATOM     77  C   UNL A   1      36.152  33.016  30.923  1.00  0.00     0.059 A 
ATOM     78  F   UNL A   1      37.715  31.834  29.684  1.00  0.00    -0.206 F 
ATOM     79  C   UNL A   1      35.591  33.370  32.142  1.00  0.00     0.060 A 
BRANCH  79  80
ATOM     80  S   UNL A   1      34.411  34.741  32.230  1.00  0.00     0.124 S 
ATOM     81  O   UNL A   1      34.178  35.035  30.821  1.00  0.00    -0.237 OA
ATOM     82  O   UNL A   1      33.293  34.141  32.949  1.00  0.00    -0.237 OA
ATOM     83  O   UNL A   1      35.140  35.770  32.967  1.00  0.00    -0.744 OA
ENDBRANCH  79  80
ENDBRANCH  47  72
BRANCH  59  84
ATOM     84  C   UNL A   1      43.256  29.051  33.922  1.00  0.00     0.058 A 
ATOM     85  C   UNL A   1      43.417  29.419  35.270  1.00  0.00     0.135 A 
ATOM     86  C   UNL A   1      42.766  27.761  33.664  1.00  0.00     0.135 A 
ATOM     87  F   UNL A   1      43.794  30.660  35.606  1.00  0.00    -0.206 F 
ATOM     88  C   UNL A   1      43.114  28.537  36.313  1.00  0.00     0.059 A 
ATOM     89  C   UNL A   1      42.428  26.879  34.685  1.00  0.00     0.059 A 
ATOM     90  F   UNL A   1      42.540  27.369  32.399  1.00  0.00    -0.206 F 
ATOM     91  C   UNL A   1      42.608  27.272  36.009  1.00  0.00     0.060 A 
BRANCH  91  92
ATOM     92  S   UNL A   1      42.116  26.169  37.353  1.00  0.00     0.124 S 
ATOM     93  O   UNL A   1      42.262  24.853  36.741  1.00  0.00    -0.237 OA
ATOM     94  O   UNL A   1      43.081  26.493  38.400  1.00  0.00    -0.237 OA
ATOM     95  O   UNL A   1      40.741  26.571  37.640  1.00  0.00    -0.744 OA
ENDBRANCH  91  92
ENDBRANCH  59  84
ENDBRANCH  33  34
ENDBRANCH  26  28
ENDBRANCH  25  26
ENDBRANCH  24  25
ENDBRANCH   1  24
TORSDOF 17
ENDMDL
MODEL 2
REMARK VINA RESULT:     -11.4      4.177      6.550
REMARK SMILES Cc1ccc(N2CCC[C@@H](Cn3cc(C(=O)OCCOC(=O)c4ccc(-c5c6nc(c(-c7c(F)cc(S(=O)(=O)[O-])cc7F)c7ccc([nH]7)c(-c7c(F)cc(S(=O)(=O)[O-])cc7F)c7nc(c(-c8c(F)cc(S(=O)(=O)[O-])cc8F)c8ccc5[nH]8)C=C7)C=C6)cc4)nn3)C2)nn1
REMARK SMILES IDX 18 1 17 2 15 3 16 4 14 5 12 6 13 7 90 8 89 9 11 10 10 11
REMARK SMILES IDX 6 12 7 13 91 14 8 15 9 16 5 17 1 18 2 19 3 20 93 21 4 22
REMARK SMILES IDX 92 23 19 24 20 25 21 26 22 27 23 28 24 29 88 30 25 31 87 32
REMARK SMILES IDX 26 33 27 34 28 35 81 36 29 37 86 38 80 39 82 40 30 41 85 42
REMARK SMILES IDX 79 43 78 44 31 46 65 47 44 48 64 49 45 50 48 51 63 52 83 53
REMARK SMILES IDX 46 54 47 55 62 57 84 58 49 59 32 60 33 61 42 62 34 63 35 64
REMARK SMILES IDX 41 65 43 66 36 67 37 68 38 69 39 70 40 71 66 72 67 73 76 74
REMARK SMILES IDX 68 75 69 76 75 77 77 78 70 79 71 80 72 81 73 82 74 83 50 84
REMARK SMILES IDX 51 85 60 86 52 87 53 88 59 89 61 90 54 91 55 92 56 93 57 94
REMARK SMILES IDX 58 95
REMARK H PARENT 82 45 48 56
REMARK Flexibility Score: inf
ROOT
ATOM      1  C   UNL A   1      42.281  19.433  26.473  1.00  0.00     0.275 C 
ENDROOT
BRANCH   1   2
ATOM      2  O   UNL A   1      41.459  20.482  25.940  1.00  0.00    -0.457 OA
BRANCH   2   3
ATOM      3  C   UNL A   1      40.127  20.168  25.814  1.00  0.00     0.360 C 
ATOM      4  O   UNL A   1      39.702  19.030  25.721  1.00  0.00    -0.244 OA
BRANCH   3   5
ATOM      5  C   UNL A   1      39.276  21.350  25.836  1.00  0.00     0.190 A 
ATOM      6  N   UNL A   1      37.607  22.703  25.733  1.00  0.00    -0.251 N 
ATOM      7  C   UNL A   1      38.099  21.573  25.151  1.00  0.00     0.146 A 
ATOM      8  N   UNL A   1      38.544  23.308  26.481  1.00  0.00    -0.067 NA
ATOM      9  N   UNL A   1      39.559  22.461  26.595  1.00  0.00    -0.123 NA
BRANCH   6  10
ATOM     10  C   UNL A   1      36.208  23.003  25.960  1.00  0.00     0.151 C 
BRANCH  10  11
ATOM     11  C   UNL A   1      35.264  22.231  25.007  1.00  0.00     0.030 C 
ATOM     12  N   UNL A   1      33.496  20.601  24.792  1.00  0.00    -0.355 N 
ATOM     13  C   UNL A   1      32.573  21.461  24.074  1.00  0.00     0.118 C 
ATOM     14  C   UNL A   1      34.362  21.231  25.766  1.00  0.00     0.123 C 
ATOM     15  C   UNL A   1      33.408  22.417  23.231  1.00  0.00     0.022 C 
ATOM     16  C   UNL A   1      34.426  23.165  24.096  1.00  0.00     0.009 C 
BRANCH  12  17
ATOM     17  C   UNL A   1      33.312  19.240  24.829  1.00  0.00     0.151 A 
ATOM     18  C   UNL A   1      32.870  15.054  25.263  1.00  0.00     0.069 C 
ATOM     19  C   UNL A   1      33.047  16.523  25.058  1.00  0.00     0.060 A 
ATOM     20  C   UNL A   1      34.221  17.035  24.537  1.00  0.00     0.029 A 
ATOM     21  N   UNL A   1      32.050  17.337  25.462  1.00  0.00    -0.154 NA
ATOM     22  C   UNL A   1      34.339  18.411  24.401  1.00  0.00     0.051 A 
ATOM     23  N   UNL A   1      32.196  18.701  25.363  1.00  0.00    -0.133 NA
ENDBRANCH  12  17
ENDBRANCH  10  11
ENDBRANCH   6  10
ENDBRANCH   3   5
ENDBRANCH   2   3
ENDBRANCH   1   2
BRANCH   1  24
ATOM     24  C   UNL A   1      43.221  18.865  25.412  1.00  0.00     0.275 C 
BRANCH  24  25
ATOM     25  O   UNL A   1      44.470  19.559  25.357  1.00  0.00    -0.458 OA
BRANCH  25  26
ATOM     26  C   UNL A   1      44.585  20.373  24.282  1.00  0.00     0.338 C 
ATOM     27  O   UNL A   1      44.688  20.035  23.113  1.00  0.00    -0.246 OA
BRANCH  26  28
ATOM     28  C   UNL A   1      44.810  21.750  24.700  1.00  0.00     0.060 A 
ATOM     29  C   UNL A   1      45.696  21.980  25.757  1.00  0.00     0.016 A 
ATOM     30  C   UNL A   1      43.850  22.685  24.304  1.00  0.00     0.016 A 
ATOM     31  C   UNL A   1      45.511  23.110  26.528  1.00  0.00     0.010 A 
ATOM     32  C   UNL A   1      43.640  23.783  25.101  1.00  0.00     0.010 A 
ATOM     33  C   UNL A   1      44.433  23.954  26.236  1.00  0.00    -0.014 A 
BRANCH  33  34
ATOM     34  C   UNL A   1      44.242  25.149  27.035  1.00  0.00     0.031 A 
ATOM     35  C   UNL A   1      45.327  26.134  26.807  1.00  0.00     0.074 A 
ATOM     36  C   UNL A   1      43.131  25.373  27.763  1.00  0.00     0.049 A 
ATOM     37  N   UNL A   1      46.256  26.480  27.632  1.00  0.00    -0.248 NA
ATOM     38  C   UNL A   1      45.542  26.623  25.431  1.00  0.00     0.031 C 
ATOM     39  C   UNL A   1      41.908  24.568  27.819  1.00  0.00     0.029 A 
ATOM     40  N   UNL A   1      42.822  26.440  28.550  1.00  0.00    -0.354 N 
ATOM     41  C   UNL A   1      47.017  27.427  26.953  1.00  0.00     0.074 A 
ATOM     42  C   UNL A   1      46.694  27.282  25.562  1.00  0.00     0.031 C 
ATOM     43  C   UNL A   1      40.925  25.285  28.412  1.00  0.00     0.029 A 
ATOM     44  C   UNL A   1      41.471  26.546  28.884  1.00  0.00     0.049 A 
ATOM     45  H   UNL A   1      43.497  27.086  28.859  1.00  0.00     0.167 HD
ATOM     46  C   UNL A   1      47.615  28.449  27.623  1.00  0.00     0.037 A 
ATOM     47  C   UNL A   1      40.861  27.628  29.443  1.00  0.00     0.037 A 
ATOM     48  C   UNL A   1      47.709  28.144  29.030  1.00  0.00     0.049 A 
ATOM     49  C   UNL A   1      41.935  28.440  30.080  1.00  0.00     0.074 A 
ATOM     50  C   UNL A   1      48.311  27.141  29.764  1.00  0.00     0.029 A 
ATOM     51  N   UNL A   1      46.778  28.720  29.863  1.00  0.00    -0.354 N 
ATOM     52  N   UNL A   1      42.637  28.034  31.104  1.00  0.00    -0.248 NA
ATOM     53  C   UNL A   1      42.559  29.476  29.269  1.00  0.00     0.031 C 
ATOM     54  C   UNL A   1      47.403  26.861  30.824  1.00  0.00     0.029 A 
ATOM     55  C   UNL A   1      46.337  27.759  30.734  1.00  0.00     0.049 A 
ATOM     56  H   UNL A   1      46.482  29.658  29.836  1.00  0.00     0.167 HD
ATOM     57  C   UNL A   1      43.939  28.430  30.821  1.00  0.00     0.074 A 
ATOM     58  C   UNL A   1      43.816  29.369  29.707  1.00  0.00     0.031 C 
ATOM     59  C   UNL A   1      45.010  27.741  31.313  1.00  0.00     0.037 A 
BRANCH  46  60
ATOM     60  C   UNL A   1      47.730  29.860  27.091  1.00  0.00     0.058 A 
ATOM     61  C   UNL A   1      48.978  30.513  27.167  1.00  0.00     0.135 A 
ATOM     62  C   UNL A   1      46.632  30.694  26.773  1.00  0.00     0.135 A 
ATOM     63  F   UNL A   1      50.092  29.827  27.463  1.00  0.00    -0.206 F 
ATOM     64  C   UNL A   1      49.110  31.894  27.025  1.00  0.00     0.059 A 
ATOM     65  C   UNL A   1      46.752  32.063  26.572  1.00  0.00     0.059 A 
ATOM     66  F   UNL A   1      45.370  30.252  26.730  1.00  0.00    -0.206 F 
ATOM     67  C   UNL A   1      47.986  32.661  26.740  1.00  0.00     0.060 A 
BRANCH  67  68
ATOM     68  S   UNL A   1      48.138  34.451  26.639  1.00  0.00     0.124 S 
ATOM     69  O   UNL A   1      46.742  34.867  26.712  1.00  0.00    -0.237 OA
ATOM     70  O   UNL A   1      48.959  34.746  27.809  1.00  0.00    -0.237 OA
ATOM     71  O   UNL A   1      48.793  34.661  25.352  1.00  0.00    -0.744 OA
ENDBRANCH  67  68
ENDBRANCH  46  60
BRANCH  47  72
ATOM     72  C   UNL A   1      39.510  28.188  29.137  1.00  0.00     0.058 A 
ATOM     73  C   UNL A   1      38.503  28.274  30.120  1.00  0.00     0.135 A 
ATOM     74  C   UNL A   1      39.263  28.909  27.950  1.00  0.00     0.135 A 
ATOM     75  F   UNL A   1      38.653  27.645  31.296  1.00  0.00    -0.206 F 
ATOM     76  C   UNL A   1      37.350  29.059  29.953  1.00  0.00     0.059 A 
ATOM     77  C   UNL A   1      38.122  29.689  27.759  1.00  0.00     0.059 A 
ATOM     78  F   UNL A   1      40.172  28.953  26.966  1.00  0.00    -0.206 F 
ATOM     79  C   UNL A   1      37.179  29.781  28.773  1.00  0.00     0.060 A 
BRANCH  79  80
ATOM     80  S   UNL A   1      35.780  30.917  28.607  1.00  0.00     0.124 S 
ATOM     81  O   UNL A   1      35.494  31.256  29.996  1.00  0.00    -0.237 OA
ATOM     82  O   UNL A   1      36.345  31.987  27.794  1.00  0.00    -0.237 OA
ATOM     83  O   UNL A   1      34.761  30.107  27.943  1.00  0.00    -0.744 OA
ENDBRANCH  79  80
ENDBRANCH  47  72
BRANCH  59  84
ATOM     84  C   UNL A   1      44.785  26.724  32.405  1.00  0.00     0.058 A 
ATOM     85  C   UNL A   1      44.522  25.359  32.187  1.00  0.00     0.135 A 
ATOM     86  C   UNL A   1      45.064  27.121  33.723  1.00  0.00     0.135 A 
ATOM     87  F   UNL A   1      44.335  24.882  30.949  1.00  0.00    -0.206 F 
ATOM     88  C   UNL A   1      44.525  24.435  33.237  1.00  0.00     0.059 A 
ATOM     89  C   UNL A   1      45.104  26.213  34.776  1.00  0.00     0.059 A 
ATOM     90  F   UNL A   1      45.376  28.400  33.987  1.00  0.00    -0.206 F 
ATOM     91  C   UNL A   1      44.830  24.871  34.527  1.00  0.00     0.060 A 
BRANCH  91  92
ATOM     92  S   UNL A   1      44.940  23.663  35.867  1.00  0.00     0.124 S 
ATOM     93  O   UNL A   1      46.354  23.306  35.844  1.00  0.00    -0.237 OA
ATOM     94  O   UNL A   1      44.498  24.433  37.026  1.00  0.00    -0.237 OA
ATOM     95  O   UNL A   1      44.025  22.604  35.449  1.00  0.00    -0.744 OA
ENDBRANCH  91  92
ENDBRANCH  59  84
ENDBRANCH  33  34
ENDBRANCH  26  28
ENDBRANCH  25  26
ENDBRANCH  24  25
ENDBRANCH   1  24
TORSDOF 17
ENDMDL
MODEL 3
REMARK VINA RESULT:     -11.4      3.405     12.070
REMARK SMILES Cc1ccc(N2CCC[C@@H](Cn3cc(C(=O)OCCOC(=O)c4ccc(-c5c6nc(c(-c7c(F)cc(S(=O)(=O)[O-])cc7F)c7ccc([nH]7)c(-c7c(F)cc(S(=O)(=O)[O-])cc7F)c7nc(c(-c8c(F)cc(S(=O)(=O)[O-])cc8F)c8ccc5[nH]8)C=C7)C=C6)cc4)nn3)C2)nn1
REMARK SMILES IDX 18 1 17 2 15 3 16 4 14 5 12 6 13 7 90 8 89 9 11 10 10 11
REMARK SMILES IDX 6 12 7 13 91 14 8 15 9 16 5 17 1 18 2 19 3 20 93 21 4 22
REMARK SMILES IDX 92 23 19 24 20 25 21 26 22 27 23 28 24 29 88 30 25 31 87 32
REMARK SMILES IDX 26 33 27 34 28 35 81 36 29 37 86 38 80 39 82 40 30 41 85 42
REMARK SMILES IDX 79 43 78 44 31 46 65 47 44 48 64 49 45 50 48 51 63 52 83 53
REMARK SMILES IDX 46 54 47 55 62 57 84 58 49 59 32 60 33 61 42 62 34 63 35 64
REMARK SMILES IDX 41 65 43 66 36 67 37 68 38 69 39 70 40 71 66 72 67 73 76 74
REMARK SMILES IDX 68 75 69 76 75 77 77 78 70 79 71 80 72 81 73 82 74 83 50 84
REMARK SMILES IDX 51 85 60 86 52 87 53 88 59 89 61 90 54 91 55 92 56 93 57 94
REMARK SMILES IDX 58 95
REMARK H PARENT 82 45 48 56
REMARK Flexibility Score: inf
ROOT
ATOM      1  C   UNL A   1      33.230  34.460  28.687  1.00  0.00     0.275 C 
ENDROOT
BRANCH   1   2
ATOM      2  O   UNL A   1      33.995  35.271  29.592  1.00  0.00    -0.457 OA
BRANCH   2   3
ATOM      3  C   UNL A   1      33.249  36.014  30.477  1.00  0.00     0.360 C 
ATOM      4  O   UNL A   1      32.305  36.711  30.152  1.00  0.00    -0.244 OA
BRANCH   3   5
ATOM      5  C   UNL A   1      33.697  35.849  31.853  1.00  0.00     0.190 A 
ATOM      6  N   UNL A   1      34.592  35.118  33.666  1.00  0.00    -0.251 N 
ATOM      7  C   UNL A   1      33.982  34.681  32.529  1.00  0.00     0.146 A 
ATOM      8  N   UNL A   1      34.409  36.438  33.836  1.00  0.00    -0.067 NA
ATOM      9  N   UNL A   1      33.905  36.910  32.703  1.00  0.00    -0.123 NA
BRANCH   6  10
ATOM     10  C   UNL A   1      35.675  34.451  34.361  1.00  0.00     0.151 C 
BRANCH  10  11
ATOM     11  C   UNL A   1      36.605  33.662  33.409  1.00  0.00     0.030 C 
ATOM     12  N   UNL A   1      38.796  33.480  32.410  1.00  0.00    -0.355 N 
ATOM     13  C   UNL A   1      39.064  32.126  32.860  1.00  0.00     0.118 C 
ATOM     14  C   UNL A   1      37.998  34.318  33.282  1.00  0.00     0.123 C 
ATOM     15  C   UNL A   1      37.728  31.395  32.919  1.00  0.00     0.022 C 
ATOM     16  C   UNL A   1      36.723  32.161  33.783  1.00  0.00     0.009 C 
BRANCH  12  17
ATOM     17  C   UNL A   1      39.548  34.058  31.416  1.00  0.00     0.151 A 
ATOM     18  C   UNL A   1      41.819  35.549  28.174  1.00  0.00     0.069 C 
ATOM     19  C   UNL A   1      41.056  35.044  29.353  1.00  0.00     0.060 A 
ATOM     20  C   UNL A   1      41.692  34.364  30.377  1.00  0.00     0.029 A 
ATOM     21  N   UNL A   1      39.718  35.211  29.353  1.00  0.00    -0.154 NA
ATOM     22  C   UNL A   1      40.924  33.889  31.430  1.00  0.00     0.051 A 
ATOM     23  N   UNL A   1      38.963  34.697  30.382  1.00  0.00    -0.133 NA
ENDBRANCH  12  17
ENDBRANCH  10  11
ENDBRANCH   6  10
ENDBRANCH   3   5
ENDBRANCH   2   3
ENDBRANCH   1   2
BRANCH   1  24
ATOM     24  C   UNL A   1      34.087  33.360  28.064  1.00  0.00     0.275 C 
BRANCH  24  25
ATOM     25  O   UNL A   1      34.401  32.318  28.992  1.00  0.00    -0.458 OA
BRANCH  25  26
ATOM     26  C   UNL A   1      34.963  31.233  28.411  1.00  0.00     0.338 C 
ATOM     27  O   UNL A   1      34.471  30.526  27.546  1.00  0.00    -0.246 OA
BRANCH  26  28
ATOM     28  C   UNL A   1      36.177  30.843  29.115  1.00  0.00     0.060 A 
ATOM     29  C   UNL A   1      37.212  31.779  29.210  1.00  0.00     0.016 A 
ATOM     30  C   UNL A   1      36.382  29.472  29.289  1.00  0.00     0.016 A 
ATOM     31  C   UNL A   1      38.505  31.310  29.329  1.00  0.00     0.010 A 
ATOM     32  C   UNL A   1      37.673  29.009  29.361  1.00  0.00     0.010 A 
ATOM     33  C   UNL A   1      38.722  29.927  29.321  1.00  0.00    -0.014 A 
BRANCH  33  34
ATOM     34  C   UNL A   1      40.077  29.430  29.460  1.00  0.00     0.031 A 
ATOM     35  C   UNL A   1      40.424  29.189  30.882  1.00  0.00     0.074 A 
ATOM     36  C   UNL A   1      40.844  29.092  28.406  1.00  0.00     0.049 A 
ATOM     37  N   UNL A   1      41.256  29.857  31.609  1.00  0.00    -0.248 NA
ATOM     38  C   UNL A   1      39.590  28.245  31.651  1.00  0.00     0.031 C 
ATOM     39  C   UNL A   1      40.469  29.049  26.990  1.00  0.00     0.029 A 
ATOM     40  N   UNL A   1      42.120  28.616  28.391  1.00  0.00    -0.354 N 
ATOM     41  C   UNL A   1      41.230  29.241  32.856  1.00  0.00     0.074 A 
ATOM     42  C   UNL A   1      40.034  28.450  32.890  1.00  0.00     0.031 C 
ATOM     43  C   UNL A   1      41.410  28.368  26.296  1.00  0.00     0.029 A 
ATOM     44  C   UNL A   1      42.509  28.030  27.186  1.00  0.00     0.049 A 
ATOM     45  H   UNL A   1      42.720  28.679  29.168  1.00  0.00     0.167 HD
ATOM     46  C   UNL A   1      42.346  29.198  33.633  1.00  0.00     0.037 A 
ATOM     47  C   UNL A   1      43.621  27.272  26.980  1.00  0.00     0.037 A 
ATOM     48  C   UNL A   1      43.302  30.189  33.201  1.00  0.00     0.049 A 
ATOM     49  C   UNL A   1      44.567  27.596  28.083  1.00  0.00     0.074 A 
ATOM     50  C   UNL A   1      43.282  31.565  33.086  1.00  0.00     0.029 A 
ATOM     51  N   UNL A   1      44.352  29.756  32.427  1.00  0.00    -0.354 N 
ATOM     52  N   UNL A   1      45.128  28.766  28.234  1.00  0.00    -0.248 NA
ATOM     53  C   UNL A   1      44.493  26.780  29.288  1.00  0.00     0.031 C 
ATOM     54  C   UNL A   1      44.013  31.848  31.898  1.00  0.00     0.029 A 
ATOM     55  C   UNL A   1      44.511  30.644  31.396  1.00  0.00     0.049 A 
ATOM     56  H   UNL A   1      44.893  28.950  32.586  1.00  0.00     0.167 HD
ATOM     57  C   UNL A   1      45.076  29.010  29.601  1.00  0.00     0.074 A 
ATOM     58  C   UNL A   1      44.731  27.723  30.204  1.00  0.00     0.031 C 
ATOM     59  C   UNL A   1      45.025  30.284  30.091  1.00  0.00     0.037 A 
BRANCH  46  60
ATOM     60  C   UNL A   1      42.739  28.012  34.487  1.00  0.00     0.058 A 
ATOM     61  C   UNL A   1      42.898  28.202  35.876  1.00  0.00     0.135 A 
ATOM     62  C   UNL A   1      43.234  26.786  33.986  1.00  0.00     0.135 A 
ATOM     63  F   UNL A   1      42.469  29.328  36.466  1.00  0.00    -0.206 F 
ATOM     64  C   UNL A   1      43.571  27.287  36.684  1.00  0.00     0.059 A 
ATOM     65  C   UNL A   1      43.857  25.836  34.785  1.00  0.00     0.059 A 
ATOM     66  F   UNL A   1      43.227  26.474  32.685  1.00  0.00    -0.206 F 
ATOM     67  C   UNL A   1      44.058  26.111  36.124  1.00  0.00     0.060 A 
BRANCH  67  68
ATOM     68  S   UNL A   1      44.999  24.968  37.145  1.00  0.00     0.124 S 
ATOM     69  O   UNL A   1      46.341  25.531  37.054  1.00  0.00    -0.237 OA
ATOM     70  O   UNL A   1      44.333  25.102  38.436  1.00  0.00    -0.237 OA
ATOM     71  O   UNL A   1      44.807  23.684  36.477  1.00  0.00    -0.744 OA
ENDBRANCH  67  68
ENDBRANCH  46  60
BRANCH  47  72
ATOM     72  C   UNL A   1      43.759  26.040  26.143  1.00  0.00     0.058 A 
ATOM     73  C   UNL A   1      44.911  25.796  25.369  1.00  0.00     0.135 A 
ATOM     74  C   UNL A   1      42.888  24.943  26.301  1.00  0.00     0.135 A 
ATOM     75  F   UNL A   1      45.816  26.769  25.180  1.00  0.00    -0.206 F 
ATOM     76  C   UNL A   1      45.201  24.534  24.824  1.00  0.00     0.059 A 
ATOM     77  C   UNL A   1      43.151  23.682  25.763  1.00  0.00     0.059 A 
ATOM     78  F   UNL A   1      41.790  25.034  27.064  1.00  0.00    -0.206 F 
ATOM     79  C   UNL A   1      44.322  23.476  25.046  1.00  0.00     0.060 A 
BRANCH  79  80
ATOM     80  S   UNL A   1      44.757  21.810  24.486  1.00  0.00     0.124 S 
ATOM     81  O   UNL A   1      43.802  20.983  25.213  1.00  0.00    -0.237 OA
ATOM     82  O   UNL A   1      44.552  21.904  23.045  1.00  0.00    -0.237 OA
ATOM     83  O   UNL A   1      46.150  21.664  24.904  1.00  0.00    -0.744 OA
ENDBRANCH  79  80
ENDBRANCH  47  72
BRANCH  59  84
ATOM     84  C   UNL A   1      45.322  31.435  29.162  1.00  0.00     0.058 A 
ATOM     85  C   UNL A   1      46.612  31.844  28.779  1.00  0.00     0.135 A 
ATOM     86  C   UNL A   1      44.238  32.001  28.471  1.00  0.00     0.135 A 
ATOM     87  F   UNL A   1      47.702  31.289  29.325  1.00  0.00    -0.206 F 
ATOM     88  C   UNL A   1      46.812  32.783  27.762  1.00  0.00     0.059 A 
ATOM     89  C   UNL A   1      44.416  32.912  27.434  1.00  0.00     0.059 A 
ATOM     90  F   UNL A   1      42.984  31.611  28.753  1.00  0.00    -0.206 F 
ATOM     91  C   UNL A   1      45.707  33.303  27.087  1.00  0.00     0.060 A 
BRANCH  91  92
ATOM     92  S   UNL A   1      45.966  34.434  25.702  1.00  0.00     0.124 S 
ATOM     93  O   UNL A   1      47.393  34.281  25.442  1.00  0.00    -0.237 OA
ATOM     94  O   UNL A   1      45.073  33.895  24.680  1.00  0.00    -0.237 OA
ATOM     95  O   UNL A   1      45.568  35.732  26.241  1.00  0.00    -0.744 OA
ENDBRANCH  91  92
ENDBRANCH  59  84
ENDBRANCH  33  34
ENDBRANCH  26  28
ENDBRANCH  25  26
ENDBRANCH  24  25
ENDBRANCH   1  24
TORSDOF 17
ENDMDL
