MODEL 1
REMARK VINA RESULT:      -9.3      0.000      0.000
REMARK SMILES O=C(C[N@@H+](Cc1c(F)cccc1Cl)C1CC1)OCCOC(=O)c1ccc(-c2c3nc(c(-c4c(F)cc(S(=O)(=O)[O-])cc4F)c4ccc([nH]4)c(-c4c(F)cc(S(=O)(=O)[O-])cc4F)c4nc(c(-c5c(F)cc(S(=O)(=O)[O-])cc5F)c5ccc2[nH]5)C=C4)C=C3)cc1
REMARK SMILES IDX 18 1 17 2 2 3 1 4 3 5 4 6 5 8 6 9 7 10 12 11 8 12 9 13 11 14
REMARK SMILES IDX 13 15 10 16 14 17 15 18 16 19 19 20 20 21 21 22 22 23 23 24
REMARK SMILES IDX 24 25 88 26 25 27 87 28 26 29 27 30 28 31 81 32 29 33 86 34
REMARK SMILES IDX 80 35 82 36 30 37 85 38 79 39 78 40 31 42 65 43 44 44 64 45
REMARK SMILES IDX 45 46 48 47 63 48 83 49 46 50 47 51 62 53 84 54 49 55 32 56
REMARK SMILES IDX 33 57 42 58 34 59 35 60 41 61 43 62 36 63 37 64 38 65 39 66
REMARK SMILES IDX 40 67 66 68 67 69 76 70 68 71 69 72 75 73 77 74 70 75 71 76
REMARK SMILES IDX 72 77 73 78 74 79 50 80 51 81 60 82 52 83 53 84 59 85 61 86
REMARK SMILES IDX 54 87 55 88 56 89 57 90 58 91
REMARK H PARENT 4 7 82 41 48 52
REMARK Flexibility Score: inf
ROOT
ATOM      1  C   UNL A   1      33.412  34.375  28.003  1.00  0.00     0.274 C 
ENDROOT
BRANCH   1   2
ATOM      2  O   UNL A   1      32.550  35.019  28.963  1.00  0.00    -0.458 OA
BRANCH   2   3
ATOM      3  C   UNL A   1      32.978  35.775  30.007  1.00  0.00     0.361 C 
ATOM      4  O   UNL A   1      32.155  36.386  30.690  1.00  0.00    -0.245 OA
BRANCH   3   5
ATOM      5  C   UNL A   1      34.474  35.846  30.310  1.00  0.00     0.387 C 
BRANCH   5   6
ATOM      6  N   UNL A   1      34.894  34.817  31.281  1.00  0.00    -0.319 N 
ATOM      7  H   UNL A   1      34.081  34.250  31.522  1.00  0.00     0.349 HD
BRANCH   6   8
ATOM      8  C   UNL A   1      35.792  33.793  30.701  1.00  0.00     0.304 C 
BRANCH   8   9
ATOM      9  C   UNL A   1      36.694  32.998  31.621  1.00  0.00     0.061 A 
ATOM     10  C   UNL A   1      36.169  31.894  32.308  1.00  0.00     0.133 A 
ATOM     11  C   UNL A   1      38.021  33.343  31.923  1.00  0.00     0.052 A 
ATOM     12  F   UNL A   1      34.865  31.611  32.205  1.00  0.00    -0.206 F 
ATOM     13  C   UNL A   1      36.937  31.103  33.160  1.00  0.00     0.040 A 
ATOM     14  C   UNL A   1      38.812  32.535  32.757  1.00  0.00     0.021 A 
ATOM     15  Cl  UNL A   1      38.738  34.835  31.428  1.00  0.00    -0.084 Cl
ATOM     16  C   UNL A   1      38.275  31.405  33.362  1.00  0.00     0.005 A 
ENDBRANCH   8   9
ENDBRANCH   6   8
BRANCH   6  17
ATOM     17  C   UNL A   1      35.285  35.412  32.575  1.00  0.00     0.185 C 
ATOM     18  C   UNL A   1      34.150  35.953  33.416  1.00  0.00     0.071 C 
ATOM     19  C   UNL A   1      34.997  34.836  33.928  1.00  0.00     0.071 C 
ENDBRANCH   6  17
ENDBRANCH   5   6
ENDBRANCH   3   5
ENDBRANCH   2   3
ENDBRANCH   1   2
BRANCH   1  20
ATOM     20  C   UNL A   1      33.198  32.858  27.989  1.00  0.00     0.275 C 
BRANCH  20  21
ATOM     21  O   UNL A   1      34.446  32.166  28.169  1.00  0.00    -0.458 OA
BRANCH  21  22
ATOM     22  C   UNL A   1      34.410  30.815  28.009  1.00  0.00     0.338 C 
ATOM     23  O   UNL A   1      33.473  30.162  27.602  1.00  0.00    -0.246 OA
BRANCH  22  24
ATOM     24  C   UNL A   1      35.768  30.262  28.248  1.00  0.00     0.060 A 
ATOM     25  C   UNL A   1      36.094  29.822  29.538  1.00  0.00     0.016 A 
ATOM     26  C   UNL A   1      36.705  30.147  27.219  1.00  0.00     0.016 A 
ATOM     27  C   UNL A   1      37.362  29.289  29.805  1.00  0.00     0.010 A 
ATOM     28  C   UNL A   1      37.963  29.597  27.484  1.00  0.00     0.010 A 
ATOM     29  C   UNL A   1      38.316  29.188  28.784  1.00  0.00    -0.014 A 
BRANCH  29  30
ATOM     30  C   UNL A   1      39.724  28.796  29.073  1.00  0.00     0.031 A 
ATOM     31  C   UNL A   1      40.674  29.846  29.596  1.00  0.00     0.074 A 
ATOM     32  C   UNL A   1      40.186  27.551  28.847  1.00  0.00     0.049 A 
ATOM     33  N   UNL A   1      41.945  29.741  29.887  1.00  0.00    -0.248 NA
ATOM     34  C   UNL A   1      40.116  31.191  29.811  1.00  0.00     0.031 C 
ATOM     35  C   UNL A   1      39.401  26.420  28.355  1.00  0.00     0.029 A 
ATOM     36  N   UNL A   1      41.460  27.042  28.963  1.00  0.00    -0.354 N 
ATOM     37  C   UNL A   1      42.326  30.993  30.358  1.00  0.00     0.074 A 
ATOM     38  C   UNL A   1      41.183  31.867  30.207  1.00  0.00     0.031 C 
ATOM     39  C   UNL A   1      40.220  25.374  28.145  1.00  0.00     0.029 A 
ATOM     40  C   UNL A   1      41.587  25.754  28.498  1.00  0.00     0.049 A 
ATOM     41  H   UNL A   1      42.210  27.552  29.345  1.00  0.00     0.167 HD
ATOM     42  C   UNL A   1      43.497  31.373  30.924  1.00  0.00     0.037 A 
ATOM     43  C   UNL A   1      42.678  24.974  28.360  1.00  0.00     0.037 A 
ATOM     44  C   UNL A   1      44.637  30.515  31.088  1.00  0.00     0.049 A 
ATOM     45  C   UNL A   1      44.014  25.455  28.868  1.00  0.00     0.074 A 
ATOM     46  C   UNL A   1      45.833  30.784  31.731  1.00  0.00     0.029 A 
ATOM     47  N   UNL A   1      44.731  29.225  30.591  1.00  0.00    -0.354 N 
ATOM     48  N   UNL A   1      44.322  26.601  29.425  1.00  0.00    -0.248 NA
ATOM     49  C   UNL A   1      45.143  24.517  28.766  1.00  0.00     0.031 C 
ATOM     50  C   UNL A   1      46.668  29.670  31.586  1.00  0.00     0.029 A 
ATOM     51  C   UNL A   1      45.976  28.694  30.887  1.00  0.00     0.049 A 
ATOM     52  H   UNL A   1      44.020  28.756  30.100  1.00  0.00     0.167 HD
ATOM     53  C   UNL A   1      45.653  26.486  29.819  1.00  0.00     0.074 A 
ATOM     54  C   UNL A   1      46.104  25.178  29.399  1.00  0.00     0.031 C 
ATOM     55  C   UNL A   1      46.415  27.376  30.503  1.00  0.00     0.037 A 
BRANCH  42  56
ATOM     56  C   UNL A   1      43.570  32.779  31.443  1.00  0.00     0.058 A 
ATOM     57  C   UNL A   1      44.187  33.797  30.696  1.00  0.00     0.135 A 
ATOM     58  C   UNL A   1      43.036  33.114  32.696  1.00  0.00     0.135 A 
ATOM     59  F   UNL A   1      44.727  33.522  29.498  1.00  0.00    -0.206 F 
ATOM     60  C   UNL A   1      44.315  35.087  31.193  1.00  0.00     0.059 A 
ATOM     61  C   UNL A   1      43.130  34.408  33.202  1.00  0.00     0.059 A 
ATOM     62  F   UNL A   1      42.436  32.180  33.449  1.00  0.00    -0.206 F 
ATOM     63  C   UNL A   1      43.791  35.381  32.452  1.00  0.00     0.060 A 
BRANCH  63  64
ATOM     64  S   UNL A   1      43.996  37.052  33.100  1.00  0.00     0.124 S 
ATOM     65  O   UNL A   1      44.003  37.839  31.871  1.00  0.00    -0.237 OA
ATOM     66  O   UNL A   1      42.815  37.208  33.945  1.00  0.00    -0.237 OA
ATOM     67  O   UNL A   1      45.267  36.986  33.812  1.00  0.00    -0.744 OA
ENDBRANCH  63  64
ENDBRANCH  42  56
BRANCH  43  68
ATOM     68  C   UNL A   1      42.564  23.632  27.732  1.00  0.00     0.058 A 
ATOM     69  C   UNL A   1      42.490  22.469  28.513  1.00  0.00     0.135 A 
ATOM     70  C   UNL A   1      42.573  23.488  26.337  1.00  0.00     0.135 A 
ATOM     71  F   UNL A   1      42.491  22.559  29.851  1.00  0.00    -0.206 F 
ATOM     72  C   UNL A   1      42.457  21.205  27.933  1.00  0.00     0.059 A 
ATOM     73  C   UNL A   1      42.526  22.235  25.733  1.00  0.00     0.059 A 
ATOM     74  F   UNL A   1      42.630  24.572  25.549  1.00  0.00    -0.206 F 
ATOM     75  C   UNL A   1      42.481  21.098  26.541  1.00  0.00     0.060 A 
BRANCH  75  76
ATOM     76  S   UNL A   1      42.428  19.451  25.800  1.00  0.00     0.124 S 
ATOM     77  O   UNL A   1      43.428  19.573  24.745  1.00  0.00    -0.237 OA
ATOM     78  O   UNL A   1      42.790  18.600  26.928  1.00  0.00    -0.237 OA
ATOM     79  O   UNL A   1      41.045  19.332  25.347  1.00  0.00    -0.744 OA
ENDBRANCH  75  76
ENDBRANCH  43  68
BRANCH  55  80
ATOM     80  C   UNL A   1      47.784  26.936  30.941  1.00  0.00     0.058 A 
ATOM     81  C   UNL A   1      48.014  26.303  32.172  1.00  0.00     0.135 A 
ATOM     82  C   UNL A   1      48.883  27.113  30.081  1.00  0.00     0.135 A 
ATOM     83  F   UNL A   1      47.002  26.117  33.034  1.00  0.00    -0.206 F 
ATOM     84  C   UNL A   1      49.288  25.882  32.545  1.00  0.00     0.059 A 
ATOM     85  C   UNL A   1      50.158  26.676  30.423  1.00  0.00     0.059 A 
ATOM     86  F   UNL A   1      48.717  27.703  28.886  1.00  0.00    -0.206 F 
ATOM     87  C   UNL A   1      50.354  26.073  31.664  1.00  0.00     0.060 A 
BRANCH  87  88
ATOM     88  S   UNL A   1      51.997  25.492  32.140  1.00  0.00     0.124 S 
ATOM     89  O   UNL A   1      51.791  24.049  32.203  1.00  0.00    -0.237 OA
ATOM     90  O   UNL A   1      52.830  25.967  31.039  1.00  0.00    -0.237 OA
ATOM     91  O   UNL A   1      52.230  26.152  33.422  1.00  0.00    -0.744 OA
ENDBRANCH  87  88
ENDBRANCH  55  80
ENDBRANCH  29  30
ENDBRANCH  22  24
ENDBRANCH  21  22
ENDBRANCH  20  21
ENDBRANCH   1  20
TORSDOF 18
ENDMDL
MODEL 2
REMARK VINA RESULT:      -9.3      2.592      3.384
REMARK SMILES O=C(C[N@@H+](Cc1c(F)cccc1Cl)C1CC1)OCCOC(=O)c1ccc(-c2c3nc(c(-c4c(F)cc(S(=O)(=O)[O-])cc4F)c4ccc([nH]4)c(-c4c(F)cc(S(=O)(=O)[O-])cc4F)c4nc(c(-c5c(F)cc(S(=O)(=O)[O-])cc5F)c5ccc2[nH]5)C=C4)C=C3)cc1
REMARK SMILES IDX 18 1 17 2 2 3 1 4 3 5 4 6 5 8 6 9 7 10 12 11 8 12 9 13 11 14
REMARK SMILES IDX 13 15 10 16 14 17 15 18 16 19 19 20 20 21 21 22 22 23 23 24
REMARK SMILES IDX 24 25 88 26 25 27 87 28 26 29 27 30 28 31 81 32 29 33 86 34
REMARK SMILES IDX 80 35 82 36 30 37 85 38 79 39 78 40 31 42 65 43 44 44 64 45
REMARK SMILES IDX 45 46 48 47 63 48 83 49 46 50 47 51 62 53 84 54 49 55 32 56
REMARK SMILES IDX 33 57 42 58 34 59 35 60 41 61 43 62 36 63 37 64 38 65 39 66
REMARK SMILES IDX 40 67 66 68 67 69 76 70 68 71 69 72 75 73 77 74 70 75 71 76
REMARK SMILES IDX 72 77 73 78 74 79 50 80 51 81 60 82 52 83 53 84 59 85 61 86
REMARK SMILES IDX 54 87 55 88 56 89 57 90 58 91
REMARK H PARENT 4 7 82 41 48 52
REMARK Flexibility Score: inf
ROOT
ATOM      1  C   UNL A   1      32.840  33.778  27.582  1.00  0.00     0.274 C 
ENDROOT
BRANCH   1   2
ATOM      2  O   UNL A   1      32.511  34.291  28.890  1.00  0.00    -0.458 OA
BRANCH   2   3
ATOM      3  C   UNL A   1      32.933  35.483  29.385  1.00  0.00     0.361 C 
ATOM      4  O   UNL A   1      32.371  36.520  29.028  1.00  0.00    -0.245 OA
BRANCH   3   5
ATOM      5  C   UNL A   1      34.094  35.508  30.378  1.00  0.00     0.387 C 
BRANCH   5   6
ATOM      6  N   UNL A   1      33.955  34.474  31.421  1.00  0.00    -0.319 N 
ATOM      7  H   UNL A   1      33.130  33.912  31.210  1.00  0.00     0.349 HD
BRANCH   6   8
ATOM      8  C   UNL A   1      35.019  33.446  31.375  1.00  0.00     0.304 C 
BRANCH   8   9
ATOM      9  C   UNL A   1      36.444  33.873  31.088  1.00  0.00     0.061 A 
ATOM     10  C   UNL A   1      36.940  33.768  29.782  1.00  0.00     0.133 A 
ATOM     11  C   UNL A   1      37.360  34.287  32.069  1.00  0.00     0.052 A 
ATOM     12  F   UNL A   1      36.180  33.217  28.828  1.00  0.00    -0.206 F 
ATOM     13  C   UNL A   1      38.233  34.155  29.434  1.00  0.00     0.040 A 
ATOM     14  C   UNL A   1      38.655  34.707  31.724  1.00  0.00     0.021 A 
ATOM     15  Cl  UNL A   1      37.034  34.179  33.762  1.00  0.00    -0.084 Cl
ATOM     16  C   UNL A   1      39.086  34.657  30.404  1.00  0.00     0.005 A 
ENDBRANCH   8   9
ENDBRANCH   6   8
BRANCH   6  17
ATOM     17  C   UNL A   1      33.634  35.062  32.737  1.00  0.00     0.185 C 
ATOM     18  C   UNL A   1      34.369  36.340  33.080  1.00  0.00     0.071 C 
ATOM     19  C   UNL A   1      32.881  36.337  32.967  1.00  0.00     0.071 C 
ENDBRANCH   6  17
ENDBRANCH   5   6
ENDBRANCH   3   5
ENDBRANCH   2   3
ENDBRANCH   1   2
BRANCH   1  20
ATOM     20  C   UNL A   1      32.887  32.247  27.579  1.00  0.00     0.275 C 
BRANCH  20  21
ATOM     21  O   UNL A   1      34.233  31.778  27.772  1.00  0.00    -0.458 OA
BRANCH  21  22
ATOM     22  C   UNL A   1      34.487  30.504  27.368  1.00  0.00     0.338 C 
ATOM     23  O   UNL A   1      33.859  29.868  26.549  1.00  0.00    -0.246 OA
BRANCH  22  24
ATOM     24  C   UNL A   1      35.773  30.055  27.961  1.00  0.00     0.060 A 
ATOM     25  C   UNL A   1      35.770  29.562  29.272  1.00  0.00     0.016 A 
ATOM     26  C   UNL A   1      36.967  30.087  27.236  1.00  0.00     0.016 A 
ATOM     27  C   UNL A   1      36.960  29.124  29.868  1.00  0.00     0.010 A 
ATOM     28  C   UNL A   1      38.149  29.631  27.826  1.00  0.00     0.010 A 
ATOM     29  C   UNL A   1      38.166  29.171  29.156  1.00  0.00    -0.014 A 
BRANCH  29  30
ATOM     30  C   UNL A   1      39.469  28.883  29.817  1.00  0.00     0.031 A 
ATOM     31  C   UNL A   1      39.904  29.756  30.969  1.00  0.00     0.074 A 
ATOM     32  C   UNL A   1      40.289  27.900  29.397  1.00  0.00     0.049 A 
ATOM     33  N   UNL A   1      41.007  29.711  31.673  1.00  0.00    -0.248 NA
ATOM     34  C   UNL A   1      38.975  30.822  31.375  1.00  0.00     0.031 C 
ATOM     35  C   UNL A   1      40.017  26.963  28.308  1.00  0.00     0.029 A 
ATOM     36  N   UNL A   1      41.553  27.556  29.820  1.00  0.00    -0.354 N 
ATOM     37  C   UNL A   1      40.883  30.714  32.627  1.00  0.00     0.074 A 
ATOM     38  C   UNL A   1      39.653  31.420  32.342  1.00  0.00     0.031 C 
ATOM     39  C   UNL A   1      41.106  26.200  28.102  1.00  0.00     0.029 A 
ATOM     40  C   UNL A   1      42.150  26.584  29.050  1.00  0.00     0.049 A 
ATOM     41  H   UNL A   1      41.989  27.967  30.600  1.00  0.00     0.167 HD
ATOM     42  C   UNL A   1      41.682  30.988  33.686  1.00  0.00     0.037 A 
ATOM     43  C   UNL A   1      43.395  26.071  29.096  1.00  0.00     0.037 A 
ATOM     44  C   UNL A   1      42.902  30.291  33.987  1.00  0.00     0.049 A 
ATOM     45  C   UNL A   1      44.337  26.481  30.200  1.00  0.00     0.074 A 
ATOM     46  C   UNL A   1      43.730  30.438  35.086  1.00  0.00     0.029 A 
ATOM     47  N   UNL A   1      43.478  29.326  33.178  1.00  0.00    -0.354 N 
ATOM     48  N   UNL A   1      44.148  27.345  31.168  1.00  0.00    -0.248 NA
ATOM     49  C   UNL A   1      45.648  25.814  30.240  1.00  0.00     0.031 C 
ATOM     50  C   UNL A   1      44.831  29.590  34.921  1.00  0.00     0.029 A 
ATOM     51  C   UNL A   1      44.667  28.888  33.738  1.00  0.00     0.049 A 
ATOM     52  H   UNL A   1      43.100  29.000  32.331  1.00  0.00     0.167 HD
ATOM     53  C   UNL A   1      45.277  27.257  31.980  1.00  0.00     0.074 A 
ATOM     54  C   UNL A   1      46.162  26.292  31.367  1.00  0.00     0.031 C 
ATOM     55  C   UNL A   1      45.533  27.896  33.149  1.00  0.00     0.037 A 
BRANCH  42  56
ATOM     56  C   UNL A   1      41.222  32.073  34.616  1.00  0.00     0.058 A 
ATOM     57  C   UNL A   1      41.522  33.422  34.362  1.00  0.00     0.135 A 
ATOM     58  C   UNL A   1      40.490  31.768  35.773  1.00  0.00     0.135 A 
ATOM     59  F   UNL A   1      42.233  33.762  33.275  1.00  0.00    -0.206 F 
ATOM     60  C   UNL A   1      41.154  34.427  35.246  1.00  0.00     0.059 A 
ATOM     61  C   UNL A   1      40.088  32.763  36.660  1.00  0.00     0.059 A 
ATOM     62  F   UNL A   1      40.177  30.495  36.062  1.00  0.00    -0.206 F 
ATOM     63  C   UNL A   1      40.445  34.086  36.399  1.00  0.00     0.060 A 
BRANCH  63  64
ATOM     64  S   UNL A   1      40.004  35.397  37.557  1.00  0.00     0.124 S 
ATOM     65  O   UNL A   1      39.868  36.540  36.660  1.00  0.00    -0.237 OA
ATOM     66  O   UNL A   1      38.762  34.898  38.139  1.00  0.00    -0.237 OA
ATOM     67  O   UNL A   1      41.144  35.443  38.467  1.00  0.00    -0.744 OA
ENDBRANCH  63  64
ENDBRANCH  42  56
BRANCH  43  68
ATOM     68  C   UNL A   1      43.834  25.082  28.077  1.00  0.00     0.058 A 
ATOM     69  C   UNL A   1      44.532  25.483  26.928  1.00  0.00     0.135 A 
ATOM     70  C   UNL A   1      43.521  23.721  28.214  1.00  0.00     0.135 A 
ATOM     71  F   UNL A   1      44.841  26.776  26.751  1.00  0.00    -0.206 F 
ATOM     72  C   UNL A   1      44.881  24.574  25.935  1.00  0.00     0.059 A 
ATOM     73  C   UNL A   1      43.873  22.790  27.241  1.00  0.00     0.059 A 
ATOM     74  F   UNL A   1      42.865  23.287  29.301  1.00  0.00    -0.206 F 
ATOM     75  C   UNL A   1      44.543  23.230  26.099  1.00  0.00     0.060 A 
BRANCH  75  76
ATOM     76  S   UNL A   1      45.010  22.057  24.806  1.00  0.00     0.124 S 
ATOM     77  O   UNL A   1      45.068  22.923  23.633  1.00  0.00    -0.237 OA
ATOM     78  O   UNL A   1      46.291  21.560  25.297  1.00  0.00    -0.237 OA
ATOM     79  O   UNL A   1      43.918  21.089  24.822  1.00  0.00    -0.744 OA
ENDBRANCH  75  76
ENDBRANCH  43  68
BRANCH  55  80
ATOM     80  C   UNL A   1      46.768  27.501  33.909  1.00  0.00     0.058 A 
ATOM     81  C   UNL A   1      47.990  28.173  33.760  1.00  0.00     0.135 A 
ATOM     82  C   UNL A   1      46.707  26.452  34.844  1.00  0.00     0.135 A 
ATOM     83  F   UNL A   1      48.105  29.177  32.875  1.00  0.00    -0.206 F 
ATOM     84  C   UNL A   1      49.115  27.805  34.494  1.00  0.00     0.059 A 
ATOM     85  C   UNL A   1      47.811  26.086  35.605  1.00  0.00     0.059 A 
ATOM     86  F   UNL A   1      45.559  25.783  35.034  1.00  0.00    -0.206 F 
ATOM     87  C   UNL A   1      49.016  26.760  35.414  1.00  0.00     0.060 A 
BRANCH  87  88
ATOM     88  S   UNL A   1      50.470  26.311  36.387  1.00  0.00     0.124 S 
ATOM     89  O   UNL A   1      51.485  26.167  35.349  1.00  0.00    -0.237 OA
ATOM     90  O   UNL A   1      50.626  27.464  37.270  1.00  0.00    -0.237 OA
ATOM     91  O   UNL A   1      50.066  25.075  37.049  1.00  0.00    -0.744 OA
ENDBRANCH  87  88
ENDBRANCH  55  80
ENDBRANCH  29  30
ENDBRANCH  22  24
ENDBRANCH  21  22
ENDBRANCH  20  21
ENDBRANCH   1  20
TORSDOF 18
ENDMDL
MODEL 3
REMARK VINA RESULT:      -9.2      4.326      6.201
REMARK SMILES O=C(C[N@@H+](Cc1c(F)cccc1Cl)C1CC1)OCCOC(=O)c1ccc(-c2c3nc(c(-c4c(F)cc(S(=O)(=O)[O-])cc4F)c4ccc([nH]4)c(-c4c(F)cc(S(=O)(=O)[O-])cc4F)c4nc(c(-c5c(F)cc(S(=O)(=O)[O-])cc5F)c5ccc2[nH]5)C=C4)C=C3)cc1
REMARK SMILES IDX 18 1 17 2 2 3 1 4 3 5 4 6 5 8 6 9 7 10 12 11 8 12 9 13 11 14
REMARK SMILES IDX 13 15 10 16 14 17 15 18 16 19 19 20 20 21 21 22 22 23 23 24
REMARK SMILES IDX 24 25 88 26 25 27 87 28 26 29 27 30 28 31 81 32 29 33 86 34
REMARK SMILES IDX 80 35 82 36 30 37 85 38 79 39 78 40 31 42 65 43 44 44 64 45
REMARK SMILES IDX 45 46 48 47 63 48 83 49 46 50 47 51 62 53 84 54 49 55 32 56
REMARK SMILES IDX 33 57 42 58 34 59 35 60 41 61 43 62 36 63 37 64 38 65 39 66
REMARK SMILES IDX 40 67 66 68 67 69 76 70 68 71 69 72 75 73 77 74 70 75 71 76
REMARK SMILES IDX 72 77 73 78 74 79 50 80 51 81 60 82 52 83 53 84 59 85 61 86
REMARK SMILES IDX 54 87 55 88 56 89 57 90 58 91
REMARK H PARENT 4 7 82 41 48 52
REMARK Flexibility Score: inf
ROOT
ATOM      1  C   UNL A   1      31.669  30.236  25.755  1.00  0.00     0.274 C 
ENDROOT
BRANCH   1   2
ATOM      2  O   UNL A   1      31.407  29.221  24.764  1.00  0.00    -0.458 OA
BRANCH   2   3
ATOM      3  C   UNL A   1      30.446  29.299  23.809  1.00  0.00     0.361 C 
ATOM      4  O   UNL A   1      29.799  30.340  23.683  1.00  0.00    -0.245 OA
BRANCH   3   5
ATOM      5  C   UNL A   1      30.192  28.091  22.908  1.00  0.00     0.387 C 
BRANCH   5   6
ATOM      6  N   UNL A   1      31.103  26.970  23.213  1.00  0.00    -0.319 N 
ATOM      7  H   UNL A   1      31.527  27.138  24.125  1.00  0.00     0.349 HD
BRANCH   6   8
ATOM      8  C   UNL A   1      30.398  25.691  23.457  1.00  0.00     0.304 C 
BRANCH   8   9
ATOM      9  C   UNL A   1      30.953  24.730  24.488  1.00  0.00     0.061 A 
ATOM     10  C   UNL A   1      31.170  23.392  24.131  1.00  0.00     0.133 A 
ATOM     11  C   UNL A   1      31.185  25.059  25.834  1.00  0.00     0.052 A 
ATOM     12  F   UNL A   1      30.807  22.967  22.915  1.00  0.00    -0.206 F 
ATOM     13  C   UNL A   1      31.692  22.452  25.016  1.00  0.00     0.040 A 
ATOM     14  C   UNL A   1      31.738  24.126  26.726  1.00  0.00     0.021 A 
ATOM     15  Cl  UNL A   1      30.682  26.556  26.534  1.00  0.00    -0.084 Cl
ATOM     16  C   UNL A   1      32.009  22.826  26.313  1.00  0.00     0.005 A 
ENDBRANCH   8   9
ENDBRANCH   6   8
BRANCH   6  17
ATOM     17  C   UNL A   1      32.265  26.944  22.301  1.00  0.00     0.185 C 
ATOM     18  C   UNL A   1      33.612  27.172  22.952  1.00  0.00     0.071 C 
ATOM     19  C   UNL A   1      33.322  25.883  22.258  1.00  0.00     0.071 C 
ENDBRANCH   6  17
ENDBRANCH   5   6
ENDBRANCH   3   5
ENDBRANCH   2   3
ENDBRANCH   1   2
BRANCH   1  20
ATOM     20  C   UNL A   1      32.487  29.676  26.924  1.00  0.00     0.275 C 
BRANCH  20  21
ATOM     21  O   UNL A   1      33.894  29.880  26.704  1.00  0.00    -0.458 OA
BRANCH  21  22
ATOM     22  C   UNL A   1      34.481  30.856  27.450  1.00  0.00     0.338 C 
ATOM     23  O   UNL A   1      34.004  31.935  27.730  1.00  0.00    -0.246 OA
BRANCH  22  24
ATOM     24  C   UNL A   1      35.745  30.330  28.027  1.00  0.00     0.060 A 
ATOM     25  C   UNL A   1      35.712  29.761  29.306  1.00  0.00     0.016 A 
ATOM     26  C   UNL A   1      36.948  30.366  27.315  1.00  0.00     0.016 A 
ATOM     27  C   UNL A   1      36.880  29.249  29.885  1.00  0.00     0.010 A 
ATOM     28  C   UNL A   1      38.108  29.837  27.889  1.00  0.00     0.010 A 
ATOM     29  C   UNL A   1      38.095  29.299  29.189  1.00  0.00    -0.014 A 
BRANCH  29  30
ATOM     30  C   UNL A   1      39.381  28.930  29.844  1.00  0.00     0.031 A 
ATOM     31  C   UNL A   1      39.901  29.802  30.960  1.00  0.00     0.074 A 
ATOM     32  C   UNL A   1      40.113  27.870  29.447  1.00  0.00     0.049 A 
ATOM     33  N   UNL A   1      41.006  29.692  31.651  1.00  0.00    -0.248 NA
ATOM     34  C   UNL A   1      39.065  30.953  31.340  1.00  0.00     0.031 C 
ATOM     35  C   UNL A   1      39.751  26.922  28.395  1.00  0.00     0.029 A 
ATOM     36  N   UNL A   1      41.352  27.440  29.867  1.00  0.00    -0.354 N 
ATOM     37  C   UNL A   1      40.976  30.733  32.572  1.00  0.00     0.074 A 
ATOM     38  C   UNL A   1      39.803  31.525  32.278  1.00  0.00     0.031 C 
ATOM     39  C   UNL A   1      40.772  26.069  28.202  1.00  0.00     0.029 A 
ATOM     40  C   UNL A   1      41.857  26.399  29.124  1.00  0.00     0.049 A 
ATOM     41  H   UNL A   1      41.831  27.841  30.627  1.00  0.00     0.167 HD
ATOM     42  C   UNL A   1      41.811  30.977  33.612  1.00  0.00     0.037 A 
ATOM     43  C   UNL A   1      43.059  25.789  29.173  1.00  0.00     0.037 A 
ATOM     44  C   UNL A   1      42.975  30.195  33.922  1.00  0.00     0.049 A 
ATOM     45  C   UNL A   1      44.047  26.159  30.250  1.00  0.00     0.074 A 
ATOM     46  C   UNL A   1      43.829  30.311  35.006  1.00  0.00     0.029 A 
ATOM     47  N   UNL A   1      43.461  29.160  33.139  1.00  0.00    -0.354 N 
ATOM     48  N   UNL A   1      43.941  27.066  31.190  1.00  0.00    -0.248 NA
ATOM     49  C   UNL A   1      45.301  25.391  30.298  1.00  0.00     0.031 C 
ATOM     50  C   UNL A   1      44.856  29.373  34.856  1.00  0.00     0.029 A 
ATOM     51  C   UNL A   1      44.619  28.647  33.700  1.00  0.00     0.049 A 
ATOM     52  H   UNL A   1      43.045  28.838  32.308  1.00  0.00     0.167 HD
ATOM     53  C   UNL A   1      45.071  26.915  31.991  1.00  0.00     0.074 A 
ATOM     54  C   UNL A   1      45.867  25.862  31.401  1.00  0.00     0.031 C 
ATOM     55  C   UNL A   1      45.394  27.570  33.135  1.00  0.00     0.037 A 
BRANCH  42  56
ATOM     56  C   UNL A   1      41.452  32.125  34.510  1.00  0.00     0.058 A 
ATOM     57  C   UNL A   1      40.610  31.942  35.620  1.00  0.00     0.135 A 
ATOM     58  C   UNL A   1      41.939  33.417  34.259  1.00  0.00     0.135 A 
ATOM     59  F   UNL A   1      40.107  30.727  35.892  1.00  0.00    -0.206 F 
ATOM     60  C   UNL A   1      40.223  33.007  36.421  1.00  0.00     0.059 A 
ATOM     61  C   UNL A   1      41.585  34.495  35.067  1.00  0.00     0.059 A 
ATOM     62  F   UNL A   1      42.747  33.646  33.213  1.00  0.00    -0.206 F 
ATOM     63  C   UNL A   1      40.708  34.282  36.131  1.00  0.00     0.060 A 
BRANCH  63  64
ATOM     64  S   UNL A   1      40.169  35.663  37.159  1.00  0.00     0.124 S 
ATOM     65  O   UNL A   1      39.060  35.061  37.892  1.00  0.00    -0.237 OA
ATOM     66  O   UNL A   1      41.364  35.954  37.946  1.00  0.00    -0.237 OA
ATOM     67  O   UNL A   1      39.799  36.685  36.187  1.00  0.00    -0.744 OA
ENDBRANCH  63  64
ENDBRANCH  42  56
BRANCH  43  68
ATOM     68  C   UNL A   1      43.403  24.735  28.183  1.00  0.00     0.058 A 
ATOM     69  C   UNL A   1      44.041  25.053  26.975  1.00  0.00     0.135 A 
ATOM     70  C   UNL A   1      43.055  23.395  28.409  1.00  0.00     0.135 A 
ATOM     71  F   UNL A   1      44.380  26.323  26.711  1.00  0.00    -0.206 F 
ATOM     72  C   UNL A   1      44.299  24.082  26.012  1.00  0.00     0.059 A 
ATOM     73  C   UNL A   1      43.317  22.404  27.468  1.00  0.00     0.059 A 
ATOM     74  F   UNL A   1      42.453  23.040  29.555  1.00  0.00    -0.206 F 
ATOM     75  C   UNL A   1      43.928  22.761  26.266  1.00  0.00     0.060 A 
BRANCH  75  76
ATOM     76  S   UNL A   1      44.278  21.509  25.011  1.00  0.00     0.124 S 
ATOM     77  O   UNL A   1      44.110  22.273  23.780  1.00  0.00    -0.237 OA
ATOM     78  O   UNL A   1      45.646  21.123  25.342  1.00  0.00    -0.237 OA
ATOM     79  O   UNL A   1      43.265  20.489  25.264  1.00  0.00    -0.744 OA
ENDBRANCH  75  76
ENDBRANCH  43  68
BRANCH  55  80
ATOM     80  C   UNL A   1      46.605  27.103  33.893  1.00  0.00     0.058 A 
ATOM     81  C   UNL A   1      46.545  26.081  34.851  1.00  0.00     0.135 A 
ATOM     82  C   UNL A   1      47.864  27.665  33.614  1.00  0.00     0.135 A 
ATOM     83  F   UNL A   1      45.367  25.516  35.162  1.00  0.00    -0.206 F 
ATOM     84  C   UNL A   1      47.685  25.647  35.523  1.00  0.00     0.059 A 
ATOM     85  C   UNL A   1      49.019  27.229  34.254  1.00  0.00     0.059 A 
ATOM     86  F   UNL A   1      47.980  28.639  32.697  1.00  0.00    -0.206 F 
ATOM     87  C   UNL A   1      48.918  26.227  35.217  1.00  0.00     0.060 A 
BRANCH  87  88
ATOM     88  S   UNL A   1      50.397  25.636  36.068  1.00  0.00     0.124 S 
ATOM     89  O   UNL A   1      49.826  25.041  37.271  1.00  0.00    -0.237 OA
ATOM     90  O   UNL A   1      50.961  24.697  35.102  1.00  0.00    -0.237 OA
ATOM     91  O   UNL A   1      51.177  26.852  36.276  1.00  0.00    -0.744 OA
ENDBRANCH  87  88
ENDBRANCH  55  80
ENDBRANCH  29  30
ENDBRANCH  22  24
ENDBRANCH  21  22
ENDBRANCH  20  21
ENDBRANCH   1  20
TORSDOF 18
ENDMDL
