MODEL 1
REMARK VINA RESULT:     -11.0      0.000      0.000
REMARK SMILES CC(C)(C)OC(=O)N[C@H](Cc1ccc(N=[N+]=[N-])cc1)C(=O)OCCOC(=O)c1ccc(-c2c3nc(c(-c4c(F)cc(S(=O)(=O)[O-])cc4F)c4ccc([nH]4)c(-c4c(F)cc(S(=O)(=O)[O-])cc4F)c4nc(c(-c5c(F)cc(S(=O)(=O)[O-])cc5F)c5ccc2[nH]5)C=C4)C=C3)cc1
REMARK SMILES IDX 23 1 22 2 20 3 21 4 9 5 8 6 6 7 7 8 5 10 2 11 1 12 3 13 4 14
REMARK SMILES IDX 10 15 11 16 12 17 19 18 13 19 18 20 14 21 15 22 16 23 17 24
REMARK SMILES IDX 24 25 25 26 26 27 27 28 28 29 29 30 93 31 30 32 92 33 31 34
REMARK SMILES IDX 32 35 33 36 86 37 34 38 91 39 85 40 87 41 35 42 90 43 84 44
REMARK SMILES IDX 83 45 36 47 70 48 49 49 69 50 50 51 53 52 68 53 88 54 51 55
REMARK SMILES IDX 52 56 67 58 89 59 54 60 37 61 38 62 47 63 39 64 40 65 46 66
REMARK SMILES IDX 48 67 41 68 42 69 43 70 44 71 45 72 71 73 72 74 81 75 73 76
REMARK SMILES IDX 74 77 80 78 82 79 75 80 76 81 77 82 78 83 79 84 55 85 56 86
REMARK SMILES IDX 65 87 57 88 58 89 64 90 66 91 59 92 60 93 61 94 62 95 63 96
REMARK H PARENT 8 9 87 46 53 57
REMARK Flexibility Score: inf
ROOT
ATOM      1  C   UNL A   1      37.475  22.417  25.411  1.00  0.00     0.274 C 
ENDROOT
BRANCH   1   2
ATOM      2  O   UNL A   1      36.860  23.632  24.940  1.00  0.00    -0.461 OA
BRANCH   2   3
ATOM      3  C   UNL A   1      35.950  23.515  23.942  1.00  0.00     0.329 C 
ATOM      4  O   UNL A   1      36.230  23.147  22.805  1.00  0.00    -0.250 OA
BRANCH   3   5
ATOM      5  C   UNL A   1      34.524  23.931  24.355  1.00  0.00     0.199 C 
BRANCH   5   6
ATOM      6  N   UNL A   1      34.535  25.355  24.664  1.00  0.00    -0.308 N 
ATOM      7  C   UNL A   1      33.655  26.278  24.177  1.00  0.00     0.408 C 
ATOM      8  O   UNL A   1      33.837  27.470  24.382  1.00  0.00    -0.225 OA
ATOM      9  H   UNL A   1      35.237  25.679  25.274  1.00  0.00     0.168 HD
BRANCH   7  10
ATOM     10  O   UNL A   1      32.621  25.726  23.497  1.00  0.00    -0.444 OA
BRANCH  10  11
ATOM     11  C   UNL A   1      31.265  25.806  24.012  1.00  0.00     0.106 C 
ATOM     12  C   UNL A   1      30.540  24.565  23.461  1.00  0.00     0.056 C 
ATOM     13  C   UNL A   1      30.545  27.054  23.490  1.00  0.00     0.056 C 
ATOM     14  C   UNL A   1      31.254  25.728  25.543  1.00  0.00     0.056 C 
ENDBRANCH  10  11
ENDBRANCH   7  10
ENDBRANCH   5   6
BRANCH   5  15
ATOM     15  C   UNL A   1      33.785  23.060  25.385  1.00  0.00     0.072 C 
BRANCH  15  16
ATOM     16  C   UNL A   1      33.361  21.688  24.928  1.00  0.00    -0.045 A 
ATOM     17  C   UNL A   1      32.743  21.511  23.686  1.00  0.00     0.004 A 
ATOM     18  C   UNL A   1      33.575  20.573  25.741  1.00  0.00     0.004 A 
ATOM     19  C   UNL A   1      32.413  20.232  23.238  1.00  0.00     0.010 A 
ATOM     20  C   UNL A   1      33.231  19.295  25.294  1.00  0.00     0.010 A 
ATOM     21  C   UNL A   1      32.664  19.103  24.024  1.00  0.00     0.038 A 
BRANCH  21  22
ATOM     22  N   UNL A   1      32.297  17.855  23.483  1.00  0.00    -0.061 NA
ATOM     23  N   UNL A   1      33.228  17.066  23.259  1.00  0.00     0.005 N 
ATOM     24  N   UNL A   1      34.075  16.324  23.053  1.00  0.00    -0.003 NA
ENDBRANCH  21  22
ENDBRANCH  15  16
ENDBRANCH   5  15
ENDBRANCH   3   5
ENDBRANCH   2   3
ENDBRANCH   1   2
BRANCH   1  25
ATOM     25  C   UNL A   1      38.902  22.692  25.885  1.00  0.00     0.275 C 
BRANCH  25  26
ATOM     26  O   UNL A   1      38.938  23.788  26.819  1.00  0.00    -0.458 OA
BRANCH  26  27
ATOM     27  C   UNL A   1      40.165  24.326  27.013  1.00  0.00     0.338 C 
ATOM     28  O   UNL A   1      41.206  24.010  26.464  1.00  0.00    -0.246 OA
BRANCH  27  29
ATOM     29  C   UNL A   1      40.068  25.477  27.917  1.00  0.00     0.060 A 
ATOM     30  C   UNL A   1      41.084  26.433  27.884  1.00  0.00     0.016 A 
ATOM     31  C   UNL A   1      39.059  25.551  28.872  1.00  0.00     0.016 A 
ATOM     32  C   UNL A   1      41.132  27.441  28.836  1.00  0.00     0.010 A 
ATOM     33  C   UNL A   1      39.075  26.600  29.796  1.00  0.00     0.010 A 
ATOM     34  C   UNL A   1      40.122  27.542  29.796  1.00  0.00    -0.014 A 
BRANCH  34  35
ATOM     35  C   UNL A   1      40.167  28.628  30.803  1.00  0.00     0.031 A 
ATOM     36  C   UNL A   1      41.133  28.544  31.950  1.00  0.00     0.074 A 
ATOM     37  C   UNL A   1      39.337  29.681  30.681  1.00  0.00     0.049 A 
ATOM     38  N   UNL A   1      41.227  29.308  33.006  1.00  0.00    -0.248 NA
ATOM     39  C   UNL A   1      42.117  27.450  31.908  1.00  0.00     0.031 C 
ATOM     40  C   UNL A   1      38.392  29.891  29.580  1.00  0.00     0.029 A 
ATOM     41  N   UNL A   1      39.144  30.768  31.495  1.00  0.00    -0.354 N 
ATOM     42  C   UNL A   1      42.255  28.770  33.772  1.00  0.00     0.074 A 
ATOM     43  C   UNL A   1      42.743  27.605  33.067  1.00  0.00     0.031 C 
ATOM     44  C   UNL A   1      37.721  31.034  29.789  1.00  0.00     0.029 A 
ATOM     45  C   UNL A   1      38.135  31.599  31.068  1.00  0.00     0.049 A 
ATOM     46  H   UNL A   1      39.676  30.936  32.306  1.00  0.00     0.167 HD
ATOM     47  C   UNL A   1      42.743  29.215  34.955  1.00  0.00     0.037 A 
ATOM     48  C   UNL A   1      37.575  32.669  31.663  1.00  0.00     0.037 A 
ATOM     49  C   UNL A   1      42.255  30.389  35.633  1.00  0.00     0.049 A 
ATOM     50  C   UNL A   1      38.091  33.106  33.006  1.00  0.00     0.074 A 
ATOM     51  C   UNL A   1      42.690  30.938  36.826  1.00  0.00     0.029 A 
ATOM     52  N   UNL A   1      41.220  31.195  35.177  1.00  0.00    -0.354 N 
ATOM     53  N   UNL A   1      39.059  32.586  33.725  1.00  0.00    -0.248 NA
ATOM     54  C   UNL A   1      37.441  34.269  33.622  1.00  0.00     0.031 C 
ATOM     55  C   UNL A   1      41.884  32.043  37.118  1.00  0.00     0.029 A 
ATOM     56  C   UNL A   1      40.987  32.221  36.077  1.00  0.00     0.049 A 
ATOM     57  H   UNL A   1      40.725  31.057  34.337  1.00  0.00     0.167 HD
ATOM     58  C   UNL A   1      39.150  33.375  34.866  1.00  0.00     0.074 A 
ATOM     59  C   UNL A   1      38.148  34.412  34.734  1.00  0.00     0.031 C 
ATOM     60  C   UNL A   1      39.989  33.252  35.925  1.00  0.00     0.037 A 
BRANCH  47  61
ATOM     61  C   UNL A   1      43.835  28.412  35.610  1.00  0.00     0.058 A 
ATOM     62  C   UNL A   1      43.560  27.395  36.537  1.00  0.00     0.135 A 
ATOM     63  C   UNL A   1      45.181  28.644  35.277  1.00  0.00     0.135 A 
ATOM     64  F   UNL A   1      42.294  27.142  36.907  1.00  0.00    -0.206 F 
ATOM     65  C   UNL A   1      44.578  26.656  37.132  1.00  0.00     0.059 A 
ATOM     66  C   UNL A   1      46.213  27.897  35.835  1.00  0.00     0.059 A 
ATOM     67  F   UNL A   1      45.503  29.605  34.398  1.00  0.00    -0.206 F 
ATOM     68  C   UNL A   1      45.903  26.914  36.773  1.00  0.00     0.060 A 
BRANCH  68  69
ATOM     69  S   UNL A   1      47.212  25.944  37.551  1.00  0.00     0.124 S 
ATOM     70  O   UNL A   1      46.510  24.700  37.856  1.00  0.00    -0.237 OA
ATOM     71  O   UNL A   1      48.212  25.864  36.491  1.00  0.00    -0.237 OA
ATOM     72  O   UNL A   1      47.592  26.748  38.708  1.00  0.00    -0.744 OA
ENDBRANCH  68  69
ENDBRANCH  47  61
BRANCH  48  73
ATOM     73  C   UNL A   1      36.446  33.379  31.003  1.00  0.00     0.058 A 
ATOM     74  C   UNL A   1      35.144  33.300  31.515  1.00  0.00     0.135 A 
ATOM     75  C   UNL A   1      36.651  34.164  29.857  1.00  0.00     0.135 A 
ATOM     76  F   UNL A   1      34.895  32.557  32.604  1.00  0.00    -0.206 F 
ATOM     77  C   UNL A   1      34.082  33.961  30.908  1.00  0.00     0.059 A 
ATOM     78  C   UNL A   1      35.611  34.860  29.249  1.00  0.00     0.059 A 
ATOM     79  F   UNL A   1      37.882  34.286  29.334  1.00  0.00    -0.206 F 
ATOM     80  C   UNL A   1      34.326  34.742  29.776  1.00  0.00     0.060 A 
BRANCH  80  81
ATOM     81  S   UNL A   1      32.947  35.633  29.026  1.00  0.00     0.124 S 
ATOM     82  O   UNL A   1      32.353  34.599  28.186  1.00  0.00    -0.237 OA
ATOM     83  O   UNL A   1      32.169  36.033  30.194  1.00  0.00    -0.237 OA
ATOM     84  O   UNL A   1      33.602  36.727  28.313  1.00  0.00    -0.744 OA
ENDBRANCH  80  81
ENDBRANCH  48  73
BRANCH  60  85
ATOM     85  C   UNL A   1      39.891  34.292  37.007  1.00  0.00     0.058 A 
ATOM     86  C   UNL A   1      40.451  35.570  36.860  1.00  0.00     0.135 A 
ATOM     87  C   UNL A   1      39.177  34.020  38.185  1.00  0.00     0.135 A 
ATOM     88  F   UNL A   1      41.152  35.878  35.756  1.00  0.00    -0.206 F 
ATOM     89  C   UNL A   1      40.324  36.536  37.852  1.00  0.00     0.059 A 
ATOM     90  C   UNL A   1      39.012  34.981  39.177  1.00  0.00     0.059 A 
ATOM     91  F   UNL A   1      38.614  32.816  38.373  1.00  0.00    -0.206 F 
ATOM     92  C   UNL A   1      39.598  36.233  39.005  1.00  0.00     0.060 A 
BRANCH  92  93
ATOM     93  S   UNL A   1      39.406  37.511  40.266  1.00  0.00     0.124 S 
ATOM     94  O   UNL A   1      38.708  36.782  41.320  1.00  0.00    -0.237 OA
ATOM     95  O   UNL A   1      40.789  37.875  40.554  1.00  0.00    -0.237 OA
ATOM     96  O   UNL A   1      38.621  38.540  39.590  1.00  0.00    -0.744 OA
ENDBRANCH  92  93
ENDBRANCH  60  85
ENDBRANCH  34  35
ENDBRANCH  27  29
ENDBRANCH  26  27
ENDBRANCH  25  26
ENDBRANCH   1  25
TORSDOF 20
ENDMDL
MODEL 2
REMARK VINA RESULT:     -10.9      6.993     12.454
REMARK SMILES CC(C)(C)OC(=O)N[C@H](Cc1ccc(N=[N+]=[N-])cc1)C(=O)OCCOC(=O)c1ccc(-c2c3nc(c(-c4c(F)cc(S(=O)(=O)[O-])cc4F)c4ccc([nH]4)c(-c4c(F)cc(S(=O)(=O)[O-])cc4F)c4nc(c(-c5c(F)cc(S(=O)(=O)[O-])cc5F)c5ccc2[nH]5)C=C4)C=C3)cc1
REMARK SMILES IDX 23 1 22 2 20 3 21 4 9 5 8 6 6 7 7 8 5 10 2 11 1 12 3 13 4 14
REMARK SMILES IDX 10 15 11 16 12 17 19 18 13 19 18 20 14 21 15 22 16 23 17 24
REMARK SMILES IDX 24 25 25 26 26 27 27 28 28 29 29 30 93 31 30 32 92 33 31 34
REMARK SMILES IDX 32 35 33 36 86 37 34 38 91 39 85 40 87 41 35 42 90 43 84 44
REMARK SMILES IDX 83 45 36 47 70 48 49 49 69 50 50 51 53 52 68 53 88 54 51 55
REMARK SMILES IDX 52 56 67 58 89 59 54 60 37 61 38 62 47 63 39 64 40 65 46 66
REMARK SMILES IDX 48 67 41 68 42 69 43 70 44 71 45 72 71 73 72 74 81 75 73 76
REMARK SMILES IDX 74 77 80 78 82 79 75 80 76 81 77 82 78 83 79 84 55 85 56 86
REMARK SMILES IDX 65 87 57 88 58 89 64 90 66 91 59 92 60 93 61 94 62 95 63 96
REMARK H PARENT 8 9 87 46 53 57
REMARK Flexibility Score: inf
ROOT
ATOM      1  C   UNL A   1      34.312  28.790  26.590  1.00  0.00     0.274 C 
ENDROOT
BRANCH   1   2
ATOM      2  O   UNL A   1      32.939  28.744  26.157  1.00  0.00    -0.461 OA
BRANCH   2   3
ATOM      3  C   UNL A   1      32.606  27.779  25.265  1.00  0.00     0.329 C 
ATOM      4  O   UNL A   1      33.374  27.350  24.408  1.00  0.00    -0.250 OA
BRANCH   3   5
ATOM      5  C   UNL A   1      31.149  27.294  25.395  1.00  0.00     0.199 C 
BRANCH   5   6
ATOM      6  N   UNL A   1      31.093  26.294  26.454  1.00  0.00    -0.308 N 
ATOM      7  C   UNL A   1      31.249  24.949  26.282  1.00  0.00     0.408 C 
ATOM      8  O   UNL A   1      31.041  24.181  27.211  1.00  0.00    -0.225 OA
ATOM      9  H   UNL A   1      30.928  26.615  27.369  1.00  0.00     0.168 HD
BRANCH   7  10
ATOM     10  O   UNL A   1      31.650  24.611  25.032  1.00  0.00    -0.444 OA
BRANCH  10  11
ATOM     11  C   UNL A   1      32.831  23.790  24.825  1.00  0.00     0.106 C 
ATOM     12  C   UNL A   1      33.279  24.067  23.379  1.00  0.00     0.056 C 
ATOM     13  C   UNL A   1      32.500  22.299  24.948  1.00  0.00     0.056 C 
ATOM     14  C   UNL A   1      33.963  24.212  25.769  1.00  0.00     0.056 C 
ENDBRANCH  10  11
ENDBRANCH   7  10
ENDBRANCH   5   6
BRANCH   5  15
ATOM     15  C   UNL A   1      30.397  26.906  24.110  1.00  0.00     0.072 C 
BRANCH  15  16
ATOM     16  C   UNL A   1      29.752  28.031  23.341  1.00  0.00    -0.045 A 
ATOM     17  C   UNL A   1      30.533  28.936  22.616  1.00  0.00     0.004 A 
ATOM     18  C   UNL A   1      28.364  28.188  23.347  1.00  0.00     0.004 A 
ATOM     19  C   UNL A   1      29.928  29.935  21.851  1.00  0.00     0.010 A 
ATOM     20  C   UNL A   1      27.764  29.197  22.590  1.00  0.00     0.010 A 
ATOM     21  C   UNL A   1      28.537  30.074  21.813  1.00  0.00     0.038 A 
BRANCH  21  22
ATOM     22  N   UNL A   1      28.022  31.110  21.010  1.00  0.00    -0.061 NA
ATOM     23  N   UNL A   1      28.029  32.243  21.515  1.00  0.00     0.005 N 
ATOM     24  N   UNL A   1      28.034  33.296  21.964  1.00  0.00    -0.003 NA
ENDBRANCH  21  22
ENDBRANCH  15  16
ENDBRANCH   5  15
ENDBRANCH   3   5
ENDBRANCH   2   3
ENDBRANCH   1   2
BRANCH   1  25
ATOM     25  C   UNL A   1      34.529  29.962  27.548  1.00  0.00     0.275 C 
BRANCH  25  26
ATOM     26  O   UNL A   1      35.325  29.567  28.681  1.00  0.00    -0.458 OA
BRANCH  26  27
ATOM     27  C   UNL A   1      36.273  30.461  29.046  1.00  0.00     0.338 C 
ATOM     28  O   UNL A   1      36.103  31.541  29.585  1.00  0.00    -0.246 OA
BRANCH  27  29
ATOM     29  C   UNL A   1      37.607  29.896  28.819  1.00  0.00     0.060 A 
ATOM     30  C   UNL A   1      38.383  29.561  29.929  1.00  0.00     0.016 A 
ATOM     31  C   UNL A   1      38.138  29.814  27.535  1.00  0.00     0.016 A 
ATOM     32  C   UNL A   1      39.712  29.192  29.773  1.00  0.00     0.010 A 
ATOM     33  C   UNL A   1      39.459  29.387  27.373  1.00  0.00     0.010 A 
ATOM     34  C   UNL A   1      40.261  29.091  28.492  1.00  0.00    -0.014 A 
BRANCH  34  35
ATOM     35  C   UNL A   1      41.675  28.683  28.327  1.00  0.00     0.031 A 
ATOM     36  C   UNL A   1      42.765  29.713  28.406  1.00  0.00     0.074 A 
ATOM     37  C   UNL A   1      41.971  27.388  28.104  1.00  0.00     0.049 A 
ATOM     38  N   UNL A   1      44.040  29.588  28.145  1.00  0.00    -0.248 NA
ATOM     39  C   UNL A   1      42.367  31.067  28.823  1.00  0.00     0.031 C 
ATOM     40  C   UNL A   1      40.998  26.294  28.057  1.00  0.00     0.029 A 
ATOM     41  N   UNL A   1      43.173  26.773  27.863  1.00  0.00    -0.354 N 
ATOM     42  C   UNL A   1      44.591  30.850  28.332  1.00  0.00     0.074 A 
ATOM     43  C   UNL A   1      43.508  31.732  28.714  1.00  0.00     0.031 C 
ATOM     44  C   UNL A   1      41.641  25.144  27.802  1.00  0.00     0.029 A 
ATOM     45  C   UNL A   1      43.056  25.429  27.599  1.00  0.00     0.049 A 
ATOM     46  H   UNL A   1      44.036  27.248  27.877  1.00  0.00     0.167 HD
ATOM     47  C   UNL A   1      45.884  31.231  28.199  1.00  0.00     0.037 A 
ATOM     48  C   UNL A   1      43.978  24.536  27.192  1.00  0.00     0.037 A 
ATOM     49  C   UNL A   1      46.950  30.333  27.835  1.00  0.00     0.049 A 
ATOM     50  C   UNL A   1      45.395  24.996  26.989  1.00  0.00     0.074 A 
ATOM     51  C   UNL A   1      48.298  30.611  27.690  1.00  0.00     0.029 A 
ATOM     52  N   UNL A   1      46.790  28.981  27.559  1.00  0.00    -0.354 N 
ATOM     53  N   UNL A   1      45.904  26.194  27.162  1.00  0.00    -0.248 NA
ATOM     54  C   UNL A   1      46.362  23.991  26.531  1.00  0.00     0.031 C 
ATOM     55  C   UNL A   1      48.943  29.442  27.273  1.00  0.00     0.029 A 
ATOM     56  C   UNL A   1      48.009  28.419  27.219  1.00  0.00     0.049 A 
ATOM     57  H   UNL A   1      45.934  28.495  27.598  1.00  0.00     0.167 HD
ATOM     58  C   UNL A   1      47.256  26.079  26.860  1.00  0.00     0.074 A 
ATOM     59  C   UNL A   1      47.486  24.693  26.506  1.00  0.00     0.031 C 
ATOM     60  C   UNL A   1      48.220  27.033  26.877  1.00  0.00     0.037 A 
BRANCH  47  61
ATOM     61  C   UNL A   1      46.213  32.685  28.410  1.00  0.00     0.058 A 
ATOM     62  C   UNL A   1      46.186  33.616  27.361  1.00  0.00     0.135 A 
ATOM     63  C   UNL A   1      46.528  33.160  29.695  1.00  0.00     0.135 A 
ATOM     64  F   UNL A   1      45.909  33.216  26.109  1.00  0.00    -0.206 F 
ATOM     65  C   UNL A   1      46.486  34.959  27.569  1.00  0.00     0.059 A 
ATOM     66  C   UNL A   1      46.802  34.502  29.933  1.00  0.00     0.059 A 
ATOM     67  F   UNL A   1      46.571  32.313  30.736  1.00  0.00    -0.206 F 
ATOM     68  C   UNL A   1      46.793  35.393  28.861  1.00  0.00     0.060 A 
BRANCH  68  69
ATOM     69  S   UNL A   1      47.177  37.138  29.116  1.00  0.00     0.124 S 
ATOM     70  O   UNL A   1      47.731  37.507  27.817  1.00  0.00    -0.237 OA
ATOM     71  O   UNL A   1      45.868  37.703  29.430  1.00  0.00    -0.237 OA
ATOM     72  O   UNL A   1      48.130  37.121  30.221  1.00  0.00    -0.744 OA
ENDBRANCH  68  69
ENDBRANCH  47  61
BRANCH  48  73
ATOM     73  C   UNL A   1      43.579  23.127  26.925  1.00  0.00     0.058 A 
ATOM     74  C   UNL A   1      43.256  22.255  27.973  1.00  0.00     0.135 A 
ATOM     75  C   UNL A   1      43.496  22.631  25.614  1.00  0.00     0.135 A 
ATOM     76  F   UNL A   1      43.327  22.680  29.244  1.00  0.00    -0.206 F 
ATOM     77  C   UNL A   1      42.880  20.938  27.735  1.00  0.00     0.059 A 
ATOM     78  C   UNL A   1      43.093  21.327  25.348  1.00  0.00     0.059 A 
ATOM     79  F   UNL A   1      43.781  23.429  24.572  1.00  0.00    -0.206 F 
ATOM     80  C   UNL A   1      42.797  20.484  26.417  1.00  0.00     0.060 A 
BRANCH  80  81
ATOM     81  S   UNL A   1      42.262  18.785  26.120  1.00  0.00     0.124 S 
ATOM     82  O   UNL A   1      43.200  18.359  25.087  1.00  0.00    -0.237 OA
ATOM     83  O   UNL A   1      42.439  18.175  27.434  1.00  0.00    -0.237 OA
ATOM     84  O   UNL A   1      40.876  18.941  25.689  1.00  0.00    -0.744 OA
ENDBRANCH  80  81
ENDBRANCH  48  73
BRANCH  60  85
ATOM     85  C   UNL A   1      49.622  26.604  26.545  1.00  0.00     0.058 A 
ATOM     86  C   UNL A   1      50.481  26.063  27.515  1.00  0.00     0.135 A 
ATOM     87  C   UNL A   1      50.093  26.685  25.225  1.00  0.00     0.135 A 
ATOM     88  F   UNL A   1      50.084  25.973  28.795  1.00  0.00    -0.206 F 
ATOM     89  C   UNL A   1      51.764  25.636  27.190  1.00  0.00     0.059 A 
ATOM     90  C   UNL A   1      51.361  26.236  24.872  1.00  0.00     0.059 A 
ATOM     91  F   UNL A   1      49.308  27.187  24.257  1.00  0.00    -0.206 F 
ATOM     92  C   UNL A   1      52.193  25.723  25.864  1.00  0.00     0.060 A 
BRANCH  92  93
ATOM     93  S   UNL A   1      53.845  25.125  25.450  1.00  0.00     0.124 S 
ATOM     94  O   UNL A   1      54.060  25.736  24.142  1.00  0.00    -0.237 OA
ATOM     95  O   UNL A   1      54.653  25.660  26.541  1.00  0.00    -0.237 OA
ATOM     96  O   UNL A   1      53.691  23.673  25.445  1.00  0.00    -0.744 OA
ENDBRANCH  92  93
ENDBRANCH  60  85
ENDBRANCH  34  35
ENDBRANCH  27  29
ENDBRANCH  26  27
ENDBRANCH  25  26
ENDBRANCH   1  25
TORSDOF 20
ENDMDL
MODEL 3
REMARK VINA RESULT:     -10.8      1.547      3.135
REMARK SMILES CC(C)(C)OC(=O)N[C@H](Cc1ccc(N=[N+]=[N-])cc1)C(=O)OCCOC(=O)c1ccc(-c2c3nc(c(-c4c(F)cc(S(=O)(=O)[O-])cc4F)c4ccc([nH]4)c(-c4c(F)cc(S(=O)(=O)[O-])cc4F)c4nc(c(-c5c(F)cc(S(=O)(=O)[O-])cc5F)c5ccc2[nH]5)C=C4)C=C3)cc1
REMARK SMILES IDX 23 1 22 2 20 3 21 4 9 5 8 6 6 7 7 8 5 10 2 11 1 12 3 13 4 14
REMARK SMILES IDX 10 15 11 16 12 17 19 18 13 19 18 20 14 21 15 22 16 23 17 24
REMARK SMILES IDX 24 25 25 26 26 27 27 28 28 29 29 30 93 31 30 32 92 33 31 34
REMARK SMILES IDX 32 35 33 36 86 37 34 38 91 39 85 40 87 41 35 42 90 43 84 44
REMARK SMILES IDX 83 45 36 47 70 48 49 49 69 50 50 51 53 52 68 53 88 54 51 55
REMARK SMILES IDX 52 56 67 58 89 59 54 60 37 61 38 62 47 63 39 64 40 65 46 66
REMARK SMILES IDX 48 67 41 68 42 69 43 70 44 71 45 72 71 73 72 74 81 75 73 76
REMARK SMILES IDX 74 77 80 78 82 79 75 80 76 81 77 82 78 83 79 84 55 85 56 86
REMARK SMILES IDX 65 87 57 88 58 89 64 90 66 91 59 92 60 93 61 94 62 95 63 96
REMARK H PARENT 8 9 87 46 53 57
REMARK Flexibility Score: inf
ROOT
ATOM      1  C   UNL A   1      37.386  23.610  26.117  1.00  0.00     0.274 C 
ENDROOT
BRANCH   1   2
ATOM      2  O   UNL A   1      36.715  23.332  24.872  1.00  0.00    -0.461 OA
BRANCH   2   3
ATOM      3  C   UNL A   1      35.869  22.273  24.852  1.00  0.00     0.329 C 
ATOM      4  O   UNL A   1      36.195  21.136  25.176  1.00  0.00    -0.250 OA
BRANCH   3   5
ATOM      5  C   UNL A   1      34.458  22.620  24.337  1.00  0.00     0.199 C 
BRANCH   5   6
ATOM      6  N   UNL A   1      33.617  21.439  24.479  1.00  0.00    -0.308 N 
ATOM      7  C   UNL A   1      32.346  21.426  24.978  1.00  0.00     0.408 C 
ATOM      8  O   UNL A   1      31.779  20.364  25.189  1.00  0.00    -0.225 OA
ATOM      9  H   UNL A   1      33.996  20.578  24.190  1.00  0.00     0.168 HD
BRANCH   7  10
ATOM     10  O   UNL A   1      31.838  22.666  25.179  1.00  0.00    -0.444 OA
BRANCH  10  11
ATOM     11  C   UNL A   1      31.527  23.134  26.520  1.00  0.00     0.106 C 
ATOM     12  C   UNL A   1      31.674  24.665  26.467  1.00  0.00     0.056 C 
ATOM     13  C   UNL A   1      32.530  22.591  27.544  1.00  0.00     0.056 C 
ATOM     14  C   UNL A   1      30.078  22.802  26.894  1.00  0.00     0.056 C 
ENDBRANCH  10  11
ENDBRANCH   7  10
ENDBRANCH   5   6
BRANCH   5  15
ATOM     15  C   UNL A   1      34.337  23.332  22.979  1.00  0.00     0.072 C 
BRANCH  15  16
ATOM     16  C   UNL A   1      33.780  24.732  22.999  1.00  0.00    -0.045 A 
ATOM     17  C   UNL A   1      32.941  25.179  21.973  1.00  0.00     0.004 A 
ATOM     18  C   UNL A   1      34.098  25.606  24.040  1.00  0.00     0.004 A 
ATOM     19  C   UNL A   1      32.373  26.452  22.030  1.00  0.00     0.010 A 
ATOM     20  C   UNL A   1      33.538  26.885  24.086  1.00  0.00     0.010 A 
ATOM     21  C   UNL A   1      32.649  27.320  23.091  1.00  0.00     0.038 A 
BRANCH  21  22
ATOM     22  N   UNL A   1      32.025  28.583  23.059  1.00  0.00    -0.061 NA
ATOM     23  N   UNL A   1      30.920  28.629  22.498  1.00  0.00     0.005 N 
ATOM     24  N   UNL A   1      29.896  28.687  21.989  1.00  0.00    -0.003 NA
ENDBRANCH  21  22
ENDBRANCH  15  16
ENDBRANCH   5  15
ENDBRANCH   3   5
ENDBRANCH   2   3
ENDBRANCH   1   2
BRANCH   1  25
ATOM     25  C   UNL A   1      38.771  22.963  26.131  1.00  0.00     0.275 C 
BRANCH  25  26
ATOM     26  O   UNL A   1      39.572  23.471  27.214  1.00  0.00    -0.458 OA
BRANCH  26  27
ATOM     27  C   UNL A   1      40.424  24.465  26.870  1.00  0.00     0.338 C 
ATOM     28  O   UNL A   1      40.972  24.629  25.794  1.00  0.00    -0.246 OA
BRANCH  27  29
ATOM     29  C   UNL A   1      40.520  25.441  27.960  1.00  0.00     0.060 A 
ATOM     30  C   UNL A   1      39.384  25.688  28.731  1.00  0.00     0.016 A 
ATOM     31  C   UNL A   1      41.675  26.197  28.140  1.00  0.00     0.016 A 
ATOM     32  C   UNL A   1      39.371  26.726  29.652  1.00  0.00     0.010 A 
ATOM     33  C   UNL A   1      41.682  27.205  29.109  1.00  0.00     0.010 A 
ATOM     34  C   UNL A   1      40.524  27.488  29.859  1.00  0.00    -0.014 A 
BRANCH  34  35
ATOM     35  C   UNL A   1      40.512  28.586  30.853  1.00  0.00     0.031 A 
ATOM     36  C   UNL A   1      41.444  28.539  32.031  1.00  0.00     0.074 A 
ATOM     37  C   UNL A   1      39.661  29.617  30.694  1.00  0.00     0.049 A 
ATOM     38  N   UNL A   1      41.487  29.317  33.080  1.00  0.00    -0.248 NA
ATOM     39  C   UNL A   1      42.454  27.469  32.032  1.00  0.00     0.031 C 
ATOM     40  C   UNL A   1      38.745  29.792  29.563  1.00  0.00     0.029 A 
ATOM     41  N   UNL A   1      39.417  30.708  31.489  1.00  0.00    -0.354 N 
ATOM     42  C   UNL A   1      42.503  28.813  33.884  1.00  0.00     0.074 A 
ATOM     43  C   UNL A   1      43.041  27.652  33.207  1.00  0.00     0.031 C 
ATOM     44  C   UNL A   1      38.041  30.920  29.737  1.00  0.00     0.029 A 
ATOM     45  C   UNL A   1      38.402  31.510  31.021  1.00  0.00     0.049 A 
ATOM     46  H   UNL A   1      39.919  30.899  32.314  1.00  0.00     0.167 HD
ATOM     47  C   UNL A   1      42.944  29.282  35.075  1.00  0.00     0.037 A 
ATOM     48  C   UNL A   1      37.798  32.572  31.586  1.00  0.00     0.037 A 
ATOM     49  C   UNL A   1      42.407  30.452  35.723  1.00  0.00     0.049 A 
ATOM     50  C   UNL A   1      38.262  33.037  32.939  1.00  0.00     0.074 A 
ATOM     51  C   UNL A   1      42.792  31.025  36.923  1.00  0.00     0.029 A 
ATOM     52  N   UNL A   1      41.367  31.227  35.227  1.00  0.00    -0.354 N 
ATOM     53  N   UNL A   1      39.220  32.549  33.693  1.00  0.00    -0.248 NA
ATOM     54  C   UNL A   1      37.565  34.190  33.521  1.00  0.00     0.031 C 
ATOM     55  C   UNL A   1      41.951  32.113  37.177  1.00  0.00     0.029 A 
ATOM     56  C   UNL A   1      41.082  32.258  36.107  1.00  0.00     0.049 A 
ATOM     57  H   UNL A   1      40.902  31.068  34.374  1.00  0.00     0.167 HD
ATOM     58  C   UNL A   1      39.256  33.352  34.827  1.00  0.00     0.074 A 
ATOM     59  C   UNL A   1      38.234  34.363  34.652  1.00  0.00     0.031 C 
ATOM     60  C   UNL A   1      40.065  33.262  35.912  1.00  0.00     0.037 A 
BRANCH  47  61
ATOM     61  C   UNL A   1      44.035  28.514  35.773  1.00  0.00     0.058 A 
ATOM     62  C   UNL A   1      43.756  27.460  36.656  1.00  0.00     0.135 A 
ATOM     63  C   UNL A   1      45.384  28.819  35.525  1.00  0.00     0.135 A 
ATOM     64  F   UNL A   1      42.485  27.136  36.944  1.00  0.00    -0.206 F 
ATOM     65  C   UNL A   1      44.773  26.753  37.290  1.00  0.00     0.059 A 
ATOM     66  C   UNL A   1      46.418  28.106  36.124  1.00  0.00     0.059 A 
ATOM     67  F   UNL A   1      45.709  29.819  34.691  1.00  0.00    -0.206 F 
ATOM     68  C   UNL A   1      46.103  27.083  37.017  1.00  0.00     0.060 A 
BRANCH  68  69
ATOM     69  S   UNL A   1      47.410  26.154  37.845  1.00  0.00     0.124 S 
ATOM     70  O   UNL A   1      47.157  24.801  37.360  1.00  0.00    -0.237 OA
ATOM     71  O   UNL A   1      48.618  26.795  37.336  1.00  0.00    -0.237 OA
ATOM     72  O   UNL A   1      47.139  26.372  39.263  1.00  0.00    -0.744 OA
ENDBRANCH  68  69
ENDBRANCH  47  61
BRANCH  48  73
ATOM     73  C   UNL A   1      36.673  33.246  30.883  1.00  0.00     0.058 A 
ATOM     74  C   UNL A   1      35.344  33.032  31.273  1.00  0.00     0.135 A 
ATOM     75  C   UNL A   1      36.906  34.133  29.819  1.00  0.00     0.135 A 
ATOM     76  F   UNL A   1      35.068  32.189  32.280  1.00  0.00    -0.206 F 
ATOM     77  C   UNL A   1      34.285  33.659  30.626  1.00  0.00     0.059 A 
ATOM     78  C   UNL A   1      35.867  34.795  29.175  1.00  0.00     0.059 A 
ATOM     79  F   UNL A   1      38.162  34.385  29.416  1.00  0.00    -0.206 F 
ATOM     80  C   UNL A   1      34.557  34.543  29.579  1.00  0.00     0.060 A 
BRANCH  80  81
ATOM     81  S   UNL A   1      33.177  35.386  28.778  1.00  0.00     0.124 S 
ATOM     82  O   UNL A   1      32.450  35.915  29.926  1.00  0.00    -0.237 OA
ATOM     83  O   UNL A   1      33.862  36.370  27.946  1.00  0.00    -0.237 OA
ATOM     84  O   UNL A   1      32.507  34.314  28.047  1.00  0.00    -0.744 OA
ENDBRANCH  80  81
ENDBRANCH  48  73
BRANCH  60  85
ATOM     85  C   UNL A   1      39.908  34.311  36.978  1.00  0.00     0.058 A 
ATOM     86  C   UNL A   1      40.530  35.565  36.880  1.00  0.00     0.135 A 
ATOM     87  C   UNL A   1      39.079  34.074  38.087  1.00  0.00     0.135 A 
ATOM     88  F   UNL A   1      41.341  35.839  35.846  1.00  0.00    -0.206 F 
ATOM     89  C   UNL A   1      40.350  36.541  37.854  1.00  0.00     0.059 A 
ATOM     90  C   UNL A   1      38.861  35.046  39.057  1.00  0.00     0.059 A 
ATOM     91  F   UNL A   1      38.454  32.893  38.224  1.00  0.00    -0.206 F 
ATOM     92  C   UNL A   1      39.510  36.274  38.937  1.00  0.00     0.060 A 
BRANCH  92  93
ATOM     93  S   UNL A   1      39.252  37.566  40.171  1.00  0.00     0.124 S 
ATOM     94  O   UNL A   1      38.900  36.781  41.350  1.00  0.00    -0.237 OA
ATOM     95  O   UNL A   1      40.555  38.222  40.212  1.00  0.00    -0.237 OA
ATOM     96  O   UNL A   1      38.171  38.366  39.605  1.00  0.00    -0.744 OA
ENDBRANCH  92  93
ENDBRANCH  60  85
ENDBRANCH  34  35
ENDBRANCH  27  29
ENDBRANCH  26  27
ENDBRANCH  25  26
ENDBRANCH   1  25
TORSDOF 20
ENDMDL
