MODEL 1
REMARK VINA RESULT:     -10.8      0.000      0.000
REMARK SMILES O=C(OCCOC(=O)[C@@H]1C=C[C@H](NS(=O)(=O)c2ccc(Cl)cc2)C1)c1ccc(-c2c3nc(c(-c4c(F)cc(S(=O)(=O)[O-])cc4F)c4ccc([nH]4)c(-c4c(F)cc(S(=O)(=O)[O-])cc4F)c4nc(c(-c5c(F)cc(S(=O)(=O)[O-])cc5F)c5ccc2[nH]5)C=C4)C=C3)cc1
REMARK SMILES IDX 4 1 3 2 2 3 1 4 25 5 26 6 90 7 27 8 89 9 28 10 29 11 30 12
REMARK SMILES IDX 83 13 31 14 88 15 82 16 84 17 32 18 87 19 81 20 80 21 33 23
REMARK SMILES IDX 67 24 46 25 66 26 47 27 50 28 65 29 85 30 48 31 49 32 64 34
REMARK SMILES IDX 86 35 51 36 34 37 35 38 44 39 36 40 37 41 43 42 45 43 38 44
REMARK SMILES IDX 39 45 40 46 41 47 42 48 68 49 69 50 78 51 70 52 71 53 77 54
REMARK SMILES IDX 79 55 72 56 73 57 74 58 75 59 76 60 52 61 53 62 62 63 54 64
REMARK SMILES IDX 55 65 61 66 63 67 56 68 57 69 58 70 59 71 60 72 5 73 6 74
REMARK SMILES IDX 7 75 8 76 9 77 10 78 24 79 11 80 12 81 13 82 14 84 15 85
REMARK SMILES IDX 16 86 17 87 18 88 23 89 19 90 22 91 20 92 21 93
REMARK H PARENT 84 22 50 33 13 83
REMARK Flexibility Score: inf
ROOT
ATOM      1  C   UNL A   1      34.335  33.025  28.268  1.00  0.00     0.275 C 
ENDROOT
BRANCH   1   2
ATOM      2  O   UNL A   1      33.791  31.779  27.811  1.00  0.00    -0.458 OA
BRANCH   2   3
ATOM      3  C   UNL A   1      34.439  30.623  27.525  1.00  0.00     0.338 C 
ATOM      4  O   UNL A   1      33.891  29.810  26.783  1.00  0.00    -0.246 OA
BRANCH   3   5
ATOM      5  C   UNL A   1      35.734  30.224  28.169  1.00  0.00     0.060 A 
ATOM      6  C   UNL A   1      35.886  29.659  29.439  1.00  0.00     0.016 A 
ATOM      7  C   UNL A   1      36.899  30.436  27.411  1.00  0.00     0.016 A 
ATOM      8  C   UNL A   1      37.126  29.218  29.899  1.00  0.00     0.010 A 
ATOM      9  C   UNL A   1      38.153  30.011  27.874  1.00  0.00     0.010 A 
ATOM     10  C   UNL A   1      38.266  29.367  29.114  1.00  0.00    -0.014 A 
BRANCH  10  11
ATOM     11  C   UNL A   1      39.573  28.981  29.691  1.00  0.00     0.031 A 
ATOM     12  C   UNL A   1      39.995  29.670  30.953  1.00  0.00     0.074 A 
ATOM     13  C   UNL A   1      40.302  27.970  29.169  1.00  0.00     0.049 A 
ATOM     14  N   UNL A   1      41.047  29.459  31.695  1.00  0.00    -0.248 NA
ATOM     15  C   UNL A   1      39.106  30.735  31.449  1.00  0.00     0.031 C 
ATOM     16  C   UNL A   1      39.954  27.207  27.969  1.00  0.00     0.029 A 
ATOM     17  N   UNL A   1      41.474  27.393  29.589  1.00  0.00    -0.354 N 
ATOM     18  C   UNL A   1      40.939  30.360  32.744  1.00  0.00     0.074 A 
ATOM     19  C   UNL A   1      39.764  31.165  32.511  1.00  0.00     0.031 C 
ATOM     20  C   UNL A   1      40.882  26.256  27.757  1.00  0.00     0.029 A 
ATOM     21  C   UNL A   1      41.903  26.350  28.795  1.00  0.00     0.049 A 
ATOM     22  H   UNL A   1      41.964  27.695  30.387  1.00  0.00     0.167 HD
ATOM     23  C   UNL A   1      41.729  30.479  33.833  1.00  0.00     0.037 A 
ATOM     24  C   UNL A   1      42.993  25.563  28.903  1.00  0.00     0.037 A 
ATOM     25  C   UNL A   1      42.892  29.669  34.057  1.00  0.00     0.049 A 
ATOM     26  C   UNL A   1      43.909  25.778  30.085  1.00  0.00     0.074 A 
ATOM     27  C   UNL A   1      43.784  29.719  35.109  1.00  0.00     0.029 A 
ATOM     28  N   UNL A   1      43.321  28.660  33.206  1.00  0.00    -0.354 N 
ATOM     29  N   UNL A   1      43.780  26.622  31.083  1.00  0.00    -0.248 NA
ATOM     30  C   UNL A   1      45.109  24.936  30.164  1.00  0.00     0.031 C 
ATOM     31  C   UNL A   1      44.785  28.774  34.868  1.00  0.00     0.029 A 
ATOM     32  C   UNL A   1      44.482  28.094  33.697  1.00  0.00     0.049 A 
ATOM     33  H   UNL A   1      42.868  28.389  32.375  1.00  0.00     0.167 HD
ATOM     34  C   UNL A   1      44.863  26.389  31.923  1.00  0.00     0.074 A 
ATOM     35  C   UNL A   1      45.625  25.312  31.326  1.00  0.00     0.031 C 
ATOM     36  C   UNL A   1      45.205  27.009  33.081  1.00  0.00     0.037 A 
BRANCH  23  37
ATOM     37  C   UNL A   1      41.358  31.536  34.829  1.00  0.00     0.058 A 
ATOM     38  C   UNL A   1      40.434  31.287  35.858  1.00  0.00     0.135 A 
ATOM     39  C   UNL A   1      41.907  32.823  34.733  1.00  0.00     0.135 A 
ATOM     40  F   UNL A   1      39.847  30.084  35.964  1.00  0.00    -0.206 F 
ATOM     41  C   UNL A   1      40.050  32.286  36.744  1.00  0.00     0.059 A 
ATOM     42  C   UNL A   1      41.559  33.829  35.628  1.00  0.00     0.059 A 
ATOM     43  F   UNL A   1      42.777  33.117  33.754  1.00  0.00    -0.206 F 
ATOM     44  C   UNL A   1      40.622  33.554  36.623  1.00  0.00     0.060 A 
BRANCH  44  45
ATOM     45  S   UNL A   1      40.126  34.833  37.793  1.00  0.00     0.124 S 
ATOM     46  O   UNL A   1      39.761  35.925  36.896  1.00  0.00    -0.237 OA
ATOM     47  O   UNL A   1      39.019  34.194  38.497  1.00  0.00    -0.237 OA
ATOM     48  O   UNL A   1      41.330  35.051  38.589  1.00  0.00    -0.744 OA
ENDBRANCH  44  45
ENDBRANCH  23  37
BRANCH  24  49
ATOM     49  C   UNL A   1      43.302  24.515  27.884  1.00  0.00     0.058 A 
ATOM     50  C   UNL A   1      42.841  23.194  28.022  1.00  0.00     0.135 A 
ATOM     51  C   UNL A   1      44.119  24.796  26.777  1.00  0.00     0.135 A 
ATOM     52  F   UNL A   1      42.062  22.862  29.064  1.00  0.00    -0.206 F 
ATOM     53  C   UNL A   1      43.208  22.189  27.129  1.00  0.00     0.059 A 
ATOM     54  C   UNL A   1      44.476  23.815  25.853  1.00  0.00     0.059 A 
ATOM     55  F   UNL A   1      44.580  26.041  26.581  1.00  0.00    -0.206 F 
ATOM     56  C   UNL A   1      44.031  22.509  26.048  1.00  0.00     0.060 A 
BRANCH  56  57
ATOM     57  S   UNL A   1      44.496  21.202  24.890  1.00  0.00     0.124 S 
ATOM     58  O   UNL A   1      45.819  20.831  25.380  1.00  0.00    -0.237 OA
ATOM     59  O   UNL A   1      43.439  20.218  25.100  1.00  0.00    -0.237 OA
ATOM     60  O   UNL A   1      44.467  21.876  23.596  1.00  0.00    -0.744 OA
ENDBRANCH  56  57
ENDBRANCH  24  49
BRANCH  36  61
ATOM     61  C   UNL A   1      46.431  26.513  33.794  1.00  0.00     0.058 A 
ATOM     62  C   UNL A   1      46.368  25.477  34.736  1.00  0.00     0.135 A 
ATOM     63  C   UNL A   1      47.694  27.036  33.472  1.00  0.00     0.135 A 
ATOM     64  F   UNL A   1      45.183  24.946  35.080  1.00  0.00    -0.206 F 
ATOM     65  C   UNL A   1      47.513  24.992  35.356  1.00  0.00     0.059 A 
ATOM     66  C   UNL A   1      48.856  26.543  34.053  1.00  0.00     0.059 A 
ATOM     67  F   UNL A   1      47.809  28.018  32.564  1.00  0.00    -0.206 F 
ATOM     68  C   UNL A   1      48.753  25.529  35.005  1.00  0.00     0.060 A 
BRANCH  68  69
ATOM     69  S   UNL A   1      50.234  24.864  35.790  1.00  0.00     0.124 S 
ATOM     70  O   UNL A   1      50.263  25.613  37.041  1.00  0.00    -0.237 OA
ATOM     71  O   UNL A   1      49.914  23.445  35.907  1.00  0.00    -0.237 OA
ATOM     72  O   UNL A   1      51.296  25.185  34.841  1.00  0.00    -0.744 OA
ENDBRANCH  68  69
ENDBRANCH  36  61
ENDBRANCH  10  11
ENDBRANCH   3   5
ENDBRANCH   2   3
ENDBRANCH   1   2
BRANCH   1  73
ATOM     73  C   UNL A   1      33.286  34.127  28.428  1.00  0.00     0.274 C 
BRANCH  73  74
ATOM     74  O   UNL A   1      33.174  34.666  29.758  1.00  0.00    -0.462 OA
BRANCH  74  75
ATOM     75  C   UNL A   1      33.024  36.020  29.862  1.00  0.00     0.312 C 
ATOM     76  O   UNL A   1      33.296  36.825  28.978  1.00  0.00    -0.252 OA
BRANCH  75  77
ATOM     77  C   UNL A   1      32.557  36.418  31.266  1.00  0.00     0.123 C 
ATOM     78  C   UNL A   1      33.305  37.555  31.877  1.00  0.00    -0.015 C 
ATOM     79  C   UNL A   1      32.885  35.313  32.286  1.00  0.00     0.043 C 
ATOM     80  C   UNL A   1      34.228  37.164  32.758  1.00  0.00    -0.011 C 
ATOM     81  C   UNL A   1      34.261  35.688  32.885  1.00  0.00     0.093 C 
BRANCH  81  82
ATOM     82  N   UNL A   1      35.344  35.051  32.116  1.00  0.00    -0.204 NA
ATOM     83  H   UNL A   1      35.810  35.802  31.608  1.00  0.00     0.142 HD
BRANCH  82  84
ATOM     84  S   UNL A   1      36.574  34.145  32.841  1.00  0.00     0.241 S 
ATOM     85  O   UNL A   1      36.907  34.815  34.082  1.00  0.00    -0.207 OA
ATOM     86  O   UNL A   1      36.151  32.764  32.833  1.00  0.00    -0.207 OA
BRANCH  84  87
ATOM     87  C   UNL A   1      38.005  34.271  31.799  1.00  0.00     0.082 A 
ATOM     88  C   UNL A   1      37.892  34.164  30.411  1.00  0.00     0.023 A 
ATOM     89  C   UNL A   1      39.252  34.492  32.399  1.00  0.00     0.023 A 
ATOM     90  C   UNL A   1      39.040  34.267  29.621  1.00  0.00     0.022 A 
ATOM     91  C   UNL A   1      40.393  34.613  31.603  1.00  0.00     0.022 A 
ATOM     92  C   UNL A   1      40.281  34.498  30.218  1.00  0.00     0.041 A 
ATOM     93  Cl  UNL A   1      41.685  34.654  29.235  1.00  0.00    -0.084 Cl
ENDBRANCH  84  87
ENDBRANCH  82  84
ENDBRANCH  81  82
ENDBRANCH  75  77
ENDBRANCH  74  75
ENDBRANCH  73  74
ENDBRANCH   1  73
TORSDOF 17
ENDMDL
MODEL 2
REMARK VINA RESULT:     -10.7      4.385     12.761
REMARK SMILES O=C(OCCOC(=O)[C@@H]1C=C[C@H](NS(=O)(=O)c2ccc(Cl)cc2)C1)c1ccc(-c2c3nc(c(-c4c(F)cc(S(=O)(=O)[O-])cc4F)c4ccc([nH]4)c(-c4c(F)cc(S(=O)(=O)[O-])cc4F)c4nc(c(-c5c(F)cc(S(=O)(=O)[O-])cc5F)c5ccc2[nH]5)C=C4)C=C3)cc1
REMARK SMILES IDX 4 1 3 2 2 3 1 4 25 5 26 6 90 7 27 8 89 9 28 10 29 11 30 12
REMARK SMILES IDX 83 13 31 14 88 15 82 16 84 17 32 18 87 19 81 20 80 21 33 23
REMARK SMILES IDX 67 24 46 25 66 26 47 27 50 28 65 29 85 30 48 31 49 32 64 34
REMARK SMILES IDX 86 35 51 36 34 37 35 38 44 39 36 40 37 41 43 42 45 43 38 44
REMARK SMILES IDX 39 45 40 46 41 47 42 48 68 49 69 50 78 51 70 52 71 53 77 54
REMARK SMILES IDX 79 55 72 56 73 57 74 58 75 59 76 60 52 61 53 62 62 63 54 64
REMARK SMILES IDX 55 65 61 66 63 67 56 68 57 69 58 70 59 71 60 72 5 73 6 74
REMARK SMILES IDX 7 75 8 76 9 77 10 78 24 79 11 80 12 81 13 82 14 84 15 85
REMARK SMILES IDX 16 86 17 87 18 88 23 89 19 90 22 91 20 92 21 93
REMARK H PARENT 84 22 50 33 13 83
REMARK Flexibility Score: inf
ROOT
ATOM      1  C   UNL A   1      40.595  21.303  26.657  1.00  0.00     0.275 C 
ENDROOT
BRANCH   1   2
ATOM      2  O   UNL A   1      39.371  21.708  26.029  1.00  0.00    -0.458 OA
BRANCH   2   3
ATOM      3  C   UNL A   1      38.690  22.872  26.167  1.00  0.00     0.338 C 
ATOM      4  O   UNL A   1      37.530  22.925  25.760  1.00  0.00    -0.246 OA
BRANCH   3   5
ATOM      5  C   UNL A   1      39.317  24.137  26.671  1.00  0.00     0.060 A 
ATOM      6  C   UNL A   1      40.042  25.061  25.912  1.00  0.00     0.016 A 
ATOM      7  C   UNL A   1      39.146  24.416  28.039  1.00  0.00     0.016 A 
ATOM      8  C   UNL A   1      40.486  26.265  26.455  1.00  0.00     0.010 A 
ATOM      9  C   UNL A   1      39.605  25.618  28.598  1.00  0.00     0.010 A 
ATOM     10  C   UNL A   1      40.252  26.566  27.794  1.00  0.00    -0.014 A 
BRANCH  10  11
ATOM     11  C   UNL A   1      40.836  27.809  28.349  1.00  0.00     0.031 A 
ATOM     12  C   UNL A   1      42.319  27.985  28.219  1.00  0.00     0.074 A 
ATOM     13  C   UNL A   1      40.056  28.793  28.846  1.00  0.00     0.049 A 
ATOM     14  N   UNL A   1      43.059  29.007  28.548  1.00  0.00    -0.248 NA
ATOM     15  C   UNL A   1      43.066  26.858  27.632  1.00  0.00     0.031 C 
ATOM     16  C   UNL A   1      38.599  28.735  28.973  1.00  0.00     0.029 A 
ATOM     17  N   UNL A   1      40.371  30.043  29.317  1.00  0.00    -0.354 N 
ATOM     18  C   UNL A   1      44.353  28.647  28.200  1.00  0.00     0.074 A 
ATOM     19  C   UNL A   1      44.311  27.293  27.703  1.00  0.00     0.031 C 
ATOM     20  C   UNL A   1      38.146  29.898  29.475  1.00  0.00     0.029 A 
ATOM     21  C   UNL A   1      39.280  30.782  29.722  1.00  0.00     0.049 A 
ATOM     22  H   UNL A   1      41.294  30.382  29.361  1.00  0.00     0.167 HD
ATOM     23  C   UNL A   1      45.475  29.397  28.252  1.00  0.00     0.037 A 
ATOM     24  C   UNL A   1      39.213  32.030  30.230  1.00  0.00     0.037 A 
ATOM     25  C   UNL A   1      45.503  30.744  28.744  1.00  0.00     0.049 A 
ATOM     26  C   UNL A   1      40.497  32.814  30.359  1.00  0.00     0.074 A 
ATOM     27  C   UNL A   1      46.586  31.590  28.870  1.00  0.00     0.029 A 
ATOM     28  N   UNL A   1      44.388  31.439  29.192  1.00  0.00    -0.354 N 
ATOM     29  N   UNL A   1      41.713  32.465  30.004  1.00  0.00    -0.248 NA
ATOM     30  C   UNL A   1      40.407  34.156  30.948  1.00  0.00     0.031 C 
ATOM     31  C   UNL A   1      46.135  32.782  29.445  1.00  0.00     0.029 A 
ATOM     32  C   UNL A   1      44.761  32.699  29.619  1.00  0.00     0.049 A 
ATOM     33  H   UNL A   1      43.469  31.086  29.205  1.00  0.00     0.167 HD
ATOM     34  C   UNL A   1      42.524  33.557  30.297  1.00  0.00     0.074 A 
ATOM     35  C   UNL A   1      41.657  34.583  30.838  1.00  0.00     0.031 C 
ATOM     36  C   UNL A   1      43.864  33.701  30.139  1.00  0.00     0.037 A 
BRANCH  23  37
ATOM     37  C   UNL A   1      46.745  28.751  27.787  1.00  0.00     0.058 A 
ATOM     38  C   UNL A   1      47.162  28.827  26.447  1.00  0.00     0.135 A 
ATOM     39  C   UNL A   1      47.536  28.017  28.682  1.00  0.00     0.135 A 
ATOM     40  F   UNL A   1      46.415  29.481  25.541  1.00  0.00    -0.206 F 
ATOM     41  C   UNL A   1      48.310  28.179  26.007  1.00  0.00     0.059 A 
ATOM     42  C   UNL A   1      48.705  27.385  28.270  1.00  0.00     0.059 A 
ATOM     43  F   UNL A   1      47.168  27.895  29.967  1.00  0.00    -0.206 F 
ATOM     44  C   UNL A   1      49.077  27.463  26.928  1.00  0.00     0.060 A 
BRANCH  44  45
ATOM     45  S   UNL A   1      50.574  26.644  26.344  1.00  0.00     0.124 S 
ATOM     46  O   UNL A   1      50.275  26.465  24.927  1.00  0.00    -0.237 OA
ATOM     47  O   UNL A   1      51.605  27.629  26.655  1.00  0.00    -0.237 OA
ATOM     48  O   UNL A   1      50.621  25.418  27.135  1.00  0.00    -0.744 OA
ENDBRANCH  44  45
ENDBRANCH  23  37
BRANCH  24  49
ATOM     49  C   UNL A   1      37.913  32.626  30.663  1.00  0.00     0.058 A 
ATOM     50  C   UNL A   1      37.077  33.308  29.762  1.00  0.00     0.135 A 
ATOM     51  C   UNL A   1      37.504  32.580  32.007  1.00  0.00     0.135 A 
ATOM     52  F   UNL A   1      37.417  33.392  28.467  1.00  0.00    -0.206 F 
ATOM     53  C   UNL A   1      35.913  33.952  30.180  1.00  0.00     0.059 A 
ATOM     54  C   UNL A   1      36.330  33.190  32.444  1.00  0.00     0.059 A 
ATOM     55  F   UNL A   1      38.251  31.932  32.914  1.00  0.00    -0.206 F 
ATOM     56  C   UNL A   1      35.550  33.891  31.526  1.00  0.00     0.060 A 
BRANCH  56  57
ATOM     57  S   UNL A   1      34.036  34.721  32.058  1.00  0.00     0.124 S 
ATOM     58  O   UNL A   1      34.564  35.941  32.659  1.00  0.00    -0.237 OA
ATOM     59  O   UNL A   1      33.319  34.887  30.798  1.00  0.00    -0.237 OA
ATOM     60  O   UNL A   1      33.440  33.767  32.988  1.00  0.00    -0.744 OA
ENDBRANCH  56  57
ENDBRANCH  24  49
BRANCH  36  61
ATOM     61  C   UNL A   1      44.465  35.024  30.519  1.00  0.00     0.058 A 
ATOM     62  C   UNL A   1      44.554  36.084  29.605  1.00  0.00     0.135 A 
ATOM     63  C   UNL A   1      44.889  35.254  31.839  1.00  0.00     0.135 A 
ATOM     64  F   UNL A   1      44.166  35.914  28.332  1.00  0.00    -0.206 F 
ATOM     65  C   UNL A   1      45.069  37.320  29.978  1.00  0.00     0.059 A 
ATOM     66  C   UNL A   1      45.373  36.492  32.243  1.00  0.00     0.059 A 
ATOM     67  F   UNL A   1      44.808  34.276  32.756  1.00  0.00    -0.206 F 
ATOM     68  C   UNL A   1      45.472  37.515  31.301  1.00  0.00     0.060 A 
BRANCH  68  69
ATOM     69  S   UNL A   1      46.102  39.136  31.780  1.00  0.00     0.124 S 
ATOM     70  O   UNL A   1      47.244  39.282  30.885  1.00  0.00    -0.237 OA
ATOM     71  O   UNL A   1      44.963  40.006  31.504  1.00  0.00    -0.237 OA
ATOM     72  O   UNL A   1      46.428  38.970  33.194  1.00  0.00    -0.744 OA
ENDBRANCH  68  69
ENDBRANCH  36  61
ENDBRANCH  10  11
ENDBRANCH   3   5
ENDBRANCH   2   3
ENDBRANCH   1   2
BRANCH   1  73
ATOM     73  C   UNL A   1      41.112  19.947  26.171  1.00  0.00     0.274 C 
BRANCH  73  74
ATOM     74  O   UNL A   1      42.431  19.974  25.594  1.00  0.00    -0.462 OA
BRANCH  74  75
ATOM     75  C   UNL A   1      43.226  18.889  25.830  1.00  0.00     0.312 C 
ATOM     76  O   UNL A   1      43.125  18.142  26.797  1.00  0.00    -0.252 OA
BRANCH  75  77
ATOM     77  C   UNL A   1      44.333  18.776  24.775  1.00  0.00     0.123 C 
ATOM     78  C   UNL A   1      45.673  18.398  25.310  1.00  0.00    -0.015 C 
ATOM     79  C   UNL A   1      44.668  20.157  24.183  1.00  0.00     0.043 C 
ATOM     80  C   UNL A   1      46.497  19.439  25.445  1.00  0.00    -0.011 C 
ATOM     81  C   UNL A   1      45.845  20.702  25.028  1.00  0.00     0.093 C 
BRANCH  81  82
ATOM     82  N   UNL A   1      45.337  21.506  26.152  1.00  0.00    -0.204 NA
ATOM     83  H   UNL A   1      45.832  21.178  26.981  1.00  0.00     0.142 HD
BRANCH  82  84
ATOM     84  S   UNL A   1      45.432  23.194  26.189  1.00  0.00     0.241 S 
ATOM     85  O   UNL A   1      46.804  23.540  25.876  1.00  0.00    -0.207 OA
ATOM     86  O   UNL A   1      44.338  23.702  25.395  1.00  0.00    -0.207 OA
BRANCH  84  87
ATOM     87  C   UNL A   1      45.153  23.700  27.867  1.00  0.00     0.082 A 
ATOM     88  C   UNL A   1      46.087  24.488  28.542  1.00  0.00     0.023 A 
ATOM     89  C   UNL A   1      43.968  23.299  28.498  1.00  0.00     0.023 A 
ATOM     90  C   UNL A   1      45.835  24.868  29.863  1.00  0.00     0.022 A 
ATOM     91  C   UNL A   1      43.713  23.696  29.812  1.00  0.00     0.022 A 
ATOM     92  C   UNL A   1      44.649  24.477  30.489  1.00  0.00     0.041 A 
ATOM     93  Cl  UNL A   1      44.333  24.974  32.106  1.00  0.00    -0.084 Cl
ENDBRANCH  84  87
ENDBRANCH  82  84
ENDBRANCH  81  82
ENDBRANCH  75  77
ENDBRANCH  74  75
ENDBRANCH  73  74
ENDBRANCH   1  73
TORSDOF 17
ENDMDL
MODEL 3
REMARK VINA RESULT:     -10.5      4.644      5.947
REMARK SMILES O=C(OCCOC(=O)[C@@H]1C=C[C@H](NS(=O)(=O)c2ccc(Cl)cc2)C1)c1ccc(-c2c3nc(c(-c4c(F)cc(S(=O)(=O)[O-])cc4F)c4ccc([nH]4)c(-c4c(F)cc(S(=O)(=O)[O-])cc4F)c4nc(c(-c5c(F)cc(S(=O)(=O)[O-])cc5F)c5ccc2[nH]5)C=C4)C=C3)cc1
REMARK SMILES IDX 4 1 3 2 2 3 1 4 25 5 26 6 90 7 27 8 89 9 28 10 29 11 30 12
REMARK SMILES IDX 83 13 31 14 88 15 82 16 84 17 32 18 87 19 81 20 80 21 33 23
REMARK SMILES IDX 67 24 46 25 66 26 47 27 50 28 65 29 85 30 48 31 49 32 64 34
REMARK SMILES IDX 86 35 51 36 34 37 35 38 44 39 36 40 37 41 43 42 45 43 38 44
REMARK SMILES IDX 39 45 40 46 41 47 42 48 68 49 69 50 78 51 70 52 71 53 77 54
REMARK SMILES IDX 79 55 72 56 73 57 74 58 75 59 76 60 52 61 53 62 62 63 54 64
REMARK SMILES IDX 55 65 61 66 63 67 56 68 57 69 58 70 59 71 60 72 5 73 6 74
REMARK SMILES IDX 7 75 8 76 9 77 10 78 24 79 11 80 12 81 13 82 14 84 15 85
REMARK SMILES IDX 16 86 17 87 18 88 23 89 19 90 22 91 20 92 21 93
REMARK H PARENT 84 22 50 33 13 83
REMARK Flexibility Score: inf
ROOT
ATOM      1  C   UNL A   1      35.617  32.838  29.470  1.00  0.00     0.275 C 
ENDROOT
BRANCH   1   2
ATOM      2  O   UNL A   1      35.623  31.411  29.609  1.00  0.00    -0.458 OA
BRANCH   2   3
ATOM      3  C   UNL A   1      36.435  30.634  30.367  1.00  0.00     0.338 C 
ATOM      4  O   UNL A   1      36.080  30.353  31.510  1.00  0.00    -0.246 OA
BRANCH   3   5
ATOM      5  C   UNL A   1      37.805  30.206  29.931  1.00  0.00     0.060 A 
ATOM      6  C   UNL A   1      38.886  29.915  30.769  1.00  0.00     0.016 A 
ATOM      7  C   UNL A   1      38.009  30.082  28.545  1.00  0.00     0.016 A 
ATOM      8  C   UNL A   1      40.086  29.413  30.267  1.00  0.00     0.010 A 
ATOM      9  C   UNL A   1      39.219  29.595  28.031  1.00  0.00     0.010 A 
ATOM     10  C   UNL A   1      40.257  29.227  28.898  1.00  0.00    -0.014 A 
BRANCH  10  11
ATOM     11  C   UNL A   1      41.585  28.794  28.407  1.00  0.00     0.031 A 
ATOM     12  C   UNL A   1      42.681  29.815  28.411  1.00  0.00     0.074 A 
ATOM     13  C   UNL A   1      41.829  27.507  28.078  1.00  0.00     0.049 A 
ATOM     14  N   UNL A   1      43.942  29.671  28.109  1.00  0.00    -0.248 NA
ATOM     15  C   UNL A   1      42.307  31.181  28.819  1.00  0.00     0.031 C 
ATOM     16  C   UNL A   1      40.838  26.429  28.084  1.00  0.00     0.029 A 
ATOM     17  N   UNL A   1      42.987  26.878  27.696  1.00  0.00    -0.354 N 
ATOM     18  C   UNL A   1      44.507  30.924  28.298  1.00  0.00     0.074 A 
ATOM     19  C   UNL A   1      43.448  31.830  28.670  1.00  0.00     0.031 C 
ATOM     20  C   UNL A   1      41.431  25.273  27.737  1.00  0.00     0.029 A 
ATOM     21  C   UNL A   1      42.842  25.526  27.465  1.00  0.00     0.049 A 
ATOM     22  H   UNL A   1      43.845  27.349  27.596  1.00  0.00     0.167 HD
ATOM     23  C   UNL A   1      45.807  31.280  28.209  1.00  0.00     0.037 A 
ATOM     24  C   UNL A   1      43.750  24.604  27.083  1.00  0.00     0.037 A 
ATOM     25  C   UNL A   1      46.853  30.369  27.843  1.00  0.00     0.049 A 
ATOM     26  C   UNL A   1      45.182  25.051  26.905  1.00  0.00     0.074 A 
ATOM     27  C   UNL A   1      48.201  30.623  27.692  1.00  0.00     0.029 A 
ATOM     28  N   UNL A   1      46.659  29.023  27.567  1.00  0.00    -0.354 N 
ATOM     29  N   UNL A   1      45.705  26.238  27.110  1.00  0.00    -0.248 NA
ATOM     30  C   UNL A   1      46.148  24.041  26.453  1.00  0.00     0.031 C 
ATOM     31  C   UNL A   1      48.817  29.441  27.274  1.00  0.00     0.029 A 
ATOM     32  C   UNL A   1      47.862  28.435  27.224  1.00  0.00     0.049 A 
ATOM     33  H   UNL A   1      45.794  28.555  27.609  1.00  0.00     0.167 HD
ATOM     34  C   UNL A   1      47.064  26.108  26.843  1.00  0.00     0.074 A 
ATOM     35  C   UNL A   1      47.284  24.723  26.483  1.00  0.00     0.031 C 
ATOM     36  C   UNL A   1      48.044  27.045  26.886  1.00  0.00     0.037 A 
BRANCH  23  37
ATOM     37  C   UNL A   1      46.139  32.714  28.491  1.00  0.00     0.058 A 
ATOM     38  C   UNL A   1      46.176  33.677  27.467  1.00  0.00     0.135 A 
ATOM     39  C   UNL A   1      46.456  33.125  29.793  1.00  0.00     0.135 A 
ATOM     40  F   UNL A   1      45.923  33.324  26.197  1.00  0.00    -0.206 F 
ATOM     41  C   UNL A   1      46.540  34.993  27.724  1.00  0.00     0.059 A 
ATOM     42  C   UNL A   1      46.794  34.445  30.078  1.00  0.00     0.059 A 
ATOM     43  F   UNL A   1      46.457  32.239  30.802  1.00  0.00    -0.206 F 
ATOM     44  C   UNL A   1      46.843  35.368  29.034  1.00  0.00     0.060 A 
BRANCH  44  45
ATOM     45  S   UNL A   1      47.294  37.085  29.352  1.00  0.00     0.124 S 
ATOM     46  O   UNL A   1      48.333  36.931  30.366  1.00  0.00    -0.237 OA
ATOM     47  O   UNL A   1      47.751  37.531  28.040  1.00  0.00    -0.237 OA
ATOM     48  O   UNL A   1      46.047  37.684  29.817  1.00  0.00    -0.744 OA
ENDBRANCH  44  45
ENDBRANCH  23  37
BRANCH  24  49
ATOM     49  C   UNL A   1      43.361  23.184  26.831  1.00  0.00     0.058 A 
ATOM     50  C   UNL A   1      43.055  22.305  27.884  1.00  0.00     0.135 A 
ATOM     51  C   UNL A   1      43.346  22.655  25.530  1.00  0.00     0.135 A 
ATOM     52  F   UNL A   1      43.058  22.751  29.150  1.00  0.00    -0.206 F 
ATOM     53  C   UNL A   1      42.788  20.955  27.663  1.00  0.00     0.059 A 
ATOM     54  C   UNL A   1      43.054  21.315  25.280  1.00  0.00     0.059 A 
ATOM     55  F   UNL A   1      43.617  23.445  24.479  1.00  0.00    -0.206 F 
ATOM     56  C   UNL A   1      42.795  20.467  26.355  1.00  0.00     0.060 A 
BRANCH  56  57
ATOM     57  S   UNL A   1      42.442  18.717  26.076  1.00  0.00     0.124 S 
ATOM     58  O   UNL A   1      41.037  18.759  25.686  1.00  0.00    -0.237 OA
ATOM     59  O   UNL A   1      43.389  18.379  25.019  1.00  0.00    -0.237 OA
ATOM     60  O   UNL A   1      42.719  18.109  27.374  1.00  0.00    -0.744 OA
ENDBRANCH  56  57
ENDBRANCH  24  49
BRANCH  36  61
ATOM     61  C   UNL A   1      49.443  26.596  26.574  1.00  0.00     0.058 A 
ATOM     62  C   UNL A   1      50.272  26.030  27.552  1.00  0.00     0.135 A 
ATOM     63  C   UNL A   1      49.930  26.669  25.258  1.00  0.00     0.135 A 
ATOM     64  F   UNL A   1      49.854  25.941  28.825  1.00  0.00    -0.206 F 
ATOM     65  C   UNL A   1      51.548  25.574  27.244  1.00  0.00     0.059 A 
ATOM     66  C   UNL A   1      51.189  26.187  24.920  1.00  0.00     0.059 A 
ATOM     67  F   UNL A   1      49.168  27.188  24.281  1.00  0.00    -0.206 F 
ATOM     68  C   UNL A   1      51.995  25.653  25.923  1.00  0.00     0.060 A 
BRANCH  68  69
ATOM     69  S   UNL A   1      53.639  25.023  25.531  1.00  0.00     0.124 S 
ATOM     70  O   UNL A   1      53.362  23.611  25.292  1.00  0.00    -0.237 OA
ATOM     71  O   UNL A   1      54.001  25.806  24.354  1.00  0.00    -0.237 OA
ATOM     72  O   UNL A   1      54.413  25.316  26.735  1.00  0.00    -0.744 OA
ENDBRANCH  68  69
ENDBRANCH  36  61
ENDBRANCH  10  11
ENDBRANCH   3   5
ENDBRANCH   2   3
ENDBRANCH   1   2
BRANCH   1  73
ATOM     73  C   UNL A   1      34.223  33.425  29.241  1.00  0.00     0.274 C 
BRANCH  73  74
ATOM     74  O   UNL A   1      33.699  34.186  30.346  1.00  0.00    -0.462 OA
BRANCH  74  75
ATOM     75  C   UNL A   1      33.364  35.486  30.092  1.00  0.00     0.312 C 
ATOM     76  O   UNL A   1      33.621  36.087  29.054  1.00  0.00    -0.252 OA
BRANCH  75  77
ATOM     77  C   UNL A   1      32.703  36.135  31.313  1.00  0.00     0.123 C 
ATOM     78  C   UNL A   1      33.188  37.508  31.633  1.00  0.00    -0.015 C 
ATOM     79  C   UNL A   1      33.109  35.406  32.607  1.00  0.00     0.043 C 
ATOM     80  C   UNL A   1      34.074  37.533  32.632  1.00  0.00    -0.011 C 
ATOM     81  C   UNL A   1      34.339  36.171  33.151  1.00  0.00     0.093 C 
BRANCH  81  82
ATOM     82  N   UNL A   1      35.582  35.572  32.636  1.00  0.00    -0.204 NA
ATOM     83  H   UNL A   1      36.268  36.327  32.605  1.00  0.00     0.142 HD
BRANCH  82  84
ATOM     84  S   UNL A   1      36.355  34.271  33.390  1.00  0.00     0.241 S 
ATOM     85  O   UNL A   1      36.452  34.604  34.798  1.00  0.00    -0.207 OA
ATOM     86  O   UNL A   1      35.687  33.066  32.957  1.00  0.00    -0.207 OA
BRANCH  84  87
ATOM     87  C   UNL A   1      38.016  34.213  32.769  1.00  0.00     0.082 A 
ATOM     88  C   UNL A   1      38.281  33.763  31.474  1.00  0.00     0.023 A 
ATOM     89  C   UNL A   1      39.058  34.640  33.604  1.00  0.00     0.023 A 
ATOM     90  C   UNL A   1      39.602  33.730  31.018  1.00  0.00     0.022 A 
ATOM     91  C   UNL A   1      40.373  34.622  33.137  1.00  0.00     0.022 A 
ATOM     92  C   UNL A   1      40.639  34.165  31.846  1.00  0.00     0.041 A 
ATOM     93  Cl  UNL A   1      42.259  34.150  31.266  1.00  0.00    -0.084 Cl
ENDBRANCH  84  87
ENDBRANCH  82  84
ENDBRANCH  81  82
ENDBRANCH  75  77
ENDBRANCH  74  75
ENDBRANCH  73  74
ENDBRANCH   1  73
TORSDOF 17
ENDMDL
