MODEL 1
REMARK VINA RESULT:     -13.9      0.000      0.000
REMARK SMILES Cc1c(NC(=O)c2ccc(Br)cc2N)cccc1C(=O)OCCOC(=O)c1ccc(-c2c3nc(c(-c4c(F)cc(S(=O)(=O)[O-])cc4F)c4ccc([nH]4)c(-c4c(F)cc(S(=O)(=O)[O-])cc4F)c4nc(c(-c5c(F)cc(S(=O)(=O)[O-])cc5F)c5ccc2[nH]5)C=C4)C=C3)cc1
REMARK SMILES IDX 22 1 21 2 19 3 20 4 18 5 1 6 2 7 3 8 15 9 17 10 16 11 4 12
REMARK SMILES IDX 5 13 6 15 7 16 8 17 13 18 9 19 12 20 10 21 11 22 14 23 23 26
REMARK SMILES IDX 24 27 25 28 26 29 27 30 28 31 92 32 29 33 91 34 30 35 31 36
REMARK SMILES IDX 32 37 85 38 33 39 90 40 84 41 86 42 34 43 89 44 83 45 82 46
REMARK SMILES IDX 35 48 69 49 48 50 68 51 49 52 52 53 67 54 87 55 50 56 51 57
REMARK SMILES IDX 66 59 88 60 53 61 36 62 37 63 46 64 38 65 39 66 45 67 47 68
REMARK SMILES IDX 40 69 41 70 42 71 43 72 44 73 70 74 71 75 80 76 72 77 73 78
REMARK SMILES IDX 79 79 81 80 74 81 75 82 76 83 77 84 78 85 54 86 55 87 64 88
REMARK SMILES IDX 56 89 57 90 63 91 65 92 58 93 59 94 60 95 61 96 62 97
REMARK H PARENT 4 14 14 24 14 25 86 47 52 58
REMARK Flexibility Score: inf
ROOT
ATOM      1  C   UNL A   1      33.552  30.844  27.517  1.00  0.00     0.275 C 
ENDROOT
BRANCH   1   2
ATOM      2  O   UNL A   1      33.495  30.066  26.303  1.00  0.00    -0.458 OA
BRANCH   2   3
ATOM      3  C   UNL A   1      32.243  30.039  25.770  1.00  0.00     0.338 C 
ATOM      4  O   UNL A   1      31.478  30.978  25.765  1.00  0.00    -0.246 OA
BRANCH   3   5
ATOM      5  C   UNL A   1      31.824  28.702  25.265  1.00  0.00     0.065 A 
ATOM      6  C   UNL A   1      31.442  27.939  27.661  1.00  0.00     0.047 C 
ATOM      7  C   UNL A   1      31.309  27.752  26.169  1.00  0.00    -0.013 A 
ATOM      8  C   UNL A   1      30.841  26.525  25.645  1.00  0.00     0.045 A 
ATOM      9  C   UNL A   1      30.661  26.357  24.270  1.00  0.00     0.026 A 
ATOM     10  C   UNL A   1      31.836  28.421  23.892  1.00  0.00     0.016 A 
ATOM     11  C   UNL A   1      31.179  27.298  23.389  1.00  0.00     0.003 A 
BRANCH   8  12
ATOM     12  N   UNL A   1      30.715  25.443  26.530  1.00  0.00    -0.322 N 
ATOM     13  C   UNL A   1      31.427  24.265  26.610  1.00  0.00     0.257 C 
ATOM     14  H   UNL A   1      30.001  25.540  27.203  1.00  0.00     0.170 HD
ATOM     15  O   UNL A   1      31.111  23.452  27.484  1.00  0.00    -0.269 OA
BRANCH  13  16
ATOM     16  C   UNL A   1      32.577  23.925  25.724  1.00  0.00     0.063 A 
ATOM     17  C   UNL A   1      33.816  24.424  26.170  1.00  0.00     0.017 A 
ATOM     18  C   UNL A   1      32.512  23.194  24.517  1.00  0.00     0.045 A 
ATOM     19  C   UNL A   1      34.988  24.174  25.458  1.00  0.00     0.016 A 
ATOM     20  C   UNL A   1      33.710  22.930  23.830  1.00  0.00     0.042 A 
ATOM     21  C   UNL A   1      34.932  23.410  24.300  1.00  0.00     0.020 A 
ATOM     22  Br  UNL A   1      36.516  23.059  23.331  1.00  0.00    -0.051 Br
BRANCH  18  23
ATOM     23  N   UNL A   1      31.323  22.856  23.864  1.00  0.00    -0.398 N 
ATOM     24  H   UNL A   1      31.224  23.032  22.900  1.00  0.00     0.156 HD
ATOM     25  H   UNL A   1      30.585  22.442  24.368  1.00  0.00     0.156 HD
ENDBRANCH  18  23
ENDBRANCH  13  16
ENDBRANCH   8  12
ENDBRANCH   3   5
ENDBRANCH   2   3
ENDBRANCH   1   2
BRANCH   1  26
ATOM     26  C   UNL A   1      34.849  31.663  27.667  1.00  0.00     0.275 C 
BRANCH  26  27
ATOM     27  O   UNL A   1      36.099  30.946  27.738  1.00  0.00    -0.458 OA
BRANCH  27  28
ATOM     28  C   UNL A   1      36.590  30.705  28.982  1.00  0.00     0.338 C 
ATOM     29  O   UNL A   1      36.013  31.013  30.015  1.00  0.00    -0.246 OA
BRANCH  28  30
ATOM     30  C   UNL A   1      37.666  29.678  28.854  1.00  0.00     0.060 A 
ATOM     31  C   UNL A   1      38.517  29.700  27.742  1.00  0.00     0.016 A 
ATOM     32  C   UNL A   1      38.033  28.978  30.004  1.00  0.00     0.016 A 
ATOM     33  C   UNL A   1      39.799  29.166  27.826  1.00  0.00     0.010 A 
ATOM     34  C   UNL A   1      39.334  28.574  30.144  1.00  0.00     0.010 A 
ATOM     35  C   UNL A   1      40.205  28.642  29.048  1.00  0.00    -0.014 A 
BRANCH  35  36
ATOM     36  C   UNL A   1      41.366  27.788  29.207  1.00  0.00     0.031 A 
ATOM     37  C   UNL A   1      41.405  26.388  28.758  1.00  0.00     0.074 A 
ATOM     38  C   UNL A   1      42.410  28.520  29.659  1.00  0.00     0.049 A 
ATOM     39  N   UNL A   1      42.387  25.600  29.006  1.00  0.00    -0.248 NA
ATOM     40  C   UNL A   1      40.344  25.717  28.015  1.00  0.00     0.031 C 
ATOM     41  C   UNL A   1      43.829  28.254  29.732  1.00  0.00     0.029 A 
ATOM     42  N   UNL A   1      42.262  29.735  30.351  1.00  0.00    -0.354 N 
ATOM     43  C   UNL A   1      42.229  24.437  28.271  1.00  0.00     0.074 A 
ATOM     44  C   UNL A   1      40.903  24.534  27.720  1.00  0.00     0.031 C 
ATOM     45  C   UNL A   1      44.357  29.061  30.678  1.00  0.00     0.029 A 
ATOM     46  C   UNL A   1      43.250  29.769  31.323  1.00  0.00     0.049 A 
ATOM     47  H   UNL A   1      41.586  30.430  30.178  1.00  0.00     0.167 HD
ATOM     48  C   UNL A   1      43.316  23.619  28.155  1.00  0.00     0.037 A 
ATOM     49  C   UNL A   1      42.835  29.604  32.615  1.00  0.00     0.037 A 
ATOM     50  C   UNL A   1      44.333  24.077  29.102  1.00  0.00     0.049 A 
ATOM     51  C   UNL A   1      43.342  28.278  33.127  1.00  0.00     0.074 A 
ATOM     52  C   UNL A   1      45.396  24.952  28.960  1.00  0.00     0.029 A 
ATOM     53  N   UNL A   1      44.062  23.993  30.466  1.00  0.00    -0.354 N 
ATOM     54  N   UNL A   1      43.442  27.187  32.409  1.00  0.00    -0.248 NA
ATOM     55  C   UNL A   1      43.951  28.158  34.445  1.00  0.00     0.031 C 
ATOM     56  C   UNL A   1      45.660  25.511  30.240  1.00  0.00     0.029 A 
ATOM     57  C   UNL A   1      44.776  24.957  31.156  1.00  0.00     0.049 A 
ATOM     58  H   UNL A   1      43.451  23.342  30.879  1.00  0.00     0.167 HD
ATOM     59  C   UNL A   1      44.202  26.276  33.099  1.00  0.00     0.074 A 
ATOM     60  C   UNL A   1      44.470  26.922  34.376  1.00  0.00     0.031 C 
ATOM     61  C   UNL A   1      44.645  25.084  32.598  1.00  0.00     0.037 A 
BRANCH  48  62
ATOM     62  C   UNL A   1      43.603  22.596  27.064  1.00  0.00     0.058 A 
ATOM     63  C   UNL A   1      42.850  21.395  27.025  1.00  0.00     0.135 A 
ATOM     64  C   UNL A   1      44.639  22.654  26.108  1.00  0.00     0.135 A 
ATOM     65  F   UNL A   1      41.803  21.199  27.840  1.00  0.00    -0.206 F 
ATOM     66  C   UNL A   1      43.140  20.326  26.172  1.00  0.00     0.059 A 
ATOM     67  C   UNL A   1      44.950  21.593  25.242  1.00  0.00     0.059 A 
ATOM     68  F   UNL A   1      45.399  23.741  25.956  1.00  0.00    -0.206 F 
ATOM     69  C   UNL A   1      44.206  20.424  25.293  1.00  0.00     0.060 A 
BRANCH  69  70
ATOM     70  S   UNL A   1      44.586  19.018  24.229  1.00  0.00     0.124 S 
ATOM     71  O   UNL A   1      45.975  18.738  24.580  1.00  0.00    -0.237 OA
ATOM     72  O   UNL A   1      43.609  18.026  24.665  1.00  0.00    -0.237 OA
ATOM     73  O   UNL A   1      44.381  19.543  22.881  1.00  0.00    -0.744 OA
ENDBRANCH  69  70
ENDBRANCH  48  62
BRANCH  49  74
ATOM     74  C   UNL A   1      41.519  30.270  32.946  1.00  0.00     0.058 A 
ATOM     75  C   UNL A   1      40.454  29.451  33.398  1.00  0.00     0.135 A 
ATOM     76  C   UNL A   1      41.328  31.654  33.082  1.00  0.00     0.135 A 
ATOM     77  F   UNL A   1      40.542  28.115  33.284  1.00  0.00    -0.206 F 
ATOM     78  C   UNL A   1      39.331  29.958  34.054  1.00  0.00     0.059 A 
ATOM     79  C   UNL A   1      40.191  32.189  33.718  1.00  0.00     0.059 A 
ATOM     80  F   UNL A   1      42.272  32.512  32.673  1.00  0.00    -0.206 F 
ATOM     81  C   UNL A   1      39.217  31.330  34.236  1.00  0.00     0.060 A 
BRANCH  81  82
ATOM     82  S   UNL A   1      37.892  31.941  35.319  1.00  0.00     0.124 S 
ATOM     83  O   UNL A   1      36.776  32.072  34.390  1.00  0.00    -0.237 OA
ATOM     84  O   UNL A   1      37.778  30.860  36.295  1.00  0.00    -0.237 OA
ATOM     85  O   UNL A   1      38.437  33.194  35.834  1.00  0.00    -0.744 OA
ENDBRANCH  81  82
ENDBRANCH  49  74
BRANCH  61  86
ATOM     86  C   UNL A   1      45.131  23.948  33.462  1.00  0.00     0.058 A 
ATOM     87  C   UNL A   1      46.442  23.881  33.965  1.00  0.00     0.135 A 
ATOM     88  C   UNL A   1      44.235  22.969  33.951  1.00  0.00     0.135 A 
ATOM     89  F   UNL A   1      47.348  24.833  33.696  1.00  0.00    -0.206 F 
ATOM     90  C   UNL A   1      46.866  22.852  34.798  1.00  0.00     0.059 A 
ATOM     91  C   UNL A   1      44.618  21.979  34.847  1.00  0.00     0.059 A 
ATOM     92  F   UNL A   1      42.942  22.947  33.592  1.00  0.00    -0.206 F 
ATOM     93  C   UNL A   1      45.948  21.902  35.228  1.00  0.00     0.060 A 
BRANCH  93  94
ATOM     94  S   UNL A   1      46.491  20.578  36.313  1.00  0.00     0.124 S 
ATOM     95  O   UNL A   1      45.809  20.930  37.553  1.00  0.00    -0.237 OA
ATOM     96  O   UNL A   1      45.994  19.383  35.636  1.00  0.00    -0.237 OA
ATOM     97  O   UNL A   1      47.942  20.726  36.321  1.00  0.00    -0.744 OA
ENDBRANCH  93  94
ENDBRANCH  61  86
ENDBRANCH  35  36
ENDBRANCH  28  30
ENDBRANCH  27  28
ENDBRANCH  26  27
ENDBRANCH   1  26
TORSDOF 17
ENDMDL
MODEL 2
REMARK VINA RESULT:     -13.6      0.915      1.626
REMARK SMILES Cc1c(NC(=O)c2ccc(Br)cc2N)cccc1C(=O)OCCOC(=O)c1ccc(-c2c3nc(c(-c4c(F)cc(S(=O)(=O)[O-])cc4F)c4ccc([nH]4)c(-c4c(F)cc(S(=O)(=O)[O-])cc4F)c4nc(c(-c5c(F)cc(S(=O)(=O)[O-])cc5F)c5ccc2[nH]5)C=C4)C=C3)cc1
REMARK SMILES IDX 22 1 21 2 19 3 20 4 18 5 1 6 2 7 3 8 15 9 17 10 16 11 4 12
REMARK SMILES IDX 5 13 6 15 7 16 8 17 13 18 9 19 12 20 10 21 11 22 14 23 23 26
REMARK SMILES IDX 24 27 25 28 26 29 27 30 28 31 92 32 29 33 91 34 30 35 31 36
REMARK SMILES IDX 32 37 85 38 33 39 90 40 84 41 86 42 34 43 89 44 83 45 82 46
REMARK SMILES IDX 35 48 69 49 48 50 68 51 49 52 52 53 67 54 87 55 50 56 51 57
REMARK SMILES IDX 66 59 88 60 53 61 36 62 37 63 46 64 38 65 39 66 45 67 47 68
REMARK SMILES IDX 40 69 41 70 42 71 43 72 44 73 70 74 71 75 80 76 72 77 73 78
REMARK SMILES IDX 79 79 81 80 74 81 75 82 76 83 77 84 78 85 54 86 55 87 64 88
REMARK SMILES IDX 56 89 57 90 63 91 65 92 58 93 59 94 60 95 61 96 62 97
REMARK H PARENT 4 14 14 24 14 25 86 47 52 58
REMARK Flexibility Score: inf
ROOT
ATOM      1  C   UNL A   1      33.391  30.230  26.969  1.00  0.00     0.275 C 
ENDROOT
BRANCH   1   2
ATOM      2  O   UNL A   1      32.505  29.166  26.564  1.00  0.00    -0.458 OA
BRANCH   2   3
ATOM      3  C   UNL A   1      31.970  29.385  25.331  1.00  0.00     0.338 C 
ATOM      4  O   UNL A   1      31.110  30.203  25.090  1.00  0.00    -0.246 OA
BRANCH   3   5
ATOM      5  C   UNL A   1      32.460  28.450  24.280  1.00  0.00     0.065 A 
ATOM      6  C   UNL A   1      30.533  26.877  24.812  1.00  0.00     0.047 C 
ATOM      7  C   UNL A   1      31.686  27.322  23.944  1.00  0.00    -0.013 A 
ATOM      8  C   UNL A   1      32.135  26.502  22.884  1.00  0.00     0.045 A 
ATOM      9  C   UNL A   1      33.164  26.926  22.039  1.00  0.00     0.026 A 
ATOM     10  C   UNL A   1      33.622  28.738  23.551  1.00  0.00     0.016 A 
ATOM     11  C   UNL A   1      33.924  28.036  22.385  1.00  0.00     0.003 A 
BRANCH   8  12
ATOM     12  N   UNL A   1      31.626  25.196  22.807  1.00  0.00    -0.322 N 
ATOM     13  C   UNL A   1      32.157  24.001  23.244  1.00  0.00     0.257 C 
ATOM     14  H   UNL A   1      30.747  25.120  22.368  1.00  0.00     0.170 HD
ATOM     15  O   UNL A   1      31.511  22.969  23.045  1.00  0.00    -0.269 OA
BRANCH  13  16
ATOM     16  C   UNL A   1      33.453  23.883  23.973  1.00  0.00     0.063 A 
ATOM     17  C   UNL A   1      34.499  23.336  23.206  1.00  0.00     0.017 A 
ATOM     18  C   UNL A   1      33.687  24.242  25.319  1.00  0.00     0.045 A 
ATOM     19  C   UNL A   1      35.776  23.179  23.743  1.00  0.00     0.016 A 
ATOM     20  C   UNL A   1      34.988  24.100  25.832  1.00  0.00     0.042 A 
ATOM     21  C   UNL A   1      36.019  23.581  25.049  1.00  0.00     0.020 A 
ATOM     22  Br  UNL A   1      37.748  23.379  25.785  1.00  0.00    -0.051 Br
BRANCH  18  23
ATOM     23  N   UNL A   1      32.682  24.569  26.234  1.00  0.00    -0.398 N 
ATOM     24  H   UNL A   1      32.079  23.870  26.575  1.00  0.00     0.156 HD
ATOM     25  H   UNL A   1      32.578  25.501  26.538  1.00  0.00     0.156 HD
ENDBRANCH  18  23
ENDBRANCH  13  16
ENDBRANCH   8  12
ENDBRANCH   3   5
ENDBRANCH   2   3
ENDBRANCH   1   2
BRANCH   1  26
ATOM     26  C   UNL A   1      34.758  29.736  27.480  1.00  0.00     0.275 C 
BRANCH  26  27
ATOM     27  O   UNL A   1      35.818  30.705  27.624  1.00  0.00    -0.458 OA
BRANCH  27  28
ATOM     28  C   UNL A   1      36.488  30.698  28.806  1.00  0.00     0.338 C 
ATOM     29  O   UNL A   1      36.050  31.178  29.842  1.00  0.00    -0.246 OA
BRANCH  28  30
ATOM     30  C   UNL A   1      37.576  29.681  28.704  1.00  0.00     0.060 A 
ATOM     31  C   UNL A   1      38.452  29.708  27.612  1.00  0.00     0.016 A 
ATOM     32  C   UNL A   1      37.924  28.986  29.864  1.00  0.00     0.016 A 
ATOM     33  C   UNL A   1      39.736  29.186  27.726  1.00  0.00     0.010 A 
ATOM     34  C   UNL A   1      39.224  28.594  30.035  1.00  0.00     0.010 A 
ATOM     35  C   UNL A   1      40.120  28.668  28.958  1.00  0.00    -0.014 A 
BRANCH  35  36
ATOM     36  C   UNL A   1      41.284  27.824  29.145  1.00  0.00     0.031 A 
ATOM     37  C   UNL A   1      41.336  26.416  28.726  1.00  0.00     0.074 A 
ATOM     38  C   UNL A   1      42.319  28.572  29.591  1.00  0.00     0.049 A 
ATOM     39  N   UNL A   1      42.321  25.639  28.998  1.00  0.00    -0.248 NA
ATOM     40  C   UNL A   1      40.286  25.723  27.987  1.00  0.00     0.031 C 
ATOM     41  C   UNL A   1      43.740  28.317  29.683  1.00  0.00     0.029 A 
ATOM     42  N   UNL A   1      42.157  29.800  30.257  1.00  0.00    -0.354 N 
ATOM     43  C   UNL A   1      42.176  24.461  28.286  1.00  0.00     0.074 A 
ATOM     44  C   UNL A   1      40.855  24.539  27.721  1.00  0.00     0.031 C 
ATOM     45  C   UNL A   1      44.254  29.147  30.617  1.00  0.00     0.029 A 
ATOM     46  C   UNL A   1      43.136  29.861  31.237  1.00  0.00     0.049 A 
ATOM     47  H   UNL A   1      41.479  30.487  30.063  1.00  0.00     0.167 HD
ATOM     48  C   UNL A   1      43.269  23.648  28.196  1.00  0.00     0.037 A 
ATOM     49  C   UNL A   1      42.710  29.719  32.529  1.00  0.00     0.037 A 
ATOM     50  C   UNL A   1      44.275  24.131  29.144  1.00  0.00     0.049 A 
ATOM     51  C   UNL A   1      43.221  28.407  33.072  1.00  0.00     0.074 A 
ATOM     52  C   UNL A   1      45.334  25.010  28.993  1.00  0.00     0.029 A 
ATOM     53  N   UNL A   1      43.992  24.074  30.506  1.00  0.00    -0.354 N 
ATOM     54  N   UNL A   1      43.334  27.302  32.378  1.00  0.00    -0.248 NA
ATOM     55  C   UNL A   1      43.819  28.318  34.398  1.00  0.00     0.031 C 
ATOM     56  C   UNL A   1      45.582  25.596  30.264  1.00  0.00     0.029 A 
ATOM     57  C   UNL A   1      44.693  25.056  31.183  1.00  0.00     0.049 A 
ATOM     58  H   UNL A   1      43.381  23.427  30.927  1.00  0.00     0.167 HD
ATOM     59  C   UNL A   1      44.093  26.411  33.093  1.00  0.00     0.074 A 
ATOM     60  C   UNL A   1      44.345  27.084  34.359  1.00  0.00     0.031 C 
ATOM     61  C   UNL A   1      44.549  25.211  32.621  1.00  0.00     0.037 A 
BRANCH  48  62
ATOM     62  C   UNL A   1      43.572  22.604  27.130  1.00  0.00     0.058 A 
ATOM     63  C   UNL A   1      42.783  21.427  27.067  1.00  0.00     0.135 A 
ATOM     64  C   UNL A   1      44.652  22.618  26.222  1.00  0.00     0.135 A 
ATOM     65  F   UNL A   1      41.694  21.273  27.835  1.00  0.00    -0.206 F 
ATOM     66  C   UNL A   1      43.077  20.341  26.239  1.00  0.00     0.059 A 
ATOM     67  C   UNL A   1      44.968  21.539  25.381  1.00  0.00     0.059 A 
ATOM     68  F   UNL A   1      45.454  23.679  26.095  1.00  0.00    -0.206 F 
ATOM     69  C   UNL A   1      44.186  20.395  25.408  1.00  0.00     0.060 A 
BRANCH  69  70
ATOM     70  S   UNL A   1      44.568  18.966  24.376  1.00  0.00     0.124 S 
ATOM     71  O   UNL A   1      44.432  19.518  23.031  1.00  0.00    -0.237 OA
ATOM     72  O   UNL A   1      45.926  18.637  24.793  1.00  0.00    -0.237 OA
ATOM     73  O   UNL A   1      43.548  17.990  24.751  1.00  0.00    -0.744 OA
ENDBRANCH  69  70
ENDBRANCH  48  62
BRANCH  49  74
ATOM     74  C   UNL A   1      41.388  30.384  32.834  1.00  0.00     0.058 A 
ATOM     75  C   UNL A   1      40.332  29.572  33.319  1.00  0.00     0.135 A 
ATOM     76  C   UNL A   1      41.182  31.769  32.915  1.00  0.00     0.135 A 
ATOM     77  F   UNL A   1      40.434  28.233  33.258  1.00  0.00    -0.206 F 
ATOM     78  C   UNL A   1      39.204  30.092  33.955  1.00  0.00     0.059 A 
ATOM     79  C   UNL A   1      40.039  32.317  33.531  1.00  0.00     0.059 A 
ATOM     80  F   UNL A   1      42.116  32.621  32.471  1.00  0.00    -0.206 F 
ATOM     81  C   UNL A   1      39.075  31.469  34.082  1.00  0.00     0.060 A 
BRANCH  81  82
ATOM     82  S   UNL A   1      37.743  32.108  35.141  1.00  0.00     0.124 S 
ATOM     83  O   UNL A   1      36.604  32.108  34.231  1.00  0.00    -0.237 OA
ATOM     84  O   UNL A   1      37.700  31.110  36.207  1.00  0.00    -0.237 OA
ATOM     85  O   UNL A   1      38.238  33.424  35.537  1.00  0.00    -0.744 OA
ENDBRANCH  81  82
ENDBRANCH  49  74
BRANCH  61  86
ATOM     86  C   UNL A   1      45.034  24.096  33.512  1.00  0.00     0.058 A 
ATOM     87  C   UNL A   1      44.237  22.988  33.846  1.00  0.00     0.135 A 
ATOM     88  C   UNL A   1      46.386  24.027  33.923  1.00  0.00     0.135 A 
ATOM     89  F   UNL A   1      42.981  22.861  33.392  1.00  0.00    -0.206 F 
ATOM     90  C   UNL A   1      44.710  21.943  34.632  1.00  0.00     0.059 A 
ATOM     91  C   UNL A   1      46.900  22.955  34.640  1.00  0.00     0.059 A 
ATOM     92  F   UNL A   1      47.268  24.993  33.627  1.00  0.00    -0.206 F 
ATOM     93  C   UNL A   1      46.041  21.939  35.030  1.00  0.00     0.060 A 
BRANCH  93  94
ATOM     94  S   UNL A   1      46.657  20.584  36.035  1.00  0.00     0.124 S 
ATOM     95  O   UNL A   1      45.917  20.793  37.275  1.00  0.00    -0.237 OA
ATOM     96  O   UNL A   1      46.273  19.408  35.260  1.00  0.00    -0.237 OA
ATOM     97  O   UNL A   1      48.091  20.841  36.101  1.00  0.00    -0.744 OA
ENDBRANCH  93  94
ENDBRANCH  61  86
ENDBRANCH  35  36
ENDBRANCH  28  30
ENDBRANCH  27  28
ENDBRANCH  26  27
ENDBRANCH   1  26
TORSDOF 17
ENDMDL
MODEL 3
REMARK VINA RESULT:     -13.5      5.054     11.481
REMARK SMILES Cc1c(NC(=O)c2ccc(Br)cc2N)cccc1C(=O)OCCOC(=O)c1ccc(-c2c3nc(c(-c4c(F)cc(S(=O)(=O)[O-])cc4F)c4ccc([nH]4)c(-c4c(F)cc(S(=O)(=O)[O-])cc4F)c4nc(c(-c5c(F)cc(S(=O)(=O)[O-])cc5F)c5ccc2[nH]5)C=C4)C=C3)cc1
REMARK SMILES IDX 22 1 21 2 19 3 20 4 18 5 1 6 2 7 3 8 15 9 17 10 16 11 4 12
REMARK SMILES IDX 5 13 6 15 7 16 8 17 13 18 9 19 12 20 10 21 11 22 14 23 23 26
REMARK SMILES IDX 24 27 25 28 26 29 27 30 28 31 92 32 29 33 91 34 30 35 31 36
REMARK SMILES IDX 32 37 85 38 33 39 90 40 84 41 86 42 34 43 89 44 83 45 82 46
REMARK SMILES IDX 35 48 69 49 48 50 68 51 49 52 52 53 67 54 87 55 50 56 51 57
REMARK SMILES IDX 66 59 88 60 53 61 36 62 37 63 46 64 38 65 39 66 45 67 47 68
REMARK SMILES IDX 40 69 41 70 42 71 43 72 44 73 70 74 71 75 80 76 72 77 73 78
REMARK SMILES IDX 79 79 81 80 74 81 75 82 76 83 77 84 78 85 54 86 55 87 64 88
REMARK SMILES IDX 56 89 57 90 63 91 65 92 58 93 59 94 60 95 61 96 62 97
REMARK H PARENT 4 14 14 24 14 25 86 47 52 58
REMARK Flexibility Score: inf
ROOT
ATOM      1  C   UNL A   1      37.616  22.196  25.838  1.00  0.00     0.275 C 
ENDROOT
BRANCH   1   2
ATOM      2  O   UNL A   1      36.208  22.181  26.152  1.00  0.00    -0.458 OA
BRANCH   2   3
ATOM      3  C   UNL A   1      35.504  21.372  25.314  1.00  0.00     0.338 C 
ATOM      4  O   UNL A   1      35.833  20.248  25.006  1.00  0.00    -0.246 OA
BRANCH   3   5
ATOM      5  C   UNL A   1      34.311  22.020  24.701  1.00  0.00     0.065 A 
ATOM      6  C   UNL A   1      35.816  23.089  22.951  1.00  0.00     0.047 C 
ATOM      7  C   UNL A   1      34.453  22.724  23.489  1.00  0.00    -0.013 A 
ATOM      8  C   UNL A   1      33.288  23.254  22.890  1.00  0.00     0.045 A 
ATOM      9  C   UNL A   1      32.019  22.882  23.342  1.00  0.00     0.026 A 
ATOM     10  C   UNL A   1      33.037  21.845  25.258  1.00  0.00     0.016 A 
ATOM     11  C   UNL A   1      31.892  22.193  24.542  1.00  0.00     0.003 A 
BRANCH   8  12
ATOM     12  N   UNL A   1      33.448  24.275  21.939  1.00  0.00    -0.322 N 
ATOM     13  C   UNL A   1      33.245  25.635  22.044  1.00  0.00     0.257 C 
ATOM     14  H   UNL A   1      33.754  23.971  21.053  1.00  0.00     0.170 HD
ATOM     15  O   UNL A   1      33.447  26.332  21.046  1.00  0.00    -0.269 OA
BRANCH  13  16
ATOM     16  C   UNL A   1      32.827  26.320  23.301  1.00  0.00     0.063 A 
ATOM     17  C   UNL A   1      33.704  26.125  24.385  1.00  0.00     0.017 A 
ATOM     18  C   UNL A   1      31.659  27.095  23.478  1.00  0.00     0.045 A 
ATOM     19  C   UNL A   1      33.458  26.716  25.622  1.00  0.00     0.016 A 
ATOM     20  C   UNL A   1      31.444  27.705  24.726  1.00  0.00     0.042 A 
ATOM     21  C   UNL A   1      32.337  27.521  25.781  1.00  0.00     0.020 A 
ATOM     22  Br  UNL A   1      31.997  28.334  27.454  1.00  0.00    -0.051 Br
BRANCH  18  23
ATOM     23  N   UNL A   1      30.611  27.163  22.555  1.00  0.00    -0.398 N 
ATOM     24  H   UNL A   1      30.466  26.427  21.918  1.00  0.00     0.156 HD
ATOM     25  H   UNL A   1      30.017  27.949  22.542  1.00  0.00     0.156 HD
ENDBRANCH  18  23
ENDBRANCH  13  16
ENDBRANCH   8  12
ENDBRANCH   3   5
ENDBRANCH   2   3
ENDBRANCH   1   2
BRANCH   1  26
ATOM     26  C   UNL A   1      38.300  23.547  26.120  1.00  0.00     0.275 C 
BRANCH  26  27
ATOM     27  O   UNL A   1      39.185  23.634  27.257  1.00  0.00    -0.458 OA
BRANCH  27  28
ATOM     28  C   UNL A   1      40.271  24.439  27.118  1.00  0.00     0.338 C 
ATOM     29  O   UNL A   1      41.206  24.202  26.366  1.00  0.00    -0.246 OA
BRANCH  28  30
ATOM     30  C   UNL A   1      39.918  25.777  27.679  1.00  0.00     0.060 A 
ATOM     31  C   UNL A   1      39.361  25.866  28.961  1.00  0.00     0.016 A 
ATOM     32  C   UNL A   1      40.495  26.901  27.086  1.00  0.00     0.016 A 
ATOM     33  C   UNL A   1      39.518  27.023  29.718  1.00  0.00     0.010 A 
ATOM     34  C   UNL A   1      40.776  27.990  27.867  1.00  0.00     0.010 A 
ATOM     35  C   UNL A   1      40.263  28.062  29.170  1.00  0.00    -0.014 A 
BRANCH  35  36
ATOM     36  C   UNL A   1      40.253  29.416  29.689  1.00  0.00     0.031 A 
ATOM     37  C   UNL A   1      39.124  30.340  29.509  1.00  0.00     0.074 A 
ATOM     38  C   UNL A   1      41.336  29.607  30.476  1.00  0.00     0.049 A 
ATOM     39  N   UNL A   1      39.164  31.573  29.865  1.00  0.00    -0.248 NA
ATOM     40  C   UNL A   1      37.849  29.995  28.891  1.00  0.00     0.031 C 
ATOM     41  C   UNL A   1      41.677  30.636  31.434  1.00  0.00     0.029 A 
ATOM     42  N   UNL A   1      42.511  28.842  30.377  1.00  0.00    -0.354 N 
ATOM     43  C   UNL A   1      37.892  32.111  29.771  1.00  0.00     0.074 A 
ATOM     44  C   UNL A   1      37.121  31.103  29.095  1.00  0.00     0.031 C 
ATOM     45  C   UNL A   1      43.020  30.645  31.577  1.00  0.00     0.029 A 
ATOM     46  C   UNL A   1      43.574  29.702  30.605  1.00  0.00     0.049 A 
ATOM     47  H   UNL A   1      42.568  27.877  30.184  1.00  0.00     0.167 HD
ATOM     48  C   UNL A   1      37.671  33.303  30.399  1.00  0.00     0.037 A 
ATOM     49  C   UNL A   1      44.336  30.025  29.516  1.00  0.00     0.037 A 
ATOM     50  C   UNL A   1      38.966  33.853  30.801  1.00  0.00     0.049 A 
ATOM     51  C   UNL A   1      44.124  31.483  29.185  1.00  0.00     0.074 A 
ATOM     52  C   UNL A   1      39.685  33.749  31.979  1.00  0.00     0.029 A 
ATOM     53  N   UNL A   1      39.873  34.221  29.809  1.00  0.00    -0.354 N 
ATOM     54  N   UNL A   1      42.985  32.119  29.303  1.00  0.00    -0.248 NA
ATOM     55  C   UNL A   1      45.246  32.361  28.880  1.00  0.00     0.031 C 
ATOM     56  C   UNL A   1      41.059  33.908  31.653  1.00  0.00     0.029 A 
ATOM     57  C   UNL A   1      41.168  34.132  30.288  1.00  0.00     0.049 A 
ATOM     58  H   UNL A   1      39.627  34.504  28.899  1.00  0.00     0.167 HD
ATOM     59  C   UNL A   1      43.224  33.467  29.202  1.00  0.00     0.074 A 
ATOM     60  C   UNL A   1      44.647  33.562  28.910  1.00  0.00     0.031 C 
ATOM     61  C   UNL A   1      42.298  34.447  29.429  1.00  0.00     0.037 A 
BRANCH  48  62
ATOM     62  C   UNL A   1      36.345  33.870  30.888  1.00  0.00     0.058 A 
ATOM     63  C   UNL A   1      35.356  34.238  29.940  1.00  0.00     0.135 A 
ATOM     64  C   UNL A   1      36.004  34.180  32.221  1.00  0.00     0.135 A 
ATOM     65  F   UNL A   1      35.507  33.975  28.634  1.00  0.00    -0.206 F 
ATOM     66  C   UNL A   1      34.178  34.913  30.272  1.00  0.00     0.059 A 
ATOM     67  C   UNL A   1      34.827  34.859  32.580  1.00  0.00     0.059 A 
ATOM     68  F   UNL A   1      36.785  33.837  33.249  1.00  0.00    -0.206 F 
ATOM     69  C   UNL A   1      33.927  35.239  31.596  1.00  0.00     0.060 A 
BRANCH  69  70
ATOM     70  S   UNL A   1      32.419  36.144  31.996  1.00  0.00     0.124 S 
ATOM     71  O   UNL A   1      32.089  36.765  30.716  1.00  0.00    -0.237 OA
ATOM     72  O   UNL A   1      31.524  35.078  32.434  1.00  0.00    -0.237 OA
ATOM     73  O   UNL A   1      32.843  37.070  33.043  1.00  0.00    -0.744 OA
ENDBRANCH  69  70
ENDBRANCH  48  62
BRANCH  49  74
ATOM     74  C   UNL A   1      44.564  28.890  28.545  1.00  0.00     0.058 A 
ATOM     75  C   UNL A   1      44.133  29.064  27.205  1.00  0.00     0.135 A 
ATOM     76  C   UNL A   1      45.381  27.776  28.785  1.00  0.00     0.135 A 
ATOM     77  F   UNL A   1      43.326  30.092  26.889  1.00  0.00    -0.206 F 
ATOM     78  C   UNL A   1      44.581  28.265  26.152  1.00  0.00     0.059 A 
ATOM     79  C   UNL A   1      45.826  26.941  27.741  1.00  0.00     0.059 A 
ATOM     80  F   UNL A   1      45.830  27.518  30.021  1.00  0.00    -0.206 F 
ATOM     81  C   UNL A   1      45.452  27.218  26.423  1.00  0.00     0.060 A 
BRANCH  81  82
ATOM     82  S   UNL A   1      46.227  26.366  25.018  1.00  0.00     0.124 S 
ATOM     83  O   UNL A   1      45.225  25.361  24.681  1.00  0.00    -0.237 OA
ATOM     84  O   UNL A   1      46.380  27.453  24.053  1.00  0.00    -0.237 OA
ATOM     85  O   UNL A   1      47.471  25.855  25.586  1.00  0.00    -0.744 OA
ENDBRANCH  81  82
ENDBRANCH  49  74
BRANCH  61  86
ATOM     86  C   UNL A   1      42.456  35.867  28.949  1.00  0.00     0.058 A 
ATOM     87  C   UNL A   1      43.245  36.815  29.622  1.00  0.00     0.135 A 
ATOM     88  C   UNL A   1      41.947  36.273  27.693  1.00  0.00     0.135 A 
ATOM     89  F   UNL A   1      43.906  36.507  30.749  1.00  0.00    -0.206 F 
ATOM     90  C   UNL A   1      43.420  38.109  29.146  1.00  0.00     0.059 A 
ATOM     91  C   UNL A   1      42.176  37.535  27.161  1.00  0.00     0.059 A 
ATOM     92  F   UNL A   1      41.219  35.450  26.922  1.00  0.00    -0.206 F 
ATOM     93  C   UNL A   1      42.876  38.462  27.918  1.00  0.00     0.060 A 
BRANCH  93  94
ATOM     94  S   UNL A   1      43.110  40.130  27.295  1.00  0.00     0.124 S 
ATOM     95  O   UNL A   1      44.084  39.902  26.233  1.00  0.00    -0.237 OA
ATOM     96  O   UNL A   1      41.768  40.500  26.854  1.00  0.00    -0.237 OA
ATOM     97  O   UNL A   1      43.600  40.857  28.461  1.00  0.00    -0.744 OA
ENDBRANCH  93  94
ENDBRANCH  61  86
ENDBRANCH  35  36
ENDBRANCH  28  30
ENDBRANCH  27  28
ENDBRANCH  26  27
ENDBRANCH   1  26
TORSDOF 17
ENDMDL
