MODEL 1
REMARK VINA RESULT:     -10.7      0.000      0.000
REMARK SMILES O=C(OCCOC(=O)c1cc(S(=O)(=O)Nc2cccc(Cl)c2)ccc1O)c1ccc(-c2c3nc(c(-c4c(F)cc(S(=O)(=O)[O-])cc4F)c4ccc([nH]4)c(-c4c(F)cc(S(=O)(=O)[O-])cc4F)c4nc(c(-c5c(F)cc(S(=O)(=O)[O-])cc5F)c5ccc2[nH]5)C=C4)C=C3)cc1
REMARK SMILES IDX 4 1 3 2 2 3 1 4 27 5 28 6 92 7 29 8 91 9 30 10 31 11 32 12
REMARK SMILES IDX 85 13 33 14 90 15 84 16 86 17 34 18 89 19 83 20 82 21 35 23
REMARK SMILES IDX 69 24 48 25 68 26 49 27 52 28 67 29 87 30 50 31 51 32 66 34
REMARK SMILES IDX 88 35 53 36 36 37 37 38 46 39 38 40 39 41 45 42 47 43 40 44
REMARK SMILES IDX 41 45 42 46 43 47 44 48 70 49 71 50 80 51 72 52 73 53 79 54
REMARK SMILES IDX 81 55 74 56 75 57 76 58 77 59 78 60 54 61 55 62 64 63 56 64
REMARK SMILES IDX 57 65 63 66 65 67 58 68 59 69 60 70 61 71 62 72 5 73 6 74
REMARK SMILES IDX 7 75 8 76 9 77 10 78 25 79 11 80 24 81 23 82 26 83 12 85
REMARK SMILES IDX 13 86 14 87 15 88 16 90 17 91 22 92 18 93 20 94 19 95 21 96
REMARK H PARENT 86 22 52 33 26 84 15 89
REMARK Flexibility Score: inf
ROOT
ATOM      1  C   UNL A   1      34.820  31.591  29.241  1.00  0.00     0.275 C 
ENDROOT
BRANCH   1   2
ATOM      2  O   UNL A   1      35.767  31.516  30.321  1.00  0.00    -0.458 OA
BRANCH   2   3
ATOM      3  C   UNL A   1      36.607  30.526  30.697  1.00  0.00     0.338 C 
ATOM      4  O   UNL A   1      36.272  29.817  31.647  1.00  0.00    -0.246 OA
BRANCH   3   5
ATOM      5  C   UNL A   1      37.955  30.269  30.092  1.00  0.00     0.060 A 
ATOM      6  C   UNL A   1      38.279  30.333  28.735  1.00  0.00     0.016 A 
ATOM      7  C   UNL A   1      38.970  29.876  30.984  1.00  0.00     0.016 A 
ATOM      8  C   UNL A   1      39.577  30.062  28.284  1.00  0.00     0.010 A 
ATOM      9  C   UNL A   1      40.271  29.614  30.542  1.00  0.00     0.010 A 
ATOM     10  C   UNL A   1      40.581  29.694  29.181  1.00  0.00    -0.014 A 
BRANCH  10  11
ATOM     11  C   UNL A   1      41.896  29.238  28.676  1.00  0.00     0.031 A 
ATOM     12  C   UNL A   1      42.999  30.246  28.538  1.00  0.00     0.074 A 
ATOM     13  C   UNL A   1      42.118  27.941  28.386  1.00  0.00     0.049 A 
ATOM     14  N   UNL A   1      44.249  30.058  28.214  1.00  0.00    -0.248 NA
ATOM     15  C   UNL A   1      42.657  31.646  28.843  1.00  0.00     0.031 C 
ATOM     16  C   UNL A   1      41.149  26.864  28.560  1.00  0.00     0.029 A 
ATOM     17  N   UNL A   1      43.222  27.309  27.876  1.00  0.00    -0.354 N 
ATOM     18  C   UNL A   1      44.852  31.304  28.317  1.00  0.00     0.074 A 
ATOM     19  C   UNL A   1      43.816  32.254  28.658  1.00  0.00     0.031 C 
ATOM     20  C   UNL A   1      41.671  25.715  28.097  1.00  0.00     0.029 A 
ATOM     21  C   UNL A   1      43.030  25.969  27.632  1.00  0.00     0.049 A 
ATOM     22  H   UNL A   1      44.074  27.770  27.702  1.00  0.00     0.167 HD
ATOM     23  C   UNL A   1      46.160  31.622  28.181  1.00  0.00     0.037 A 
ATOM     24  C   UNL A   1      43.866  25.048  27.116  1.00  0.00     0.037 A 
ATOM     25  C   UNL A   1      47.175  30.676  27.810  1.00  0.00     0.049 A 
ATOM     26  C   UNL A   1      45.291  25.446  26.850  1.00  0.00     0.074 A 
ATOM     27  C   UNL A   1      48.530  30.881  27.638  1.00  0.00     0.029 A 
ATOM     28  N   UNL A   1      46.931  29.337  27.529  1.00  0.00    -0.354 N 
ATOM     29  N   UNL A   1      45.863  26.614  27.025  1.00  0.00    -0.248 NA
ATOM     30  C   UNL A   1      46.198  24.395  26.369  1.00  0.00     0.031 C 
ATOM     31  C   UNL A   1      49.101  29.675  27.215  1.00  0.00     0.029 A 
ATOM     32  C   UNL A   1      48.108  28.708  27.164  1.00  0.00     0.049 A 
ATOM     33  H   UNL A   1      46.051  28.900  27.583  1.00  0.00     0.167 HD
ATOM     34  C   UNL A   1      47.209  26.426  26.738  1.00  0.00     0.074 A 
ATOM     35  C   UNL A   1      47.361  25.036  26.357  1.00  0.00     0.031 C 
ATOM     36  C   UNL A   1      48.230  27.316  26.807  1.00  0.00     0.037 A 
BRANCH  23  37
ATOM     37  C   UNL A   1      46.531  33.055  28.428  1.00  0.00     0.058 A 
ATOM     38  C   UNL A   1      46.530  34.001  27.387  1.00  0.00     0.135 A 
ATOM     39  C   UNL A   1      46.954  33.478  29.696  1.00  0.00     0.135 A 
ATOM     40  F   UNL A   1      46.157  33.641  26.148  1.00  0.00    -0.206 F 
ATOM     41  C   UNL A   1      46.981  35.301  27.585  1.00  0.00     0.059 A 
ATOM     42  C   UNL A   1      47.388  34.779  29.923  1.00  0.00     0.059 A 
ATOM     43  F   UNL A   1      46.980  32.612  30.723  1.00  0.00    -0.206 F 
ATOM     44  C   UNL A   1      47.422  35.677  28.856  1.00  0.00     0.060 A 
BRANCH  44  45
ATOM     45  S   UNL A   1      48.057  37.351  29.090  1.00  0.00     0.124 S 
ATOM     46  O   UNL A   1      46.821  38.107  29.273  1.00  0.00    -0.237 OA
ATOM     47  O   UNL A   1      48.892  37.207  30.277  1.00  0.00    -0.237 OA
ATOM     48  O   UNL A   1      48.777  37.616  27.849  1.00  0.00    -0.744 OA
ENDBRANCH  44  45
ENDBRANCH  23  37
BRANCH  24  49
ATOM     49  C   UNL A   1      43.396  23.656  26.885  1.00  0.00     0.058 A 
ATOM     50  C   UNL A   1      43.173  23.168  25.589  1.00  0.00     0.135 A 
ATOM     51  C   UNL A   1      43.174  22.779  27.960  1.00  0.00     0.135 A 
ATOM     52  F   UNL A   1      43.374  23.967  24.530  1.00  0.00    -0.206 F 
ATOM     53  C   UNL A   1      42.734  21.866  25.365  1.00  0.00     0.059 A 
ATOM     54  C   UNL A   1      42.749  21.468  27.760  1.00  0.00     0.059 A 
ATOM     55  F   UNL A   1      43.396  23.187  29.219  1.00  0.00    -0.206 F 
ATOM     56  C   UNL A   1      42.526  21.023  26.456  1.00  0.00     0.060 A 
BRANCH  56  57
ATOM     57  S   UNL A   1      42.010  19.318  26.150  1.00  0.00     0.124 S 
ATOM     58  O   UNL A   1      42.782  18.986  24.959  1.00  0.00    -0.237 OA
ATOM     59  O   UNL A   1      42.417  18.654  27.385  1.00  0.00    -0.237 OA
ATOM     60  O   UNL A   1      40.568  19.437  25.959  1.00  0.00    -0.744 OA
ENDBRANCH  56  57
ENDBRANCH  24  49
BRANCH  36  61
ATOM     61  C   UNL A   1      49.610  26.797  26.523  1.00  0.00     0.058 A 
ATOM     62  C   UNL A   1      50.128  26.750  25.222  1.00  0.00     0.135 A 
ATOM     63  C   UNL A   1      50.439  26.393  27.581  1.00  0.00     0.135 A 
ATOM     64  F   UNL A   1      49.369  27.117  24.177  1.00  0.00    -0.206 F 
ATOM     65  C   UNL A   1      51.420  26.299  24.975  1.00  0.00     0.059 A 
ATOM     66  C   UNL A   1      51.742  25.963  27.360  1.00  0.00     0.059 A 
ATOM     67  F   UNL A   1      49.990  26.428  28.846  1.00  0.00    -0.206 F 
ATOM     68  C   UNL A   1      52.220  25.909  26.051  1.00  0.00     0.060 A 
BRANCH  68  69
ATOM     69  S   UNL A   1      53.908  25.362  25.726  1.00  0.00     0.124 S 
ATOM     70  O   UNL A   1      53.685  24.263  24.792  1.00  0.00    -0.237 OA
ATOM     71  O   UNL A   1      54.525  26.559  25.163  1.00  0.00    -0.237 OA
ATOM     72  O   UNL A   1      54.398  24.976  27.046  1.00  0.00    -0.744 OA
ENDBRANCH  68  69
ENDBRANCH  36  61
ENDBRANCH  10  11
ENDBRANCH   3   5
ENDBRANCH   2   3
ENDBRANCH   1   2
BRANCH   1  73
ATOM     73  C   UNL A   1      34.856  32.906  28.466  1.00  0.00     0.275 C 
BRANCH  73  74
ATOM     74  O   UNL A   1      34.951  34.045  29.327  1.00  0.00    -0.458 OA
BRANCH  74  75
ATOM     75  C   UNL A   1      33.777  34.601  29.729  1.00  0.00     0.342 C 
ATOM     76  O   UNL A   1      32.737  34.663  29.094  1.00  0.00    -0.246 OA
BRANCH  75  77
ATOM     77  C   UNL A   1      33.896  34.982  31.150  1.00  0.00     0.103 A 
ATOM     78  C   UNL A   1      34.635  34.145  32.004  1.00  0.00     0.041 A 
ATOM     79  C   UNL A   1      33.365  36.185  31.628  1.00  0.00     0.130 A 
ATOM     80  C   UNL A   1      34.954  34.595  33.291  1.00  0.00     0.088 A 
ATOM     81  C   UNL A   1      33.665  36.611  32.917  1.00  0.00     0.048 A 
ATOM     82  C   UNL A   1      34.532  35.861  33.707  1.00  0.00     0.026 A 
BRANCH  79  83
ATOM     83  O   UNL A   1      32.566  36.959  30.835  1.00  0.00    -0.507 OA
ATOM     84  H   UNL A   1      31.738  36.632  30.544  1.00  0.00     0.293 HD
ENDBRANCH  79  83
BRANCH  80  85
ATOM     85  S   UNL A   1      36.057  33.659  34.329  1.00  0.00     0.261 S 
ATOM     86  O   UNL A   1      35.680  33.902  35.707  1.00  0.00    -0.201 OA
ATOM     87  O   UNL A   1      36.109  32.309  33.813  1.00  0.00    -0.201 OA
BRANCH  85  88
ATOM     88  N   UNL A   1      37.612  34.346  34.165  1.00  0.00    -0.280 N 
ATOM     89  H   UNL A   1      37.945  35.009  34.813  1.00  0.00     0.180 HD
BRANCH  88  90
ATOM     90  C   UNL A   1      38.418  33.929  33.058  1.00  0.00     0.050 A 
ATOM     91  C   UNL A   1      39.652  33.335  33.343  1.00  0.00     0.027 A 
ATOM     92  C   UNL A   1      38.050  34.186  31.737  1.00  0.00     0.047 A 
ATOM     93  C   UNL A   1      40.540  33.034  32.311  1.00  0.00     0.004 A 
ATOM     94  C   UNL A   1      38.934  33.857  30.708  1.00  0.00     0.043 A 
ATOM     95  C   UNL A   1      40.182  33.298  30.990  1.00  0.00     0.020 A 
ATOM     96  Cl  UNL A   1      38.491  34.155  29.072  1.00  0.00    -0.084 Cl
ENDBRANCH  88  90
ENDBRANCH  85  88
ENDBRANCH  80  85
ENDBRANCH  75  77
ENDBRANCH  74  75
ENDBRANCH  73  74
ENDBRANCH   1  73
TORSDOF 18
ENDMDL
MODEL 2
REMARK VINA RESULT:     -10.6      0.671      8.297
REMARK SMILES O=C(OCCOC(=O)c1cc(S(=O)(=O)Nc2cccc(Cl)c2)ccc1O)c1ccc(-c2c3nc(c(-c4c(F)cc(S(=O)(=O)[O-])cc4F)c4ccc([nH]4)c(-c4c(F)cc(S(=O)(=O)[O-])cc4F)c4nc(c(-c5c(F)cc(S(=O)(=O)[O-])cc5F)c5ccc2[nH]5)C=C4)C=C3)cc1
REMARK SMILES IDX 4 1 3 2 2 3 1 4 27 5 28 6 92 7 29 8 91 9 30 10 31 11 32 12
REMARK SMILES IDX 85 13 33 14 90 15 84 16 86 17 34 18 89 19 83 20 82 21 35 23
REMARK SMILES IDX 69 24 48 25 68 26 49 27 52 28 67 29 87 30 50 31 51 32 66 34
REMARK SMILES IDX 88 35 53 36 36 37 37 38 46 39 38 40 39 41 45 42 47 43 40 44
REMARK SMILES IDX 41 45 42 46 43 47 44 48 70 49 71 50 80 51 72 52 73 53 79 54
REMARK SMILES IDX 81 55 74 56 75 57 76 58 77 59 78 60 54 61 55 62 64 63 56 64
REMARK SMILES IDX 57 65 63 66 65 67 58 68 59 69 60 70 61 71 62 72 5 73 6 74
REMARK SMILES IDX 7 75 8 76 9 77 10 78 25 79 11 80 24 81 23 82 26 83 12 85
REMARK SMILES IDX 13 86 14 87 15 88 16 90 17 91 22 92 18 93 20 94 19 95 21 96
REMARK H PARENT 86 22 52 33 26 84 15 89
REMARK Flexibility Score: inf
ROOT
ATOM      1  C   UNL A   1      34.971  31.631  28.942  1.00  0.00     0.275 C 
ENDROOT
BRANCH   1   2
ATOM      2  O   UNL A   1      35.861  31.494  30.064  1.00  0.00    -0.458 OA
BRANCH   2   3
ATOM      3  C   UNL A   1      36.681  30.482  30.426  1.00  0.00     0.338 C 
ATOM      4  O   UNL A   1      36.280  29.695  31.285  1.00  0.00    -0.246 OA
BRANCH   3   5
ATOM      5  C   UNL A   1      38.078  30.286  29.916  1.00  0.00     0.060 A 
ATOM      6  C   UNL A   1      38.460  30.156  28.579  1.00  0.00     0.016 A 
ATOM      7  C   UNL A   1      39.084  30.171  30.893  1.00  0.00     0.016 A 
ATOM      8  C   UNL A   1      39.801  29.967  28.221  1.00  0.00     0.010 A 
ATOM      9  C   UNL A   1      40.427  29.991  30.543  1.00  0.00     0.010 A 
ATOM     10  C   UNL A   1      40.794  29.876  29.199  1.00  0.00    -0.014 A 
BRANCH  10  11
ATOM     11  C   UNL A   1      42.175  29.497  28.821  1.00  0.00     0.031 A 
ATOM     12  C   UNL A   1      42.453  28.065  28.472  1.00  0.00     0.074 A 
ATOM     13  C   UNL A   1      43.154  30.419  28.747  1.00  0.00     0.049 A 
ATOM     14  N   UNL A   1      43.554  27.527  28.020  1.00  0.00    -0.248 NA
ATOM     15  C   UNL A   1      41.333  27.119  28.616  1.00  0.00     0.031 C 
ATOM     16  C   UNL A   1      42.980  31.849  28.982  1.00  0.00     0.029 A 
ATOM     17  N   UNL A   1      44.489  30.294  28.463  1.00  0.00    -0.354 N 
ATOM     18  C   UNL A   1      43.248  26.194  27.785  1.00  0.00     0.074 A 
ATOM     19  C   UNL A   1      41.883  25.985  28.215  1.00  0.00     0.031 C 
ATOM     20  C   UNL A   1      44.173  32.462  28.906  1.00  0.00     0.029 A 
ATOM     21  C   UNL A   1      45.191  31.471  28.573  1.00  0.00     0.049 A 
ATOM     22  H   UNL A   1      44.906  29.441  28.203  1.00  0.00     0.167 HD
ATOM     23  C   UNL A   1      44.021  25.238  27.220  1.00  0.00     0.037 A 
ATOM     24  C   UNL A   1      46.503  31.724  28.401  1.00  0.00     0.037 A 
ATOM     25  C   UNL A   1      45.386  25.449  26.826  1.00  0.00     0.049 A 
ATOM     26  C   UNL A   1      47.382  30.616  27.890  1.00  0.00     0.074 A 
ATOM     27  C   UNL A   1      46.269  24.557  26.248  1.00  0.00     0.029 A 
ATOM     28  N   UNL A   1      46.074  26.644  26.995  1.00  0.00    -0.354 N 
ATOM     29  N   UNL A   1      47.057  29.378  27.601  1.00  0.00    -0.248 NA
ATOM     30  C   UNL A   1      48.789  30.948  27.630  1.00  0.00     0.031 C 
ATOM     31  C   UNL A   1      47.503  25.201  26.104  1.00  0.00     0.029 A 
ATOM     32  C   UNL A   1      47.377  26.507  26.553  1.00  0.00     0.049 A 
ATOM     33  H   UNL A   1      45.690  27.468  27.374  1.00  0.00     0.167 HD
ATOM     34  C   UNL A   1      48.201  28.800  27.066  1.00  0.00     0.074 A 
ATOM     35  C   UNL A   1      49.232  29.819  27.091  1.00  0.00     0.031 C 
ATOM     36  C   UNL A   1      48.376  27.548  26.575  1.00  0.00     0.037 A 
BRANCH  23  37
ATOM     37  C   UNL A   1      43.387  23.892  27.022  1.00  0.00     0.058 A 
ATOM     38  C   UNL A   1      42.880  23.500  25.771  1.00  0.00     0.135 A 
ATOM     39  C   UNL A   1      43.225  23.011  28.101  1.00  0.00     0.135 A 
ATOM     40  F   UNL A   1      42.988  24.318  24.712  1.00  0.00    -0.206 F 
ATOM     41  C   UNL A   1      42.191  22.303  25.609  1.00  0.00     0.059 A 
ATOM     42  C   UNL A   1      42.559  21.798  27.957  1.00  0.00     0.059 A 
ATOM     43  F   UNL A   1      43.686  23.341  29.319  1.00  0.00    -0.206 F 
ATOM     44  C   UNL A   1      42.023  21.465  26.713  1.00  0.00     0.060 A 
BRANCH  44  45
ATOM     45  S   UNL A   1      41.080  19.939  26.504  1.00  0.00     0.124 S 
ATOM     46  O   UNL A   1      41.200  19.340  27.830  1.00  0.00    -0.237 OA
ATOM     47  O   UNL A   1      39.754  20.435  26.152  1.00  0.00    -0.237 OA
ATOM     48  O   UNL A   1      41.791  19.246  25.435  1.00  0.00    -0.744 OA
ENDBRANCH  44  45
ENDBRANCH  23  37
BRANCH  24  49
ATOM     49  C   UNL A   1      47.042  33.088  28.647  1.00  0.00     0.058 A 
ATOM     50  C   UNL A   1      47.518  33.466  29.910  1.00  0.00     0.135 A 
ATOM     51  C   UNL A   1      47.105  34.038  27.614  1.00  0.00     0.135 A 
ATOM     52  F   UNL A   1      47.481  32.593  30.928  1.00  0.00    -0.206 F 
ATOM     53  C   UNL A   1      48.024  34.741  30.148  1.00  0.00     0.059 A 
ATOM     54  C   UNL A   1      47.621  35.315  27.823  1.00  0.00     0.059 A 
ATOM     55  F   UNL A   1      46.686  33.720  26.378  1.00  0.00    -0.206 F 
ATOM     56  C   UNL A   1      48.073  35.658  29.098  1.00  0.00     0.060 A 
BRANCH  56  57
ATOM     57  S   UNL A   1      48.784  37.291  29.404  1.00  0.00     0.124 S 
ATOM     58  O   UNL A   1      50.195  37.056  29.122  1.00  0.00    -0.237 OA
ATOM     59  O   UNL A   1      48.065  38.118  28.439  1.00  0.00    -0.237 OA
ATOM     60  O   UNL A   1      48.450  37.542  30.802  1.00  0.00    -0.744 OA
ENDBRANCH  56  57
ENDBRANCH  24  49
BRANCH  36  61
ATOM     61  C   UNL A   1      49.713  27.231  25.970  1.00  0.00     0.058 A 
ATOM     62  C   UNL A   1      50.783  26.765  26.746  1.00  0.00     0.135 A 
ATOM     63  C   UNL A   1      49.902  27.346  24.584  1.00  0.00     0.135 A 
ATOM     64  F   UNL A   1      50.654  26.648  28.077  1.00  0.00    -0.206 F 
ATOM     65  C   UNL A   1      52.007  26.442  26.169  1.00  0.00     0.059 A 
ATOM     66  C   UNL A   1      51.107  27.005  23.983  1.00  0.00     0.059 A 
ATOM     67  F   UNL A   1      48.902  27.780  23.798  1.00  0.00    -0.206 F 
ATOM     68  C   UNL A   1      52.158  26.564  24.786  1.00  0.00     0.060 A 
BRANCH  68  69
ATOM     69  S   UNL A   1      53.736  26.107  24.041  1.00  0.00     0.124 S 
ATOM     70  O   UNL A   1      54.595  27.202  24.480  1.00  0.00    -0.237 OA
ATOM     71  O   UNL A   1      54.006  24.807  24.647  1.00  0.00    -0.237 OA
ATOM     72  O   UNL A   1      53.438  26.075  22.612  1.00  0.00    -0.744 OA
ENDBRANCH  68  69
ENDBRANCH  36  61
ENDBRANCH  10  11
ENDBRANCH   3   5
ENDBRANCH   2   3
ENDBRANCH   1   2
BRANCH   1  73
ATOM     73  C   UNL A   1      35.018  33.002  28.270  1.00  0.00     0.275 C 
BRANCH  73  74
ATOM     74  O   UNL A   1      35.013  34.075  29.216  1.00  0.00    -0.458 OA
BRANCH  74  75
ATOM     75  C   UNL A   1      33.795  34.497  29.648  1.00  0.00     0.342 C 
ATOM     76  O   UNL A   1      32.741  34.455  29.033  1.00  0.00    -0.246 OA
BRANCH  75  77
ATOM     77  C   UNL A   1      33.900  34.871  31.072  1.00  0.00     0.103 A 
ATOM     78  C   UNL A   1      34.708  34.082  31.909  1.00  0.00     0.041 A 
ATOM     79  C   UNL A   1      33.288  36.026  31.568  1.00  0.00     0.130 A 
ATOM     80  C   UNL A   1      35.006  34.540  33.198  1.00  0.00     0.088 A 
ATOM     81  C   UNL A   1      33.570  36.459  32.859  1.00  0.00     0.048 A 
ATOM     82  C   UNL A   1      34.498  35.767  33.632  1.00  0.00     0.026 A 
BRANCH  79  83
ATOM     83  O   UNL A   1      32.427  36.748  30.792  1.00  0.00    -0.507 OA
ATOM     84  H   UNL A   1      31.791  37.308  31.194  1.00  0.00     0.293 HD
ENDBRANCH  79  83
BRANCH  80  85
ATOM     85  S   UNL A   1      36.186  33.676  34.214  1.00  0.00     0.261 S 
ATOM     86  O   UNL A   1      35.798  33.864  35.598  1.00  0.00    -0.201 OA
ATOM     87  O   UNL A   1      36.343  32.344  33.673  1.00  0.00    -0.201 OA
BRANCH  85  88
ATOM     88  N   UNL A   1      37.681  34.489  34.057  1.00  0.00    -0.280 N 
ATOM     89  H   UNL A   1      37.950  35.184  34.701  1.00  0.00     0.180 HD
BRANCH  88  90
ATOM     90  C   UNL A   1      38.531  34.128  32.965  1.00  0.00     0.050 A 
ATOM     91  C   UNL A   1      39.865  33.823  33.255  1.00  0.00     0.027 A 
ATOM     92  C   UNL A   1      38.091  34.169  31.641  1.00  0.00     0.047 A 
ATOM     93  C   UNL A   1      40.773  33.598  32.222  1.00  0.00     0.004 A 
ATOM     94  C   UNL A   1      39.002  33.917  30.613  1.00  0.00     0.043 A 
ATOM     95  C   UNL A   1      40.342  33.648  30.896  1.00  0.00     0.020 A 
ATOM     96  Cl  UNL A   1      38.474  33.950  28.976  1.00  0.00    -0.084 Cl
ENDBRANCH  88  90
ENDBRANCH  85  88
ENDBRANCH  80  85
ENDBRANCH  75  77
ENDBRANCH  74  75
ENDBRANCH  73  74
ENDBRANCH   1  73
TORSDOF 18
ENDMDL
MODEL 3
REMARK VINA RESULT:     -10.6      3.265      4.098
REMARK SMILES O=C(OCCOC(=O)c1cc(S(=O)(=O)Nc2cccc(Cl)c2)ccc1O)c1ccc(-c2c3nc(c(-c4c(F)cc(S(=O)(=O)[O-])cc4F)c4ccc([nH]4)c(-c4c(F)cc(S(=O)(=O)[O-])cc4F)c4nc(c(-c5c(F)cc(S(=O)(=O)[O-])cc5F)c5ccc2[nH]5)C=C4)C=C3)cc1
REMARK SMILES IDX 4 1 3 2 2 3 1 4 27 5 28 6 92 7 29 8 91 9 30 10 31 11 32 12
REMARK SMILES IDX 85 13 33 14 90 15 84 16 86 17 34 18 89 19 83 20 82 21 35 23
REMARK SMILES IDX 69 24 48 25 68 26 49 27 52 28 67 29 87 30 50 31 51 32 66 34
REMARK SMILES IDX 88 35 53 36 36 37 37 38 46 39 38 40 39 41 45 42 47 43 40 44
REMARK SMILES IDX 41 45 42 46 43 47 44 48 70 49 71 50 80 51 72 52 73 53 79 54
REMARK SMILES IDX 81 55 74 56 75 57 76 58 77 59 78 60 54 61 55 62 64 63 56 64
REMARK SMILES IDX 57 65 63 66 65 67 58 68 59 69 60 70 61 71 62 72 5 73 6 74
REMARK SMILES IDX 7 75 8 76 9 77 10 78 25 79 11 80 24 81 23 82 26 83 12 85
REMARK SMILES IDX 13 86 14 87 15 88 16 90 17 91 22 92 18 93 20 94 19 95 21 96
REMARK H PARENT 86 22 52 33 26 84 15 89
REMARK Flexibility Score: inf
ROOT
ATOM      1  C   UNL A   1      33.151  32.861  27.767  1.00  0.00     0.275 C 
ENDROOT
BRANCH   1   2
ATOM      2  O   UNL A   1      34.099  32.001  28.422  1.00  0.00    -0.458 OA
BRANCH   2   3
ATOM      3  C   UNL A   1      34.506  30.745  28.131  1.00  0.00     0.338 C 
ATOM      4  O   UNL A   1      33.687  29.978  27.623  1.00  0.00    -0.246 OA
BRANCH   3   5
ATOM      5  C   UNL A   1      35.861  30.187  28.450  1.00  0.00     0.060 A 
ATOM      6  C   UNL A   1      36.284  29.696  29.687  1.00  0.00     0.016 A 
ATOM      7  C   UNL A   1      36.805  30.215  27.406  1.00  0.00     0.016 A 
ATOM      8  C   UNL A   1      37.584  29.206  29.870  1.00  0.00     0.010 A 
ATOM      9  C   UNL A   1      38.101  29.718  27.578  1.00  0.00     0.010 A 
ATOM     10  C   UNL A   1      38.504  29.219  28.820  1.00  0.00    -0.014 A 
BRANCH  10  11
ATOM     11  C   UNL A   1      39.921  28.868  29.072  1.00  0.00     0.031 A 
ATOM     12  C   UNL A   1      40.814  29.902  29.692  1.00  0.00     0.074 A 
ATOM     13  C   UNL A   1      40.393  27.638  28.793  1.00  0.00     0.049 A 
ATOM     14  N   UNL A   1      42.052  29.786  30.090  1.00  0.00    -0.248 NA
ATOM     15  C   UNL A   1      40.224  31.230  29.929  1.00  0.00     0.031 C 
ATOM     16  C   UNL A   1      39.598  26.532  28.268  1.00  0.00     0.029 A 
ATOM     17  N   UNL A   1      41.653  27.111  28.904  1.00  0.00    -0.354 N 
ATOM     18  C   UNL A   1      42.374  31.009  30.663  1.00  0.00     0.074 A 
ATOM     19  C   UNL A   1      41.230  31.877  30.492  1.00  0.00     0.031 C 
ATOM     20  C   UNL A   1      40.398  25.479  28.031  1.00  0.00     0.029 A 
ATOM     21  C   UNL A   1      41.759  25.824  28.430  1.00  0.00     0.049 A 
ATOM     22  H   UNL A   1      42.412  27.606  29.287  1.00  0.00     0.167 HD
ATOM     23  C   UNL A   1      43.507  31.364  31.312  1.00  0.00     0.037 A 
ATOM     24  C   UNL A   1      42.828  25.009  28.350  1.00  0.00     0.037 A 
ATOM     25  C   UNL A   1      44.649  30.503  31.448  1.00  0.00     0.049 A 
ATOM     26  C   UNL A   1      44.121  25.465  28.966  1.00  0.00     0.074 A 
ATOM     27  C   UNL A   1      45.852  30.753  32.080  1.00  0.00     0.029 A 
ATOM     28  N   UNL A   1      44.732  29.223  30.916  1.00  0.00    -0.354 N 
ATOM     29  N   UNL A   1      44.386  26.599  29.572  1.00  0.00    -0.248 NA
ATOM     30  C   UNL A   1      45.244  24.518  28.940  1.00  0.00     0.031 C 
ATOM     31  C   UNL A   1      46.678  29.638  31.896  1.00  0.00     0.029 A 
ATOM     32  C   UNL A   1      45.974  28.677  31.186  1.00  0.00     0.049 A 
ATOM     33  H   UNL A   1      44.012  28.769  30.420  1.00  0.00     0.167 HD
ATOM     34  C   UNL A   1      45.683  26.479  30.054  1.00  0.00     0.074 A 
ATOM     35  C   UNL A   1      46.156  25.169  29.651  1.00  0.00     0.031 C 
ATOM     36  C   UNL A   1      46.408  27.361  30.785  1.00  0.00     0.037 A 
BRANCH  23  37
ATOM     37  C   UNL A   1      43.540  32.745  31.899  1.00  0.00     0.058 A 
ATOM     38  C   UNL A   1      44.081  33.829  31.187  1.00  0.00     0.135 A 
ATOM     39  C   UNL A   1      43.088  32.979  33.206  1.00  0.00     0.135 A 
ATOM     40  F   UNL A   1      44.550  33.653  29.941  1.00  0.00    -0.206 F 
ATOM     41  C   UNL A   1      44.217  35.085  31.768  1.00  0.00     0.059 A 
ATOM     42  C   UNL A   1      43.193  34.232  33.799  1.00  0.00     0.059 A 
ATOM     43  F   UNL A   1      42.568  31.975  33.931  1.00  0.00    -0.206 F 
ATOM     44  C   UNL A   1      43.782  35.273  33.081  1.00  0.00     0.060 A 
BRANCH  44  45
ATOM     45  S   UNL A   1      44.014  36.893  33.844  1.00  0.00     0.124 S 
ATOM     46  O   UNL A   1      44.069  37.761  32.672  1.00  0.00    -0.237 OA
ATOM     47  O   UNL A   1      42.819  37.024  34.672  1.00  0.00    -0.237 OA
ATOM     48  O   UNL A   1      45.266  36.745  34.578  1.00  0.00    -0.744 OA
ENDBRANCH  44  45
ENDBRANCH  23  37
BRANCH  24  49
ATOM     49  C   UNL A   1      42.700  23.665  27.727  1.00  0.00     0.058 A 
ATOM     50  C   UNL A   1      42.859  23.484  26.345  1.00  0.00     0.135 A 
ATOM     51  C   UNL A   1      42.431  22.528  28.507  1.00  0.00     0.135 A 
ATOM     52  F   UNL A   1      43.120  24.539  25.559  1.00  0.00    -0.206 F 
ATOM     53  C   UNL A   1      42.742  22.229  25.755  1.00  0.00     0.059 A 
ATOM     54  C   UNL A   1      42.324  21.260  27.941  1.00  0.00     0.059 A 
ATOM     55  F   UNL A   1      42.295  22.640  29.838  1.00  0.00    -0.206 F 
ATOM     56  C   UNL A   1      42.476  21.122  26.561  1.00  0.00     0.060 A 
BRANCH  56  57
ATOM     57  S   UNL A   1      42.381  19.490  25.791  1.00  0.00     0.124 S 
ATOM     58  O   UNL A   1      42.778  18.621  26.892  1.00  0.00    -0.237 OA
ATOM     59  O   UNL A   1      40.977  19.425  25.396  1.00  0.00    -0.237 OA
ATOM     60  O   UNL A   1      43.330  19.588  24.687  1.00  0.00    -0.744 OA
ENDBRANCH  56  57
ENDBRANCH  24  49
BRANCH  36  61
ATOM     61  C   UNL A   1      47.765  26.914  31.247  1.00  0.00     0.058 A 
ATOM     62  C   UNL A   1      47.932  26.118  32.389  1.00  0.00     0.135 A 
ATOM     63  C   UNL A   1      48.906  27.247  30.501  1.00  0.00     0.135 A 
ATOM     64  F   UNL A   1      46.872  25.782  33.140  1.00  0.00    -0.206 F 
ATOM     65  C   UNL A   1      49.191  25.682  32.788  1.00  0.00     0.059 A 
ATOM     66  C   UNL A   1      50.171  26.802  30.866  1.00  0.00     0.059 A 
ATOM     67  F   UNL A   1      48.795  28.001  29.394  1.00  0.00    -0.206 F 
ATOM     68  C   UNL A   1      50.304  26.028  32.018  1.00  0.00     0.060 A 
BRANCH  68  69
ATOM     69  S   UNL A   1      51.929  25.426  32.521  1.00  0.00     0.124 S 
ATOM     70  O   UNL A   1      52.178  26.223  33.718  1.00  0.00    -0.237 OA
ATOM     71  O   UNL A   1      51.683  24.005  32.744  1.00  0.00    -0.237 OA
ATOM     72  O   UNL A   1      52.774  25.736  31.372  1.00  0.00    -0.744 OA
ENDBRANCH  68  69
ENDBRANCH  36  61
ENDBRANCH  10  11
ENDBRANCH   3   5
ENDBRANCH   2   3
ENDBRANCH   1   2
BRANCH   1  73
ATOM     73  C   UNL A   1      33.247  34.328  28.180  1.00  0.00     0.275 C 
BRANCH  73  74
ATOM     74  O   UNL A   1      32.619  34.583  29.440  1.00  0.00    -0.458 OA
BRANCH  74  75
ATOM     75  C   UNL A   1      32.971  35.734  30.072  1.00  0.00     0.342 C 
ATOM     76  O   UNL A   1      32.603  36.866  29.799  1.00  0.00    -0.246 OA
BRANCH  75  77
ATOM     77  C   UNL A   1      33.754  35.393  31.276  1.00  0.00     0.103 A 
ATOM     78  C   UNL A   1      34.769  34.428  31.159  1.00  0.00     0.041 A 
ATOM     79  C   UNL A   1      33.558  36.067  32.486  1.00  0.00     0.130 A 
ATOM     80  C   UNL A   1      35.669  34.253  32.217  1.00  0.00     0.088 A 
ATOM     81  C   UNL A   1      34.442  35.866  33.541  1.00  0.00     0.048 A 
ATOM     82  C   UNL A   1      35.544  35.033  33.369  1.00  0.00     0.026 A 
BRANCH  79  83
ATOM     83  O   UNL A   1      32.517  36.936  32.640  1.00  0.00    -0.507 OA
ATOM     84  H   UNL A   1      32.636  37.847  32.456  1.00  0.00     0.293 HD
ENDBRANCH  79  83
BRANCH  80  85
ATOM     85  S   UNL A   1      37.087  33.192  32.032  1.00  0.00     0.261 S 
ATOM     86  O   UNL A   1      37.155  32.783  30.644  1.00  0.00    -0.201 OA
ATOM     87  O   UNL A   1      38.214  33.848  32.658  1.00  0.00    -0.201 OA
BRANCH  85  88
ATOM     88  N   UNL A   1      36.763  31.757  32.902  1.00  0.00    -0.280 N 
ATOM     89  H   UNL A   1      35.886  31.313  32.840  1.00  0.00     0.180 HD
BRANCH  88  90
ATOM     90  C   UNL A   1      37.804  31.219  33.723  1.00  0.00     0.050 A 
ATOM     91  C   UNL A   1      37.844  31.616  35.063  1.00  0.00     0.027 A 
ATOM     92  C   UNL A   1      38.811  30.406  33.200  1.00  0.00     0.047 A 
ATOM     93  C   UNL A   1      38.910  31.235  35.876  1.00  0.00     0.004 A 
ATOM     94  C   UNL A   1      39.863  30.008  34.028  1.00  0.00     0.043 A 
ATOM     95  C   UNL A   1      39.925  30.431  35.357  1.00  0.00     0.020 A 
ATOM     96  Cl  UNL A   1      41.105  28.994  33.405  1.00  0.00    -0.084 Cl
ENDBRANCH  88  90
ENDBRANCH  85  88
ENDBRANCH  80  85
ENDBRANCH  75  77
ENDBRANCH  74  75
ENDBRANCH  73  74
ENDBRANCH   1  73
TORSDOF 18
ENDMDL
