MODEL 1
REMARK VINA RESULT:     -11.2      0.000      0.000
REMARK SMILES CCc1nn(-c2ccncn2)c(Cl)c1C(=O)OCCOC(=O)c1ccc(-c2c3nc(c(-c4c(F)cc(S(=O)(=O)[O-])cc4F)c4ccc([nH]4)c(-c4c(F)cc(S(=O)(=O)[O-])cc4F)c4nc(c(-c5c(F)cc(S(=O)(=O)[O-])cc5F)c5ccc2[nH]5)C=C4)C=C3)cc1
REMARK SMILES IDX 19 1 18 2 17 3 15 4 16 5 14 6 3 7 4 8 5 9 12 10 13 11 2 12
REMARK SMILES IDX 1 13 6 14 7 15 11 16 8 17 10 18 9 19 20 20 21 21 22 22 23 23
REMARK SMILES IDX 24 24 88 25 25 26 87 27 26 28 27 29 28 30 81 31 29 32 86 33
REMARK SMILES IDX 80 34 82 35 30 36 85 37 79 38 78 39 31 41 65 42 44 43 64 44
REMARK SMILES IDX 45 45 48 46 63 47 83 48 46 49 47 50 62 52 84 53 49 54 32 55
REMARK SMILES IDX 33 56 42 57 34 58 35 59 41 60 43 61 36 62 37 63 38 64 39 65
REMARK SMILES IDX 40 66 66 67 67 68 76 69 68 70 69 71 75 72 77 73 70 74 71 75
REMARK SMILES IDX 72 76 73 77 74 78 50 79 51 80 60 81 52 82 53 83 59 84 61 85
REMARK SMILES IDX 54 86 55 87 56 88 57 89 58 90
REMARK H PARENT 82 40 48 51
REMARK Flexibility Score: inf
ROOT
ATOM      1  C   UNL A   1      33.820  33.504  27.995  1.00  0.00     0.275 C 
ENDROOT
BRANCH   1   2
ATOM      2  C   UNL A   1      34.003  34.561  29.070  1.00  0.00     0.275 C 
BRANCH   2   3
ATOM      3  O   UNL A   1      35.113  34.222  29.912  1.00  0.00    -0.458 OA
BRANCH   3   4
ATOM      4  C   UNL A   1      34.845  33.423  30.984  1.00  0.00     0.343 C 
ATOM      5  O   UNL A   1      34.282  32.336  30.897  1.00  0.00    -0.246 OA
BRANCH   4   6
ATOM      6  C   UNL A   1      35.343  33.969  32.230  1.00  0.00     0.120 A 
ATOM      7  C   UNL A   1      34.849  35.027  33.051  1.00  0.00     0.079 A 
ATOM      8  N   UNL A   1      35.597  35.203  34.156  1.00  0.00    -0.169 NA
ATOM      9  N   UNL A   1      36.651  34.360  33.988  1.00  0.00    -0.203 N 
ATOM     10  C   UNL A   1      36.503  33.588  32.862  1.00  0.00     0.149 A 
ATOM     11  Cl  UNL A   1      37.663  32.397  32.459  1.00  0.00    -0.061 Cl
BRANCH   7  12
ATOM     12  C   UNL A   1      33.680  35.934  32.802  1.00  0.00     0.056 C 
ATOM     13  C   UNL A   1      34.021  37.418  32.804  1.00  0.00     0.011 C 
ENDBRANCH   7  12
BRANCH   9  14
ATOM     14  C   UNL A   1      37.729  34.315  34.911  1.00  0.00     0.158 A 
ATOM     15  C   UNL A   1      37.561  33.574  36.068  1.00  0.00     0.069 A 
ATOM     16  N   UNL A   1      38.779  35.144  34.698  1.00  0.00    -0.217 NA
ATOM     17  C   UNL A   1      38.531  33.745  37.026  1.00  0.00     0.117 A 
ATOM     18  C   UNL A   1      39.648  35.237  35.712  1.00  0.00     0.224 A 
ATOM     19  N   UNL A   1      39.578  34.578  36.881  1.00  0.00    -0.245 NA
ENDBRANCH   9  14
ENDBRANCH   4   6
ENDBRANCH   3   4
ENDBRANCH   2   3
ENDBRANCH   1   2
BRANCH   1  20
ATOM     20  O   UNL A   1      35.064  32.890  27.672  1.00  0.00    -0.458 OA
BRANCH  20  21
ATOM     21  C   UNL A   1      35.036  31.541  27.574  1.00  0.00     0.338 C 
ATOM     22  O   UNL A   1      34.135  30.846  27.138  1.00  0.00    -0.246 OA
BRANCH  21  23
ATOM     23  C   UNL A   1      36.214  31.002  28.248  1.00  0.00     0.060 A 
ATOM     24  C   UNL A   1      37.148  31.902  28.769  1.00  0.00     0.016 A 
ATOM     25  C   UNL A   1      36.483  29.631  28.133  1.00  0.00     0.016 A 
ATOM     26  C   UNL A   1      38.416  31.439  29.052  1.00  0.00     0.010 A 
ATOM     27  C   UNL A   1      37.741  29.173  28.417  1.00  0.00     0.010 A 
ATOM     28  C   UNL A   1      38.712  30.094  28.802  1.00  0.00    -0.014 A 
BRANCH  28  29
ATOM     29  C   UNL A   1      40.054  29.615  29.058  1.00  0.00     0.031 A 
ATOM     30  C   UNL A   1      40.388  29.599  30.501  1.00  0.00     0.074 A 
ATOM     31  C   UNL A   1      40.810  29.093  28.073  1.00  0.00     0.049 A 
ATOM     32  N   UNL A   1      41.280  30.300  31.118  1.00  0.00    -0.248 NA
ATOM     33  C   UNL A   1      39.490  28.854  31.401  1.00  0.00     0.031 C 
ATOM     34  C   UNL A   1      40.420  28.842  26.679  1.00  0.00     0.029 A 
ATOM     35  N   UNL A   1      42.062  28.568  28.133  1.00  0.00    -0.354 N 
ATOM     36  C   UNL A   1      41.222  29.885  32.444  1.00  0.00     0.074 A 
ATOM     37  C   UNL A   1      39.983  29.173  32.597  1.00  0.00     0.031 C 
ATOM     38  C   UNL A   1      41.318  28.012  26.103  1.00  0.00     0.029 A 
ATOM     39  C   UNL A   1      42.410  27.792  27.034  1.00  0.00     0.049 A 
ATOM     40  H   UNL A   1      42.671  28.725  28.890  1.00  0.00     0.167 HD
ATOM     41  C   UNL A   1      42.335  29.894  33.226  1.00  0.00     0.037 A 
ATOM     42  C   UNL A   1      43.492  26.981  26.928  1.00  0.00     0.037 A 
ATOM     43  C   UNL A   1      43.358  30.735  32.657  1.00  0.00     0.049 A 
ATOM     44  C   UNL A   1      44.477  27.449  27.934  1.00  0.00     0.074 A 
ATOM     45  C   UNL A   1      43.498  32.084  32.410  1.00  0.00     0.029 A 
ATOM     46  N   UNL A   1      44.293  30.091  31.886  1.00  0.00    -0.354 N 
ATOM     47  N   UNL A   1      45.048  28.623  27.892  1.00  0.00    -0.248 NA
ATOM     48  C   UNL A   1      44.513  26.793  29.233  1.00  0.00     0.031 C 
ATOM     49  C   UNL A   1      44.283  32.175  31.222  1.00  0.00     0.029 A 
ATOM     50  C   UNL A   1      44.629  30.883  30.819  1.00  0.00     0.049 A 
ATOM     51  H   UNL A   1      44.664  29.198  32.070  1.00  0.00     0.167 HD
ATOM     52  C   UNL A   1      45.132  29.030  29.215  1.00  0.00     0.074 A 
ATOM     53  C   UNL A   1      44.925  27.812  29.993  1.00  0.00     0.031 C 
ATOM     54  C   UNL A   1      45.072  30.355  29.543  1.00  0.00     0.037 A 
BRANCH  41  55
ATOM     55  C   UNL A   1      42.661  28.803  34.222  1.00  0.00     0.058 A 
ATOM     56  C   UNL A   1      42.862  27.488  33.759  1.00  0.00     0.135 A 
ATOM     57  C   UNL A   1      42.485  28.936  35.619  1.00  0.00     0.135 A 
ATOM     58  F   UNL A   1      43.023  27.242  32.449  1.00  0.00    -0.206 F 
ATOM     59  C   UNL A   1      42.824  26.382  34.612  1.00  0.00     0.059 A 
ATOM     60  C   UNL A   1      42.499  27.855  36.493  1.00  0.00     0.059 A 
ATOM     61  F   UNL A   1      42.187  30.104  36.200  1.00  0.00    -0.206 F 
ATOM     62  C   UNL A   1      42.627  26.578  35.976  1.00  0.00     0.060 A 
BRANCH  62  63
ATOM     63  S   UNL A   1      42.474  25.155  37.068  1.00  0.00     0.124 S 
ATOM     64  O   UNL A   1      41.166  25.392  37.670  1.00  0.00    -0.237 OA
ATOM     65  O   UNL A   1      42.556  24.043  36.128  1.00  0.00    -0.237 OA
ATOM     66  O   UNL A   1      43.616  25.296  37.966  1.00  0.00    -0.744 OA
ENDBRANCH  62  63
ENDBRANCH  41  55
BRANCH  42  67
ATOM     67  C   UNL A   1      43.556  25.650  26.269  1.00  0.00     0.058 A 
ATOM     68  C   UNL A   1      44.490  25.359  25.261  1.00  0.00     0.135 A 
ATOM     69  C   UNL A   1      42.857  24.545  26.801  1.00  0.00     0.135 A 
ATOM     70  F   UNL A   1      45.228  26.342  24.722  1.00  0.00    -0.206 F 
ATOM     71  C   UNL A   1      44.732  24.050  24.820  1.00  0.00     0.059 A 
ATOM     72  C   UNL A   1      43.074  23.237  26.375  1.00  0.00     0.059 A 
ATOM     73  F   UNL A   1      41.996  24.700  27.819  1.00  0.00    -0.206 F 
ATOM     74  C   UNL A   1      44.025  22.992  25.393  1.00  0.00     0.060 A 
BRANCH  74  75
ATOM     75  S   UNL A   1      44.416  21.291  24.919  1.00  0.00     0.124 S 
ATOM     76  O   UNL A   1      45.635  21.039  25.678  1.00  0.00    -0.237 OA
ATOM     77  O   UNL A   1      43.229  20.566  25.360  1.00  0.00    -0.237 OA
ATOM     78  O   UNL A   1      44.589  21.372  23.471  1.00  0.00    -0.744 OA
ENDBRANCH  74  75
ENDBRANCH  42  67
BRANCH  54  79
ATOM     79  C   UNL A   1      45.297  31.356  28.436  1.00  0.00     0.058 A 
ATOM     80  C   UNL A   1      44.289  31.861  27.598  1.00  0.00     0.135 A 
ATOM     81  C   UNL A   1      46.574  31.925  28.312  1.00  0.00     0.135 A 
ATOM     82  F   UNL A   1      43.022  31.441  27.715  1.00  0.00    -0.206 F 
ATOM     83  C   UNL A   1      44.543  32.862  26.657  1.00  0.00     0.059 A 
ATOM     84  C   UNL A   1      46.844  32.944  27.403  1.00  0.00     0.059 A 
ATOM     85  F   UNL A   1      47.566  31.528  29.125  1.00  0.00    -0.206 F 
ATOM     86  C   UNL A   1      45.825  33.401  26.570  1.00  0.00     0.060 A 
BRANCH  86  87
ATOM     87  S   UNL A   1      46.132  34.758  25.418  1.00  0.00     0.124 S 
ATOM     88  O   UNL A   1      45.258  34.418  24.301  1.00  0.00    -0.237 OA
ATOM     89  O   UNL A   1      45.741  35.930  26.196  1.00  0.00    -0.237 OA
ATOM     90  O   UNL A   1      47.564  34.654  25.143  1.00  0.00    -0.744 OA
ENDBRANCH  86  87
ENDBRANCH  54  79
ENDBRANCH  28  29
ENDBRANCH  21  23
ENDBRANCH  20  21
ENDBRANCH   1  20
TORSDOF 16
ENDMDL
MODEL 2
REMARK VINA RESULT:     -10.9      5.569     11.990
REMARK SMILES CCc1nn(-c2ccncn2)c(Cl)c1C(=O)OCCOC(=O)c1ccc(-c2c3nc(c(-c4c(F)cc(S(=O)(=O)[O-])cc4F)c4ccc([nH]4)c(-c4c(F)cc(S(=O)(=O)[O-])cc4F)c4nc(c(-c5c(F)cc(S(=O)(=O)[O-])cc5F)c5ccc2[nH]5)C=C4)C=C3)cc1
REMARK SMILES IDX 19 1 18 2 17 3 15 4 16 5 14 6 3 7 4 8 5 9 12 10 13 11 2 12
REMARK SMILES IDX 1 13 6 14 7 15 11 16 8 17 10 18 9 19 20 20 21 21 22 22 23 23
REMARK SMILES IDX 24 24 88 25 25 26 87 27 26 28 27 29 28 30 81 31 29 32 86 33
REMARK SMILES IDX 80 34 82 35 30 36 85 37 79 38 78 39 31 41 65 42 44 43 64 44
REMARK SMILES IDX 45 45 48 46 63 47 83 48 46 49 47 50 62 52 84 53 49 54 32 55
REMARK SMILES IDX 33 56 42 57 34 58 35 59 41 60 43 61 36 62 37 63 38 64 39 65
REMARK SMILES IDX 40 66 66 67 67 68 76 69 68 70 69 71 75 72 77 73 70 74 71 75
REMARK SMILES IDX 72 76 73 77 74 78 50 79 51 80 60 81 52 82 53 83 59 84 61 85
REMARK SMILES IDX 54 86 55 87 56 88 57 89 58 90
REMARK H PARENT 82 40 48 51
REMARK Flexibility Score: inf
ROOT
ATOM      1  C   UNL A   1      37.909  22.407  25.370  1.00  0.00     0.275 C 
ENDROOT
BRANCH   1   2
ATOM      2  C   UNL A   1      37.073  23.471  24.680  1.00  0.00     0.275 C 
BRANCH   2   3
ATOM      3  O   UNL A   1      35.800  22.931  24.301  1.00  0.00    -0.458 OA
BRANCH   3   4
ATOM      4  C   UNL A   1      34.857  22.842  25.282  1.00  0.00     0.343 C 
ATOM      5  O   UNL A   1      34.758  23.647  26.203  1.00  0.00    -0.246 OA
BRANCH   4   6
ATOM      6  C   UNL A   1      33.951  21.727  25.091  1.00  0.00     0.120 A 
ATOM      7  C   UNL A   1      32.525  21.673  25.078  1.00  0.00     0.079 A 
ATOM      8  N   UNL A   1      32.067  20.431  24.836  1.00  0.00    -0.169 NA
ATOM      9  N   UNL A   1      33.184  19.654  24.831  1.00  0.00    -0.203 N 
ATOM     10  C   UNL A   1      34.323  20.412  24.947  1.00  0.00     0.149 A 
ATOM     11  Cl  UNL A   1      35.869  19.681  24.900  1.00  0.00    -0.061 Cl
BRANCH   7  12
ATOM     12  C   UNL A   1      31.546  22.781  25.332  1.00  0.00     0.056 C 
ATOM     13  C   UNL A   1      31.228  23.017  26.804  1.00  0.00     0.011 C 
ENDBRANCH   7  12
BRANCH   9  14
ATOM     14  C   UNL A   1      33.115  18.243  24.695  1.00  0.00     0.158 A 
ATOM     15  C   UNL A   1      32.671  17.508  25.781  1.00  0.00     0.069 A 
ATOM     16  N   UNL A   1      33.661  17.687  23.587  1.00  0.00    -0.217 NA
ATOM     17  C   UNL A   1      32.837  16.148  25.683  1.00  0.00     0.117 A 
ATOM     18  C   UNL A   1      33.783  16.354  23.618  1.00  0.00     0.224 A 
ATOM     19  N   UNL A   1      33.401  15.544  24.620  1.00  0.00    -0.245 NA
ENDBRANCH   9  14
ENDBRANCH   4   6
ENDBRANCH   3   4
ENDBRANCH   2   3
ENDBRANCH   1   2
BRANCH   1  20
ATOM     20  O   UNL A   1      38.455  22.903  26.588  1.00  0.00    -0.458 OA
BRANCH  20  21
ATOM     21  C   UNL A   1      39.802  22.838  26.688  1.00  0.00     0.338 C 
ATOM     22  O   UNL A   1      40.506  21.846  26.622  1.00  0.00    -0.246 OA
BRANCH  21  23
ATOM     23  C   UNL A   1      40.303  24.155  27.073  1.00  0.00     0.060 A 
ATOM     24  C   UNL A   1      41.469  24.221  27.841  1.00  0.00     0.016 A 
ATOM     25  C   UNL A   1      39.478  25.271  26.870  1.00  0.00     0.016 A 
ATOM     26  C   UNL A   1      41.736  25.388  28.526  1.00  0.00     0.010 A 
ATOM     27  C   UNL A   1      39.747  26.430  27.548  1.00  0.00     0.010 A 
ATOM     28  C   UNL A   1      40.829  26.451  28.424  1.00  0.00    -0.014 A 
BRANCH  28  29
ATOM     29  C   UNL A   1      41.085  27.661  29.175  1.00  0.00     0.031 A 
ATOM     30  C   UNL A   1      42.251  28.417  28.660  1.00  0.00     0.074 A 
ATOM     31  C   UNL A   1      40.226  28.094  30.118  1.00  0.00     0.049 A 
ATOM     32  N   UNL A   1      43.372  28.651  29.256  1.00  0.00    -0.248 NA
ATOM     33  C   UNL A   1      42.245  28.791  27.234  1.00  0.00     0.031 C 
ATOM     34  C   UNL A   1      38.922  27.521  30.476  1.00  0.00     0.029 A 
ATOM     35  N   UNL A   1      40.283  29.212  30.888  1.00  0.00    -0.354 N 
ATOM     36  C   UNL A   1      44.106  29.429  28.366  1.00  0.00     0.074 A 
ATOM     37  C   UNL A   1      43.468  29.298  27.085  1.00  0.00     0.031 C 
ATOM     38  C   UNL A   1      38.223  28.415  31.209  1.00  0.00     0.029 A 
ATOM     39  C   UNL A   1      39.078  29.554  31.491  1.00  0.00     0.049 A 
ATOM     40  H   UNL A   1      41.108  29.735  31.010  1.00  0.00     0.167 HD
ATOM     41  C   UNL A   1      44.993  30.355  28.819  1.00  0.00     0.037 A 
ATOM     42  C   UNL A   1      38.793  30.719  32.123  1.00  0.00     0.037 A 
ATOM     43  C   UNL A   1      45.338  30.109  30.195  1.00  0.00     0.049 A 
ATOM     44  C   UNL A   1      40.091  31.326  32.507  1.00  0.00     0.074 A 
ATOM     45  C   UNL A   1      46.002  29.114  30.881  1.00  0.00     0.029 A 
ATOM     46  N   UNL A   1      44.614  30.815  31.123  1.00  0.00    -0.354 N 
ATOM     47  N   UNL A   1      40.917  30.781  33.361  1.00  0.00    -0.248 NA
ATOM     48  C   UNL A   1      40.684  32.321  31.626  1.00  0.00     0.031 C 
ATOM     49  C   UNL A   1      45.367  29.039  32.156  1.00  0.00     0.029 A 
ATOM     50  C   UNL A   1      44.376  30.021  32.216  1.00  0.00     0.049 A 
ATOM     51  H   UNL A   1      44.312  31.745  31.021  1.00  0.00     0.167 HD
ATOM     52  C   UNL A   1      42.181  31.041  32.854  1.00  0.00     0.074 A 
ATOM     53  C   UNL A   1      41.980  32.106  31.876  1.00  0.00     0.031 C 
ATOM     54  C   UNL A   1      43.211  30.169  33.068  1.00  0.00     0.037 A 
BRANCH  41  55
ATOM     55  C   UNL A   1      45.171  31.716  28.182  1.00  0.00     0.058 A 
ATOM     56  C   UNL A   1      46.450  32.103  27.735  1.00  0.00     0.135 A 
ATOM     57  C   UNL A   1      44.218  32.757  28.270  1.00  0.00     0.135 A 
ATOM     58  F   UNL A   1      47.438  31.201  27.630  1.00  0.00    -0.206 F 
ATOM     59  C   UNL A   1      46.774  33.434  27.460  1.00  0.00     0.059 A 
ATOM     60  C   UNL A   1      44.503  34.078  27.948  1.00  0.00     0.059 A 
ATOM     61  F   UNL A   1      42.990  32.569  28.770  1.00  0.00    -0.206 F 
ATOM     62  C   UNL A   1      45.794  34.415  27.585  1.00  0.00     0.060 A 
BRANCH  62  63
ATOM     63  S   UNL A   1      46.228  36.144  27.334  1.00  0.00     0.124 S 
ATOM     64  O   UNL A   1      45.101  36.820  27.967  1.00  0.00    -0.237 OA
ATOM     65  O   UNL A   1      47.507  36.239  28.030  1.00  0.00    -0.237 OA
ATOM     66  O   UNL A   1      46.302  36.264  25.881  1.00  0.00    -0.744 OA
ENDBRANCH  62  63
ENDBRANCH  41  55
BRANCH  42  67
ATOM     67  C   UNL A   1      37.510  31.471  32.086  1.00  0.00     0.058 A 
ATOM     68  C   UNL A   1      36.829  31.843  33.257  1.00  0.00     0.135 A 
ATOM     69  C   UNL A   1      37.055  32.065  30.890  1.00  0.00     0.135 A 
ATOM     70  F   UNL A   1      37.217  31.356  34.446  1.00  0.00    -0.206 F 
ATOM     71  C   UNL A   1      35.771  32.763  33.246  1.00  0.00     0.059 A 
ATOM     72  C   UNL A   1      36.002  32.976  30.852  1.00  0.00     0.059 A 
ATOM     73  F   UNL A   1      37.681  31.838  29.725  1.00  0.00    -0.206 F 
ATOM     74  C   UNL A   1      35.372  33.334  32.037  1.00  0.00     0.060 A 
BRANCH  74  75
ATOM     75  S   UNL A   1      34.092  34.613  32.028  1.00  0.00     0.124 S 
ATOM     76  O   UNL A   1      34.831  35.784  32.485  1.00  0.00    -0.237 OA
ATOM     77  O   UNL A   1      33.677  34.627  30.629  1.00  0.00    -0.237 OA
ATOM     78  O   UNL A   1      33.094  34.102  32.964  1.00  0.00    -0.744 OA
ENDBRANCH  74  75
ENDBRANCH  42  67
BRANCH  54  79
ATOM     79  C   UNL A   1      43.039  29.146  34.164  1.00  0.00     0.058 A 
ATOM     80  C   UNL A   1      42.479  27.869  33.985  1.00  0.00     0.135 A 
ATOM     81  C   UNL A   1      43.591  29.429  35.423  1.00  0.00     0.135 A 
ATOM     82  F   UNL A   1      42.015  27.483  32.789  1.00  0.00    -0.206 F 
ATOM     83  C   UNL A   1      42.439  26.929  35.017  1.00  0.00     0.059 A 
ATOM     84  C   UNL A   1      43.589  28.497  36.457  1.00  0.00     0.059 A 
ATOM     85  F   UNL A   1      44.193  30.609  35.640  1.00  0.00    -0.206 F 
ATOM     86  C   UNL A   1      43.002  27.250  36.251  1.00  0.00     0.060 A 
BRANCH  86  87
ATOM     87  S   UNL A   1      43.032  26.004  37.556  1.00  0.00     0.124 S 
ATOM     88  O   UNL A   1      43.819  24.938  36.946  1.00  0.00    -0.237 OA
ATOM     89  O   UNL A   1      43.673  26.714  38.659  1.00  0.00    -0.237 OA
ATOM     90  O   UNL A   1      41.619  25.694  37.765  1.00  0.00    -0.744 OA
ENDBRANCH  86  87
ENDBRANCH  54  79
ENDBRANCH  28  29
ENDBRANCH  21  23
ENDBRANCH  20  21
ENDBRANCH   1  20
TORSDOF 16
ENDMDL
MODEL 3
REMARK VINA RESULT:     -10.9      4.820     11.358
REMARK SMILES CCc1nn(-c2ccncn2)c(Cl)c1C(=O)OCCOC(=O)c1ccc(-c2c3nc(c(-c4c(F)cc(S(=O)(=O)[O-])cc4F)c4ccc([nH]4)c(-c4c(F)cc(S(=O)(=O)[O-])cc4F)c4nc(c(-c5c(F)cc(S(=O)(=O)[O-])cc5F)c5ccc2[nH]5)C=C4)C=C3)cc1
REMARK SMILES IDX 19 1 18 2 17 3 15 4 16 5 14 6 3 7 4 8 5 9 12 10 13 11 2 12
REMARK SMILES IDX 1 13 6 14 7 15 11 16 8 17 10 18 9 19 20 20 21 21 22 22 23 23
REMARK SMILES IDX 24 24 88 25 25 26 87 27 26 28 27 29 28 30 81 31 29 32 86 33
REMARK SMILES IDX 80 34 82 35 30 36 85 37 79 38 78 39 31 41 65 42 44 43 64 44
REMARK SMILES IDX 45 45 48 46 63 47 83 48 46 49 47 50 62 52 84 53 49 54 32 55
REMARK SMILES IDX 33 56 42 57 34 58 35 59 41 60 43 61 36 62 37 63 38 64 39 65
REMARK SMILES IDX 40 66 66 67 67 68 76 69 68 70 69 71 75 72 77 73 70 74 71 75
REMARK SMILES IDX 72 76 73 77 74 78 50 79 51 80 60 81 52 82 53 83 59 84 61 85
REMARK SMILES IDX 54 86 55 87 56 88 57 89 58 90
REMARK H PARENT 82 40 48 51
REMARK Flexibility Score: inf
ROOT
ATOM      1  C   UNL A   1      37.936  21.536  25.478  1.00  0.00     0.275 C 
ENDROOT
BRANCH   1   2
ATOM      2  C   UNL A   1      36.431  21.579  25.285  1.00  0.00     0.275 C 
BRANCH   2   3
ATOM      3  O   UNL A   1      35.953  22.923  25.427  1.00  0.00    -0.458 OA
BRANCH   3   4
ATOM      4  C   UNL A   1      34.806  23.091  26.146  1.00  0.00     0.343 C 
ATOM      5  O   UNL A   1      34.741  22.955  27.364  1.00  0.00    -0.246 OA
BRANCH   4   6
ATOM      6  C   UNL A   1      33.683  23.499  25.325  1.00  0.00     0.120 A 
ATOM      7  C   UNL A   1      32.879  22.758  24.407  1.00  0.00     0.079 A 
ATOM      8  N   UNL A   1      31.904  23.512  23.865  1.00  0.00    -0.169 NA
ATOM      9  N   UNL A   1      32.159  24.770  24.318  1.00  0.00    -0.203 N 
ATOM     10  C   UNL A   1      33.195  24.779  25.219  1.00  0.00     0.149 A 
ATOM     11  Cl  UNL A   1      33.671  26.230  25.990  1.00  0.00    -0.061 Cl
BRANCH   7  12
ATOM     12  C   UNL A   1      33.024  21.327  23.981  1.00  0.00     0.056 C 
ATOM     13  C   UNL A   1      32.350  20.322  24.906  1.00  0.00     0.011 C 
ENDBRANCH   7  12
BRANCH   9  14
ATOM     14  C   UNL A   1      31.395  25.888  23.893  1.00  0.00     0.158 A 
ATOM     15  C   UNL A   1      30.070  25.957  24.288  1.00  0.00     0.069 A 
ATOM     16  N   UNL A   1      31.948  26.720  22.977  1.00  0.00    -0.217 NA
ATOM     17  C   UNL A   1      29.318  26.926  23.669  1.00  0.00     0.117 A 
ATOM     18  C   UNL A   1      31.109  27.611  22.435  1.00  0.00     0.224 A 
ATOM     19  N   UNL A   1      29.807  27.758  22.731  1.00  0.00    -0.245 NA
ENDBRANCH   9  14
ENDBRANCH   4   6
ENDBRANCH   3   4
ENDBRANCH   2   3
ENDBRANCH   1   2
BRANCH   1  20
ATOM     20  O   UNL A   1      38.387  22.676  26.205  1.00  0.00    -0.458 OA
BRANCH  20  21
ATOM     21  C   UNL A   1      39.592  22.543  26.802  1.00  0.00     0.338 C 
ATOM     22  O   UNL A   1      40.132  21.513  27.167  1.00  0.00    -0.246 OA
BRANCH  21  23
ATOM     23  C   UNL A   1      40.104  23.874  27.117  1.00  0.00     0.060 A 
ATOM     24  C   UNL A   1      41.309  23.971  27.819  1.00  0.00     0.016 A 
ATOM     25  C   UNL A   1      39.262  24.978  26.924  1.00  0.00     0.016 A 
ATOM     26  C   UNL A   1      41.605  25.161  28.450  1.00  0.00     0.010 A 
ATOM     27  C   UNL A   1      39.559  26.160  27.550  1.00  0.00     0.010 A 
ATOM     28  C   UNL A   1      40.687  26.215  28.364  1.00  0.00    -0.014 A 
BRANCH  28  29
ATOM     29  C   UNL A   1      40.975  27.450  29.062  1.00  0.00     0.031 A 
ATOM     30  C   UNL A   1      42.140  28.168  28.493  1.00  0.00     0.074 A 
ATOM     31  C   UNL A   1      40.141  27.932  30.004  1.00  0.00     0.049 A 
ATOM     32  N   UNL A   1      43.276  28.409  29.057  1.00  0.00    -0.248 NA
ATOM     33  C   UNL A   1      42.109  28.486  27.054  1.00  0.00     0.031 C 
ATOM     34  C   UNL A   1      38.837  27.392  30.410  1.00  0.00     0.029 A 
ATOM     35  N   UNL A   1      40.230  29.079  30.728  1.00  0.00    -0.354 N 
ATOM     36  C   UNL A   1      44.002  29.140  28.122  1.00  0.00     0.074 A 
ATOM     37  C   UNL A   1      43.336  28.969  26.860  1.00  0.00     0.031 C 
ATOM     38  C   UNL A   1      38.166  28.324  31.121  1.00  0.00     0.029 A 
ATOM     39  C   UNL A   1      39.042  29.461  31.340  1.00  0.00     0.049 A 
ATOM     40  H   UNL A   1      41.064  29.594  30.812  1.00  0.00     0.167 HD
ATOM     41  C   UNL A   1      44.911  30.071  28.520  1.00  0.00     0.037 A 
ATOM     42  C   UNL A   1      38.786  30.654  31.931  1.00  0.00     0.037 A 
ATOM     43  C   UNL A   1      45.281  29.874  29.898  1.00  0.00     0.049 A 
ATOM     44  C   UNL A   1      40.100  31.257  32.264  1.00  0.00     0.074 A 
ATOM     45  C   UNL A   1      45.946  28.897  30.609  1.00  0.00     0.029 A 
ATOM     46  N   UNL A   1      44.586  30.626  30.812  1.00  0.00    -0.354 N 
ATOM     47  N   UNL A   1      40.935  30.735  33.123  1.00  0.00    -0.248 NA
ATOM     48  C   UNL A   1      40.688  32.208  31.333  1.00  0.00     0.031 C 
ATOM     49  C   UNL A   1      45.336  28.882  31.898  1.00  0.00     0.029 A 
ATOM     50  C   UNL A   1      44.359  29.880  31.939  1.00  0.00     0.049 A 
ATOM     51  H   UNL A   1      44.295  31.556  30.678  1.00  0.00     0.167 HD
ATOM     52  C   UNL A   1      42.193  30.955  32.581  1.00  0.00     0.074 A 
ATOM     53  C   UNL A   1      41.985  31.984  31.565  1.00  0.00     0.031 C 
ATOM     54  C   UNL A   1      43.215  30.078  32.809  1.00  0.00     0.037 A 
BRANCH  41  55
ATOM     55  C   UNL A   1      45.095  31.403  27.826  1.00  0.00     0.058 A 
ATOM     56  C   UNL A   1      46.356  31.731  27.291  1.00  0.00     0.135 A 
ATOM     57  C   UNL A   1      44.182  32.478  27.934  1.00  0.00     0.135 A 
ATOM     58  F   UNL A   1      47.306  30.792  27.160  1.00  0.00    -0.206 F 
ATOM     59  C   UNL A   1      46.706  33.040  26.951  1.00  0.00     0.059 A 
ATOM     60  C   UNL A   1      44.490  33.778  27.550  1.00  0.00     0.059 A 
ATOM     61  F   UNL A   1      42.982  32.350  28.512  1.00  0.00    -0.206 F 
ATOM     62  C   UNL A   1      45.768  34.058  27.099  1.00  0.00     0.060 A 
BRANCH  62  63
ATOM     63  S   UNL A   1      46.242  35.762  26.762  1.00  0.00     0.124 S 
ATOM     64  O   UNL A   1      47.348  35.945  27.695  1.00  0.00    -0.237 OA
ATOM     65  O   UNL A   1      46.597  35.702  25.349  1.00  0.00    -0.237 OA
ATOM     66  O   UNL A   1      45.028  36.514  27.066  1.00  0.00    -0.744 OA
ENDBRANCH  62  63
ENDBRANCH  41  55
BRANCH  42  67
ATOM     67  C   UNL A   1      37.513  31.422  31.890  1.00  0.00     0.058 A 
ATOM     68  C   UNL A   1      36.786  31.725  33.054  1.00  0.00     0.135 A 
ATOM     69  C   UNL A   1      37.114  32.099  30.718  1.00  0.00     0.135 A 
ATOM     70  F   UNL A   1      37.119  31.158  34.223  1.00  0.00    -0.206 F 
ATOM     71  C   UNL A   1      35.739  32.657  33.059  1.00  0.00     0.059 A 
ATOM     72  C   UNL A   1      36.073  33.023  30.697  1.00  0.00     0.059 A 
ATOM     73  F   UNL A   1      37.788  31.941  29.568  1.00  0.00    -0.206 F 
ATOM     74  C   UNL A   1      35.396  33.311  31.875  1.00  0.00     0.060 A 
BRANCH  74  75
ATOM     75  S   UNL A   1      34.130  34.603  31.896  1.00  0.00     0.124 S 
ATOM     76  O   UNL A   1      34.904  35.778  32.282  1.00  0.00    -0.237 OA
ATOM     77  O   UNL A   1      33.644  34.584  30.521  1.00  0.00    -0.237 OA
ATOM     78  O   UNL A   1      33.177  34.129  32.897  1.00  0.00    -0.744 OA
ENDBRANCH  74  75
ENDBRANCH  42  67
BRANCH  54  79
ATOM     79  C   UNL A   1      43.051  29.101  33.947  1.00  0.00     0.058 A 
ATOM     80  C   UNL A   1      43.257  29.412  35.303  1.00  0.00     0.135 A 
ATOM     81  C   UNL A   1      42.534  27.830  33.656  1.00  0.00     0.135 A 
ATOM     82  F   UNL A   1      43.659  30.634  35.675  1.00  0.00    -0.206 F 
ATOM     83  C   UNL A   1      42.992  28.492  36.319  1.00  0.00     0.059 A 
ATOM     84  C   UNL A   1      42.234  26.907  34.654  1.00  0.00     0.059 A 
ATOM     85  F   UNL A   1      42.259  27.494  32.386  1.00  0.00    -0.206 F 
ATOM     86  C   UNL A   1      42.476  27.241  35.985  1.00  0.00     0.060 A 
BRANCH  86  87
ATOM     87  S   UNL A   1      42.047  26.085  37.305  1.00  0.00     0.124 S 
ATOM     88  O   UNL A   1      42.113  24.798  36.620  1.00  0.00    -0.237 OA
ATOM     89  O   UNL A   1      43.093  26.330  38.294  1.00  0.00    -0.237 OA
ATOM     90  O   UNL A   1      40.708  26.508  37.709  1.00  0.00    -0.744 OA
ENDBRANCH  86  87
ENDBRANCH  54  79
ENDBRANCH  28  29
ENDBRANCH  21  23
ENDBRANCH  20  21
ENDBRANCH   1  20
TORSDOF 16
ENDMDL
