MODEL 1
REMARK VINA RESULT:     -10.6      0.000      0.000
REMARK SMILES O=C(CNC(=O)c1ccco1)N[C@H]1C=C[C@@H](C(=O)OCCOC(=O)c2ccc(-c3c4nc(c(-c5c(F)cc(S(=O)(=O)[O-])cc5F)c5ccc([nH]5)c(-c5c(F)cc(S(=O)(=O)[O-])cc5F)c5nc(c(-c6c(F)cc(S(=O)(=O)[O-])cc6F)c6ccc3[nH]6)C=C5)C=C4)cc2)C1
REMARK SMILES IDX 20 1 19 2 17 3 18 4 16 5 13 6 14 7 91 8 15 9 12 10 1 11 2 12
REMARK SMILES IDX 3 14 4 15 5 16 6 18 7 19 8 20 11 21 9 22 10 23 21 24 22 25
REMARK SMILES IDX 23 26 24 27 25 28 26 29 90 30 27 31 89 32 28 33 29 34 30 35
REMARK SMILES IDX 83 36 31 37 88 38 82 39 84 40 32 41 87 42 81 43 80 44 33 46
REMARK SMILES IDX 67 47 46 48 66 49 47 50 50 51 65 52 85 53 48 54 49 55 64 57
REMARK SMILES IDX 86 58 51 59 34 60 35 61 44 62 36 63 37 64 43 65 45 66 38 67
REMARK SMILES IDX 39 68 40 69 41 70 42 71 68 72 69 73 78 74 70 75 71 76 77 77
REMARK SMILES IDX 79 78 72 79 73 80 74 81 75 82 76 83 52 84 53 85 62 86 54 87
REMARK SMILES IDX 55 88 61 89 63 90 56 91 57 92 58 93 59 94 60 95
REMARK H PARENT 12 13 4 17 84 45 50 56
REMARK Flexibility Score: inf
ROOT
ATOM      1  C   UNL A   1      43.111  21.931  26.027  1.00  0.00     0.274 C 
ENDROOT
BRANCH   1   2
ATOM      2  O   UNL A   1      42.431  21.906  27.296  1.00  0.00    -0.462 OA
BRANCH   2   3
ATOM      3  C   UNL A   1      41.160  21.432  27.299  1.00  0.00     0.312 C 
ATOM      4  O   UNL A   1      40.764  20.514  28.010  1.00  0.00    -0.252 OA
BRANCH   3   5
ATOM      5  C   UNL A   1      40.247  22.141  26.306  1.00  0.00     0.124 C 
ATOM      6  C   UNL A   1      37.935  22.440  25.592  1.00  0.00     0.106 C 
ATOM      7  C   UNL A   1      38.384  23.548  26.492  1.00  0.00    -0.006 C 
ATOM      8  C   UNL A   1      39.016  21.377  25.803  1.00  0.00     0.048 C 
ATOM      9  C   UNL A   1      39.651  23.387  26.889  1.00  0.00    -0.014 C 
BRANCH   6  10
ATOM     10  N   UNL A   1      36.628  22.001  26.011  1.00  0.00    -0.348 N 
ATOM     11  O   UNL A   1      35.758  21.863  23.893  1.00  0.00    -0.273 OA
ATOM     12  C   UNL A   1      35.630  21.719  25.107  1.00  0.00     0.239 C 
ATOM     13  H   UNL A   1      36.445  21.898  26.973  1.00  0.00     0.164 HD
BRANCH  12  14
ATOM     14  C   UNL A   1      34.266  21.403  25.726  1.00  0.00     0.216 C 
BRANCH  14  15
ATOM     15  N   UNL A   1      33.182  21.377  24.752  1.00  0.00    -0.340 N 
ATOM     16  C   UNL A   1      32.617  20.332  24.064  1.00  0.00     0.287 C 
ATOM     17  H   UNL A   1      32.787  22.258  24.555  1.00  0.00     0.164 HD
ATOM     18  O   UNL A   1      31.854  20.626  23.145  1.00  0.00    -0.266 OA
BRANCH  16  19
ATOM     19  C   UNL A   1      32.951  18.968  24.409  1.00  0.00     0.191 A 
ATOM     20  C   UNL A   1      33.918  18.078  23.975  1.00  0.00     0.056 A 
ATOM     21  O   UNL A   1      32.224  18.378  25.412  1.00  0.00    -0.459 OA
ATOM     22  C   UNL A   1      33.744  16.883  24.717  1.00  0.00     0.043 A 
ATOM     23  C   UNL A   1      32.702  17.120  25.579  1.00  0.00     0.196 A 
ENDBRANCH  16  19
ENDBRANCH  14  15
ENDBRANCH  12  14
ENDBRANCH   6  10
ENDBRANCH   3   5
ENDBRANCH   2   3
ENDBRANCH   1   2
BRANCH   1  24
ATOM     24  C   UNL A   1      43.608  23.344  25.713  1.00  0.00     0.275 C 
BRANCH  24  25
ATOM     25  O   UNL A   1      43.176  24.296  26.706  1.00  0.00    -0.458 OA
BRANCH  25  26
ATOM     26  C   UNL A   1      42.616  25.425  26.210  1.00  0.00     0.338 C 
ATOM     27  O   UNL A   1      42.379  25.679  25.042  1.00  0.00    -0.246 OA
BRANCH  26  28
ATOM     28  C   UNL A   1      42.183  26.297  27.313  1.00  0.00     0.060 A 
ATOM     29  C   UNL A   1      42.874  27.495  27.508  1.00  0.00     0.016 A 
ATOM     30  C   UNL A   1      41.176  25.907  28.198  1.00  0.00     0.016 A 
ATOM     31  C   UNL A   1      42.567  28.309  28.593  1.00  0.00     0.010 A 
ATOM     32  C   UNL A   1      40.870  26.726  29.291  1.00  0.00     0.010 A 
ATOM     33  C   UNL A   1      41.572  27.926  29.500  1.00  0.00    -0.014 A 
BRANCH  33  34
ATOM     34  C   UNL A   1      41.311  28.765  30.694  1.00  0.00     0.031 A 
ATOM     35  C   UNL A   1      40.194  29.770  30.672  1.00  0.00     0.074 A 
ATOM     36  C   UNL A   1      42.051  28.596  31.806  1.00  0.00     0.049 A 
ATOM     37  N   UNL A   1      39.844  30.635  31.587  1.00  0.00    -0.248 NA
ATOM     38  C   UNL A   1      39.358  29.802  29.462  1.00  0.00     0.031 C 
ATOM     39  C   UNL A   1      43.133  27.621  31.957  1.00  0.00     0.029 A 
ATOM     40  N   UNL A   1      42.005  29.238  33.016  1.00  0.00    -0.354 N 
ATOM     41  C   UNL A   1      38.755  31.323  31.064  1.00  0.00     0.074 A 
ATOM     42  C   UNL A   1      38.515  30.786  29.741  1.00  0.00     0.031 C 
ATOM     43  C   UNL A   1      43.651  27.732  33.191  1.00  0.00     0.029 A 
ATOM     44  C   UNL A   1      42.965  28.809  33.902  1.00  0.00     0.049 A 
ATOM     45  H   UNL A   1      41.349  29.939  33.231  1.00  0.00     0.167 HD
ATOM     46  C   UNL A   1      38.022  32.307  31.637  1.00  0.00     0.037 A 
ATOM     47  C   UNL A   1      43.273  29.252  35.136  1.00  0.00     0.037 A 
ATOM     48  C   UNL A   1      38.264  32.833  32.956  1.00  0.00     0.049 A 
ATOM     49  C   UNL A   1      42.478  30.381  35.730  1.00  0.00     0.074 A 
ATOM     50  C   UNL A   1      37.590  33.844  33.619  1.00  0.00     0.029 A 
ATOM     51  N   UNL A   1      39.257  32.387  33.815  1.00  0.00    -0.354 N 
ATOM     52  N   UNL A   1      41.466  31.038  35.213  1.00  0.00    -0.248 NA
ATOM     53  C   UNL A   1      42.864  30.833  37.074  1.00  0.00     0.031 C 
ATOM     54  C   UNL A   1      38.193  34.027  34.869  1.00  0.00     0.029 A 
ATOM     55  C   UNL A   1      39.221  33.106  34.998  1.00  0.00     0.049 A 
ATOM     56  H   UNL A   1      39.897  31.664  33.613  1.00  0.00     0.167 HD
ATOM     57  C   UNL A   1      41.088  31.970  36.173  1.00  0.00     0.074 A 
ATOM     58  C   UNL A   1      41.968  31.782  37.308  1.00  0.00     0.031 C 
ATOM     59  C   UNL A   1      40.103  32.900  36.119  1.00  0.00     0.037 A 
BRANCH  46  60
ATOM     60  C   UNL A   1      36.899  32.891  30.830  1.00  0.00     0.058 A 
ATOM     61  C   UNL A   1      35.568  32.485  31.018  1.00  0.00     0.135 A 
ATOM     62  C   UNL A   1      37.151  33.888  29.873  1.00  0.00     0.135 A 
ATOM     63  F   UNL A   1      35.275  31.523  31.908  1.00  0.00    -0.206 F 
ATOM     64  C   UNL A   1      34.529  33.029  30.270  1.00  0.00     0.059 A 
ATOM     65  C   UNL A   1      36.125  34.461  29.128  1.00  0.00     0.059 A 
ATOM     66  F   UNL A   1      38.405  34.311  29.653  1.00  0.00    -0.206 F 
ATOM     67  C   UNL A   1      34.818  34.014  29.323  1.00  0.00     0.060 A 
BRANCH  67  68
ATOM     68  S   UNL A   1      33.462  34.709  28.355  1.00  0.00     0.124 S 
ATOM     69  O   UNL A   1      32.627  35.289  29.401  1.00  0.00    -0.237 OA
ATOM     70  O   UNL A   1      34.149  35.665  27.491  1.00  0.00    -0.237 OA
ATOM     71  O   UNL A   1      32.901  33.547  27.674  1.00  0.00    -0.744 OA
ENDBRANCH  67  68
ENDBRANCH  46  60
BRANCH  47  72
ATOM     72  C   UNL A   1      44.408  28.645  35.879  1.00  0.00     0.058 A 
ATOM     73  C   UNL A   1      44.208  27.580  36.768  1.00  0.00     0.135 A 
ATOM     74  C   UNL A   1      45.718  29.123  35.712  1.00  0.00     0.135 A 
ATOM     75  F   UNL A   1      42.972  27.096  36.967  1.00  0.00    -0.206 F 
ATOM     76  C   UNL A   1      45.263  27.017  37.478  1.00  0.00     0.059 A 
ATOM     77  C   UNL A   1      46.793  28.561  36.393  1.00  0.00     0.059 A 
ATOM     78  F   UNL A   1      45.963  30.134  34.864  1.00  0.00    -0.206 F 
ATOM     79  C   UNL A   1      46.553  27.515  37.283  1.00  0.00     0.060 A 
BRANCH  79  80
ATOM     80  S   UNL A   1      47.928  26.753  38.174  1.00  0.00     0.124 S 
ATOM     81  O   UNL A   1      47.508  25.357  38.219  1.00  0.00    -0.237 OA
ATOM     82  O   UNL A   1      49.064  27.052  37.309  1.00  0.00    -0.237 OA
ATOM     83  O   UNL A   1      47.924  27.456  39.454  1.00  0.00    -0.744 OA
ENDBRANCH  79  80
ENDBRANCH  47  72
BRANCH  59  84
ATOM     84  C   UNL A   1      39.910  33.766  37.329  1.00  0.00     0.058 A 
ATOM     85  C   UNL A   1      40.646  34.947  37.512  1.00  0.00     0.135 A 
ATOM     86  C   UNL A   1      38.948  33.435  38.297  1.00  0.00     0.135 A 
ATOM     87  F   UNL A   1      41.582  35.304  36.618  1.00  0.00    -0.206 F 
ATOM     88  C   UNL A   1      40.451  35.759  38.624  1.00  0.00     0.059 A 
ATOM     89  C   UNL A   1      38.721  34.244  39.406  1.00  0.00     0.059 A 
ATOM     90  F   UNL A   1      38.213  32.320  38.163  1.00  0.00    -0.206 F 
ATOM     91  C   UNL A   1      39.486  35.399  39.566  1.00  0.00     0.060 A 
BRANCH  91  92
ATOM     92  S   UNL A   1      39.216  36.476  40.990  1.00  0.00     0.124 S 
ATOM     93  O   UNL A   1      40.578  36.659  41.481  1.00  0.00    -0.237 OA
ATOM     94  O   UNL A   1      38.597  37.651  40.385  1.00  0.00    -0.237 OA
ATOM     95  O   UNL A   1      38.338  35.687  41.849  1.00  0.00    -0.744 OA
ENDBRANCH  91  92
ENDBRANCH  59  84
ENDBRANCH  33  34
ENDBRANCH  26  28
ENDBRANCH  25  26
ENDBRANCH  24  25
ENDBRANCH   1  24
TORSDOF 18
ENDMDL
MODEL 2
REMARK VINA RESULT:     -10.6      6.589     12.094
REMARK SMILES O=C(CNC(=O)c1ccco1)N[C@H]1C=C[C@@H](C(=O)OCCOC(=O)c2ccc(-c3c4nc(c(-c5c(F)cc(S(=O)(=O)[O-])cc5F)c5ccc([nH]5)c(-c5c(F)cc(S(=O)(=O)[O-])cc5F)c5nc(c(-c6c(F)cc(S(=O)(=O)[O-])cc6F)c6ccc3[nH]6)C=C5)C=C4)cc2)C1
REMARK SMILES IDX 20 1 19 2 17 3 18 4 16 5 13 6 14 7 91 8 15 9 12 10 1 11 2 12
REMARK SMILES IDX 3 14 4 15 5 16 6 18 7 19 8 20 11 21 9 22 10 23 21 24 22 25
REMARK SMILES IDX 23 26 24 27 25 28 26 29 90 30 27 31 89 32 28 33 29 34 30 35
REMARK SMILES IDX 83 36 31 37 88 38 82 39 84 40 32 41 87 42 81 43 80 44 33 46
REMARK SMILES IDX 67 47 46 48 66 49 47 50 50 51 65 52 85 53 48 54 49 55 64 57
REMARK SMILES IDX 86 58 51 59 34 60 35 61 44 62 36 63 37 64 43 65 45 66 38 67
REMARK SMILES IDX 39 68 40 69 41 70 42 71 68 72 69 73 78 74 70 75 71 76 77 77
REMARK SMILES IDX 79 78 72 79 73 80 74 81 75 82 76 83 52 84 53 85 62 86 54 87
REMARK SMILES IDX 55 88 61 89 63 90 56 91 57 92 58 93 59 94 60 95
REMARK H PARENT 12 13 4 17 84 45 50 56
REMARK Flexibility Score: inf
ROOT
ATOM      1  C   UNL A   1      34.774  31.425  27.694  1.00  0.00     0.274 C 
ENDROOT
BRANCH   1   2
ATOM      2  O   UNL A   1      33.986  30.237  27.492  1.00  0.00    -0.462 OA
BRANCH   2   3
ATOM      3  C   UNL A   1      32.877  30.363  26.722  1.00  0.00     0.312 C 
ATOM      4  O   UNL A   1      32.057  31.270  26.831  1.00  0.00    -0.252 OA
BRANCH   3   5
ATOM      5  C   UNL A   1      32.719  29.244  25.700  1.00  0.00     0.124 C 
ATOM      6  C   UNL A   1      33.040  26.862  25.293  1.00  0.00     0.106 C 
ATOM      7  C   UNL A   1      31.628  27.172  25.679  1.00  0.00    -0.006 C 
ATOM      8  C   UNL A   1      33.785  28.141  25.686  1.00  0.00     0.048 C 
ATOM      9  C   UNL A   1      31.448  28.478  25.906  1.00  0.00    -0.014 C 
BRANCH   6  10
ATOM     10  N   UNL A   1      33.482  25.707  26.034  1.00  0.00    -0.348 N 
ATOM     11  O   UNL A   1      34.626  24.756  24.289  1.00  0.00    -0.273 OA
ATOM     12  C   UNL A   1      34.277  24.738  25.467  1.00  0.00     0.239 C 
ATOM     13  H   UNL A   1      33.209  25.611  26.976  1.00  0.00     0.164 HD
BRANCH  12  14
ATOM     14  C   UNL A   1      34.535  23.514  26.349  1.00  0.00     0.216 C 
BRANCH  14  15
ATOM     15  N   UNL A   1      35.004  22.353  25.604  1.00  0.00    -0.340 N 
ATOM     16  C   UNL A   1      36.272  21.971  25.242  1.00  0.00     0.287 C 
ATOM     17  H   UNL A   1      34.292  21.738  25.311  1.00  0.00     0.164 HD
ATOM     18  O   UNL A   1      36.359  21.050  24.430  1.00  0.00    -0.266 OA
BRANCH  16  19
ATOM     19  C   UNL A   1      37.423  22.660  25.782  1.00  0.00     0.191 A 
ATOM     20  C   UNL A   1      37.693  23.983  26.088  1.00  0.00     0.056 A 
ATOM     21  O   UNL A   1      38.504  21.895  26.137  1.00  0.00    -0.459 OA
ATOM     22  C   UNL A   1      39.008  24.027  26.613  1.00  0.00     0.043 A 
ATOM     23  C   UNL A   1      39.455  22.729  26.624  1.00  0.00     0.196 A 
ENDBRANCH  16  19
ENDBRANCH  14  15
ENDBRANCH  12  14
ENDBRANCH   6  10
ENDBRANCH   3   5
ENDBRANCH   2   3
ENDBRANCH   1   2
BRANCH   1  24
ATOM     24  C   UNL A   1      34.833  31.783  29.182  1.00  0.00     0.275 C 
BRANCH  24  25
ATOM     25  O   UNL A   1      36.179  31.713  29.695  1.00  0.00    -0.458 OA
BRANCH  25  26
ATOM     26  C   UNL A   1      36.549  30.497  30.163  1.00  0.00     0.338 C 
ATOM     27  O   UNL A   1      35.834  29.656  30.681  1.00  0.00    -0.246 OA
BRANCH  26  28
ATOM     28  C   UNL A   1      37.961  30.243  29.838  1.00  0.00     0.060 A 
ATOM     29  C   UNL A   1      38.300  30.058  28.496  1.00  0.00     0.016 A 
ATOM     30  C   UNL A   1      38.924  30.097  30.839  1.00  0.00     0.016 A 
ATOM     31  C   UNL A   1      39.602  29.721  28.144  1.00  0.00     0.010 A 
ATOM     32  C   UNL A   1      40.234  29.756  30.484  1.00  0.00     0.010 A 
ATOM     33  C   UNL A   1      40.577  29.555  29.135  1.00  0.00    -0.014 A 
BRANCH  33  34
ATOM     34  C   UNL A   1      41.941  29.119  28.751  1.00  0.00     0.031 A 
ATOM     35  C   UNL A   1      43.073  30.107  28.764  1.00  0.00     0.074 A 
ATOM     36  C   UNL A   1      42.166  27.831  28.429  1.00  0.00     0.049 A 
ATOM     37  N   UNL A   1      44.319  29.938  28.407  1.00  0.00    -0.248 NA
ATOM     38  C   UNL A   1      42.762  31.461  29.246  1.00  0.00     0.031 C 
ATOM     39  C   UNL A   1      41.152  26.775  28.424  1.00  0.00     0.029 A 
ATOM     40  N   UNL A   1      43.317  27.194  28.046  1.00  0.00    -0.354 N 
ATOM     41  C   UNL A   1      44.942  31.164  28.610  1.00  0.00     0.074 A 
ATOM     42  C   UNL A   1      43.929  32.074  29.104  1.00  0.00     0.031 C 
ATOM     43  C   UNL A   1      41.728  25.619  28.052  1.00  0.00     0.029 A 
ATOM     44  C   UNL A   1      43.138  25.862  27.756  1.00  0.00     0.049 A 
ATOM     45  H   UNL A   1      44.189  27.646  27.983  1.00  0.00     0.167 HD
ATOM     46  C   UNL A   1      46.239  31.497  28.409  1.00  0.00     0.037 A 
ATOM     47  C   UNL A   1      44.006  24.948  27.281  1.00  0.00     0.037 A 
ATOM     48  C   UNL A   1      47.242  30.586  27.921  1.00  0.00     0.049 A 
ATOM     49  C   UNL A   1      45.429  25.356  27.015  1.00  0.00     0.074 A 
ATOM     50  C   UNL A   1      48.579  30.832  27.663  1.00  0.00     0.029 A 
ATOM     51  N   UNL A   1      47.018  29.251  27.620  1.00  0.00    -0.354 N 
ATOM     52  N   UNL A   1      45.997  26.526  27.190  1.00  0.00    -0.248 NA
ATOM     53  C   UNL A   1      46.330  24.323  26.486  1.00  0.00     0.031 C 
ATOM     54  C   UNL A   1      49.158  29.652  27.182  1.00  0.00     0.029 A 
ATOM     55  C   UNL A   1      48.189  28.662  27.172  1.00  0.00     0.049 A 
ATOM     56  H   UNL A   1      46.152  28.788  27.711  1.00  0.00     0.167 HD
ATOM     57  C   UNL A   1      47.323  26.365  26.805  1.00  0.00     0.074 A 
ATOM     58  C   UNL A   1      47.477  24.982  26.403  1.00  0.00     0.031 C 
ATOM     59  C   UNL A   1      48.323  27.281  26.783  1.00  0.00     0.037 A 
BRANCH  46  60
ATOM     60  C   UNL A   1      46.642  32.915  28.697  1.00  0.00     0.058 A 
ATOM     61  C   UNL A   1      46.573  33.914  27.714  1.00  0.00     0.135 A 
ATOM     62  C   UNL A   1      47.079  33.286  29.980  1.00  0.00     0.135 A 
ATOM     63  F   UNL A   1      46.179  33.608  26.467  1.00  0.00    -0.206 F 
ATOM     64  C   UNL A   1      46.946  35.227  27.984  1.00  0.00     0.059 A 
ATOM     65  C   UNL A   1      47.436  34.597  30.278  1.00  0.00     0.059 A 
ATOM     66  F   UNL A   1      47.165  32.369  30.955  1.00  0.00    -0.206 F 
ATOM     67  C   UNL A   1      47.381  35.558  29.268  1.00  0.00     0.060 A 
BRANCH  67  68
ATOM     68  S   UNL A   1      47.866  37.265  29.606  1.00  0.00     0.124 S 
ATOM     69  O   UNL A   1      47.074  37.991  28.619  1.00  0.00    -0.237 OA
ATOM     70  O   UNL A   1      47.459  37.439  30.996  1.00  0.00    -0.237 OA
ATOM     71  O   UNL A   1      49.307  37.259  29.375  1.00  0.00    -0.744 OA
ENDBRANCH  67  68
ENDBRANCH  46  60
BRANCH  47  72
ATOM     72  C   UNL A   1      43.544  23.565  26.997  1.00  0.00     0.058 A 
ATOM     73  C   UNL A   1      43.316  23.129  25.685  1.00  0.00     0.135 A 
ATOM     74  C   UNL A   1      43.322  22.650  28.039  1.00  0.00     0.135 A 
ATOM     75  F   UNL A   1      43.505  23.970  24.657  1.00  0.00    -0.206 F 
ATOM     76  C   UNL A   1      42.870  21.839  25.413  1.00  0.00     0.059 A 
ATOM     77  C   UNL A   1      42.898  21.348  27.792  1.00  0.00     0.059 A 
ATOM     78  F   UNL A   1      43.537  23.016  29.313  1.00  0.00    -0.206 F 
ATOM     79  C   UNL A   1      42.664  20.956  26.475  1.00  0.00     0.060 A 
BRANCH  79  80
ATOM     80  S   UNL A   1      42.126  19.269  26.116  1.00  0.00     0.124 S 
ATOM     81  O   UNL A   1      42.482  18.581  27.352  1.00  0.00    -0.237 OA
ATOM     82  O   UNL A   1      40.698  19.444  25.871  1.00  0.00    -0.237 OA
ATOM     83  O   UNL A   1      42.916  18.911  24.942  1.00  0.00    -0.744 OA
ENDBRANCH  79  80
ENDBRANCH  47  72
BRANCH  59  84
ATOM     84  C   UNL A   1      49.675  26.809  26.333  1.00  0.00     0.058 A 
ATOM     85  C   UNL A   1      50.558  26.163  27.212  1.00  0.00     0.135 A 
ATOM     86  C   UNL A   1      50.077  26.967  24.996  1.00  0.00     0.135 A 
ATOM     87  F   UNL A   1      50.223  25.994  28.501  1.00  0.00    -0.206 F 
ATOM     88  C   UNL A   1      51.801  25.708  26.787  1.00  0.00     0.059 A 
ATOM     89  C   UNL A   1      51.308  26.501  24.545  1.00  0.00     0.059 A 
ATOM     90  F   UNL A   1      49.265  27.572  24.115  1.00  0.00    -0.206 F 
ATOM     91  C   UNL A   1      52.168  25.883  25.452  1.00  0.00     0.060 A 
BRANCH  91  92
ATOM     92  S   UNL A   1      53.771  25.260  24.901  1.00  0.00     0.124 S 
ATOM     93  O   UNL A   1      54.643  25.696  25.987  1.00  0.00    -0.237 OA
ATOM     94  O   UNL A   1      53.538  23.822  24.813  1.00  0.00    -0.237 OA
ATOM     95  O   UNL A   1      53.974  25.934  23.622  1.00  0.00    -0.744 OA
ENDBRANCH  91  92
ENDBRANCH  59  84
ENDBRANCH  33  34
ENDBRANCH  26  28
ENDBRANCH  25  26
ENDBRANCH  24  25
ENDBRANCH   1  24
TORSDOF 18
ENDMDL
MODEL 3
REMARK VINA RESULT:     -10.5      5.163     10.307
REMARK SMILES O=C(CNC(=O)c1ccco1)N[C@H]1C=C[C@@H](C(=O)OCCOC(=O)c2ccc(-c3c4nc(c(-c5c(F)cc(S(=O)(=O)[O-])cc5F)c5ccc([nH]5)c(-c5c(F)cc(S(=O)(=O)[O-])cc5F)c5nc(c(-c6c(F)cc(S(=O)(=O)[O-])cc6F)c6ccc3[nH]6)C=C5)C=C4)cc2)C1
REMARK SMILES IDX 20 1 19 2 17 3 18 4 16 5 13 6 14 7 91 8 15 9 12 10 1 11 2 12
REMARK SMILES IDX 3 14 4 15 5 16 6 18 7 19 8 20 11 21 9 22 10 23 21 24 22 25
REMARK SMILES IDX 23 26 24 27 25 28 26 29 90 30 27 31 89 32 28 33 29 34 30 35
REMARK SMILES IDX 83 36 31 37 88 38 82 39 84 40 32 41 87 42 81 43 80 44 33 46
REMARK SMILES IDX 67 47 46 48 66 49 47 50 50 51 65 52 85 53 48 54 49 55 64 57
REMARK SMILES IDX 86 58 51 59 34 60 35 61 44 62 36 63 37 64 43 65 45 66 38 67
REMARK SMILES IDX 39 68 40 69 41 70 42 71 68 72 69 73 78 74 70 75 71 76 77 77
REMARK SMILES IDX 79 78 72 79 73 80 74 81 75 82 76 83 52 84 53 85 62 86 54 87
REMARK SMILES IDX 55 88 61 89 63 90 56 91 57 92 58 93 59 94 60 95
REMARK H PARENT 12 13 4 17 84 45 50 56
REMARK Flexibility Score: inf
ROOT
ATOM      1  C   UNL A   1      31.731  28.056  26.373  1.00  0.00     0.274 C 
ENDROOT
BRANCH   1   2
ATOM      2  O   UNL A   1      32.116  28.793  25.198  1.00  0.00    -0.462 OA
BRANCH   2   3
ATOM      3  C   UNL A   1      31.172  28.945  24.235  1.00  0.00     0.312 C 
ATOM      4  O   UNL A   1      30.368  29.871  24.193  1.00  0.00    -0.252 OA
BRANCH   3   5
ATOM      5  C   UNL A   1      31.182  27.830  23.197  1.00  0.00     0.124 C 
ATOM      6  C   UNL A   1      32.083  25.633  22.646  1.00  0.00     0.106 C 
ATOM      7  C   UNL A   1      30.712  25.536  23.237  1.00  0.00    -0.006 C 
ATOM      8  C   UNL A   1      32.496  27.068  22.987  1.00  0.00     0.048 C 
ATOM      9  C   UNL A   1      30.214  26.739  23.543  1.00  0.00    -0.014 C 
BRANCH   6  10
ATOM     10  N   UNL A   1      32.928  24.645  23.268  1.00  0.00    -0.348 N 
ATOM     11  O   UNL A   1      33.592  23.664  21.304  1.00  0.00    -0.273 OA
ATOM     12  C   UNL A   1      33.649  23.734  22.530  1.00  0.00     0.239 C 
ATOM     13  H   UNL A   1      32.992  24.621  24.250  1.00  0.00     0.164 HD
BRANCH  12  14
ATOM     14  C   UNL A   1      34.380  22.668  23.350  1.00  0.00     0.216 C 
BRANCH  14  15
ATOM     15  N   UNL A   1      35.442  23.211  24.188  1.00  0.00    -0.340 N 
ATOM     16  C   UNL A   1      35.447  23.561  25.515  1.00  0.00     0.287 C 
ATOM     17  H   UNL A   1      36.300  23.349  23.724  1.00  0.00     0.164 HD
ATOM     18  O   UNL A   1      36.425  24.193  25.914  1.00  0.00    -0.266 OA
BRANCH  16  19
ATOM     19  C   UNL A   1      34.329  23.216  26.364  1.00  0.00     0.191 A 
ATOM     20  C   UNL A   1      34.127  22.259  27.344  1.00  0.00     0.056 A 
ATOM     21  O   UNL A   1      33.203  23.993  26.267  1.00  0.00    -0.459 OA
ATOM     22  C   UNL A   1      32.809  22.438  27.833  1.00  0.00     0.043 A 
ATOM     23  C   UNL A   1      32.292  23.508  27.146  1.00  0.00     0.196 A 
ENDBRANCH  16  19
ENDBRANCH  14  15
ENDBRANCH  12  14
ENDBRANCH   6  10
ENDBRANCH   3   5
ENDBRANCH   2   3
ENDBRANCH   1   2
BRANCH   1  24
ATOM     24  C   UNL A   1      32.472  28.585  27.604  1.00  0.00     0.275 C 
BRANCH  24  25
ATOM     25  O   UNL A   1      33.874  28.790  27.338  1.00  0.00    -0.458 OA
BRANCH  25  26
ATOM     26  C   UNL A   1      34.372  29.971  27.774  1.00  0.00     0.338 C 
ATOM     27  O   UNL A   1      33.759  31.010  27.951  1.00  0.00    -0.246 OA
BRANCH  26  28
ATOM     28  C   UNL A   1      35.784  29.811  28.153  1.00  0.00     0.060 A 
ATOM     29  C   UNL A   1      36.751  29.974  27.158  1.00  0.00     0.016 A 
ATOM     30  C   UNL A   1      36.153  29.419  29.441  1.00  0.00     0.016 A 
ATOM     31  C   UNL A   1      38.092  29.740  27.442  1.00  0.00     0.010 A 
ATOM     32  C   UNL A   1      37.502  29.181  29.726  1.00  0.00     0.010 A 
ATOM     33  C   UNL A   1      38.478  29.330  28.724  1.00  0.00    -0.014 A 
BRANCH  33  34
ATOM     34  C   UNL A   1      39.901  29.010  28.990  1.00  0.00     0.031 A 
ATOM     35  C   UNL A   1      40.797  30.044  29.608  1.00  0.00     0.074 A 
ATOM     36  C   UNL A   1      40.372  27.779  28.712  1.00  0.00     0.049 A 
ATOM     37  N   UNL A   1      42.078  29.980  29.863  1.00  0.00    -0.248 NA
ATOM     38  C   UNL A   1      40.169  31.318  29.992  1.00  0.00     0.031 C 
ATOM     39  C   UNL A   1      39.583  26.682  28.151  1.00  0.00     0.029 A 
ATOM     40  N   UNL A   1      41.627  27.248  28.863  1.00  0.00    -0.354 N 
ATOM     41  C   UNL A   1      42.414  31.204  30.429  1.00  0.00     0.074 A 
ATOM     42  C   UNL A   1      41.205  32.000  30.460  1.00  0.00     0.031 C 
ATOM     43  C   UNL A   1      40.374  25.606  28.002  1.00  0.00     0.029 A 
ATOM     44  C   UNL A   1      41.731  25.951  28.421  1.00  0.00     0.049 A 
ATOM     45  H   UNL A   1      42.381  27.747  29.251  1.00  0.00     0.167 HD
ATOM     46  C   UNL A   1      43.620  31.623  30.885  1.00  0.00     0.037 A 
ATOM     47  C   UNL A   1      42.805  25.142  28.337  1.00  0.00     0.037 A 
ATOM     48  C   UNL A   1      44.818  30.824  30.854  1.00  0.00     0.049 A 
ATOM     49  C   UNL A   1      44.143  25.647  28.801  1.00  0.00     0.074 A 
ATOM     50  C   UNL A   1      46.092  31.164  31.272  1.00  0.00     0.029 A 
ATOM     51  N   UNL A   1      44.888  29.522  30.380  1.00  0.00    -0.354 N 
ATOM     52  N   UNL A   1      44.450  26.816  29.311  1.00  0.00    -0.248 NA
ATOM     53  C   UNL A   1      45.282  24.728  28.676  1.00  0.00     0.031 C 
ATOM     54  C   UNL A   1      46.939  30.077  31.027  1.00  0.00     0.029 A 
ATOM     55  C   UNL A   1      46.185  29.047  30.488  1.00  0.00     0.049 A 
ATOM     56  H   UNL A   1      44.127  29.010  30.019  1.00  0.00     0.167 HD
ATOM     57  C   UNL A   1      45.813  26.767  29.581  1.00  0.00     0.074 A 
ATOM     58  C   UNL A   1      46.269  25.449  29.192  1.00  0.00     0.031 C 
ATOM     59  C   UNL A   1      46.617  27.728  30.100  1.00  0.00     0.037 A 
BRANCH  46  60
ATOM     60  C   UNL A   1      43.704  33.016  31.437  1.00  0.00     0.058 A 
ATOM     61  C   UNL A   1      43.959  34.121  30.610  1.00  0.00     0.135 A 
ATOM     62  C   UNL A   1      43.503  33.255  32.807  1.00  0.00     0.135 A 
ATOM     63  F   UNL A   1      44.176  33.946  29.297  1.00  0.00    -0.206 F 
ATOM     64  C   UNL A   1      44.036  35.412  31.124  1.00  0.00     0.059 A 
ATOM     65  C   UNL A   1      43.555  34.539  33.339  1.00  0.00     0.059 A 
ATOM     66  F   UNL A   1      43.259  32.233  33.641  1.00  0.00    -0.206 F 
ATOM     67  C   UNL A   1      43.837  35.610  32.492  1.00  0.00     0.060 A 
BRANCH  67  68
ATOM     68  S   UNL A   1      43.944  37.289  33.148  1.00  0.00     0.124 S 
ATOM     69  O   UNL A   1      42.802  37.317  34.056  1.00  0.00    -0.237 OA
ATOM     70  O   UNL A   1      45.258  37.296  33.783  1.00  0.00    -0.237 OA
ATOM     71  O   UNL A   1      43.822  38.126  31.960  1.00  0.00    -0.744 OA
ENDBRANCH  67  68
ENDBRANCH  46  60
BRANCH  47  72
ATOM     72  C   UNL A   1      42.662  23.779  27.764  1.00  0.00     0.058 A 
ATOM     73  C   UNL A   1      42.504  22.656  28.589  1.00  0.00     0.135 A 
ATOM     74  C   UNL A   1      42.680  23.574  26.375  1.00  0.00     0.135 A 
ATOM     75  F   UNL A   1      42.491  22.801  29.923  1.00  0.00    -0.206 F 
ATOM     76  C   UNL A   1      42.385  21.375  28.060  1.00  0.00     0.059 A 
ATOM     77  C   UNL A   1      42.539  22.306  25.821  1.00  0.00     0.059 A 
ATOM     78  F   UNL A   1      42.818  24.618  25.543  1.00  0.00    -0.206 F 
ATOM     79  C   UNL A   1      42.403  21.211  26.673  1.00  0.00     0.060 A 
BRANCH  79  80
ATOM     80  S   UNL A   1      42.205  19.551  25.988  1.00  0.00     0.124 S 
ATOM     81  O   UNL A   1      43.130  19.588  24.860  1.00  0.00    -0.237 OA
ATOM     82  O   UNL A   1      42.597  18.703  27.108  1.00  0.00    -0.237 OA
ATOM     83  O   UNL A   1      40.788  19.502  25.641  1.00  0.00    -0.744 OA
ENDBRANCH  79  80
ENDBRANCH  47  72
BRANCH  59  84
ATOM     84  C   UNL A   1      48.063  27.379  30.300  1.00  0.00     0.058 A 
ATOM     85  C   UNL A   1      49.033  27.683  29.332  1.00  0.00     0.135 A 
ATOM     86  C   UNL A   1      48.491  26.770  31.491  1.00  0.00     0.135 A 
ATOM     87  F   UNL A   1      48.672  28.259  28.174  1.00  0.00    -0.206 F 
ATOM     88  C   UNL A   1      50.375  27.378  29.529  1.00  0.00     0.059 A 
ATOM     89  C   UNL A   1      49.832  26.475  31.718  1.00  0.00     0.059 A 
ATOM     90  F   UNL A   1      47.603  26.467  32.451  1.00  0.00    -0.206 F 
ATOM     91  C   UNL A   1      50.764  26.773  30.725  1.00  0.00     0.060 A 
BRANCH  91  92
ATOM     92  S   UNL A   1      52.514  26.409  30.986  1.00  0.00     0.124 S 
ATOM     93  O   UNL A   1      52.986  26.242  29.616  1.00  0.00    -0.237 OA
ATOM     94  O   UNL A   1      52.985  27.604  31.679  1.00  0.00    -0.237 OA
ATOM     95  O   UNL A   1      52.489  25.194  31.795  1.00  0.00    -0.744 OA
ENDBRANCH  91  92
ENDBRANCH  59  84
ENDBRANCH  33  34
ENDBRANCH  26  28
ENDBRANCH  25  26
ENDBRANCH  24  25
ENDBRANCH   1  24
TORSDOF 18
ENDMDL
