MODEL 1
REMARK VINA RESULT:      -9.9      0.000      0.000
REMARK SMILES O=C(OCCOC(=O)[C@@]12CCC[C@@H](C[NH2+]1)C2)c1ccc(-c2c3nc(c(-c4c(F)cc(S(=O)(=O)[O-])cc4F)c4ccc([nH]4)c(-c4c(F)cc(S(=O)(=O)[O-])cc4F)c4nc(c(-c5c(F)cc(S(=O)(=O)[O-])cc5F)c5ccc2[nH]5)C=C4)C=C3)cc1
REMARK SMILES IDX 3 1 2 2 1 3 17 4 18 5 82 6 19 7 81 8 20 9 21 10 22 11 75 12
REMARK SMILES IDX 23 13 80 14 74 15 76 16 24 17 79 18 73 19 72 20 25 22 59 23
REMARK SMILES IDX 38 24 58 25 39 26 42 27 57 28 77 29 40 30 41 31 56 33 78 34
REMARK SMILES IDX 43 35 26 36 27 37 36 38 28 39 29 40 35 41 37 42 30 43 31 44
REMARK SMILES IDX 32 45 33 46 34 47 60 48 61 49 70 50 62 51 63 52 69 53 71 54
REMARK SMILES IDX 64 55 65 56 66 57 67 58 68 59 44 60 45 61 54 62 46 63 47 64
REMARK SMILES IDX 53 65 55 66 48 67 49 68 50 69 51 70 52 71 4 72 5 73 6 74
REMARK SMILES IDX 7 75 8 76 9 77 10 78 15 79 16 80 11 81 14 82 13 85 12 86
REMARK H PARENT 76 21 42 32 15 83 15 84
REMARK Flexibility Score: inf
ROOT
ATOM      1  O   UNL A   1      38.947  21.810  26.283  1.00  0.00    -0.458 OA
ENDROOT
BRANCH   1   2
ATOM      2  C   UNL A   1      38.626  23.109  26.081  1.00  0.00     0.338 C 
ATOM      3  O   UNL A   1      37.751  23.342  25.247  1.00  0.00    -0.246 OA
BRANCH   2   4
ATOM      4  C   UNL A   1      39.322  24.288  26.710  1.00  0.00     0.060 A 
ATOM      5  C   UNL A   1      40.142  25.244  26.090  1.00  0.00     0.016 A 
ATOM      6  C   UNL A   1      38.998  24.509  28.059  1.00  0.00     0.016 A 
ATOM      7  C   UNL A   1      40.527  26.434  26.741  1.00  0.00     0.010 A 
ATOM      8  C   UNL A   1      39.323  25.716  28.685  1.00  0.00     0.010 A 
ATOM      9  C   UNL A   1      40.082  26.707  28.031  1.00  0.00    -0.014 A 
BRANCH   9  10
ATOM     10  C   UNL A   1      40.475  27.922  28.805  1.00  0.00     0.031 A 
ATOM     11  C   UNL A   1      41.694  27.785  29.668  1.00  0.00     0.074 A 
ATOM     12  C   UNL A   1      39.748  29.059  28.862  1.00  0.00     0.049 A 
ATOM     13  N   UNL A   1      42.078  28.495  30.692  1.00  0.00    -0.248 NA
ATOM     14  C   UNL A   1      42.554  26.624  29.374  1.00  0.00     0.031 C 
ATOM     15  C   UNL A   1      38.578  29.373  28.050  1.00  0.00     0.029 A 
ATOM     16  N   UNL A   1      39.858  30.149  29.700  1.00  0.00    -0.354 N 
ATOM     17  C   UNL A   1      43.201  27.838  31.172  1.00  0.00     0.074 A 
ATOM     18  C   UNL A   1      43.310  26.589  30.455  1.00  0.00     0.031 C 
ATOM     19  C   UNL A   1      38.027  30.523  28.484  1.00  0.00     0.029 A 
ATOM     20  C   UNL A   1      38.789  31.018  29.620  1.00  0.00     0.049 A 
ATOM     21  H   UNL A   1      40.626  30.292  30.300  1.00  0.00     0.167 HD
ATOM     22  C   UNL A   1      44.129  28.281  32.047  1.00  0.00     0.037 A 
ATOM     23  C   UNL A   1      38.449  32.073  30.391  1.00  0.00     0.037 A 
ATOM     24  C   UNL A   1      44.055  29.562  32.681  1.00  0.00     0.049 A 
ATOM     25  C   UNL A   1      39.421  32.522  31.451  1.00  0.00     0.074 A 
ATOM     26  C   UNL A   1      44.975  30.171  33.509  1.00  0.00     0.029 A 
ATOM     27  N   UNL A   1      42.987  30.438  32.540  1.00  0.00    -0.354 N 
ATOM     28  N   UNL A   1      40.531  31.941  31.841  1.00  0.00    -0.248 NA
ATOM     29  C   UNL A   1      39.139  33.796  32.128  1.00  0.00     0.031 C 
ATOM     30  C   UNL A   1      44.447  31.406  33.899  1.00  0.00     0.029 A 
ATOM     31  C   UNL A   1      43.220  31.585  33.273  1.00  0.00     0.049 A 
ATOM     32  H   UNL A   1      42.184  30.268  31.998  1.00  0.00     0.167 HD
ATOM     33  C   UNL A   1      41.128  32.822  32.734  1.00  0.00     0.074 A 
ATOM     34  C   UNL A   1      40.230  33.950  32.870  1.00  0.00     0.031 C 
ATOM     35  C   UNL A   1      42.332  32.719  33.349  1.00  0.00     0.037 A 
BRANCH  22  36
ATOM     36  C   UNL A   1      45.299  27.370  32.287  1.00  0.00     0.058 A 
ATOM     37  C   UNL A   1      45.315  26.471  33.371  1.00  0.00     0.135 A 
ATOM     38  C   UNL A   1      46.461  27.483  31.512  1.00  0.00     0.135 A 
ATOM     39  F   UNL A   1      44.234  26.339  34.158  1.00  0.00    -0.206 F 
ATOM     40  C   UNL A   1      46.472  25.799  33.740  1.00  0.00     0.059 A 
ATOM     41  C   UNL A   1      47.618  26.781  31.836  1.00  0.00     0.059 A 
ATOM     42  F   UNL A   1      46.498  28.319  30.462  1.00  0.00    -0.206 F 
ATOM     43  C   UNL A   1      47.624  25.975  32.975  1.00  0.00     0.060 A 
BRANCH  43  44
ATOM     44  S   UNL A   1      49.141  25.161  33.513  1.00  0.00     0.124 S 
ATOM     45  O   UNL A   1      48.613  23.950  34.134  1.00  0.00    -0.237 OA
ATOM     46  O   UNL A   1      49.854  24.967  32.255  1.00  0.00    -0.237 OA
ATOM     47  O   UNL A   1      49.738  26.129  34.427  1.00  0.00    -0.744 OA
ENDBRANCH  43  44
ENDBRANCH  22  36
BRANCH  23  48
ATOM     48  C   UNL A   1      37.170  32.807  30.162  1.00  0.00     0.058 A 
ATOM     49  C   UNL A   1      36.007  32.488  30.878  1.00  0.00     0.135 A 
ATOM     50  C   UNL A   1      37.082  33.844  29.217  1.00  0.00     0.135 A 
ATOM     51  F   UNL A   1      36.032  31.498  31.784  1.00  0.00    -0.206 F 
ATOM     52  C   UNL A   1      34.806  33.159  30.667  1.00  0.00     0.059 A 
ATOM     53  C   UNL A   1      35.892  34.538  28.994  1.00  0.00     0.059 A 
ATOM     54  F   UNL A   1      38.163  34.197  28.504  1.00  0.00    -0.206 F 
ATOM     55  C   UNL A   1      34.758  34.189  29.725  1.00  0.00     0.060 A 
BRANCH  55  56
ATOM     56  S   UNL A   1      33.202  35.086  29.505  1.00  0.00     0.124 S 
ATOM     57  O   UNL A   1      33.673  36.402  29.088  1.00  0.00    -0.237 OA
ATOM     58  O   UNL A   1      32.540  34.290  28.476  1.00  0.00    -0.237 OA
ATOM     59  O   UNL A   1      32.587  35.027  30.827  1.00  0.00    -0.744 OA
ENDBRANCH  55  56
ENDBRANCH  23  48
BRANCH  35  60
ATOM     60  C   UNL A   1      42.826  33.894  34.139  1.00  0.00     0.058 A 
ATOM     61  C   UNL A   1      42.654  33.983  35.526  1.00  0.00     0.135 A 
ATOM     62  C   UNL A   1      43.631  34.857  33.506  1.00  0.00     0.135 A 
ATOM     63  F   UNL A   1      41.883  33.094  36.171  1.00  0.00    -0.206 F 
ATOM     64  C   UNL A   1      43.285  34.976  36.266  1.00  0.00     0.059 A 
ATOM     65  C   UNL A   1      44.294  35.840  34.230  1.00  0.00     0.059 A 
ATOM     66  F   UNL A   1      43.829  34.807  32.178  1.00  0.00    -0.206 F 
ATOM     67  C   UNL A   1      44.120  35.886  35.612  1.00  0.00     0.060 A 
BRANCH  67  68
ATOM     68  S   UNL A   1      45.038  37.084  36.601  1.00  0.00     0.124 S 
ATOM     69  O   UNL A   1      44.012  38.082  36.883  1.00  0.00    -0.237 OA
ATOM     70  O   UNL A   1      45.470  36.280  37.740  1.00  0.00    -0.237 OA
ATOM     71  O   UNL A   1      46.108  37.517  35.706  1.00  0.00    -0.744 OA
ENDBRANCH  67  68
ENDBRANCH  35  60
ENDBRANCH   9  10
ENDBRANCH   2   4
ENDBRANCH   1   2
BRANCH   1  72
ATOM     72  C   UNL A   1      38.698  20.656  25.469  1.00  0.00     0.275 C 
BRANCH  72  73
ATOM     73  C   UNL A   1      39.688  19.514  25.722  1.00  0.00     0.274 C 
BRANCH  73  74
ATOM     74  O   UNL A   1      40.809  19.913  26.525  1.00  0.00    -0.457 OA
BRANCH  74  75
ATOM     75  C   UNL A   1      42.046  20.022  25.925  1.00  0.00     0.368 C 
ATOM     76  O   UNL A   1      42.543  19.184  25.194  1.00  0.00    -0.245 OA
BRANCH  75  77
ATOM     77  C   UNL A   1      42.715  21.355  26.348  1.00  0.00     0.194 C 
ATOM     78  C   UNL A   1      42.286  21.689  27.783  1.00  0.00     0.081 C 
ATOM     79  N   UNL A   1      44.212  21.194  26.281  1.00  0.00    -0.332 N 
ATOM     80  C   UNL A   1      42.459  22.611  25.525  1.00  0.00     0.090 C 
ATOM     81  C   UNL A   1      42.471  23.147  28.210  1.00  0.00     0.008 C 
ATOM     82  C   UNL A   1      44.755  22.429  25.699  1.00  0.00     0.265 C 
ATOM     83  H   UNL A   1      44.452  20.395  25.693  1.00  0.00     0.347 HD
ATOM     84  H   UNL A   1      44.601  21.029  27.209  1.00  0.00     0.347 HD
ATOM     85  C   UNL A   1      43.666  23.452  25.974  1.00  0.00     0.051 C 
ATOM     86  C   UNL A   1      43.646  23.793  27.491  1.00  0.00     0.010 C 
ENDBRANCH  75  77
ENDBRANCH  74  75
ENDBRANCH  73  74
ENDBRANCH  72  73
ENDBRANCH   1  72
TORSDOF 14
ENDMDL
MODEL 2
REMARK VINA RESULT:      -9.7      2.984     11.062
REMARK SMILES O=C(OCCOC(=O)[C@@]12CCC[C@@H](C[NH2+]1)C2)c1ccc(-c2c3nc(c(-c4c(F)cc(S(=O)(=O)[O-])cc4F)c4ccc([nH]4)c(-c4c(F)cc(S(=O)(=O)[O-])cc4F)c4nc(c(-c5c(F)cc(S(=O)(=O)[O-])cc5F)c5ccc2[nH]5)C=C4)C=C3)cc1
REMARK SMILES IDX 3 1 2 2 1 3 17 4 18 5 82 6 19 7 81 8 20 9 21 10 22 11 75 12
REMARK SMILES IDX 23 13 80 14 74 15 76 16 24 17 79 18 73 19 72 20 25 22 59 23
REMARK SMILES IDX 38 24 58 25 39 26 42 27 57 28 77 29 40 30 41 31 56 33 78 34
REMARK SMILES IDX 43 35 26 36 27 37 36 38 28 39 29 40 35 41 37 42 30 43 31 44
REMARK SMILES IDX 32 45 33 46 34 47 60 48 61 49 70 50 62 51 63 52 69 53 71 54
REMARK SMILES IDX 64 55 65 56 66 57 67 58 68 59 44 60 45 61 54 62 46 63 47 64
REMARK SMILES IDX 53 65 55 66 48 67 49 68 50 69 51 70 52 71 4 72 5 73 6 74
REMARK SMILES IDX 7 75 8 76 9 77 10 78 15 79 16 80 11 81 14 82 13 85 12 86
REMARK H PARENT 76 21 42 32 15 83 15 84
REMARK Flexibility Score: inf
ROOT
ATOM      1  O   UNL A   1      34.319  32.160  27.757  1.00  0.00    -0.458 OA
ENDROOT
BRANCH   1   2
ATOM      2  C   UNL A   1      34.602  30.856  27.536  1.00  0.00     0.338 C 
ATOM      3  O   UNL A   1      33.702  30.164  27.060  1.00  0.00    -0.246 OA
BRANCH   2   4
ATOM      4  C   UNL A   1      35.884  30.163  27.921  1.00  0.00     0.060 A 
ATOM      5  C   UNL A   1      37.120  30.193  27.257  1.00  0.00     0.016 A 
ATOM      6  C   UNL A   1      35.847  29.512  29.166  1.00  0.00     0.016 A 
ATOM      7  C   UNL A   1      38.301  29.705  27.853  1.00  0.00     0.010 A 
ATOM      8  C   UNL A   1      37.027  29.088  29.786  1.00  0.00     0.010 A 
ATOM      9  C   UNL A   1      38.278  29.190  29.145  1.00  0.00    -0.014 A 
BRANCH   9  10
ATOM     10  C   UNL A   1      39.473  28.618  29.833  1.00  0.00     0.031 A 
ATOM     11  C   UNL A   1      39.974  29.381  31.023  1.00  0.00     0.074 A 
ATOM     12  C   UNL A   1      40.176  27.557  29.384  1.00  0.00     0.049 A 
ATOM     13  N   UNL A   1      41.143  29.360  31.599  1.00  0.00    -0.248 NA
ATOM     14  C   UNL A   1      39.035  30.368  31.587  1.00  0.00     0.031 C 
ATOM     15  C   UNL A   1      39.799  26.678  28.283  1.00  0.00     0.029 A 
ATOM     16  N   UNL A   1      41.409  27.073  29.770  1.00  0.00    -0.354 N 
ATOM     17  C   UNL A   1      41.077  30.355  32.563  1.00  0.00     0.074 A 
ATOM     18  C   UNL A   1      39.840  31.072  32.359  1.00  0.00     0.031 C 
ATOM     19  C   UNL A   1      40.808  25.825  28.023  1.00  0.00     0.029 A 
ATOM     20  C   UNL A   1      41.916  26.108  28.923  1.00  0.00     0.049 A 
ATOM     21  H   UNL A   1      41.883  27.387  30.575  1.00  0.00     0.167 HD
ATOM     22  C   UNL A   1      41.910  30.581  33.602  1.00  0.00     0.037 A 
ATOM     23  C   UNL A   1      43.140  25.541  28.862  1.00  0.00     0.037 A 
ATOM     24  C   UNL A   1      43.084  29.800  33.844  1.00  0.00     0.049 A 
ATOM     25  C   UNL A   1      44.128  25.863  29.951  1.00  0.00     0.074 A 
ATOM     26  C   UNL A   1      43.958  29.861  34.911  1.00  0.00     0.029 A 
ATOM     27  N   UNL A   1      43.542  28.800  32.997  1.00  0.00    -0.354 N 
ATOM     28  N   UNL A   1      44.022  26.746  30.916  1.00  0.00    -0.248 NA
ATOM     29  C   UNL A   1      45.367  25.074  29.992  1.00  0.00     0.031 C 
ATOM     30  C   UNL A   1      44.966  28.918  34.691  1.00  0.00     0.029 A 
ATOM     31  C   UNL A   1      44.692  28.238  33.512  1.00  0.00     0.049 A 
ATOM     32  H   UNL A   1      43.109  28.532  32.154  1.00  0.00     0.167 HD
ATOM     33  C   UNL A   1      45.129  26.552  31.733  1.00  0.00     0.074 A 
ATOM     34  C   UNL A   1      45.922  25.507  31.119  1.00  0.00     0.031 C 
ATOM     35  C   UNL A   1      45.434  27.158  32.906  1.00  0.00     0.037 A 
BRANCH  22  36
ATOM     36  C   UNL A   1      41.507  31.678  34.545  1.00  0.00     0.058 A 
ATOM     37  C   UNL A   1      40.584  31.447  35.584  1.00  0.00     0.135 A 
ATOM     38  C   UNL A   1      41.941  32.994  34.335  1.00  0.00     0.135 A 
ATOM     39  F   UNL A   1      40.120  30.207  35.815  1.00  0.00    -0.206 F 
ATOM     40  C   UNL A   1      40.029  32.492  36.308  1.00  0.00     0.059 A 
ATOM     41  C   UNL A   1      41.433  34.052  35.083  1.00  0.00     0.059 A 
ATOM     42  F   UNL A   1      42.825  33.270  33.364  1.00  0.00    -0.206 F 
ATOM     43  C   UNL A   1      40.448  33.794  36.037  1.00  0.00     0.060 A 
BRANCH  43  44
ATOM     44  S   UNL A   1      39.658  35.150  36.928  1.00  0.00     0.124 S 
ATOM     45  O   UNL A   1      38.525  34.468  37.545  1.00  0.00    -0.237 OA
ATOM     46  O   UNL A   1      40.713  35.579  37.842  1.00  0.00    -0.237 OA
ATOM     47  O   UNL A   1      39.324  36.099  35.871  1.00  0.00    -0.744 OA
ENDBRANCH  43  44
ENDBRANCH  22  36
BRANCH  23  48
ATOM     48  C   UNL A   1      43.482  24.581  27.773  1.00  0.00     0.058 A 
ATOM     49  C   UNL A   1      44.121  25.006  26.598  1.00  0.00     0.135 A 
ATOM     50  C   UNL A   1      43.177  23.213  27.882  1.00  0.00     0.135 A 
ATOM     51  F   UNL A   1      44.425  26.303  26.436  1.00  0.00    -0.206 F 
ATOM     52  C   UNL A   1      44.438  24.120  25.571  1.00  0.00     0.059 A 
ATOM     53  C   UNL A   1      43.493  22.304  26.872  1.00  0.00     0.059 A 
ATOM     54  F   UNL A   1      42.571  22.745  28.985  1.00  0.00    -0.206 F 
ATOM     55  C   UNL A   1      44.125  22.767  25.718  1.00  0.00     0.060 A 
BRANCH  55  56
ATOM     56  S   UNL A   1      44.596  21.624  24.397  1.00  0.00     0.124 S 
ATOM     57  O   UNL A   1      46.032  21.489  24.617  1.00  0.00    -0.237 OA
ATOM     58  O   UNL A   1      43.789  20.450  24.715  1.00  0.00    -0.237 OA
ATOM     59  O   UNL A   1      44.208  22.333  23.181  1.00  0.00    -0.744 OA
ENDBRANCH  55  56
ENDBRANCH  23  48
BRANCH  35  60
ATOM     60  C   UNL A   1      46.609  26.646  33.684  1.00  0.00     0.058 A 
ATOM     61  C   UNL A   1      46.503  25.563  34.566  1.00  0.00     0.135 A 
ATOM     62  C   UNL A   1      47.891  27.151  33.405  1.00  0.00     0.135 A 
ATOM     63  F   UNL A   1      45.299  25.056  34.873  1.00  0.00    -0.206 F 
ATOM     64  C   UNL A   1      47.633  24.979  35.127  1.00  0.00     0.059 A 
ATOM     65  C   UNL A   1      49.034  26.566  33.932  1.00  0.00     0.059 A 
ATOM     66  F   UNL A   1      48.041  28.186  32.561  1.00  0.00    -0.206 F 
ATOM     67  C   UNL A   1      48.895  25.474  34.787  1.00  0.00     0.060 A 
BRANCH  67  68
ATOM     68  S   UNL A   1      50.356  24.623  35.415  1.00  0.00     0.124 S 
ATOM     69  O   UNL A   1      50.800  25.535  36.464  1.00  0.00    -0.237 OA
ATOM     70  O   UNL A   1      49.802  23.352  35.872  1.00  0.00    -0.237 OA
ATOM     71  O   UNL A   1      51.228  24.535  34.247  1.00  0.00    -0.744 OA
ENDBRANCH  67  68
ENDBRANCH  35  60
ENDBRANCH   9  10
ENDBRANCH   2   4
ENDBRANCH   1   2
BRANCH   1  72
ATOM     72  C   UNL A   1      35.186  33.256  28.079  1.00  0.00     0.275 C 
BRANCH  72  73
ATOM     73  C   UNL A   1      34.437  34.488  28.595  1.00  0.00     0.274 C 
BRANCH  73  74
ATOM     74  O   UNL A   1      33.638  34.212  29.755  1.00  0.00    -0.457 OA
BRANCH  74  75
ATOM     75  C   UNL A   1      33.835  34.971  30.889  1.00  0.00     0.368 C 
ATOM     76  O   UNL A   1      33.404  36.097  31.058  1.00  0.00    -0.245 OA
BRANCH  75  77
ATOM     77  C   UNL A   1      34.713  34.184  31.896  1.00  0.00     0.194 C 
ATOM     78  C   UNL A   1      34.409  34.687  33.313  1.00  0.00     0.081 C 
ATOM     79  N   UNL A   1      34.387  32.716  31.787  1.00  0.00    -0.332 N 
ATOM     80  C   UNL A   1      36.228  34.220  31.749  1.00  0.00     0.090 C 
ATOM     81  C   UNL A   1      35.464  34.365  34.374  1.00  0.00     0.008 C 
ATOM     82  C   UNL A   1      35.659  31.984  31.858  1.00  0.00     0.265 C 
ATOM     83  H   UNL A   1      33.922  32.527  30.900  1.00  0.00     0.347 HD
ATOM     84  H   UNL A   1      33.760  32.428  32.539  1.00  0.00     0.347 HD
ATOM     85  C   UNL A   1      36.586  32.962  32.558  1.00  0.00     0.051 C 
ATOM     86  C   UNL A   1      36.192  33.066  34.059  1.00  0.00     0.010 C 
ENDBRANCH  75  77
ENDBRANCH  74  75
ENDBRANCH  73  74
ENDBRANCH  72  73
ENDBRANCH   1  72
TORSDOF 14
ENDMDL
MODEL 3
REMARK VINA RESULT:      -9.6      2.935      3.878
REMARK SMILES O=C(OCCOC(=O)[C@@]12CCC[C@@H](C[NH2+]1)C2)c1ccc(-c2c3nc(c(-c4c(F)cc(S(=O)(=O)[O-])cc4F)c4ccc([nH]4)c(-c4c(F)cc(S(=O)(=O)[O-])cc4F)c4nc(c(-c5c(F)cc(S(=O)(=O)[O-])cc5F)c5ccc2[nH]5)C=C4)C=C3)cc1
REMARK SMILES IDX 3 1 2 2 1 3 17 4 18 5 82 6 19 7 81 8 20 9 21 10 22 11 75 12
REMARK SMILES IDX 23 13 80 14 74 15 76 16 24 17 79 18 73 19 72 20 25 22 59 23
REMARK SMILES IDX 38 24 58 25 39 26 42 27 57 28 77 29 40 30 41 31 56 33 78 34
REMARK SMILES IDX 43 35 26 36 27 37 36 38 28 39 29 40 35 41 37 42 30 43 31 44
REMARK SMILES IDX 32 45 33 46 34 47 60 48 61 49 70 50 62 51 63 52 69 53 71 54
REMARK SMILES IDX 64 55 65 56 66 57 67 58 68 59 44 60 45 61 54 62 46 63 47 64
REMARK SMILES IDX 53 65 55 66 48 67 49 68 50 69 51 70 52 71 4 72 5 73 6 74
REMARK SMILES IDX 7 75 8 76 9 77 10 78 15 79 16 80 11 81 14 82 13 85 12 86
REMARK H PARENT 76 21 42 32 15 83 15 84
REMARK Flexibility Score: inf
ROOT
ATOM      1  O   UNL A   1      39.738  21.493  26.951  1.00  0.00    -0.458 OA
ENDROOT
BRANCH   1   2
ATOM      2  C   UNL A   1      39.058  22.595  26.560  1.00  0.00     0.338 C 
ATOM      3  O   UNL A   1      38.232  22.449  25.659  1.00  0.00    -0.246 OA
BRANCH   2   4
ATOM      4  C   UNL A   1      39.304  23.996  27.060  1.00  0.00     0.060 A 
ATOM      5  C   UNL A   1      39.177  24.485  28.370  1.00  0.00     0.016 A 
ATOM      6  C   UNL A   1      39.842  24.873  26.103  1.00  0.00     0.016 A 
ATOM      7  C   UNL A   1      39.675  25.749  28.747  1.00  0.00     0.010 A 
ATOM      8  C   UNL A   1      40.394  26.099  26.488  1.00  0.00     0.010 A 
ATOM      9  C   UNL A   1      40.333  26.552  27.821  1.00  0.00    -0.014 A 
BRANCH   9  10
ATOM     10  C   UNL A   1      40.853  27.918  28.128  1.00  0.00     0.031 A 
ATOM     11  C   UNL A   1      42.345  28.067  28.135  1.00  0.00     0.074 A 
ATOM     12  C   UNL A   1      40.083  28.961  28.506  1.00  0.00     0.049 A 
ATOM     13  N   UNL A   1      43.092  28.980  28.689  1.00  0.00    -0.248 NA
ATOM     14  C   UNL A   1      43.096  26.974  27.489  1.00  0.00     0.031 C 
ATOM     15  C   UNL A   1      38.625  29.001  28.499  1.00  0.00     0.029 A 
ATOM     16  N   UNL A   1      40.433  30.184  29.039  1.00  0.00    -0.354 N 
ATOM     17  C   UNL A   1      44.392  28.542  28.480  1.00  0.00     0.074 A 
ATOM     18  C   UNL A   1      44.316  27.208  27.932  1.00  0.00     0.031 C 
ATOM     19  C   UNL A   1      38.204  30.140  29.081  1.00  0.00     0.029 A 
ATOM     20  C   UNL A   1      39.360  30.904  29.524  1.00  0.00     0.049 A 
ATOM     21  H   UNL A   1      41.362  30.512  29.070  1.00  0.00     0.167 HD
ATOM     22  C   UNL A   1      45.547  29.229  28.620  1.00  0.00     0.037 A 
ATOM     23  C   UNL A   1      39.317  32.032  30.264  1.00  0.00     0.037 A 
ATOM     24  C   UNL A   1      45.598  30.584  29.078  1.00  0.00     0.049 A 
ATOM     25  C   UNL A   1      40.608  32.761  30.528  1.00  0.00     0.074 A 
ATOM     26  C   UNL A   1      46.690  31.423  29.171  1.00  0.00     0.029 A 
ATOM     27  N   UNL A   1      44.492  31.300  29.513  1.00  0.00    -0.354 N 
ATOM     28  N   UNL A   1      41.832  32.381  30.249  1.00  0.00    -0.248 NA
ATOM     29  C   UNL A   1      40.518  34.094  31.141  1.00  0.00     0.031 C 
ATOM     30  C   UNL A   1      46.247  32.641  29.697  1.00  0.00     0.029 A 
ATOM     31  C   UNL A   1      44.872  32.574  29.884  1.00  0.00     0.049 A 
ATOM     32  H   UNL A   1      43.572  30.951  29.550  1.00  0.00     0.167 HD
ATOM     33  C   UNL A   1      42.647  33.462  30.559  1.00  0.00     0.074 A 
ATOM     34  C   UNL A   1      41.784  34.492  31.101  1.00  0.00     0.031 C 
ATOM     35  C   UNL A   1      43.982  33.600  30.371  1.00  0.00     0.037 A 
BRANCH  22  36
ATOM     36  C   UNL A   1      46.798  28.507  28.209  1.00  0.00     0.058 A 
ATOM     37  C   UNL A   1      47.204  28.456  26.862  1.00  0.00     0.135 A 
ATOM     38  C   UNL A   1      47.526  27.755  29.141  1.00  0.00     0.135 A 
ATOM     39  F   UNL A   1      46.528  29.142  25.924  1.00  0.00    -0.206 F 
ATOM     40  C   UNL A   1      48.216  27.606  26.440  1.00  0.00     0.059 A 
ATOM     41  C   UNL A   1      48.577  26.932  28.746  1.00  0.00     0.059 A 
ATOM     42  F   UNL A   1      47.188  27.773  30.440  1.00  0.00    -0.206 F 
ATOM     43  C   UNL A   1      48.885  26.835  27.389  1.00  0.00     0.060 A 
BRANCH  43  44
ATOM     44  S   UNL A   1      50.142  25.674  26.817  1.00  0.00     0.124 S 
ATOM     45  O   UNL A   1      51.367  26.335  27.255  1.00  0.00    -0.237 OA
ATOM     46  O   UNL A   1      49.790  24.453  27.536  1.00  0.00    -0.237 OA
ATOM     47  O   UNL A   1      49.930  25.631  25.374  1.00  0.00    -0.744 OA
ENDBRANCH  43  44
ENDBRANCH  22  36
BRANCH  23  48
ATOM     48  C   UNL A   1      38.016  32.570  30.760  1.00  0.00     0.058 A 
ATOM     49  C   UNL A   1      37.192  33.357  29.943  1.00  0.00     0.135 A 
ATOM     50  C   UNL A   1      37.569  32.310  32.068  1.00  0.00     0.135 A 
ATOM     51  F   UNL A   1      37.576  33.647  28.690  1.00  0.00    -0.206 F 
ATOM     52  C   UNL A   1      35.981  33.872  30.397  1.00  0.00     0.059 A 
ATOM     53  C   UNL A   1      36.355  32.807  32.543  1.00  0.00     0.059 A 
ATOM     54  F   UNL A   1      38.312  31.559  32.896  1.00  0.00    -0.206 F 
ATOM     55  C   UNL A   1      35.566  33.587  31.699  1.00  0.00     0.060 A 
BRANCH  55  56
ATOM     56  S   UNL A   1      33.963  34.219  32.253  1.00  0.00     0.124 S 
ATOM     57  O   UNL A   1      34.360  35.332  33.107  1.00  0.00    -0.237 OA
ATOM     58  O   UNL A   1      33.330  34.580  30.988  1.00  0.00    -0.237 OA
ATOM     59  O   UNL A   1      33.368  33.077  32.941  1.00  0.00    -0.744 OA
ENDBRANCH  55  56
ENDBRANCH  23  48
BRANCH  35  60
ATOM     60  C   UNL A   1      44.601  34.940  30.635  1.00  0.00     0.058 A 
ATOM     61  C   UNL A   1      44.619  35.955  29.670  1.00  0.00     0.135 A 
ATOM     62  C   UNL A   1      45.028  35.255  31.937  1.00  0.00     0.135 A 
ATOM     63  F   UNL A   1      44.234  35.698  28.410  1.00  0.00    -0.206 F 
ATOM     64  C   UNL A   1      45.018  37.247  29.992  1.00  0.00     0.059 A 
ATOM     65  C   UNL A   1      45.403  36.545  32.288  1.00  0.00     0.059 A 
ATOM     66  F   UNL A   1      45.022  34.314  32.896  1.00  0.00    -0.206 F 
ATOM     67  C   UNL A   1      45.387  37.536  31.309  1.00  0.00     0.060 A 
BRANCH  67  68
ATOM     68  S   UNL A   1      45.771  39.245  31.743  1.00  0.00     0.124 S 
ATOM     69  O   UNL A   1      44.556  39.936  31.326  1.00  0.00    -0.237 OA
ATOM     70  O   UNL A   1      45.988  39.157  33.184  1.00  0.00    -0.237 OA
ATOM     71  O   UNL A   1      46.964  39.538  30.954  1.00  0.00    -0.744 OA
ENDBRANCH  67  68
ENDBRANCH  35  60
ENDBRANCH   9  10
ENDBRANCH   2   4
ENDBRANCH   1   2
BRANCH   1  72
ATOM     72  C   UNL A   1      40.167  20.353  26.196  1.00  0.00     0.275 C 
BRANCH  72  73
ATOM     73  C   UNL A   1      41.691  20.201  26.142  1.00  0.00     0.274 C 
BRANCH  73  74
ATOM     74  O   UNL A   1      42.357  21.399  25.716  1.00  0.00    -0.457 OA
BRANCH  74  75
ATOM     75  C   UNL A   1      43.075  22.122  26.645  1.00  0.00     0.368 C 
ATOM     76  O   UNL A   1      42.707  22.357  27.782  1.00  0.00    -0.245 OA
BRANCH  75  77
ATOM     77  C   UNL A   1      44.402  22.612  26.011  1.00  0.00     0.194 C 
ATOM     78  C   UNL A   1      44.992  23.719  26.894  1.00  0.00     0.081 C 
ATOM     79  N   UNL A   1      45.362  21.452  25.927  1.00  0.00    -0.332 N 
ATOM     80  C   UNL A   1      44.390  23.163  24.592  1.00  0.00     0.090 C 
ATOM     81  C   UNL A   1      46.034  24.619  26.226  1.00  0.00     0.008 C 
ATOM     82  C   UNL A   1      46.035  21.541  24.624  1.00  0.00     0.265 C 
ATOM     83  H   UNL A   1      44.853  20.572  25.999  1.00  0.00     0.347 HD
ATOM     84  H   UNL A   1      46.040  21.487  26.688  1.00  0.00     0.347 HD
ATOM     85  C   UNL A   1      45.882  23.006  24.252  1.00  0.00     0.051 C 
ATOM     86  C   UNL A   1      46.810  23.870  25.153  1.00  0.00     0.010 C 
ENDBRANCH  75  77
ENDBRANCH  74  75
ENDBRANCH  73  74
ENDBRANCH  72  73
ENDBRANCH   1  72
TORSDOF 14
ENDMDL
