MODEL 1
REMARK VINA RESULT:     -10.6      0.000      0.000
REMARK SMILES CCc1cccc(CC)c1N1/C(=[NH+]/C(=O)CCC(=O)OCCOC(=O)c2ccc(-c3c4nc(c(-c5c(F)cc(S(=O)(=O)[O-])cc5F)c5ccc([nH]5)c(-c5c(F)cc(S(=O)(=O)[O-])cc5F)c5nc(c(-c6c(F)cc(S(=O)(=O)[O-])cc6F)c6ccc3[nH]6)C=C5)C=C4)cc2)S[C@@H]2CS(=O)(=O)C[C@H]21
REMARK SMILES IDX 21 1 20 2 18 3 19 4 17 5 16 6 14 7 11 8 12 9 99 10 13 11
REMARK SMILES IDX 92 12 93 13 98 14 94 16 95 17 15 18 96 19 97 20 10 21 3 22
REMARK SMILES IDX 4 23 5 24 7 25 6 26 2 27 1 28 8 29 9 30 22 31 23 32 24 33
REMARK SMILES IDX 25 34 26 35 27 36 91 37 28 38 90 39 29 40 30 41 31 42 84 43
REMARK SMILES IDX 32 44 89 45 83 46 85 47 33 48 88 49 82 50 81 51 34 53 68 54
REMARK SMILES IDX 47 55 67 56 48 57 51 58 66 59 86 60 49 61 50 62 65 64 87 65
REMARK SMILES IDX 52 66 35 67 36 68 45 69 37 70 38 71 44 72 46 73 39 74 40 75
REMARK SMILES IDX 41 76 42 77 43 78 69 79 70 80 79 81 71 82 72 83 78 84 80 85
REMARK SMILES IDX 73 86 74 87 75 88 76 89 77 90 53 91 54 92 63 93 55 94 56 95
REMARK SMILES IDX 62 96 64 97 57 98 58 99 59 100 60 101 61 102
REMARK H PARENT 13 15 85 52 51 63
REMARK Flexibility Score: inf
ROOT
ATOM      1  C   UNL A   1      33.576  26.993  25.475  1.00  0.00     0.274 C 
ENDROOT
BRANCH   1   2
ATOM      2  O   UNL A   1      32.360  26.551  24.867  1.00  0.00    -0.462 OA
BRANCH   2   3
ATOM      3  C   UNL A   1      32.131  27.015  23.620  1.00  0.00     0.306 C 
ATOM      4  O   UNL A   1      31.269  27.833  23.323  1.00  0.00    -0.252 OA
BRANCH   3   5
ATOM      5  C   UNL A   1      33.090  26.415  22.626  1.00  0.00     0.135 C 
BRANCH   5   6
ATOM      6  C   UNL A   1      32.441  25.471  21.623  1.00  0.00     0.139 C 
BRANCH   6   7
ATOM      7  C   UNL A   1      32.850  24.008  21.728  1.00  0.00     0.308 C 
ATOM      8  N   UNL A   1      32.830  21.467  24.391  1.00  0.00    -0.216 N 
ATOM      9  C   UNL A   1      32.720  22.194  23.191  1.00  0.00     0.319 C 
ATOM     10  C   UNL A   1      32.417  20.067  24.287  1.00  0.00     0.212 C 
ATOM     11  N   UNL A   1      32.895  23.463  22.998  1.00  0.00    -0.204 N 
ATOM     12  S   UNL A   1      32.211  21.032  21.901  1.00  0.00    -0.029 SA
ATOM     13  C   UNL A   1      32.822  19.651  22.873  1.00  0.00     0.120 C 
ATOM     14  C   UNL A   1      33.028  19.000  25.168  1.00  0.00     0.188 C 
ATOM     15  H   UNL A   1      33.064  24.051  23.769  1.00  0.00     0.316 HD
ATOM     16  C   UNL A   1      32.261  18.268  22.675  1.00  0.00     0.156 C 
ATOM     17  S   UNL A   1      32.613  17.500  24.265  1.00  0.00     0.155 S 
ATOM     18  O   UNL A   1      33.255  23.446  20.709  1.00  0.00    -0.247 OA
ATOM     19  O   UNL A   1      33.808  16.695  24.139  1.00  0.00    -0.229 OA
ATOM     20  O   UNL A   1      31.376  16.970  24.798  1.00  0.00    -0.229 OA
BRANCH   8  21
ATOM     21  C   UNL A   1      33.093  21.981  25.672  1.00  0.00     0.134 A 
ATOM     22  C   UNL A   1      32.061  22.423  26.542  1.00  0.00    -0.001 A 
ATOM     23  C   UNL A   1      32.411  22.849  27.852  1.00  0.00     0.008 A 
ATOM     24  C   UNL A   1      33.719  22.846  28.310  1.00  0.00     0.001 A 
ATOM     25  C   UNL A   1      34.442  21.965  26.162  1.00  0.00    -0.001 A 
ATOM     26  C   UNL A   1      34.724  22.394  27.475  1.00  0.00     0.008 A 
BRANCH  22  27
ATOM     27  C   UNL A   1      30.566  22.561  26.277  1.00  0.00     0.036 C 
ATOM     28  C   UNL A   1      29.546  22.845  27.361  1.00  0.00     0.009 C 
ENDBRANCH  22  27
BRANCH  25  29
ATOM     29  C   UNL A   1      35.608  21.388  25.370  1.00  0.00     0.036 C 
ATOM     30  C   UNL A   1      36.286  22.338  24.391  1.00  0.00     0.009 C 
ENDBRANCH  25  29
ENDBRANCH   8  21
ENDBRANCH   6   7
ENDBRANCH   5   6
ENDBRANCH   3   5
ENDBRANCH   2   3
ENDBRANCH   1   2
BRANCH   1  31
ATOM     31  C   UNL A   1      33.360  28.359  26.125  1.00  0.00     0.275 C 
BRANCH  31  32
ATOM     32  O   UNL A   1      34.180  28.427  27.298  1.00  0.00    -0.458 OA
BRANCH  32  33
ATOM     33  C   UNL A   1      34.489  29.693  27.657  1.00  0.00     0.338 C 
ATOM     34  O   UNL A   1      33.728  30.630  27.836  1.00  0.00    -0.246 OA
BRANCH  33  35
ATOM     35  C   UNL A   1      35.892  29.676  28.081  1.00  0.00     0.060 A 
ATOM     36  C   UNL A   1      36.879  29.986  27.136  1.00  0.00     0.016 A 
ATOM     37  C   UNL A   1      36.217  29.365  29.401  1.00  0.00     0.016 A 
ATOM     38  C   UNL A   1      38.218  29.912  27.493  1.00  0.00     0.010 A 
ATOM     39  C   UNL A   1      37.556  29.290  29.757  1.00  0.00     0.010 A 
ATOM     40  C   UNL A   1      38.552  29.512  28.791  1.00  0.00    -0.014 A 
BRANCH  40  41
ATOM     41  C   UNL A   1      39.930  29.102  29.112  1.00  0.00     0.031 A 
ATOM     42  C   UNL A   1      40.849  30.154  29.660  1.00  0.00     0.074 A 
ATOM     43  C   UNL A   1      40.341  27.850  28.859  1.00  0.00     0.049 A 
ATOM     44  N   UNL A   1      42.143  30.124  29.818  1.00  0.00    -0.248 NA
ATOM     45  C   UNL A   1      40.223  31.430  30.058  1.00  0.00     0.031 C 
ATOM     46  C   UNL A   1      39.493  26.765  28.362  1.00  0.00     0.029 A 
ATOM     47  N   UNL A   1      41.585  27.291  28.956  1.00  0.00    -0.354 N 
ATOM     48  C   UNL A   1      42.489  31.380  30.303  1.00  0.00     0.074 A 
ATOM     49  C   UNL A   1      41.276  32.159  30.391  1.00  0.00     0.031 C 
ATOM     50  C   UNL A   1      40.253  25.674  28.169  1.00  0.00     0.029 A 
ATOM     51  C   UNL A   1      41.640  26.002  28.485  1.00  0.00     0.049 A 
ATOM     52  H   UNL A   1      42.364  27.765  29.327  1.00  0.00     0.167 HD
ATOM     53  C   UNL A   1      43.717  31.831  30.646  1.00  0.00     0.037 A 
ATOM     54  C   UNL A   1      42.706  25.203  28.295  1.00  0.00     0.037 A 
ATOM     55  C   UNL A   1      44.900  31.018  30.555  1.00  0.00     0.049 A 
ATOM     56  C   UNL A   1      44.069  25.739  28.650  1.00  0.00     0.074 A 
ATOM     57  C   UNL A   1      46.202  31.345  30.884  1.00  0.00     0.029 A 
ATOM     58  N   UNL A   1      44.916  29.704  30.100  1.00  0.00    -0.354 N 
ATOM     59  N   UNL A   1      44.394  26.927  29.109  1.00  0.00    -0.248 NA
ATOM     60  C   UNL A   1      45.208  24.832  28.466  1.00  0.00     0.031 C 
ATOM     61  C   UNL A   1      47.011  30.243  30.590  1.00  0.00     0.029 A 
ATOM     62  C   UNL A   1      46.207  29.210  30.128  1.00  0.00     0.049 A 
ATOM     63  H   UNL A   1      44.125  29.200  29.802  1.00  0.00     0.167 HD
ATOM     64  C   UNL A   1      45.771  26.900  29.297  1.00  0.00     0.074 A 
ATOM     65  C   UNL A   1      46.213  25.574  28.911  1.00  0.00     0.031 C 
ATOM     66  C   UNL A   1      46.599  27.876  29.748  1.00  0.00     0.037 A 
BRANCH  53  67
ATOM     67  C   UNL A   1      43.840  33.251  31.124  1.00  0.00     0.058 A 
ATOM     68  C   UNL A   1      43.933  34.329  30.228  1.00  0.00     0.135 A 
ATOM     69  C   UNL A   1      43.838  33.545  32.497  1.00  0.00     0.135 A 
ATOM     70  F   UNL A   1      43.966  34.108  28.904  1.00  0.00    -0.206 F 
ATOM     71  C   UNL A   1      44.031  35.643  30.675  1.00  0.00     0.059 A 
ATOM     72  C   UNL A   1      43.908  34.854  32.968  1.00  0.00     0.059 A 
ATOM     73  F   UNL A   1      43.766  32.553  33.399  1.00  0.00    -0.206 F 
ATOM     74  C   UNL A   1      44.013  35.895  32.048  1.00  0.00     0.060 A 
BRANCH  74  75
ATOM     75  S   UNL A   1      44.110  37.608  32.611  1.00  0.00     0.124 S 
ATOM     76  O   UNL A   1      43.024  37.658  33.586  1.00  0.00    -0.237 OA
ATOM     77  O   UNL A   1      45.459  37.678  33.164  1.00  0.00    -0.237 OA
ATOM     78  O   UNL A   1      43.894  38.381  31.392  1.00  0.00    -0.744 OA
ENDBRANCH  74  75
ENDBRANCH  53  67
BRANCH  54  79
ATOM     79  C   UNL A   1      42.528  23.835  27.741  1.00  0.00     0.058 A 
ATOM     80  C   UNL A   1      42.477  22.716  28.584  1.00  0.00     0.135 A 
ATOM     81  C   UNL A   1      42.385  23.617  26.361  1.00  0.00     0.135 A 
ATOM     82  F   UNL A   1      42.609  22.870  29.911  1.00  0.00    -0.206 F 
ATOM     83  C   UNL A   1      42.314  21.429  28.082  1.00  0.00     0.059 A 
ATOM     84  C   UNL A   1      42.194  22.343  25.836  1.00  0.00     0.059 A 
ATOM     85  F   UNL A   1      42.406  24.656  25.510  1.00  0.00    -0.206 F 
ATOM     86  C   UNL A   1      42.172  21.253  26.704  1.00  0.00     0.060 A 
BRANCH  86  87
ATOM     87  S   UNL A   1      41.927  19.581  26.066  1.00  0.00     0.124 S 
ATOM     88  O   UNL A   1      40.494  19.576  25.798  1.00  0.00    -0.237 OA
ATOM     89  O   UNL A   1      42.796  19.568  24.894  1.00  0.00    -0.237 OA
ATOM     90  O   UNL A   1      42.365  18.733  27.171  1.00  0.00    -0.744 OA
ENDBRANCH  86  87
ENDBRANCH  54  79
BRANCH  66  91
ATOM     91  C   UNL A   1      48.052  27.525  29.890  1.00  0.00     0.058 A 
ATOM     92  C   UNL A   1      48.986  27.833  28.890  1.00  0.00     0.135 A 
ATOM     93  C   UNL A   1      48.519  26.927  31.072  1.00  0.00     0.135 A 
ATOM     94  F   UNL A   1      48.586  28.400  27.742  1.00  0.00    -0.206 F 
ATOM     95  C   UNL A   1      50.335  27.536  29.047  1.00  0.00     0.059 A 
ATOM     96  C   UNL A   1      49.867  26.650  31.262  1.00  0.00     0.059 A 
ATOM     97  F   UNL A   1      47.664  26.626  32.062  1.00  0.00    -0.206 F 
ATOM     98  C   UNL A   1      50.766  26.948  30.238  1.00  0.00     0.060 A 
BRANCH  98  99
ATOM     99  S   UNL A   1      52.524  26.603  30.443  1.00  0.00     0.124 S 
ATOM    100  O   UNL A   1      52.913  26.244  29.084  1.00  0.00    -0.237 OA
ATOM    101  O   UNL A   1      53.037  27.878  30.934  1.00  0.00    -0.237 OA
ATOM    102  O   UNL A   1      52.546  25.510  31.412  1.00  0.00    -0.744 OA
ENDBRANCH  98  99
ENDBRANCH  66  91
ENDBRANCH  40  41
ENDBRANCH  33  35
ENDBRANCH  32  33
ENDBRANCH  31  32
ENDBRANCH   1  31
TORSDOF 19
ENDMDL
MODEL 2
REMARK VINA RESULT:     -10.3      4.428      9.969
REMARK SMILES CCc1cccc(CC)c1N1/C(=[NH+]/C(=O)CCC(=O)OCCOC(=O)c2ccc(-c3c4nc(c(-c5c(F)cc(S(=O)(=O)[O-])cc5F)c5ccc([nH]5)c(-c5c(F)cc(S(=O)(=O)[O-])cc5F)c5nc(c(-c6c(F)cc(S(=O)(=O)[O-])cc6F)c6ccc3[nH]6)C=C5)C=C4)cc2)S[C@@H]2CS(=O)(=O)C[C@H]21
REMARK SMILES IDX 21 1 20 2 18 3 19 4 17 5 16 6 14 7 11 8 12 9 99 10 13 11
REMARK SMILES IDX 92 12 93 13 98 14 94 16 95 17 15 18 96 19 97 20 10 21 3 22
REMARK SMILES IDX 4 23 5 24 7 25 6 26 2 27 1 28 8 29 9 30 22 31 23 32 24 33
REMARK SMILES IDX 25 34 26 35 27 36 91 37 28 38 90 39 29 40 30 41 31 42 84 43
REMARK SMILES IDX 32 44 89 45 83 46 85 47 33 48 88 49 82 50 81 51 34 53 68 54
REMARK SMILES IDX 47 55 67 56 48 57 51 58 66 59 86 60 49 61 50 62 65 64 87 65
REMARK SMILES IDX 52 66 35 67 36 68 45 69 37 70 38 71 44 72 46 73 39 74 40 75
REMARK SMILES IDX 41 76 42 77 43 78 69 79 70 80 79 81 71 82 72 83 78 84 80 85
REMARK SMILES IDX 73 86 74 87 75 88 76 89 77 90 53 91 54 92 63 93 55 94 56 95
REMARK SMILES IDX 62 96 64 97 57 98 58 99 59 100 60 101 61 102
REMARK H PARENT 13 15 85 52 51 63
REMARK Flexibility Score: inf
ROOT
ATOM      1  C   UNL A   1      42.829  20.554  26.510  1.00  0.00     0.274 C 
ENDROOT
BRANCH   1   2
ATOM      2  O   UNL A   1      41.618  20.597  25.751  1.00  0.00    -0.462 OA
BRANCH   2   3
ATOM      3  C   UNL A   1      40.520  20.991  26.430  1.00  0.00     0.306 C 
ATOM      4  O   UNL A   1      40.354  20.854  27.635  1.00  0.00    -0.252 OA
BRANCH   3   5
ATOM      5  C   UNL A   1      39.516  21.648  25.519  1.00  0.00     0.135 C 
BRANCH   5   6
ATOM      6  C   UNL A   1      38.143  20.990  25.523  1.00  0.00     0.139 C 
BRANCH   6   7
ATOM      7  C   UNL A   1      36.954  21.938  25.602  1.00  0.00     0.308 C 
ATOM      8  N   UNL A   1      33.315  21.622  25.149  1.00  0.00    -0.216 N 
ATOM      9  C   UNL A   1      34.620  21.918  25.583  1.00  0.00     0.319 C 
ATOM     10  C   UNL A   1      32.258  22.196  25.981  1.00  0.00     0.212 C 
ATOM     11  N   UNL A   1      35.745  21.463  25.130  1.00  0.00    -0.204 N 
ATOM     12  S   UNL A   1      34.477  23.052  26.987  1.00  0.00    -0.029 SA
ATOM     13  C   UNL A   1      32.829  23.532  26.459  1.00  0.00     0.120 C 
ATOM     14  C   UNL A   1      30.912  22.566  25.398  1.00  0.00     0.188 C 
ATOM     15  H   UNL A   1      35.739  20.765  24.436  1.00  0.00     0.316 HD
ATOM     16  C   UNL A   1      31.834  24.072  27.452  1.00  0.00     0.156 C 
ATOM     17  S   UNL A   1      30.270  23.691  26.646  1.00  0.00     0.155 S 
ATOM     18  O   UNL A   1      37.166  23.104  25.937  1.00  0.00    -0.247 OA
ATOM     19  O   UNL A   1      29.785  24.883  25.984  1.00  0.00    -0.229 OA
ATOM     20  O   UNL A   1      29.454  22.935  27.572  1.00  0.00    -0.229 OA
BRANCH   8  21
ATOM     21  C   UNL A   1      32.942  20.699  24.158  1.00  0.00     0.134 A 
ATOM     22  C   UNL A   1      32.766  19.316  24.430  1.00  0.00    -0.001 A 
ATOM     23  C   UNL A   1      32.305  18.470  23.386  1.00  0.00     0.008 A 
ATOM     24  C   UNL A   1      32.019  18.944  22.116  1.00  0.00     0.001 A 
ATOM     25  C   UNL A   1      32.626  21.184  22.844  1.00  0.00    -0.001 A 
ATOM     26  C   UNL A   1      32.166  20.293  21.851  1.00  0.00     0.008 A 
BRANCH  22  27
ATOM     27  C   UNL A   1      33.043  18.541  25.714  1.00  0.00     0.036 C 
ATOM     28  C   UNL A   1      33.177  17.033  25.769  1.00  0.00     0.009 C 
ENDBRANCH  22  27
BRANCH  25  29
ATOM     29  C   UNL A   1      32.646  22.661  22.474  1.00  0.00     0.036 C 
ATOM     30  C   UNL A   1      34.021  23.316  22.413  1.00  0.00     0.009 C 
ENDBRANCH  25  29
ENDBRANCH   8  21
ENDBRANCH   6   7
ENDBRANCH   5   6
ENDBRANCH   3   5
ENDBRANCH   2   3
ENDBRANCH   1   2
BRANCH   1  31
ATOM     31  C   UNL A   1      43.714  21.742  26.138  1.00  0.00     0.275 C 
BRANCH  31  32
ATOM     32  O   UNL A   1      43.233  22.892  26.842  1.00  0.00    -0.458 OA
BRANCH  32  33
ATOM     33  C   UNL A   1      42.880  23.908  26.022  1.00  0.00     0.338 C 
ATOM     34  O   UNL A   1      42.735  23.880  24.811  1.00  0.00    -0.246 OA
BRANCH  33  35
ATOM     35  C   UNL A   1      42.415  24.998  26.884  1.00  0.00     0.060 A 
ATOM     36  C   UNL A   1      42.934  26.283  26.675  1.00  0.00     0.016 A 
ATOM     37  C   UNL A   1      41.471  24.746  27.879  1.00  0.00     0.016 A 
ATOM     38  C   UNL A   1      42.562  27.319  27.519  1.00  0.00     0.010 A 
ATOM     39  C   UNL A   1      41.099  25.782  28.723  1.00  0.00     0.010 A 
ATOM     40  C   UNL A   1      41.684  27.051  28.575  1.00  0.00    -0.014 A 
BRANCH  40  41
ATOM     41  C   UNL A   1      41.525  28.018  29.674  1.00  0.00     0.031 A 
ATOM     42  C   UNL A   1      42.409  27.845  30.875  1.00  0.00     0.074 A 
ATOM     43  C   UNL A   1      40.581  28.970  29.608  1.00  0.00     0.049 A 
ATOM     44  N   UNL A   1      42.332  28.406  32.049  1.00  0.00    -0.248 NA
ATOM     45  C   UNL A   1      43.518  26.881  30.739  1.00  0.00     0.031 C 
ATOM     46  C   UNL A   1      39.713  29.222  28.458  1.00  0.00     0.029 A 
ATOM     47  N   UNL A   1      40.177  29.881  30.545  1.00  0.00    -0.354 N 
ATOM     48  C   UNL A   1      43.358  27.844  32.799  1.00  0.00     0.074 A 
ATOM     49  C   UNL A   1      44.030  26.880  31.960  1.00  0.00     0.031 C 
ATOM     50  C   UNL A   1      38.853  30.207  28.770  1.00  0.00     0.029 A 
ATOM     51  C   UNL A   1      39.085  30.616  30.152  1.00  0.00     0.049 A 
ATOM     52  H   UNL A   1      40.624  29.998  31.414  1.00  0.00     0.167 HD
ATOM     53  C   UNL A   1      43.702  28.120  34.078  1.00  0.00     0.037 A 
ATOM     54  C   UNL A   1      38.340  31.488  30.856  1.00  0.00     0.037 A 
ATOM     55  C   UNL A   1      43.015  29.097  34.878  1.00  0.00     0.049 A 
ATOM     56  C   UNL A   1      38.720  31.753  32.290  1.00  0.00     0.074 A 
ATOM     57  C   UNL A   1      43.270  29.485  36.179  1.00  0.00     0.029 A 
ATOM     58  N   UNL A   1      41.929  29.846  34.439  1.00  0.00    -0.354 N 
ATOM     59  N   UNL A   1      39.691  31.220  32.998  1.00  0.00    -0.248 NA
ATOM     60  C   UNL A   1      37.911  32.734  33.021  1.00  0.00     0.031 C 
ATOM     61  C   UNL A   1      42.314  30.439  36.541  1.00  0.00     0.029 A 
ATOM     62  C   UNL A   1      41.495  30.686  35.448  1.00  0.00     0.049 A 
ATOM     63  H   UNL A   1      41.528  29.787  33.541  1.00  0.00     0.167 HD
ATOM     64  C   UNL A   1      39.628  31.824  34.248  1.00  0.00     0.074 A 
ATOM     65  C   UNL A   1      38.529  32.769  34.194  1.00  0.00     0.031 C 
ATOM     66  C   UNL A   1      40.404  31.622  35.343  1.00  0.00     0.037 A 
BRANCH  53  67
ATOM     67  C   UNL A   1      44.844  27.351  34.684  1.00  0.00     0.058 A 
ATOM     68  C   UNL A   1      46.165  27.827  34.637  1.00  0.00     0.135 A 
ATOM     69  C   UNL A   1      44.614  26.134  35.346  1.00  0.00     0.135 A 
ATOM     70  F   UNL A   1      46.450  28.971  33.995  1.00  0.00    -0.206 F 
ATOM     71  C   UNL A   1      47.216  27.119  35.213  1.00  0.00     0.059 A 
ATOM     72  C   UNL A   1      45.645  25.423  35.953  1.00  0.00     0.059 A 
ATOM     73  F   UNL A   1      43.373  25.624  35.409  1.00  0.00    -0.206 F 
ATOM     74  C   UNL A   1      46.945  25.919  35.873  1.00  0.00     0.060 A 
BRANCH  74  75
ATOM     75  S   UNL A   1      48.315  25.030  36.641  1.00  0.00     0.124 S 
ATOM     76  O   UNL A   1      49.263  24.940  35.534  1.00  0.00    -0.237 OA
ATOM     77  O   UNL A   1      48.696  25.924  37.729  1.00  0.00    -0.237 OA
ATOM     78  O   UNL A   1      47.713  23.765  37.054  1.00  0.00    -0.744 OA
ENDBRANCH  74  75
ENDBRANCH  53  67
BRANCH  54  79
ATOM     79  C   UNL A   1      37.172  32.155  30.224  1.00  0.00     0.058 A 
ATOM     80  C   UNL A   1      35.890  31.592  30.302  1.00  0.00     0.135 A 
ATOM     81  C   UNL A   1      37.305  33.378  29.546  1.00  0.00     0.135 A 
ATOM     82  F   UNL A   1      35.709  30.424  30.937  1.00  0.00    -0.206 F 
ATOM     83  C   UNL A   1      34.787  32.201  29.712  1.00  0.00     0.059 A 
ATOM     84  C   UNL A   1      36.214  34.021  28.972  1.00  0.00     0.059 A 
ATOM     85  F   UNL A   1      38.507  33.971  29.459  1.00  0.00    -0.206 F 
ATOM     86  C   UNL A   1      34.959  33.418  29.050  1.00  0.00     0.060 A 
BRANCH  86  87
ATOM     87  S   UNL A   1      33.514  34.217  28.318  1.00  0.00     0.124 S 
ATOM     88  O   UNL A   1      34.131  35.290  27.547  1.00  0.00    -0.237 OA
ATOM     89  O   UNL A   1      32.923  33.131  27.543  1.00  0.00    -0.237 OA
ATOM     90  O   UNL A   1      32.740  34.640  29.481  1.00  0.00    -0.744 OA
ENDBRANCH  86  87
ENDBRANCH  54  79
BRANCH  66  91
ATOM     91  C   UNL A   1      40.118  32.473  36.547  1.00  0.00     0.058 A 
ATOM     92  C   UNL A   1      39.030  32.212  37.393  1.00  0.00     0.135 A 
ATOM     93  C   UNL A   1      40.983  33.526  36.886  1.00  0.00     0.135 A 
ATOM     94  F   UNL A   1      38.173  31.220  37.106  1.00  0.00    -0.206 F 
ATOM     95  C   UNL A   1      38.794  32.983  38.524  1.00  0.00     0.059 A 
ATOM     96  C   UNL A   1      40.784  34.290  38.030  1.00  0.00     0.059 A 
ATOM     97  F   UNL A   1      42.045  33.805  36.114  1.00  0.00    -0.206 F 
ATOM     98  C   UNL A   1      39.679  34.018  38.837  1.00  0.00     0.060 A 
BRANCH  98  99
ATOM     99  S   UNL A   1      39.383  34.987  40.328  1.00  0.00     0.124 S 
ATOM    100  O   UNL A   1      40.664  34.867  41.015  1.00  0.00    -0.237 OA
ATOM    101  O   UNL A   1      39.074  36.307  39.787  1.00  0.00    -0.237 OA
ATOM    102  O   UNL A   1      38.263  34.299  40.964  1.00  0.00    -0.744 OA
ENDBRANCH  98  99
ENDBRANCH  66  91
ENDBRANCH  40  41
ENDBRANCH  33  35
ENDBRANCH  32  33
ENDBRANCH  31  32
ENDBRANCH   1  31
TORSDOF 19
ENDMDL
MODEL 3
REMARK VINA RESULT:      -9.9      6.276     14.790
REMARK SMILES CCc1cccc(CC)c1N1/C(=[NH+]/C(=O)CCC(=O)OCCOC(=O)c2ccc(-c3c4nc(c(-c5c(F)cc(S(=O)(=O)[O-])cc5F)c5ccc([nH]5)c(-c5c(F)cc(S(=O)(=O)[O-])cc5F)c5nc(c(-c6c(F)cc(S(=O)(=O)[O-])cc6F)c6ccc3[nH]6)C=C5)C=C4)cc2)S[C@@H]2CS(=O)(=O)C[C@H]21
REMARK SMILES IDX 21 1 20 2 18 3 19 4 17 5 16 6 14 7 11 8 12 9 99 10 13 11
REMARK SMILES IDX 92 12 93 13 98 14 94 16 95 17 15 18 96 19 97 20 10 21 3 22
REMARK SMILES IDX 4 23 5 24 7 25 6 26 2 27 1 28 8 29 9 30 22 31 23 32 24 33
REMARK SMILES IDX 25 34 26 35 27 36 91 37 28 38 90 39 29 40 30 41 31 42 84 43
REMARK SMILES IDX 32 44 89 45 83 46 85 47 33 48 88 49 82 50 81 51 34 53 68 54
REMARK SMILES IDX 47 55 67 56 48 57 51 58 66 59 86 60 49 61 50 62 65 64 87 65
REMARK SMILES IDX 52 66 35 67 36 68 45 69 37 70 38 71 44 72 46 73 39 74 40 75
REMARK SMILES IDX 41 76 42 77 43 78 69 79 70 80 79 81 71 82 72 83 78 84 80 85
REMARK SMILES IDX 73 86 74 87 75 88 76 89 77 90 53 91 54 92 63 93 55 94 56 95
REMARK SMILES IDX 62 96 64 97 57 98 58 99 59 100 60 101 61 102
REMARK H PARENT 13 15 85 52 51 63
REMARK Flexibility Score: inf
ROOT
ATOM      1  C   UNL A   1      47.475  23.763  35.737  1.00  0.00     0.274 C 
ENDROOT
BRANCH   1   2
ATOM      2  O   UNL A   1      46.809  23.235  34.586  1.00  0.00    -0.462 OA
BRANCH   2   3
ATOM      3  C   UNL A   1      45.462  23.308  34.611  1.00  0.00     0.306 C 
ATOM      4  O   UNL A   1      44.737  22.657  35.353  1.00  0.00    -0.252 OA
BRANCH   3   5
ATOM      5  C   UNL A   1      44.947  24.315  33.616  1.00  0.00     0.135 C 
BRANCH   5   6
ATOM      6  C   UNL A   1      44.313  23.701  32.375  1.00  0.00     0.139 C 
BRANCH   6   7
ATOM      7  C   UNL A   1      44.535  24.459  31.073  1.00  0.00     0.308 C 
ATOM      8  N   UNL A   1      47.149  26.686  29.749  1.00  0.00    -0.216 N 
ATOM      9  C   UNL A   1      46.166  25.701  29.958  1.00  0.00     0.319 C 
ATOM     10  C   UNL A   1      47.737  26.677  28.409  1.00  0.00     0.212 C 
ATOM     11  N   UNL A   1      45.559  25.387  31.058  1.00  0.00    -0.204 N 
ATOM     12  S   UNL A   1      45.908  24.854  28.380  1.00  0.00    -0.029 SA
ATOM     13  C   UNL A   1      46.589  26.257  27.490  1.00  0.00     0.120 C 
ATOM     14  C   UNL A   1      48.266  27.943  27.774  1.00  0.00     0.188 C 
ATOM     15  H   UNL A   1      45.832  25.818  31.900  1.00  0.00     0.316 HD
ATOM     16  C   UNL A   1      47.201  26.075  26.126  1.00  0.00     0.156 C 
ATOM     17  S   UNL A   1      48.316  27.486  26.035  1.00  0.00     0.155 S 
ATOM     18  O   UNL A   1      43.709  24.312  30.171  1.00  0.00    -0.247 OA
ATOM     19  O   UNL A   1      47.680  28.533  25.266  1.00  0.00    -0.229 OA
ATOM     20  O   UNL A   1      49.643  26.997  25.726  1.00  0.00    -0.229 OA
BRANCH   8  21
ATOM     21  C   UNL A   1      47.743  27.509  30.720  1.00  0.00     0.134 A 
ATOM     22  C   UNL A   1      49.043  27.263  31.238  1.00  0.00    -0.001 A 
ATOM     23  C   UNL A   1      49.599  28.195  32.155  1.00  0.00     0.008 A 
ATOM     24  C   UNL A   1      48.921  29.334  32.560  1.00  0.00     0.001 A 
ATOM     25  C   UNL A   1      47.057  28.700  31.133  1.00  0.00    -0.001 A 
ATOM     26  C   UNL A   1      47.665  29.590  32.042  1.00  0.00     0.008 A 
BRANCH  22  27
ATOM     27  C   UNL A   1      49.974  26.081  30.988  1.00  0.00     0.036 C 
ATOM     28  C   UNL A   1      50.440  25.138  32.079  1.00  0.00     0.009 C 
ENDBRANCH  22  27
BRANCH  25  29
ATOM     29  C   UNL A   1      45.721  29.137  30.545  1.00  0.00     0.036 C 
ATOM     30  C   UNL A   1      45.152  30.446  31.079  1.00  0.00     0.009 C 
ENDBRANCH  25  29
ENDBRANCH   8  21
ENDBRANCH   6   7
ENDBRANCH   5   6
ENDBRANCH   3   5
ENDBRANCH   2   3
ENDBRANCH   1   2
BRANCH   1  31
ATOM     31  C   UNL A   1      48.598  24.701  35.298  1.00  0.00     0.275 C 
BRANCH  31  32
ATOM     32  O   UNL A   1      48.029  25.995  35.064  1.00  0.00    -0.458 OA
BRANCH  32  33
ATOM     33  C   UNL A   1      47.811  26.693  36.202  1.00  0.00     0.338 C 
ATOM     34  O   UNL A   1      48.578  26.864  37.136  1.00  0.00    -0.246 OA
BRANCH  33  35
ATOM     35  C   UNL A   1      46.581  27.461  35.992  1.00  0.00     0.060 A 
ATOM     36  C   UNL A   1      45.373  26.928  36.462  1.00  0.00     0.016 A 
ATOM     37  C   UNL A   1      46.632  28.695  35.345  1.00  0.00     0.016 A 
ATOM     38  C   UNL A   1      44.185  27.603  36.217  1.00  0.00     0.010 A 
ATOM     39  C   UNL A   1      45.444  29.369  35.100  1.00  0.00     0.010 A 
ATOM     40  C   UNL A   1      44.221  28.797  35.489  1.00  0.00    -0.014 A 
BRANCH  40  41
ATOM     41  C   UNL A   1      42.983  29.362  34.927  1.00  0.00     0.031 A 
ATOM     42  C   UNL A   1      42.528  28.834  33.598  1.00  0.00     0.074 A 
ATOM     43  C   UNL A   1      42.338  30.351  35.567  1.00  0.00     0.049 A 
ATOM     44  N   UNL A   1      41.616  29.298  32.790  1.00  0.00    -0.248 NA
ATOM     45  C   UNL A   1      43.222  27.631  33.098  1.00  0.00     0.031 C 
ATOM     46  C   UNL A   1      42.700  30.887  36.878  1.00  0.00     0.029 A 
ATOM     47  N   UNL A   1      41.261  31.099  35.179  1.00  0.00    -0.354 N 
ATOM     48  C   UNL A   1      41.646  28.465  31.677  1.00  0.00     0.074 A 
ATOM     49  C   UNL A   1      42.681  27.483  31.899  1.00  0.00     0.031 C 
ATOM     50  C   UNL A   1      41.873  31.904  37.175  1.00  0.00     0.029 A 
ATOM     51  C   UNL A   1      40.961  32.113  36.056  1.00  0.00     0.049 A 
ATOM     52  H   UNL A   1      40.752  30.928  34.354  1.00  0.00     0.167 HD
ATOM     53  C   UNL A   1      40.868  28.524  30.572  1.00  0.00     0.037 A 
ATOM     54  C   UNL A   1      40.073  33.118  35.933  1.00  0.00     0.037 A 
ATOM     55  C   UNL A   1      39.839  29.512  30.394  1.00  0.00     0.049 A 
ATOM     56  C   UNL A   1      39.242  33.184  34.678  1.00  0.00     0.074 A 
ATOM     57  C   UNL A   1      38.970  29.674  29.332  1.00  0.00     0.029 A 
ATOM     58  N   UNL A   1      39.541  30.509  31.316  1.00  0.00    -0.354 N 
ATOM     59  N   UNL A   1      39.272  32.395  33.627  1.00  0.00    -0.248 NA
ATOM     60  C   UNL A   1      38.259  34.269  34.589  1.00  0.00     0.031 C 
ATOM     61  C   UNL A   1      38.173  30.794  29.593  1.00  0.00     0.029 A 
ATOM     62  C   UNL A   1      38.509  31.298  30.842  1.00  0.00     0.049 A 
ATOM     63  H   UNL A   1      39.997  30.635  32.179  1.00  0.00     0.167 HD
ATOM     64  C   UNL A   1      38.291  32.871  32.764  1.00  0.00     0.074 A 
ATOM     65  C   UNL A   1      37.681  34.010  33.424  1.00  0.00     0.031 C 
ATOM     66  C   UNL A   1      37.923  32.414  31.541  1.00  0.00     0.037 A 
BRANCH  53  67
ATOM     67  C   UNL A   1      41.113  27.518  29.482  1.00  0.00     0.058 A 
ATOM     68  C   UNL A   1      42.242  27.587  28.649  1.00  0.00     0.135 A 
ATOM     69  C   UNL A   1      40.222  26.451  29.282  1.00  0.00     0.135 A 
ATOM     70  F   UNL A   1      43.115  28.599  28.776  1.00  0.00    -0.206 F 
ATOM     71  C   UNL A   1      42.472  26.644  27.651  1.00  0.00     0.059 A 
ATOM     72  C   UNL A   1      40.445  25.481  28.308  1.00  0.00     0.059 A 
ATOM     73  F   UNL A   1      39.118  26.342  30.039  1.00  0.00    -0.206 F 
ATOM     74  C   UNL A   1      41.569  25.592  27.492  1.00  0.00     0.060 A 
BRANCH  74  75
ATOM     75  S   UNL A   1      41.898  24.360  26.213  1.00  0.00     0.124 S 
ATOM     76  O   UNL A   1      40.613  23.671  26.132  1.00  0.00    -0.237 OA
ATOM     77  O   UNL A   1      42.244  25.190  25.064  1.00  0.00    -0.237 OA
ATOM     78  O   UNL A   1      42.996  23.575  26.770  1.00  0.00    -0.744 OA
ENDBRANCH  74  75
ENDBRANCH  53  67
BRANCH  54  79
ATOM     79  C   UNL A   1      39.936  34.130  37.012  1.00  0.00     0.058 A 
ATOM     80  C   UNL A   1      40.690  35.312  36.993  1.00  0.00     0.135 A 
ATOM     81  C   UNL A   1      39.036  33.950  38.076  1.00  0.00     0.135 A 
ATOM     82  F   UNL A   1      41.564  35.533  35.999  1.00  0.00    -0.206 F 
ATOM     83  C   UNL A   1      40.576  36.269  37.997  1.00  0.00     0.059 A 
ATOM     84  C   UNL A   1      38.884  34.903  39.077  1.00  0.00     0.059 A 
ATOM     85  F   UNL A   1      38.275  32.845  38.133  1.00  0.00    -0.206 F 
ATOM     86  C   UNL A   1      39.668  36.055  39.036  1.00  0.00     0.060 A 
BRANCH  86  87
ATOM     87  S   UNL A   1      39.505  37.319  40.316  1.00  0.00     0.124 S 
ATOM     88  O   UNL A   1      38.928  36.552  41.414  1.00  0.00    -0.237 OA
ATOM     89  O   UNL A   1      40.886  37.754  40.496  1.00  0.00    -0.237 OA
ATOM     90  O   UNL A   1      38.620  38.305  39.702  1.00  0.00    -0.744 OA
ENDBRANCH  86  87
ENDBRANCH  54  79
BRANCH  66  91
ATOM     91  C   UNL A   1      36.780  33.117  30.866  1.00  0.00     0.058 A 
ATOM     92  C   UNL A   1      36.982  33.962  29.766  1.00  0.00     0.135 A 
ATOM     93  C   UNL A   1      35.462  32.890  31.295  1.00  0.00     0.135 A 
ATOM     94  F   UNL A   1      38.224  34.214  29.324  1.00  0.00    -0.206 F 
ATOM     95  C   UNL A   1      35.914  34.581  29.126  1.00  0.00     0.059 A 
ATOM     96  C   UNL A   1      34.378  33.473  30.650  1.00  0.00     0.059 A 
ATOM     97  F   UNL A   1      35.219  32.078  32.336  1.00  0.00    -0.206 F 
ATOM     98  C   UNL A   1      34.616  34.327  29.573  1.00  0.00     0.060 A 
BRANCH  98  99
ATOM     99  S   UNL A   1      33.237  35.106  28.710  1.00  0.00     0.124 S 
ATOM    100  O   UNL A   1      32.386  35.511  29.823  1.00  0.00    -0.237 OA
ATOM    101  O   UNL A   1      33.895  36.190  27.987  1.00  0.00    -0.237 OA
ATOM    102  O   UNL A   1      32.710  34.032  27.873  1.00  0.00    -0.744 OA
ENDBRANCH  98  99
ENDBRANCH  66  91
ENDBRANCH  40  41
ENDBRANCH  33  35
ENDBRANCH  32  33
ENDBRANCH  31  32
ENDBRANCH   1  31
TORSDOF 19
ENDMDL
