MODEL 1
REMARK VINA RESULT:     -10.8      0.000      0.000
REMARK SMILES O=C(C[C@H](c1ccsc1)n1cccc1)OCCOC(=O)c1ccc(-c2c3nc(c(-c4c(F)cc(S(=O)(=O)[O-])cc4F)c4ccc([nH]4)c(-c4c(F)cc(S(=O)(=O)[O-])cc4F)c4nc(c(-c5c(F)cc(S(=O)(=O)[O-])cc5F)c5ccc2[nH]5)C=C4)C=C3)cc1
REMARK SMILES IDX 17 1 16 2 15 3 2 4 1 5 3 6 4 7 10 8 11 9 14 10 12 11 13 12
REMARK SMILES IDX 5 13 6 14 9 15 7 16 8 17 18 18 19 19 20 20 21 21 22 22 86 23
REMARK SMILES IDX 23 24 85 25 24 26 25 27 26 28 79 29 27 30 84 31 78 32 80 33
REMARK SMILES IDX 28 34 83 35 77 36 76 37 29 39 63 40 42 41 62 42 43 43 46 44
REMARK SMILES IDX 61 45 81 46 44 47 45 48 60 50 82 51 47 52 30 53 31 54 40 55
REMARK SMILES IDX 32 56 33 57 39 58 41 59 34 60 35 61 36 62 37 63 38 64 64 65
REMARK SMILES IDX 65 66 74 67 66 68 67 69 73 70 75 71 68 72 69 73 70 74 71 75
REMARK SMILES IDX 72 76 48 77 49 78 58 79 50 80 51 81 57 82 59 83 52 84 53 85
REMARK SMILES IDX 54 86 55 87 56 88
REMARK H PARENT 80 38 46 49
REMARK Flexibility Score: inf
ROOT
ATOM      1  C   UNL A   1      35.299  32.261  27.989  1.00  0.00     0.275 C 
ENDROOT
BRANCH   1   2
ATOM      2  C   UNL A   1      33.809  32.106  27.699  1.00  0.00     0.274 C 
BRANCH   2   3
ATOM      3  O   UNL A   1      33.403  30.832  27.168  1.00  0.00    -0.462 OA
BRANCH   3   4
ATOM      4  C   UNL A   1      32.192  30.522  26.655  1.00  0.00     0.308 C 
ATOM      5  O   UNL A   1      31.371  31.419  26.453  1.00  0.00    -0.252 OA
BRANCH   4   6
ATOM      6  C   UNL A   1      31.798  29.087  26.373  1.00  0.00     0.153 C 
BRANCH   6   7
ATOM      7  C   UNL A   1      32.074  28.482  24.982  1.00  0.00     0.128 C 
BRANCH   7   8
ATOM      8  N   UNL A   1      32.925  27.281  25.002  1.00  0.00    -0.346 N 
ATOM      9  C   UNL A   1      33.632  26.691  23.989  1.00  0.00     0.086 A 
ATOM     10  C   UNL A   1      33.135  26.542  26.152  1.00  0.00     0.086 A 
ATOM     11  C   UNL A   1      34.104  25.477  24.441  1.00  0.00     0.019 A 
ATOM     12  C   UNL A   1      33.776  25.376  25.808  1.00  0.00     0.019 A 
ENDBRANCH   7   8
BRANCH   7  13
ATOM     13  C   UNL A   1      30.780  28.443  24.149  1.00  0.00    -0.014 A 
ATOM     14  C   UNL A   1      29.911  27.327  23.864  1.00  0.00     0.017 A 
ATOM     15  C   UNL A   1      30.203  29.600  23.639  1.00  0.00     0.070 A 
ATOM     16  C   UNL A   1      28.734  27.685  23.244  1.00  0.00     0.065 A 
ATOM     17  S   UNL A   1      28.675  29.352  22.913  1.00  0.00    -0.152 S 
ENDBRANCH   7  13
ENDBRANCH   6   7
ENDBRANCH   4   6
ENDBRANCH   3   4
ENDBRANCH   2   3
ENDBRANCH   1   2
BRANCH   1  18
ATOM     18  O   UNL A   1      35.980  31.020  27.883  1.00  0.00    -0.458 OA
BRANCH  18  19
ATOM     19  C   UNL A   1      36.611  30.686  29.016  1.00  0.00     0.338 C 
ATOM     20  O   UNL A   1      36.525  31.273  30.114  1.00  0.00    -0.246 OA
BRANCH  19  21
ATOM     21  C   UNL A   1      37.505  29.569  28.809  1.00  0.00     0.060 A 
ATOM     22  C   UNL A   1      37.516  28.601  29.818  1.00  0.00     0.016 A 
ATOM     23  C   UNL A   1      38.544  29.717  27.880  1.00  0.00     0.016 A 
ATOM     24  C   UNL A   1      38.694  27.949  30.067  1.00  0.00     0.010 A 
ATOM     25  C   UNL A   1      39.735  29.091  28.154  1.00  0.00     0.010 A 
ATOM     26  C   UNL A   1      39.810  28.276  29.288  1.00  0.00    -0.014 A 
BRANCH  26  27
ATOM     27  C   UNL A   1      41.078  27.657  29.659  1.00  0.00     0.031 A 
ATOM     28  C   UNL A   1      41.276  26.374  28.844  1.00  0.00     0.074 A 
ATOM     29  C   UNL A   1      41.747  28.292  30.676  1.00  0.00     0.049 A 
ATOM     30  N   UNL A   1      41.908  25.289  29.155  1.00  0.00    -0.248 NA
ATOM     31  C   UNL A   1      40.584  26.223  27.528  1.00  0.00     0.031 C 
ATOM     32  C   UNL A   1      41.329  29.569  31.318  1.00  0.00     0.029 A 
ATOM     33  N   UNL A   1      42.889  28.011  31.391  1.00  0.00    -0.354 N 
ATOM     34  C   UNL A   1      41.911  24.464  28.010  1.00  0.00     0.074 A 
ATOM     35  C   UNL A   1      40.959  25.017  27.102  1.00  0.00     0.031 C 
ATOM     36  C   UNL A   1      42.136  29.883  32.357  1.00  0.00     0.029 A 
ATOM     37  C   UNL A   1      43.174  28.880  32.485  1.00  0.00     0.049 A 
ATOM     38  H   UNL A   1      43.475  27.254  31.159  1.00  0.00     0.167 HD
ATOM     39  C   UNL A   1      42.821  23.465  27.826  1.00  0.00     0.037 A 
ATOM     40  C   UNL A   1      44.154  28.761  33.437  1.00  0.00     0.037 A 
ATOM     41  C   UNL A   1      43.684  23.399  28.959  1.00  0.00     0.049 A 
ATOM     42  C   UNL A   1      44.974  27.638  32.964  1.00  0.00     0.074 A 
ATOM     43  C   UNL A   1      43.458  22.981  30.244  1.00  0.00     0.029 A 
ATOM     44  N   UNL A   1      44.807  24.196  28.925  1.00  0.00    -0.354 N 
ATOM     45  N   UNL A   1      45.762  27.681  31.933  1.00  0.00    -0.248 NA
ATOM     46  C   UNL A   1      44.826  26.335  33.624  1.00  0.00     0.031 C 
ATOM     47  C   UNL A   1      44.158  23.930  31.014  1.00  0.00     0.029 A 
ATOM     48  C   UNL A   1      44.976  24.710  30.187  1.00  0.00     0.049 A 
ATOM     49  H   UNL A   1      45.380  24.365  28.143  1.00  0.00     0.167 HD
ATOM     50  C   UNL A   1      45.914  26.354  31.625  1.00  0.00     0.074 A 
ATOM     51  C   UNL A   1      45.613  25.612  32.832  1.00  0.00     0.031 C 
ATOM     52  C   UNL A   1      45.722  25.940  30.345  1.00  0.00     0.037 A 
BRANCH  39  53
ATOM     53  C   UNL A   1      43.204  22.654  26.624  1.00  0.00     0.058 A 
ATOM     54  C   UNL A   1      42.660  21.351  26.519  1.00  0.00     0.135 A 
ATOM     55  C   UNL A   1      44.300  22.941  25.800  1.00  0.00     0.135 A 
ATOM     56  F   UNL A   1      41.563  21.005  27.213  1.00  0.00    -0.206 F 
ATOM     57  C   UNL A   1      43.265  20.349  25.772  1.00  0.00     0.059 A 
ATOM     58  C   UNL A   1      44.897  21.960  25.004  1.00  0.00     0.059 A 
ATOM     59  F   UNL A   1      44.875  24.152  25.806  1.00  0.00    -0.206 F 
ATOM     60  C   UNL A   1      44.410  20.654  25.048  1.00  0.00     0.060 A 
BRANCH  60  61
ATOM     61  S   UNL A   1      45.270  19.306  24.216  1.00  0.00     0.124 S 
ATOM     62  O   UNL A   1      44.628  19.309  22.906  1.00  0.00    -0.237 OA
ATOM     63  O   UNL A   1      46.657  19.764  24.241  1.00  0.00    -0.237 OA
ATOM     64  O   UNL A   1      44.985  18.151  25.061  1.00  0.00    -0.744 OA
ENDBRANCH  60  61
ENDBRANCH  39  53
BRANCH  40  65
ATOM     65  C   UNL A   1      44.547  29.330  34.792  1.00  0.00     0.058 A 
ATOM     66  C   UNL A   1      45.577  30.241  35.054  1.00  0.00     0.135 A 
ATOM     67  C   UNL A   1      43.711  29.067  35.921  1.00  0.00     0.135 A 
ATOM     68  F   UNL A   1      46.526  30.490  34.143  1.00  0.00    -0.206 F 
ATOM     69  C   UNL A   1      45.659  30.957  36.269  1.00  0.00     0.059 A 
ATOM     70  C   UNL A   1      43.731  29.800  37.102  1.00  0.00     0.059 A 
ATOM     71  F   UNL A   1      42.785  28.097  35.904  1.00  0.00    -0.206 F 
ATOM     72  C   UNL A   1      44.691  30.776  37.260  1.00  0.00     0.060 A 
BRANCH  72  73
ATOM     73  S   UNL A   1      44.582  31.888  38.682  1.00  0.00     0.124 S 
ATOM     74  O   UNL A   1      45.856  31.654  39.352  1.00  0.00    -0.237 OA
ATOM     75  O   UNL A   1      44.425  33.195  38.050  1.00  0.00    -0.237 OA
ATOM     76  O   UNL A   1      43.399  31.407  39.392  1.00  0.00    -0.744 OA
ENDBRANCH  72  73
ENDBRANCH  40  65
BRANCH  52  77
ATOM     77  C   UNL A   1      45.971  27.006  29.282  1.00  0.00     0.058 A 
ATOM     78  C   UNL A   1      47.251  27.565  29.129  1.00  0.00     0.135 A 
ATOM     79  C   UNL A   1      44.972  27.564  28.464  1.00  0.00     0.135 A 
ATOM     80  F   UNL A   1      48.277  27.090  29.853  1.00  0.00    -0.206 F 
ATOM     81  C   UNL A   1      47.518  28.608  28.234  1.00  0.00     0.059 A 
ATOM     82  C   UNL A   1      45.206  28.605  27.558  1.00  0.00     0.059 A 
ATOM     83  F   UNL A   1      43.723  27.106  28.515  1.00  0.00    -0.206 F 
ATOM     84  C   UNL A   1      46.488  29.123  27.449  1.00  0.00     0.060 A 
BRANCH  84  85
ATOM     85  S   UNL A   1      46.856  30.440  26.264  1.00  0.00     0.124 S 
ATOM     86  O   UNL A   1      46.581  29.798  24.983  1.00  0.00    -0.237 OA
ATOM     87  O   UNL A   1      45.915  31.481  26.664  1.00  0.00    -0.237 OA
ATOM     88  O   UNL A   1      48.264  30.745  26.511  1.00  0.00    -0.744 OA
ENDBRANCH  84  85
ENDBRANCH  52  77
ENDBRANCH  26  27
ENDBRANCH  19  21
ENDBRANCH  18  19
ENDBRANCH   1  18
TORSDOF 17
ENDMDL
MODEL 2
REMARK VINA RESULT:     -10.8      4.427      9.648
REMARK SMILES O=C(C[C@H](c1ccsc1)n1cccc1)OCCOC(=O)c1ccc(-c2c3nc(c(-c4c(F)cc(S(=O)(=O)[O-])cc4F)c4ccc([nH]4)c(-c4c(F)cc(S(=O)(=O)[O-])cc4F)c4nc(c(-c5c(F)cc(S(=O)(=O)[O-])cc5F)c5ccc2[nH]5)C=C4)C=C3)cc1
REMARK SMILES IDX 17 1 16 2 15 3 2 4 1 5 3 6 4 7 10 8 11 9 14 10 12 11 13 12
REMARK SMILES IDX 5 13 6 14 9 15 7 16 8 17 18 18 19 19 20 20 21 21 22 22 86 23
REMARK SMILES IDX 23 24 85 25 24 26 25 27 26 28 79 29 27 30 84 31 78 32 80 33
REMARK SMILES IDX 28 34 83 35 77 36 76 37 29 39 63 40 42 41 62 42 43 43 46 44
REMARK SMILES IDX 61 45 81 46 44 47 45 48 60 50 82 51 47 52 30 53 31 54 40 55
REMARK SMILES IDX 32 56 33 57 39 58 41 59 34 60 35 61 36 62 37 63 38 64 64 65
REMARK SMILES IDX 65 66 74 67 66 68 67 69 73 70 75 71 68 72 69 73 70 74 71 75
REMARK SMILES IDX 72 76 48 77 49 78 58 79 50 80 51 81 57 82 59 83 52 84 53 85
REMARK SMILES IDX 54 86 55 87 56 88
REMARK H PARENT 80 38 46 49
REMARK Flexibility Score: inf
ROOT
ATOM      1  C   UNL A   1      39.205  20.339  25.573  1.00  0.00     0.275 C 
ENDROOT
BRANCH   1   2
ATOM      2  C   UNL A   1      38.582  21.719  25.763  1.00  0.00     0.274 C 
BRANCH   2   3
ATOM      3  O   UNL A   1      37.767  22.193  24.676  1.00  0.00    -0.462 OA
BRANCH   3   4
ATOM      4  C   UNL A   1      36.500  21.817  24.395  1.00  0.00     0.308 C 
ATOM      5  O   UNL A   1      35.821  22.498  23.623  1.00  0.00    -0.252 OA
BRANCH   4   6
ATOM      6  C   UNL A   1      35.873  20.604  25.049  1.00  0.00     0.153 C 
BRANCH   6   7
ATOM      7  C   UNL A   1      34.356  20.366  24.914  1.00  0.00     0.128 C 
BRANCH   7   8
ATOM      8  N   UNL A   1      33.976  18.953  24.751  1.00  0.00    -0.346 N 
ATOM      9  C   UNL A   1      34.722  17.889  24.319  1.00  0.00     0.086 A 
ATOM     10  C   UNL A   1      32.707  18.489  25.045  1.00  0.00     0.086 A 
ATOM     11  C   UNL A   1      33.877  16.814  24.136  1.00  0.00     0.019 A 
ATOM     12  C   UNL A   1      32.597  17.200  24.583  1.00  0.00     0.019 A 
ENDBRANCH   7   8
BRANCH   7  13
ATOM     13  C   UNL A   1      33.587  21.212  25.945  1.00  0.00    -0.014 A 
ATOM     14  C   UNL A   1      33.876  21.434  27.341  1.00  0.00     0.017 A 
ATOM     15  C   UNL A   1      32.510  22.010  25.580  1.00  0.00     0.070 A 
ATOM     16  C   UNL A   1      33.088  22.403  27.923  1.00  0.00     0.065 A 
ATOM     17  S   UNL A   1      31.927  23.009  26.838  1.00  0.00    -0.152 S 
ENDBRANCH   7  13
ENDBRANCH   6   7
ENDBRANCH   4   6
ENDBRANCH   3   4
ENDBRANCH   2   3
ENDBRANCH   1   2
BRANCH   1  18
ATOM     18  O   UNL A   1      40.033  19.987  26.671  1.00  0.00    -0.458 OA
BRANCH  18  19
ATOM     19  C   UNL A   1      41.238  19.551  26.281  1.00  0.00     0.338 C 
ATOM     20  O   UNL A   1      41.494  18.447  25.758  1.00  0.00    -0.246 OA
BRANCH  19  21
ATOM     21  C   UNL A   1      42.273  20.504  26.615  1.00  0.00     0.060 A 
ATOM     22  C   UNL A   1      42.280  20.958  27.937  1.00  0.00     0.016 A 
ATOM     23  C   UNL A   1      42.902  21.190  25.567  1.00  0.00     0.016 A 
ATOM     24  C   UNL A   1      42.694  22.242  28.171  1.00  0.00     0.010 A 
ATOM     25  C   UNL A   1      43.281  22.489  25.796  1.00  0.00     0.010 A 
ATOM     26  C   UNL A   1      43.099  23.017  27.078  1.00  0.00    -0.014 A 
BRANCH  26  27
ATOM     27  C   UNL A   1      43.413  24.417  27.342  1.00  0.00     0.031 A 
ATOM     28  C   UNL A   1      42.112  25.219  27.451  1.00  0.00     0.074 A 
ATOM     29  C   UNL A   1      44.755  24.708  27.351  1.00  0.00     0.049 A 
ATOM     30  N   UNL A   1      41.880  26.459  27.165  1.00  0.00    -0.248 NA
ATOM     31  C   UNL A   1      40.846  24.522  27.836  1.00  0.00     0.031 C 
ATOM     32  C   UNL A   1      45.854  23.714  27.219  1.00  0.00     0.029 A 
ATOM     33  N   UNL A   1      45.478  25.875  27.455  1.00  0.00    -0.354 N 
ATOM     34  C   UNL A   1      40.559  26.744  27.571  1.00  0.00     0.074 A 
ATOM     35  C   UNL A   1      39.929  25.489  27.829  1.00  0.00     0.031 C 
ATOM     36  C   UNL A   1      47.061  24.321  27.160  1.00  0.00     0.029 A 
ATOM     37  C   UNL A   1      46.888  25.755  27.279  1.00  0.00     0.049 A 
ATOM     38  H   UNL A   1      45.048  26.740  27.642  1.00  0.00     0.167 HD
ATOM     39  C   UNL A   1      40.123  28.011  27.820  1.00  0.00     0.037 A 
ATOM     40  C   UNL A   1      47.827  26.753  27.196  1.00  0.00     0.037 A 
ATOM     41  C   UNL A   1      41.183  28.932  27.570  1.00  0.00     0.049 A 
ATOM     42  C   UNL A   1      47.077  27.972  27.528  1.00  0.00     0.074 A 
ATOM     43  C   UNL A   1      41.764  29.342  26.399  1.00  0.00     0.029 A 
ATOM     44  N   UNL A   1      42.029  29.199  28.623  1.00  0.00    -0.354 N 
ATOM     45  N   UNL A   1      46.637  28.269  28.713  1.00  0.00    -0.248 NA
ATOM     46  C   UNL A   1      46.697  28.879  26.439  1.00  0.00     0.031 C 
ATOM     47  C   UNL A   1      43.133  29.392  26.725  1.00  0.00     0.029 A 
ATOM     48  C   UNL A   1      43.301  29.270  28.111  1.00  0.00     0.049 A 
ATOM     49  H   UNL A   1      41.770  29.317  29.565  1.00  0.00     0.167 HD
ATOM     50  C   UNL A   1      45.654  29.184  28.439  1.00  0.00     0.074 A 
ATOM     51  C   UNL A   1      45.956  29.738  27.134  1.00  0.00     0.031 C 
ATOM     52  C   UNL A   1      44.423  29.027  28.992  1.00  0.00     0.037 A 
BRANCH  39  53
ATOM     53  C   UNL A   1      38.899  28.544  28.502  1.00  0.00     0.058 A 
ATOM     54  C   UNL A   1      38.201  29.594  27.858  1.00  0.00     0.135 A 
ATOM     55  C   UNL A   1      38.600  28.333  29.855  1.00  0.00     0.135 A 
ATOM     56  F   UNL A   1      38.365  29.825  26.545  1.00  0.00    -0.206 F 
ATOM     57  C   UNL A   1      37.386  30.481  28.549  1.00  0.00     0.059 A 
ATOM     58  C   UNL A   1      37.745  29.186  30.559  1.00  0.00     0.059 A 
ATOM     59  F   UNL A   1      39.188  27.351  30.552  1.00  0.00    -0.206 F 
ATOM     60  C   UNL A   1      37.196  30.292  29.911  1.00  0.00     0.060 A 
BRANCH  60  61
ATOM     61  S   UNL A   1      36.267  31.542  30.819  1.00  0.00     0.124 S 
ATOM     62  O   UNL A   1      35.178  31.832  29.894  1.00  0.00    -0.237 OA
ATOM     63  O   UNL A   1      35.891  30.824  32.034  1.00  0.00    -0.237 OA
ATOM     64  O   UNL A   1      37.241  32.612  31.010  1.00  0.00    -0.744 OA
ENDBRANCH  60  61
ENDBRANCH  39  53
BRANCH  40  65
ATOM     65  C   UNL A   1      49.274  26.969  26.783  1.00  0.00     0.058 A 
ATOM     66  C   UNL A   1      50.297  27.522  27.562  1.00  0.00     0.135 A 
ATOM     67  C   UNL A   1      49.728  26.421  25.543  1.00  0.00     0.135 A 
ATOM     68  F   UNL A   1      50.020  28.195  28.686  1.00  0.00    -0.206 F 
ATOM     69  C   UNL A   1      51.661  27.384  27.224  1.00  0.00     0.059 A 
ATOM     70  C   UNL A   1      51.065  26.218  25.216  1.00  0.00     0.059 A 
ATOM     71  F   UNL A   1      48.872  26.006  24.597  1.00  0.00    -0.206 F 
ATOM     72  C   UNL A   1      52.035  26.672  26.082  1.00  0.00     0.060 A 
BRANCH  72  73
ATOM     73  S   UNL A   1      53.758  26.209  25.785  1.00  0.00     0.124 S 
ATOM     74  O   UNL A   1      54.483  27.303  26.420  1.00  0.00    -0.237 OA
ATOM     75  O   UNL A   1      53.854  24.911  26.447  1.00  0.00    -0.237 OA
ATOM     76  O   UNL A   1      53.844  26.159  24.328  1.00  0.00    -0.744 OA
ENDBRANCH  72  73
ENDBRANCH  40  65
BRANCH  52  77
ATOM     77  C   UNL A   1      44.405  28.254  30.308  1.00  0.00     0.058 A 
ATOM     78  C   UNL A   1      45.071  28.765  31.434  1.00  0.00     0.135 A 
ATOM     79  C   UNL A   1      43.828  26.983  30.478  1.00  0.00     0.135 A 
ATOM     80  F   UNL A   1      45.641  29.980  31.379  1.00  0.00    -0.206 F 
ATOM     81  C   UNL A   1      45.165  28.060  32.641  1.00  0.00     0.059 A 
ATOM     82  C   UNL A   1      43.903  26.253  31.671  1.00  0.00     0.059 A 
ATOM     83  F   UNL A   1      43.163  26.403  29.482  1.00  0.00    -0.206 F 
ATOM     84  C   UNL A   1      44.576  26.803  32.752  1.00  0.00     0.060 A 
BRANCH  84  85
ATOM     85  S   UNL A   1      44.665  25.923  34.330  1.00  0.00     0.124 S 
ATOM     86  O   UNL A   1      43.854  24.737  34.077  1.00  0.00    -0.237 OA
ATOM     87  O   UNL A   1      46.099  25.689  34.468  1.00  0.00    -0.237 OA
ATOM     88  O   UNL A   1      44.095  26.868  35.287  1.00  0.00    -0.744 OA
ENDBRANCH  84  85
ENDBRANCH  52  77
ENDBRANCH  26  27
ENDBRANCH  19  21
ENDBRANCH  18  19
ENDBRANCH   1  18
TORSDOF 17
ENDMDL
MODEL 3
REMARK VINA RESULT:     -10.6      3.869      9.306
REMARK SMILES O=C(C[C@H](c1ccsc1)n1cccc1)OCCOC(=O)c1ccc(-c2c3nc(c(-c4c(F)cc(S(=O)(=O)[O-])cc4F)c4ccc([nH]4)c(-c4c(F)cc(S(=O)(=O)[O-])cc4F)c4nc(c(-c5c(F)cc(S(=O)(=O)[O-])cc5F)c5ccc2[nH]5)C=C4)C=C3)cc1
REMARK SMILES IDX 17 1 16 2 15 3 2 4 1 5 3 6 4 7 10 8 11 9 14 10 12 11 13 12
REMARK SMILES IDX 5 13 6 14 9 15 7 16 8 17 18 18 19 19 20 20 21 21 22 22 86 23
REMARK SMILES IDX 23 24 85 25 24 26 25 27 26 28 79 29 27 30 84 31 78 32 80 33
REMARK SMILES IDX 28 34 83 35 77 36 76 37 29 39 63 40 42 41 62 42 43 43 46 44
REMARK SMILES IDX 61 45 81 46 44 47 45 48 60 50 82 51 47 52 30 53 31 54 40 55
REMARK SMILES IDX 32 56 33 57 39 58 41 59 34 60 35 61 36 62 37 63 38 64 64 65
REMARK SMILES IDX 65 66 74 67 66 68 67 69 73 70 75 71 68 72 69 73 70 74 71 75
REMARK SMILES IDX 72 76 48 77 49 78 58 79 50 80 51 81 57 82 59 83 52 84 53 85
REMARK SMILES IDX 54 86 55 87 56 88
REMARK H PARENT 80 38 46 49
REMARK Flexibility Score: inf
ROOT
ATOM      1  C   UNL A   1      39.256  20.575  25.750  1.00  0.00     0.275 C 
ENDROOT
BRANCH   1   2
ATOM      2  C   UNL A   1      38.887  22.006  26.130  1.00  0.00     0.274 C 
BRANCH   2   3
ATOM      3  O   UNL A   1      37.486  22.328  26.073  1.00  0.00    -0.462 OA
BRANCH   3   4
ATOM      4  C   UNL A   1      36.863  23.047  25.114  1.00  0.00     0.308 C 
ATOM      5  O   UNL A   1      37.359  23.113  23.986  1.00  0.00    -0.252 OA
BRANCH   4   6
ATOM      6  C   UNL A   1      35.595  23.822  25.405  1.00  0.00     0.153 C 
BRANCH   6   7
ATOM      7  C   UNL A   1      34.644  24.188  24.248  1.00  0.00     0.128 C 
BRANCH   7   8
ATOM      8  N   UNL A   1      33.780  23.084  23.800  1.00  0.00    -0.346 N 
ATOM      9  C   UNL A   1      33.097  22.928  22.623  1.00  0.00     0.086 A 
ATOM     10  C   UNL A   1      33.536  21.972  24.583  1.00  0.00     0.086 A 
ATOM     11  C   UNL A   1      32.263  21.837  22.750  1.00  0.00     0.019 A 
ATOM     12  C   UNL A   1      32.531  21.240  23.999  1.00  0.00     0.019 A 
ENDBRANCH   7   8
BRANCH   7  13
ATOM     13  C   UNL A   1      33.998  25.563  24.502  1.00  0.00    -0.014 A 
ATOM     14  C   UNL A   1      33.726  26.226  25.753  1.00  0.00     0.017 A 
ATOM     15  C   UNL A   1      33.687  26.429  23.460  1.00  0.00     0.070 A 
ATOM     16  C   UNL A   1      33.312  27.533  25.611  1.00  0.00     0.065 A 
ATOM     17  S   UNL A   1      33.158  27.971  23.975  1.00  0.00    -0.152 S 
ENDBRANCH   7  13
ENDBRANCH   6   7
ENDBRANCH   4   6
ENDBRANCH   3   4
ENDBRANCH   2   3
ENDBRANCH   1   2
BRANCH   1  18
ATOM     18  O   UNL A   1      40.034  19.954  26.762  1.00  0.00    -0.458 OA
BRANCH  18  19
ATOM     19  C   UNL A   1      41.225  19.542  26.308  1.00  0.00     0.338 C 
ATOM     20  O   UNL A   1      41.471  18.450  25.756  1.00  0.00    -0.246 OA
BRANCH  19  21
ATOM     21  C   UNL A   1      42.261  20.505  26.605  1.00  0.00     0.060 A 
ATOM     22  C   UNL A   1      42.304  20.967  27.925  1.00  0.00     0.016 A 
ATOM     23  C   UNL A   1      42.854  21.191  25.536  1.00  0.00     0.016 A 
ATOM     24  C   UNL A   1      42.713  22.256  28.139  1.00  0.00     0.010 A 
ATOM     25  C   UNL A   1      43.227  22.494  25.746  1.00  0.00     0.010 A 
ATOM     26  C   UNL A   1      43.079  23.028  27.031  1.00  0.00    -0.014 A 
BRANCH  26  27
ATOM     27  C   UNL A   1      43.389  24.432  27.278  1.00  0.00     0.031 A 
ATOM     28  C   UNL A   1      42.084  25.226  27.411  1.00  0.00     0.074 A 
ATOM     29  C   UNL A   1      44.728  24.733  27.253  1.00  0.00     0.049 A 
ATOM     30  N   UNL A   1      41.837  26.462  27.122  1.00  0.00    -0.248 NA
ATOM     31  C   UNL A   1      40.833  24.522  27.829  1.00  0.00     0.031 C 
ATOM     32  C   UNL A   1      45.831  23.746  27.103  1.00  0.00     0.029 A 
ATOM     33  N   UNL A   1      45.445  25.906  27.332  1.00  0.00    -0.354 N 
ATOM     34  C   UNL A   1      40.523  26.740  27.556  1.00  0.00     0.074 A 
ATOM     35  C   UNL A   1      39.909  25.482  27.837  1.00  0.00     0.031 C 
ATOM     36  C   UNL A   1      47.032  24.362  27.011  1.00  0.00     0.029 A 
ATOM     37  C   UNL A   1      46.852  25.795  27.124  1.00  0.00     0.049 A 
ATOM     38  H   UNL A   1      45.013  26.770  27.523  1.00  0.00     0.167 HD
ATOM     39  C   UNL A   1      40.084  28.006  27.806  1.00  0.00     0.037 A 
ATOM     40  C   UNL A   1      47.780  26.799  27.013  1.00  0.00     0.037 A 
ATOM     41  C   UNL A   1      41.131  28.932  27.525  1.00  0.00     0.049 A 
ATOM     42  C   UNL A   1      47.030  28.015  27.353  1.00  0.00     0.074 A 
ATOM     43  C   UNL A   1      41.682  29.339  26.338  1.00  0.00     0.029 A 
ATOM     44  N   UNL A   1      41.999  29.213  28.556  1.00  0.00    -0.354 N 
ATOM     45  N   UNL A   1      46.615  28.317  28.546  1.00  0.00    -0.248 NA
ATOM     46  C   UNL A   1      46.618  28.912  26.267  1.00  0.00     0.031 C 
ATOM     47  C   UNL A   1      43.058  29.401  26.632  1.00  0.00     0.029 A 
ATOM     48  C   UNL A   1      43.259  29.290  28.015  1.00  0.00     0.049 A 
ATOM     49  H   UNL A   1      41.762  29.336  29.503  1.00  0.00     0.167 HD
ATOM     50  C   UNL A   1      45.619  29.223  28.289  1.00  0.00     0.074 A 
ATOM     51  C   UNL A   1      45.887  29.770  26.974  1.00  0.00     0.031 C 
ATOM     52  C   UNL A   1      44.402  29.061  28.871  1.00  0.00     0.037 A 
BRANCH  39  53
ATOM     53  C   UNL A   1      38.872  28.535  28.513  1.00  0.00     0.058 A 
ATOM     54  C   UNL A   1      38.176  29.604  27.899  1.00  0.00     0.135 A 
ATOM     55  C   UNL A   1      38.586  28.298  29.864  1.00  0.00     0.135 A 
ATOM     56  F   UNL A   1      38.328  29.861  26.589  1.00  0.00    -0.206 F 
ATOM     57  C   UNL A   1      37.377  30.483  28.617  1.00  0.00     0.059 A 
ATOM     58  C   UNL A   1      37.746  29.143  30.595  1.00  0.00     0.059 A 
ATOM     59  F   UNL A   1      39.173  27.296  30.534  1.00  0.00    -0.206 F 
ATOM     60  C   UNL A   1      37.200  30.267  29.977  1.00  0.00     0.060 A 
BRANCH  60  61
ATOM     61  S   UNL A   1      36.292  31.506  30.921  1.00  0.00     0.124 S 
ATOM     62  O   UNL A   1      37.305  32.539  31.104  1.00  0.00    -0.237 OA
ATOM     63  O   UNL A   1      35.199  31.845  30.013  1.00  0.00    -0.237 OA
ATOM     64  O   UNL A   1      35.893  30.786  32.126  1.00  0.00    -0.744 OA
ENDBRANCH  60  61
ENDBRANCH  39  53
BRANCH  40  65
ATOM     65  C   UNL A   1      49.216  27.022  26.565  1.00  0.00     0.058 A 
ATOM     66  C   UNL A   1      50.257  27.570  27.323  1.00  0.00     0.135 A 
ATOM     67  C   UNL A   1      49.639  26.489  25.308  1.00  0.00     0.135 A 
ATOM     68  F   UNL A   1      50.008  28.230  28.461  1.00  0.00    -0.206 F 
ATOM     69  C   UNL A   1      51.613  27.439  26.948  1.00  0.00     0.059 A 
ATOM     70  C   UNL A   1      50.967  26.293  24.944  1.00  0.00     0.059 A 
ATOM     71  F   UNL A   1      48.760  26.083  24.380  1.00  0.00    -0.206 F 
ATOM     72  C   UNL A   1      51.959  26.739  25.790  1.00  0.00     0.060 A 
BRANCH  72  73
ATOM     73  S   UNL A   1      53.674  26.283  25.444  1.00  0.00     0.124 S 
ATOM     74  O   UNL A   1      53.523  25.335  24.346  1.00  0.00    -0.237 OA
ATOM     75  O   UNL A   1      54.279  27.566  25.100  1.00  0.00    -0.237 OA
ATOM     76  O   UNL A   1      54.130  25.713  26.709  1.00  0.00    -0.744 OA
ENDBRANCH  72  73
ENDBRANCH  40  65
BRANCH  52  77
ATOM     77  C   UNL A   1      44.420  28.298  30.192  1.00  0.00     0.058 A 
ATOM     78  C   UNL A   1      45.114  28.819  31.298  1.00  0.00     0.135 A 
ATOM     79  C   UNL A   1      43.852  27.025  30.386  1.00  0.00     0.135 A 
ATOM     80  F   UNL A   1      45.677  30.035  31.219  1.00  0.00    -0.206 F 
ATOM     81  C   UNL A   1      45.241  28.123  32.507  1.00  0.00     0.059 A 
ATOM     82  C   UNL A   1      43.960  26.305  31.582  1.00  0.00     0.059 A 
ATOM     83  F   UNL A   1      43.163  26.437  29.411  1.00  0.00    -0.206 F 
ATOM     84  C   UNL A   1      44.658  26.864  32.642  1.00  0.00     0.060 A 
BRANCH  84  85
ATOM     85  S   UNL A   1      44.791  25.996  34.223  1.00  0.00     0.124 S 
ATOM     86  O   UNL A   1      44.135  26.917  35.145  1.00  0.00    -0.237 OA
ATOM     87  O   UNL A   1      44.071  24.755  33.951  1.00  0.00    -0.237 OA
ATOM     88  O   UNL A   1      46.231  25.848  34.418  1.00  0.00    -0.744 OA
ENDBRANCH  84  85
ENDBRANCH  52  77
ENDBRANCH  26  27
ENDBRANCH  19  21
ENDBRANCH  18  19
ENDBRANCH   1  18
TORSDOF 17
ENDMDL
