MODEL 1
REMARK VINA RESULT:     -13.0      0.000      0.000
REMARK SMILES Cc1cc(NC(=O)c2ccc(Br)cc2N)ccc1C(=O)OCCOC(=O)c1ccc(-c2c3nc(c(-c4c(F)cc(S(=O)(=O)[O-])cc4F)c4ccc([nH]4)c(-c4c(F)cc(S(=O)(=O)[O-])cc4F)c4nc(c(-c5c(F)cc(S(=O)(=O)[O-])cc5F)c5ccc2[nH]5)C=C4)C=C3)cc1
REMARK SMILES IDX 22 1 21 2 19 3 20 4 18 5 1 6 2 7 3 8 4 9 17 10 16 11 5 12
REMARK SMILES IDX 6 13 7 15 8 16 9 17 14 18 10 19 13 20 11 21 12 22 15 23
REMARK SMILES IDX 23 26 24 27 25 28 26 29 27 30 28 31 92 32 29 33 91 34 30 35
REMARK SMILES IDX 31 36 32 37 85 38 33 39 90 40 84 41 86 42 34 43 89 44 83 45
REMARK SMILES IDX 82 46 35 48 69 49 48 50 68 51 49 52 52 53 67 54 87 55 50 56
REMARK SMILES IDX 51 57 66 59 88 60 53 61 36 62 37 63 46 64 38 65 39 66 45 67
REMARK SMILES IDX 47 68 40 69 41 70 42 71 43 72 44 73 70 74 71 75 80 76 72 77
REMARK SMILES IDX 73 78 79 79 81 80 74 81 75 82 76 83 77 84 78 85 54 86 55 87
REMARK SMILES IDX 64 88 56 89 57 90 63 91 65 92 58 93 59 94 60 95 61 96 62 97
REMARK H PARENT 5 14 15 24 15 25 86 47 52 58
REMARK Flexibility Score: inf
ROOT
ATOM      1  C   UNL A   1      33.812  29.256  25.816  1.00  0.00     0.275 C 
ENDROOT
BRANCH   1   2
ATOM      2  O   UNL A   1      32.850  28.189  25.855  1.00  0.00    -0.458 OA
BRANCH   2   3
ATOM      3  C   UNL A   1      31.776  28.418  25.061  1.00  0.00     0.338 C 
ATOM      4  O   UNL A   1      31.146  29.451  24.995  1.00  0.00    -0.246 OA
BRANCH   3   5
ATOM      5  C   UNL A   1      31.256  27.209  24.409  1.00  0.00     0.063 A 
ATOM      6  C   UNL A   1      32.699  27.796  22.378  1.00  0.00     0.045 C 
ATOM      7  C   UNL A   1      31.798  26.883  23.160  1.00  0.00    -0.035 A 
ATOM      8  C   UNL A   1      31.555  25.609  22.646  1.00  0.00     0.030 A 
ATOM      9  C   UNL A   1      30.918  24.626  23.405  1.00  0.00     0.041 A 
ATOM     10  C   UNL A   1      30.469  26.284  25.107  1.00  0.00     0.018 A 
ATOM     11  C   UNL A   1      30.310  24.985  24.609  1.00  0.00     0.027 A 
BRANCH   9  12
ATOM     12  N   UNL A   1      30.911  23.276  23.005  1.00  0.00    -0.322 N 
ATOM     13  C   UNL A   1      31.974  22.388  22.949  1.00  0.00     0.257 C 
ATOM     14  H   UNL A   1      30.038  22.916  22.729  1.00  0.00     0.170 HD
ATOM     15  O   UNL A   1      31.897  21.371  22.262  1.00  0.00    -0.269 OA
BRANCH  13  16
ATOM     16  C   UNL A   1      33.212  22.630  23.747  1.00  0.00     0.063 A 
ATOM     17  C   UNL A   1      34.322  23.140  23.049  1.00  0.00     0.017 A 
ATOM     18  C   UNL A   1      33.282  22.415  25.142  1.00  0.00     0.045 A 
ATOM     19  C   UNL A   1      35.492  23.470  23.733  1.00  0.00     0.016 A 
ATOM     20  C   UNL A   1      34.483  22.719  25.802  1.00  0.00     0.042 A 
ATOM     21  C   UNL A   1      35.565  23.260  25.108  1.00  0.00     0.020 A 
ATOM     22  Br  UNL A   1      37.147  23.711  26.041  1.00  0.00    -0.051 Br
BRANCH  18  23
ATOM     23  N   UNL A   1      32.271  21.798  25.874  1.00  0.00    -0.398 N 
ATOM     24  H   UNL A   1      32.010  22.156  26.754  1.00  0.00     0.156 HD
ATOM     25  H   UNL A   1      31.815  21.004  25.512  1.00  0.00     0.156 HD
ENDBRANCH  18  23
ENDBRANCH  13  16
ENDBRANCH   9  12
ENDBRANCH   3   5
ENDBRANCH   2   3
ENDBRANCH   1   2
BRANCH   1  26
ATOM     26  C   UNL A   1      34.178  29.772  27.218  1.00  0.00     0.275 C 
BRANCH  26  27
ATOM     27  O   UNL A   1      35.458  29.427  27.801  1.00  0.00    -0.458 OA
BRANCH  27  28
ATOM     28  C   UNL A   1      36.288  30.438  28.169  1.00  0.00     0.338 C 
ATOM     29  O   UNL A   1      35.920  31.597  28.319  1.00  0.00    -0.246 OA
BRANCH  28  30
ATOM     30  C   UNL A   1      37.563  29.861  28.671  1.00  0.00     0.060 A 
ATOM     31  C   UNL A   1      37.543  28.936  29.727  1.00  0.00     0.016 A 
ATOM     32  C   UNL A   1      38.685  29.976  27.848  1.00  0.00     0.016 A 
ATOM     33  C   UNL A   1      38.586  28.030  29.878  1.00  0.00     0.010 A 
ATOM     34  C   UNL A   1      39.617  28.978  27.872  1.00  0.00     0.010 A 
ATOM     35  C   UNL A   1      39.587  28.037  28.911  1.00  0.00    -0.014 A 
BRANCH  35  36
ATOM     36  C   UNL A   1      40.858  27.358  29.064  1.00  0.00     0.031 A 
ATOM     37  C   UNL A   1      41.033  25.961  28.633  1.00  0.00     0.074 A 
ATOM     38  C   UNL A   1      41.787  28.254  29.469  1.00  0.00     0.049 A 
ATOM     39  N   UNL A   1      41.925  25.164  29.101  1.00  0.00    -0.248 NA
ATOM     40  C   UNL A   1      40.165  25.290  27.666  1.00  0.00     0.031 C 
ATOM     41  C   UNL A   1      43.231  28.242  29.503  1.00  0.00     0.029 A 
ATOM     42  N   UNL A   1      41.458  29.462  30.114  1.00  0.00    -0.354 N 
ATOM     43  C   UNL A   1      41.995  24.074  28.246  1.00  0.00     0.074 A 
ATOM     44  C   UNL A   1      40.758  24.098  27.518  1.00  0.00     0.031 C 
ATOM     45  C   UNL A   1      43.638  29.169  30.401  1.00  0.00     0.029 A 
ATOM     46  C   UNL A   1      42.446  29.724  31.047  1.00  0.00     0.049 A 
ATOM     47  H   UNL A   1      40.669  30.021  29.933  1.00  0.00     0.167 HD
ATOM     48  C   UNL A   1      43.198  23.439  28.103  1.00  0.00     0.037 A 
ATOM     49  C   UNL A   1      42.082  29.562  32.355  1.00  0.00     0.037 A 
ATOM     50  C   UNL A   1      44.161  24.105  28.982  1.00  0.00     0.049 A 
ATOM     51  C   UNL A   1      42.774  28.332  32.889  1.00  0.00     0.074 A 
ATOM     52  C   UNL A   1      45.051  25.136  28.733  1.00  0.00     0.029 A 
ATOM     53  N   UNL A   1      43.977  24.055  30.357  1.00  0.00    -0.354 N 
ATOM     54  N   UNL A   1      42.979  27.233  32.206  1.00  0.00    -0.248 NA
ATOM     55  C   UNL A   1      43.467  28.355  34.169  1.00  0.00     0.031 C 
ATOM     56  C   UNL A   1      45.309  25.782  29.972  1.00  0.00     0.029 A 
ATOM     57  C   UNL A   1      44.562  25.155  30.958  1.00  0.00     0.049 A 
ATOM     58  H   UNL A   1      43.499  23.339  30.836  1.00  0.00     0.167 HD
ATOM     59  C   UNL A   1      43.899  26.469  32.878  1.00  0.00     0.074 A 
ATOM     60  C   UNL A   1      44.152  27.203  34.109  1.00  0.00     0.031 C 
ATOM     61  C   UNL A   1      44.483  25.330  32.396  1.00  0.00     0.037 A 
BRANCH  48  62
ATOM     62  C   UNL A   1      43.635  22.493  26.989  1.00  0.00     0.058 A 
ATOM     63  C   UNL A   1      42.980  21.244  26.838  1.00  0.00     0.135 A 
ATOM     64  C   UNL A   1      44.679  22.707  26.066  1.00  0.00     0.135 A 
ATOM     65  F   UNL A   1      41.923  20.911  27.591  1.00  0.00    -0.206 F 
ATOM     66  C   UNL A   1      43.370  20.271  25.915  1.00  0.00     0.059 A 
ATOM     67  C   UNL A   1      45.098  21.739  25.137  1.00  0.00     0.059 A 
ATOM     68  F   UNL A   1      45.325  23.874  25.989  1.00  0.00    -0.206 F 
ATOM     69  C   UNL A   1      44.443  20.517  25.075  1.00  0.00     0.060 A 
BRANCH  69  70
ATOM     70  S   UNL A   1      44.931  19.239  23.899  1.00  0.00     0.124 S 
ATOM     71  O   UNL A   1      46.381  19.218  24.054  1.00  0.00    -0.237 OA
ATOM     72  O   UNL A   1      44.222  18.068  24.405  1.00  0.00    -0.237 OA
ATOM     73  O   UNL A   1      44.452  19.751  22.618  1.00  0.00    -0.744 OA
ENDBRANCH  69  70
ENDBRANCH  48  62
BRANCH  49  74
ATOM     74  C   UNL A   1      40.687  30.049  32.681  1.00  0.00     0.058 A 
ATOM     75  C   UNL A   1      40.421  31.435  32.542  1.00  0.00     0.135 A 
ATOM     76  C   UNL A   1      39.565  29.230  32.872  1.00  0.00     0.135 A 
ATOM     77  F   UNL A   1      41.438  32.299  32.380  1.00  0.00    -0.206 F 
ATOM     78  C   UNL A   1      39.131  31.959  32.465  1.00  0.00     0.059 A 
ATOM     79  C   UNL A   1      38.252  29.740  32.825  1.00  0.00     0.059 A 
ATOM     80  F   UNL A   1      39.711  27.906  33.030  1.00  0.00    -0.206 F 
ATOM     81  C   UNL A   1      38.045  31.101  32.580  1.00  0.00     0.060 A 
BRANCH  81  82
ATOM     82  S   UNL A   1      36.392  31.757  32.210  1.00  0.00     0.124 S 
ATOM     83  O   UNL A   1      35.675  30.558  31.796  1.00  0.00    -0.237 OA
ATOM     84  O   UNL A   1      35.996  32.317  33.500  1.00  0.00    -0.237 OA
ATOM     85  O   UNL A   1      36.654  32.735  31.157  1.00  0.00    -0.744 OA
ENDBRANCH  81  82
ENDBRANCH  49  74
BRANCH  61  86
ATOM     86  C   UNL A   1      45.151  24.303  33.271  1.00  0.00     0.058 A 
ATOM     87  C   UNL A   1      46.472  24.438  33.727  1.00  0.00     0.135 A 
ATOM     88  C   UNL A   1      44.415  23.228  33.826  1.00  0.00     0.135 A 
ATOM     89  F   UNL A   1      47.226  25.497  33.398  1.00  0.00    -0.206 F 
ATOM     90  C   UNL A   1      47.063  23.507  34.570  1.00  0.00     0.059 A 
ATOM     91  C   UNL A   1      44.960  22.337  34.740  1.00  0.00     0.059 A 
ATOM     92  F   UNL A   1      43.127  23.011  33.515  1.00  0.00    -0.206 F 
ATOM     93  C   UNL A   1      46.301  22.456  35.065  1.00  0.00     0.060 A 
BRANCH  93  94
ATOM     94  S   UNL A   1      47.068  21.254  36.152  1.00  0.00     0.124 S 
ATOM     95  O   UNL A   1      47.781  22.127  37.079  1.00  0.00    -0.237 OA
ATOM     96  O   UNL A   1      45.918  20.545  36.709  1.00  0.00    -0.237 OA
ATOM     97  O   UNL A   1      47.904  20.468  35.250  1.00  0.00    -0.744 OA
ENDBRANCH  93  94
ENDBRANCH  61  86
ENDBRANCH  35  36
ENDBRANCH  28  30
ENDBRANCH  27  28
ENDBRANCH  26  27
ENDBRANCH   1  26
TORSDOF 17
ENDMDL
MODEL 2
REMARK VINA RESULT:     -13.0      4.590     11.109
REMARK SMILES Cc1cc(NC(=O)c2ccc(Br)cc2N)ccc1C(=O)OCCOC(=O)c1ccc(-c2c3nc(c(-c4c(F)cc(S(=O)(=O)[O-])cc4F)c4ccc([nH]4)c(-c4c(F)cc(S(=O)(=O)[O-])cc4F)c4nc(c(-c5c(F)cc(S(=O)(=O)[O-])cc5F)c5ccc2[nH]5)C=C4)C=C3)cc1
REMARK SMILES IDX 22 1 21 2 19 3 20 4 18 5 1 6 2 7 3 8 4 9 17 10 16 11 5 12
REMARK SMILES IDX 6 13 7 15 8 16 9 17 14 18 10 19 13 20 11 21 12 22 15 23
REMARK SMILES IDX 23 26 24 27 25 28 26 29 27 30 28 31 92 32 29 33 91 34 30 35
REMARK SMILES IDX 31 36 32 37 85 38 33 39 90 40 84 41 86 42 34 43 89 44 83 45
REMARK SMILES IDX 82 46 35 48 69 49 48 50 68 51 49 52 52 53 67 54 87 55 50 56
REMARK SMILES IDX 51 57 66 59 88 60 53 61 36 62 37 63 46 64 38 65 39 66 45 67
REMARK SMILES IDX 47 68 40 69 41 70 42 71 43 72 44 73 70 74 71 75 80 76 72 77
REMARK SMILES IDX 73 78 79 79 81 80 74 81 75 82 76 83 77 84 78 85 54 86 55 87
REMARK SMILES IDX 64 88 56 89 57 90 63 91 65 92 58 93 59 94 60 95 61 96 62 97
REMARK H PARENT 5 14 15 24 15 25 86 47 52 58
REMARK Flexibility Score: inf
ROOT
ATOM      1  C   UNL A   1      37.095  22.765  25.615  1.00  0.00     0.275 C 
ENDROOT
BRANCH   1   2
ATOM      2  O   UNL A   1      35.706  23.104  25.475  1.00  0.00    -0.458 OA
BRANCH   2   3
ATOM      3  C   UNL A   1      34.920  22.025  25.242  1.00  0.00     0.338 C 
ATOM      4  O   UNL A   1      35.284  20.869  25.224  1.00  0.00    -0.246 OA
BRANCH   3   5
ATOM      5  C   UNL A   1      33.570  22.368  24.776  1.00  0.00     0.063 A 
ATOM      6  C   UNL A   1      32.847  22.465  27.229  1.00  0.00     0.045 C 
ATOM      7  C   UNL A   1      32.622  22.674  25.759  1.00  0.00    -0.035 A 
ATOM      8  C   UNL A   1      31.430  23.282  25.361  1.00  0.00     0.030 A 
ATOM      9  C   UNL A   1      31.235  23.713  24.048  1.00  0.00     0.041 A 
ATOM     10  C   UNL A   1      33.313  22.643  23.427  1.00  0.00     0.018 A 
ATOM     11  C   UNL A   1      32.147  23.329  23.064  1.00  0.00     0.027 A 
BRANCH   9  12
ATOM     12  N   UNL A   1      30.164  24.559  23.703  1.00  0.00    -0.322 N 
ATOM     13  C   UNL A   1      29.886  25.833  24.174  1.00  0.00     0.257 C 
ATOM     14  H   UNL A   1      29.531  24.200  23.041  1.00  0.00     0.170 HD
ATOM     15  O   UNL A   1      28.755  26.304  24.060  1.00  0.00    -0.269 OA
BRANCH  13  16
ATOM     16  C   UNL A   1      30.957  26.668  24.794  1.00  0.00     0.063 A 
ATOM     17  C   UNL A   1      30.963  26.743  26.199  1.00  0.00     0.017 A 
ATOM     18  C   UNL A   1      31.958  27.320  24.039  1.00  0.00     0.045 A 
ATOM     19  C   UNL A   1      31.977  27.435  26.862  1.00  0.00     0.016 A 
ATOM     20  C   UNL A   1      32.945  28.042  24.726  1.00  0.00     0.042 A 
ATOM     21  C   UNL A   1      32.965  28.079  26.121  1.00  0.00     0.020 A 
ATOM     22  Br  UNL A   1      34.345  29.014  27.014  1.00  0.00    -0.051 Br
BRANCH  18  23
ATOM     23  N   UNL A   1      31.942  27.393  22.648  1.00  0.00    -0.398 N 
ATOM     24  H   UNL A   1      31.281  26.874  22.134  1.00  0.00     0.156 HD
ATOM     25  H   UNL A   1      32.592  27.964  22.177  1.00  0.00     0.156 HD
ENDBRANCH  18  23
ENDBRANCH  13  16
ENDBRANCH   9  12
ENDBRANCH   3   5
ENDBRANCH   2   3
ENDBRANCH   1   2
BRANCH   1  26
ATOM     26  C   UNL A   1      37.940  23.941  26.133  1.00  0.00     0.275 C 
BRANCH  26  27
ATOM     27  O   UNL A   1      38.927  23.717  27.169  1.00  0.00    -0.458 OA
BRANCH  27  28
ATOM     28  C   UNL A   1      40.050  24.482  27.161  1.00  0.00     0.338 C 
ATOM     29  O   UNL A   1      41.054  24.206  26.517  1.00  0.00    -0.246 OA
BRANCH  28  30
ATOM     30  C   UNL A   1      39.737  25.810  27.752  1.00  0.00     0.060 A 
ATOM     31  C   UNL A   1      39.243  25.892  29.065  1.00  0.00     0.016 A 
ATOM     32  C   UNL A   1      40.281  26.934  27.126  1.00  0.00     0.016 A 
ATOM     33  C   UNL A   1      39.418  27.057  29.801  1.00  0.00     0.010 A 
ATOM     34  C   UNL A   1      40.621  28.009  27.895  1.00  0.00     0.010 A 
ATOM     35  C   UNL A   1      40.151  28.085  29.215  1.00  0.00    -0.014 A 
BRANCH  35  36
ATOM     36  C   UNL A   1      40.193  29.438  29.728  1.00  0.00     0.031 A 
ATOM     37  C   UNL A   1      39.075  30.372  29.511  1.00  0.00     0.074 A 
ATOM     38  C   UNL A   1      41.280  29.571  30.523  1.00  0.00     0.049 A 
ATOM     39  N   UNL A   1      39.185  31.652  29.529  1.00  0.00    -0.248 NA
ATOM     40  C   UNL A   1      37.714  29.953  29.179  1.00  0.00     0.031 C 
ATOM     41  C   UNL A   1      41.678  30.550  31.509  1.00  0.00     0.029 A 
ATOM     42  N   UNL A   1      42.406  28.731  30.430  1.00  0.00    -0.354 N 
ATOM     43  C   UNL A   1      37.903  32.176  29.612  1.00  0.00     0.074 A 
ATOM     44  C   UNL A   1      37.044  31.112  29.176  1.00  0.00     0.031 C 
ATOM     45  C   UNL A   1      43.019  30.467  31.666  1.00  0.00     0.029 A 
ATOM     46  C   UNL A   1      43.527  29.497  30.693  1.00  0.00     0.049 A 
ATOM     47  H   UNL A   1      42.397  27.770  30.218  1.00  0.00     0.167 HD
ATOM     48  C   UNL A   1      37.731  33.363  30.268  1.00  0.00     0.037 A 
ATOM     49  C   UNL A   1      44.324  29.769  29.615  1.00  0.00     0.037 A 
ATOM     50  C   UNL A   1      39.046  33.822  30.715  1.00  0.00     0.049 A 
ATOM     51  C   UNL A   1      44.171  31.231  29.273  1.00  0.00     0.074 A 
ATOM     52  C   UNL A   1      39.710  33.635  31.916  1.00  0.00     0.029 A 
ATOM     53  N   UNL A   1      40.008  34.158  29.772  1.00  0.00    -0.354 N 
ATOM     54  N   UNL A   1      43.050  31.903  29.347  1.00  0.00    -0.248 NA
ATOM     55  C   UNL A   1      45.335  32.071  29.029  1.00  0.00     0.031 C 
ATOM     56  C   UNL A   1      41.102  33.749  31.655  1.00  0.00     0.029 A 
ATOM     57  C   UNL A   1      41.275  33.985  30.299  1.00  0.00     0.049 A 
ATOM     58  H   UNL A   1      39.816  34.475  28.860  1.00  0.00     0.167 HD
ATOM     59  C   UNL A   1      43.341  33.243  29.281  1.00  0.00     0.074 A 
ATOM     60  C   UNL A   1      44.778  33.292  29.057  1.00  0.00     0.031 C 
ATOM     61  C   UNL A   1      42.447  34.257  29.487  1.00  0.00     0.037 A 
BRANCH  48  62
ATOM     62  C   UNL A   1      36.435  33.953  30.817  1.00  0.00     0.058 A 
ATOM     63  C   UNL A   1      35.417  34.358  29.917  1.00  0.00     0.135 A 
ATOM     64  C   UNL A   1      36.125  34.182  32.174  1.00  0.00     0.135 A 
ATOM     65  F   UNL A   1      35.523  34.150  28.598  1.00  0.00    -0.206 F 
ATOM     66  C   UNL A   1      34.240  34.997  30.316  1.00  0.00     0.059 A 
ATOM     67  C   UNL A   1      34.955  34.834  32.598  1.00  0.00     0.059 A 
ATOM     68  F   UNL A   1      36.919  33.756  33.161  1.00  0.00    -0.206 F 
ATOM     69  C   UNL A   1      34.020  35.248  31.660  1.00  0.00     0.060 A 
BRANCH  69  70
ATOM     70  S   UNL A   1      32.496  36.083  32.144  1.00  0.00     0.124 S 
ATOM     71  O   UNL A   1      32.115  36.762  30.911  1.00  0.00    -0.237 OA
ATOM     72  O   UNL A   1      31.646  34.966  32.543  1.00  0.00    -0.237 OA
ATOM     73  O   UNL A   1      32.918  36.962  33.231  1.00  0.00    -0.744 OA
ENDBRANCH  69  70
ENDBRANCH  48  62
BRANCH  49  74
ATOM     74  C   UNL A   1      44.497  28.611  28.657  1.00  0.00     0.058 A 
ATOM     75  C   UNL A   1      44.055  28.786  27.321  1.00  0.00     0.135 A 
ATOM     76  C   UNL A   1      45.274  27.468  28.898  1.00  0.00     0.135 A 
ATOM     77  F   UNL A   1      43.283  29.840  27.003  1.00  0.00    -0.206 F 
ATOM     78  C   UNL A   1      44.461  27.962  26.271  1.00  0.00     0.059 A 
ATOM     79  C   UNL A   1      45.674  26.606  27.857  1.00  0.00     0.059 A 
ATOM     80  F   UNL A   1      45.727  27.204  30.132  1.00  0.00    -0.206 F 
ATOM     81  C   UNL A   1      45.296  26.885  26.541  1.00  0.00     0.060 A 
BRANCH  81  82
ATOM     82  S   UNL A   1      46.024  25.994  25.135  1.00  0.00     0.124 S 
ATOM     83  O   UNL A   1      46.386  27.085  24.238  1.00  0.00    -0.237 OA
ATOM     84  O   UNL A   1      47.141  25.298  25.768  1.00  0.00    -0.237 OA
ATOM     85  O   UNL A   1      44.928  25.140  24.683  1.00  0.00    -0.744 OA
ENDBRANCH  81  82
ENDBRANCH  49  74
BRANCH  61  86
ATOM     86  C   UNL A   1      42.668  35.670  29.017  1.00  0.00     0.058 A 
ATOM     87  C   UNL A   1      42.067  36.187  27.859  1.00  0.00     0.135 A 
ATOM     88  C   UNL A   1      43.362  36.606  29.822  1.00  0.00     0.135 A 
ATOM     89  F   UNL A   1      41.257  35.443  27.093  1.00  0.00    -0.206 F 
ATOM     90  C   UNL A   1      42.243  37.505  27.459  1.00  0.00     0.059 A 
ATOM     91  C   UNL A   1      43.475  37.948  29.486  1.00  0.00     0.059 A 
ATOM     92  F   UNL A   1      43.943  36.257  30.980  1.00  0.00    -0.206 F 
ATOM     93  C   UNL A   1      42.955  38.376  28.276  1.00  0.00     0.060 A 
BRANCH  93  94
ATOM     94  S   UNL A   1      43.183  40.076  27.755  1.00  0.00     0.124 S 
ATOM     95  O   UNL A   1      44.629  40.221  27.892  1.00  0.00    -0.237 OA
ATOM     96  O   UNL A   1      42.676  40.063  26.385  1.00  0.00    -0.237 OA
ATOM     97  O   UNL A   1      42.377  40.831  28.708  1.00  0.00    -0.744 OA
ENDBRANCH  93  94
ENDBRANCH  61  86
ENDBRANCH  35  36
ENDBRANCH  28  30
ENDBRANCH  27  28
ENDBRANCH  26  27
ENDBRANCH   1  26
TORSDOF 17
ENDMDL
MODEL 3
REMARK VINA RESULT:     -12.8      4.725     11.152
REMARK SMILES Cc1cc(NC(=O)c2ccc(Br)cc2N)ccc1C(=O)OCCOC(=O)c1ccc(-c2c3nc(c(-c4c(F)cc(S(=O)(=O)[O-])cc4F)c4ccc([nH]4)c(-c4c(F)cc(S(=O)(=O)[O-])cc4F)c4nc(c(-c5c(F)cc(S(=O)(=O)[O-])cc5F)c5ccc2[nH]5)C=C4)C=C3)cc1
REMARK SMILES IDX 22 1 21 2 19 3 20 4 18 5 1 6 2 7 3 8 4 9 17 10 16 11 5 12
REMARK SMILES IDX 6 13 7 15 8 16 9 17 14 18 10 19 13 20 11 21 12 22 15 23
REMARK SMILES IDX 23 26 24 27 25 28 26 29 27 30 28 31 92 32 29 33 91 34 30 35
REMARK SMILES IDX 31 36 32 37 85 38 33 39 90 40 84 41 86 42 34 43 89 44 83 45
REMARK SMILES IDX 82 46 35 48 69 49 48 50 68 51 49 52 52 53 67 54 87 55 50 56
REMARK SMILES IDX 51 57 66 59 88 60 53 61 36 62 37 63 46 64 38 65 39 66 45 67
REMARK SMILES IDX 47 68 40 69 41 70 42 71 43 72 44 73 70 74 71 75 80 76 72 77
REMARK SMILES IDX 73 78 79 79 81 80 74 81 75 82 76 83 77 84 78 85 54 86 55 87
REMARK SMILES IDX 64 88 56 89 57 90 63 91 65 92 58 93 59 94 60 95 61 96 62 97
REMARK H PARENT 5 14 15 24 15 25 86 47 52 58
REMARK Flexibility Score: inf
ROOT
ATOM      1  C   UNL A   1      37.815  21.809  25.716  1.00  0.00     0.275 C 
ENDROOT
BRANCH   1   2
ATOM      2  O   UNL A   1      37.520  21.627  24.322  1.00  0.00    -0.458 OA
BRANCH   2   3
ATOM      3  C   UNL A   1      36.368  22.233  23.943  1.00  0.00     0.338 C 
ATOM      4  O   UNL A   1      36.229  22.968  22.989  1.00  0.00    -0.246 OA
BRANCH   3   5
ATOM      5  C   UNL A   1      35.288  22.115  24.930  1.00  0.00     0.063 A 
ATOM      6  C   UNL A   1      35.688  24.571  25.527  1.00  0.00     0.045 C 
ATOM      7  C   UNL A   1      34.916  23.285  25.603  1.00  0.00    -0.035 A 
ATOM      8  C   UNL A   1      33.720  23.284  26.321  1.00  0.00     0.030 A 
ATOM      9  C   UNL A   1      32.835  22.207  26.260  1.00  0.00     0.041 A 
ATOM     10  C   UNL A   1      34.487  20.968  25.002  1.00  0.00     0.018 A 
ATOM     11  C   UNL A   1      33.251  21.018  25.659  1.00  0.00     0.027 A 
BRANCH   9  12
ATOM     12  N   UNL A   1      31.520  22.306  26.754  1.00  0.00    -0.322 N 
ATOM     13  C   UNL A   1      30.635  23.367  26.642  1.00  0.00     0.257 C 
ATOM     14  H   UNL A   1      31.185  21.519  27.241  1.00  0.00     0.170 HD
ATOM     15  O   UNL A   1      29.674  23.456  27.405  1.00  0.00    -0.269 OA
BRANCH  13  16
ATOM     16  C   UNL A   1      30.809  24.396  25.575  1.00  0.00     0.063 A 
ATOM     17  C   UNL A   1      30.659  23.957  24.246  1.00  0.00     0.017 A 
ATOM     18  C   UNL A   1      31.061  25.758  25.854  1.00  0.00     0.045 A 
ATOM     19  C   UNL A   1      30.726  24.870  23.193  1.00  0.00     0.016 A 
ATOM     20  C   UNL A   1      31.162  26.650  24.776  1.00  0.00     0.042 A 
ATOM     21  C   UNL A   1      30.974  26.213  23.464  1.00  0.00     0.020 A 
ATOM     22  Br  UNL A   1      31.061  27.455  22.041  1.00  0.00    -0.051 Br
BRANCH  18  23
ATOM     23  N   UNL A   1      31.343  26.239  27.131  1.00  0.00    -0.398 N 
ATOM     24  H   UNL A   1      32.170  26.748  27.294  1.00  0.00     0.156 HD
ATOM     25  H   UNL A   1      30.715  26.071  27.870  1.00  0.00     0.156 HD
ENDBRANCH  18  23
ENDBRANCH  13  16
ENDBRANCH   9  12
ENDBRANCH   3   5
ENDBRANCH   2   3
ENDBRANCH   1   2
BRANCH   1  26
ATOM     26  C   UNL A   1      39.063  22.678  25.947  1.00  0.00     0.275 C 
BRANCH  26  27
ATOM     27  O   UNL A   1      38.969  23.870  26.763  1.00  0.00    -0.458 OA
BRANCH  27  28
ATOM     28  C   UNL A   1      40.117  24.531  27.068  1.00  0.00     0.338 C 
ATOM     29  O   UNL A   1      41.222  24.195  26.659  1.00  0.00    -0.246 OA
BRANCH  28  30
ATOM     30  C   UNL A   1      39.775  25.853  27.654  1.00  0.00     0.060 A 
ATOM     31  C   UNL A   1      39.268  25.928  28.962  1.00  0.00     0.016 A 
ATOM     32  C   UNL A   1      40.305  26.986  27.032  1.00  0.00     0.016 A 
ATOM     33  C   UNL A   1      39.415  27.096  29.699  1.00  0.00     0.010 A 
ATOM     34  C   UNL A   1      40.619  28.067  27.804  1.00  0.00     0.010 A 
ATOM     35  C   UNL A   1      40.136  28.135  29.119  1.00  0.00    -0.014 A 
BRANCH  35  36
ATOM     36  C   UNL A   1      40.148  29.490  29.632  1.00  0.00     0.031 A 
ATOM     37  C   UNL A   1      39.023  30.409  29.390  1.00  0.00     0.074 A 
ATOM     38  C   UNL A   1      41.217  29.638  30.449  1.00  0.00     0.049 A 
ATOM     39  N   UNL A   1      39.116  31.690  29.409  1.00  0.00    -0.248 NA
ATOM     40  C   UNL A   1      37.675  29.972  29.029  1.00  0.00     0.031 C 
ATOM     41  C   UNL A   1      41.580  30.623  31.442  1.00  0.00     0.029 A 
ATOM     42  N   UNL A   1      42.355  28.813  30.381  1.00  0.00    -0.354 N 
ATOM     43  C   UNL A   1      37.826  32.197  29.464  1.00  0.00     0.074 A 
ATOM     44  C   UNL A   1      36.990  31.121  29.012  1.00  0.00     0.031 C 
ATOM     45  C   UNL A   1      42.919  30.558  31.628  1.00  0.00     0.029 A 
ATOM     46  C   UNL A   1      43.460  29.594  30.666  1.00  0.00     0.049 A 
ATOM     47  H   UNL A   1      42.363  27.851  30.169  1.00  0.00     0.167 HD
ATOM     48  C   UNL A   1      37.623  33.382  30.115  1.00  0.00     0.037 A 
ATOM     49  C   UNL A   1      44.276  29.876  29.605  1.00  0.00     0.037 A 
ATOM     50  C   UNL A   1      38.923  33.859  30.589  1.00  0.00     0.049 A 
ATOM     51  C   UNL A   1      44.111  31.335  29.258  1.00  0.00     0.074 A 
ATOM     52  C   UNL A   1      39.564  33.682  31.805  1.00  0.00     0.029 A 
ATOM     53  N   UNL A   1      39.900  34.207  29.667  1.00  0.00    -0.354 N 
ATOM     54  N   UNL A   1      42.980  31.993  29.308  1.00  0.00    -0.248 NA
ATOM     55  C   UNL A   1      45.269  32.191  29.038  1.00  0.00     0.031 C 
ATOM     56  C   UNL A   1      40.959  33.814  31.572  1.00  0.00     0.029 A 
ATOM     57  C   UNL A   1      41.158  34.051  30.220  1.00  0.00     0.049 A 
ATOM     58  H   UNL A   1      39.723  34.521  28.750  1.00  0.00     0.167 HD
ATOM     59  C   UNL A   1      43.255  33.336  29.247  1.00  0.00     0.074 A 
ATOM     60  C   UNL A   1      44.696  33.403  29.053  1.00  0.00     0.031 C 
ATOM     61  C   UNL A   1      42.343  34.338  29.433  1.00  0.00     0.037 A 
BRANCH  48  62
ATOM     62  C   UNL A   1      36.309  33.955  30.636  1.00  0.00     0.058 A 
ATOM     63  C   UNL A   1      35.309  34.357  29.714  1.00  0.00     0.135 A 
ATOM     64  C   UNL A   1      35.963  34.171  31.986  1.00  0.00     0.135 A 
ATOM     65  F   UNL A   1      35.450  34.161  28.396  1.00  0.00    -0.206 F 
ATOM     66  C   UNL A   1      34.117  34.981  30.088  1.00  0.00     0.059 A 
ATOM     67  C   UNL A   1      34.776  34.809  32.386  1.00  0.00     0.059 A 
ATOM     68  F   UNL A   1      36.736  33.746  32.990  1.00  0.00    -0.206 F 
ATOM     69  C   UNL A   1      33.861  35.221  31.428  1.00  0.00     0.060 A 
BRANCH  69  70
ATOM     70  S   UNL A   1      32.317  36.037  31.880  1.00  0.00     0.124 S 
ATOM     71  O   UNL A   1      31.602  34.973  32.577  1.00  0.00    -0.237 OA
ATOM     72  O   UNL A   1      32.784  37.139  32.715  1.00  0.00    -0.237 OA
ATOM     73  O   UNL A   1      31.748  36.428  30.594  1.00  0.00    -0.744 OA
ENDBRANCH  69  70
ENDBRANCH  48  62
BRANCH  49  74
ATOM     74  C   UNL A   1      44.484  28.720  28.653  1.00  0.00     0.058 A 
ATOM     75  C   UNL A   1      44.051  28.879  27.312  1.00  0.00     0.135 A 
ATOM     76  C   UNL A   1      45.286  27.596  28.903  1.00  0.00     0.135 A 
ATOM     77  F   UNL A   1      43.257  29.914  26.985  1.00  0.00    -0.206 F 
ATOM     78  C   UNL A   1      44.485  28.063  26.268  1.00  0.00     0.059 A 
ATOM     79  C   UNL A   1      45.716  26.740  27.869  1.00  0.00     0.059 A 
ATOM     80  F   UNL A   1      45.735  27.346  30.142  1.00  0.00    -0.206 F 
ATOM     81  C   UNL A   1      45.342  27.006  26.548  1.00  0.00     0.060 A 
BRANCH  81  82
ATOM     82  S   UNL A   1      46.103  26.129  25.152  1.00  0.00     0.124 S 
ATOM     83  O   UNL A   1      47.261  25.505  25.780  1.00  0.00    -0.237 OA
ATOM     84  O   UNL A   1      45.034  25.218  24.751  1.00  0.00    -0.237 OA
ATOM     85  O   UNL A   1      46.398  27.204  24.208  1.00  0.00    -0.744 OA
ENDBRANCH  81  82
ENDBRANCH  49  74
BRANCH  61  86
ATOM     86  C   UNL A   1      42.556  35.753  28.966  1.00  0.00     0.058 A 
ATOM     87  C   UNL A   1      43.331  36.680  29.680  1.00  0.00     0.135 A 
ATOM     88  C   UNL A   1      42.124  36.170  27.682  1.00  0.00     0.135 A 
ATOM     89  F   UNL A   1      43.927  36.357  30.837  1.00  0.00    -0.206 F 
ATOM     90  C   UNL A   1      43.557  37.969  29.217  1.00  0.00     0.059 A 
ATOM     91  C   UNL A   1      42.414  37.424  27.163  1.00  0.00     0.059 A 
ATOM     92  F   UNL A   1      41.416  35.367  26.873  1.00  0.00    -0.206 F 
ATOM     93  C   UNL A   1      43.088  38.334  27.961  1.00  0.00     0.060 A 
BRANCH  93  94
ATOM     94  S   UNL A   1      43.380  40.001  27.367  1.00  0.00     0.124 S 
ATOM     95  O   UNL A   1      44.816  39.961  27.109  1.00  0.00    -0.237 OA
ATOM     96  O   UNL A   1      42.527  40.073  26.183  1.00  0.00    -0.237 OA
ATOM     97  O   UNL A   1      42.959  40.836  28.487  1.00  0.00    -0.744 OA
ENDBRANCH  93  94
ENDBRANCH  61  86
ENDBRANCH  35  36
ENDBRANCH  28  30
ENDBRANCH  27  28
ENDBRANCH  26  27
ENDBRANCH   1  26
TORSDOF 17
ENDMDL
