MODEL 1
REMARK VINA RESULT:     -11.4      0.000      0.000
REMARK SMILES Cn1cc(C[C@H](C(=O)OCCOC(=O)c2ccc(-c3c4nc(c(-c5c(F)cc(S(=O)(=O)[O-])cc5F)c5ccc([nH]5)c(-c5c(F)cc(S(=O)(=O)[O-])cc5F)c5nc(c(-c6c(F)cc(S(=O)(=O)[O-])cc6F)c6ccc3[nH]6)C=C5)C=C4)cc2)c2ccc(F)cc2)cn1
REMARK SMILES IDX 11 1 10 2 9 3 7 4 8 5 6 6 5 7 4 8 1 9 2 10 3 11 89 12 88 13
REMARK SMILES IDX 81 14 82 15 87 16 83 17 86 18 84 19 85 20 12 21 13 22 14 23
REMARK SMILES IDX 15 24 16 25 80 26 17 27 79 28 18 29 19 30 20 31 73 32 21 33
REMARK SMILES IDX 78 34 72 35 74 36 22 37 77 38 71 39 70 40 23 42 57 43 36 44
REMARK SMILES IDX 56 45 37 46 40 47 55 48 75 49 38 50 39 51 54 53 76 54 41 55
REMARK SMILES IDX 24 56 25 57 34 58 26 59 27 60 33 61 35 62 28 63 29 64 30 65
REMARK SMILES IDX 31 66 32 67 58 68 59 69 68 70 60 71 61 72 67 73 69 74 62 75
REMARK SMILES IDX 63 76 64 77 65 78 66 79 42 80 43 81 52 82 44 83 45 84 51 85
REMARK SMILES IDX 53 86 46 87 47 88 48 89 49 90 50 91
REMARK H PARENT 74 41 40 52
REMARK Flexibility Score: inf
ROOT
ATOM      1  C   UNL A   1      33.913  31.270  27.728  1.00  0.00     0.275 C 
ENDROOT
BRANCH   1   2
ATOM      2  C   UNL A   1      32.743  30.434  27.224  1.00  0.00     0.274 C 
BRANCH   2   3
ATOM      3  O   UNL A   1      33.116  29.040  27.218  1.00  0.00    -0.462 OA
BRANCH   3   4
ATOM      4  C   UNL A   1      32.106  28.133  27.151  1.00  0.00     0.313 C 
ATOM      5  O   UNL A   1      31.229  28.015  28.003  1.00  0.00    -0.252 OA
BRANCH   4   6
ATOM      6  C   UNL A   1      32.128  27.281  25.878  1.00  0.00     0.134 C 
BRANCH   6   7
ATOM      7  C   UNL A   1      32.148  25.815  26.345  1.00  0.00     0.059 C 
BRANCH   7   8
ATOM      8  C   UNL A   1      33.286  24.954  25.900  1.00  0.00    -0.009 A 
ATOM      9  C   UNL A   1      35.487  22.103  26.110  1.00  0.00     0.173 C 
ATOM     10  N   UNL A   1      34.740  23.303  25.813  1.00  0.00    -0.276 N 
ATOM     11  C   UNL A   1      33.545  23.675  26.354  1.00  0.00     0.112 A 
ATOM     12  N   UNL A   1      35.250  24.226  24.975  1.00  0.00    -0.182 NA
ATOM     13  C   UNL A   1      34.369  25.228  25.036  1.00  0.00     0.138 A 
ENDBRANCH   7   8
ENDBRANCH   6   7
BRANCH   6  14
ATOM     14  C   UNL A   1      31.070  27.684  24.850  1.00  0.00    -0.033 A 
ATOM     15  C   UNL A   1      31.111  28.993  24.323  1.00  0.00     0.007 A 
ATOM     16  C   UNL A   1      30.060  26.820  24.398  1.00  0.00     0.007 A 
ATOM     17  C   UNL A   1      30.158  29.429  23.403  1.00  0.00     0.039 A 
ATOM     18  C   UNL A   1      29.110  27.258  23.468  1.00  0.00     0.039 A 
ATOM     19  C   UNL A   1      29.164  28.558  22.985  1.00  0.00     0.123 A 
ATOM     20  F   UNL A   1      28.248  28.977  22.102  1.00  0.00    -0.207 F 
ENDBRANCH   6  14
ENDBRANCH   4   6
ENDBRANCH   3   4
ENDBRANCH   2   3
ENDBRANCH   1   2
BRANCH   1  21
ATOM     21  O   UNL A   1      35.013  30.385  27.998  1.00  0.00    -0.458 OA
BRANCH  21  22
ATOM     22  C   UNL A   1      35.814  30.738  29.030  1.00  0.00     0.338 C 
ATOM     23  O   UNL A   1      35.543  31.476  29.960  1.00  0.00    -0.246 OA
BRANCH  22  24
ATOM     24  C   UNL A   1      37.114  30.059  28.887  1.00  0.00     0.060 A 
ATOM     25  C   UNL A   1      37.789  29.594  30.015  1.00  0.00     0.016 A 
ATOM     26  C   UNL A   1      37.718  29.987  27.634  1.00  0.00     0.016 A 
ATOM     27  C   UNL A   1      39.112  29.165  29.909  1.00  0.00     0.010 A 
ATOM     28  C   UNL A   1      39.001  29.445  27.516  1.00  0.00     0.010 A 
ATOM     29  C   UNL A   1      39.737  29.070  28.655  1.00  0.00    -0.014 A 
BRANCH  29  30
ATOM     30  C   UNL A   1      41.156  28.624  28.522  1.00  0.00     0.031 A 
ATOM     31  C   UNL A   1      42.282  29.612  28.716  1.00  0.00     0.074 A 
ATOM     32  C   UNL A   1      41.460  27.346  28.215  1.00  0.00     0.049 A 
ATOM     33  N   UNL A   1      43.548  29.496  28.407  1.00  0.00    -0.248 NA
ATOM     34  C   UNL A   1      41.931  30.910  29.314  1.00  0.00     0.031 C 
ATOM     35  C   UNL A   1      40.494  26.261  28.028  1.00  0.00     0.029 A 
ATOM     36  N   UNL A   1      42.676  26.741  28.006  1.00  0.00    -0.354 N 
ATOM     37  C   UNL A   1      44.126  30.730  28.691  1.00  0.00     0.074 A 
ATOM     38  C   UNL A   1      43.074  31.574  29.215  1.00  0.00     0.031 C 
ATOM     39  C   UNL A   1      41.153  25.121  27.779  1.00  0.00     0.029 A 
ATOM     40  C   UNL A   1      42.581  25.405  27.692  1.00  0.00     0.049 A 
ATOM     41  H   UNL A   1      43.534  27.218  28.074  1.00  0.00     0.167 HD
ATOM     42  C   UNL A   1      45.412  31.125  28.523  1.00  0.00     0.037 A 
ATOM     43  C   UNL A   1      43.523  24.513  27.329  1.00  0.00     0.037 A 
ATOM     44  C   UNL A   1      46.475  30.262  28.079  1.00  0.00     0.049 A 
ATOM     45  C   UNL A   1      44.948  24.959  27.181  1.00  0.00     0.074 A 
ATOM     46  C   UNL A   1      47.813  30.567  27.892  1.00  0.00     0.029 A 
ATOM     47  N   UNL A   1      46.329  28.916  27.779  1.00  0.00    -0.354 N 
ATOM     48  N   UNL A   1      45.459  26.152  27.366  1.00  0.00    -0.248 NA
ATOM     49  C   UNL A   1      45.920  23.946  26.748  1.00  0.00     0.031 C 
ATOM     50  C   UNL A   1      48.473  29.408  27.468  1.00  0.00     0.029 A 
ATOM     51  C   UNL A   1      47.551  28.375  27.416  1.00  0.00     0.049 A 
ATOM     52  H   UNL A   1      45.480  28.418  27.820  1.00  0.00     0.167 HD
ATOM     53  C   UNL A   1      46.810  26.037  27.061  1.00  0.00     0.074 A 
ATOM     54  C   UNL A   1      47.043  24.651  26.708  1.00  0.00     0.031 C 
ATOM     55  C   UNL A   1      47.767  26.996  27.062  1.00  0.00     0.037 A 
BRANCH  42  56
ATOM     56  C   UNL A   1      45.733  32.569  28.788  1.00  0.00     0.058 A 
ATOM     57  C   UNL A   1      45.633  33.551  27.792  1.00  0.00     0.135 A 
ATOM     58  C   UNL A   1      46.130  32.977  30.074  1.00  0.00     0.135 A 
ATOM     59  F   UNL A   1      45.276  33.211  26.543  1.00  0.00    -0.206 F 
ATOM     60  C   UNL A   1      45.946  34.882  28.050  1.00  0.00     0.059 A 
ATOM     61  C   UNL A   1      46.425  34.306  30.360  1.00  0.00     0.059 A 
ATOM     62  F   UNL A   1      46.239  32.077  31.064  1.00  0.00    -0.206 F 
ATOM     63  C   UNL A   1      46.347  35.249  29.336  1.00  0.00     0.060 A 
BRANCH  63  64
ATOM     64  S   UNL A   1      46.762  36.976  29.662  1.00  0.00     0.124 S 
ATOM     65  O   UNL A   1      47.716  37.250  28.592  1.00  0.00    -0.237 OA
ATOM     66  O   UNL A   1      45.469  37.642  29.543  1.00  0.00    -0.237 OA
ATOM     67  O   UNL A   1      47.321  36.940  31.010  1.00  0.00    -0.744 OA
ENDBRANCH  63  64
ENDBRANCH  42  56
BRANCH  43  68
ATOM     68  C   UNL A   1      43.127  23.110  27.042  1.00  0.00     0.058 A 
ATOM     69  C   UNL A   1      43.069  22.636  25.724  1.00  0.00     0.135 A 
ATOM     70  C   UNL A   1      42.857  22.205  28.080  1.00  0.00     0.135 A 
ATOM     71  F   UNL A   1      43.306  23.470  24.699  1.00  0.00    -0.206 F 
ATOM     72  C   UNL A   1      42.770  21.307  25.443  1.00  0.00     0.059 A 
ATOM     73  C   UNL A   1      42.578  20.867  27.824  1.00  0.00     0.059 A 
ATOM     74  F   UNL A   1      42.913  22.612  29.357  1.00  0.00    -0.206 F 
ATOM     75  C   UNL A   1      42.535  20.428  26.501  1.00  0.00     0.060 A 
BRANCH  75  76
ATOM     76  S   UNL A   1      42.253  18.680  26.142  1.00  0.00     0.124 S 
ATOM     77  O   UNL A   1      42.583  18.062  27.421  1.00  0.00    -0.237 OA
ATOM     78  O   UNL A   1      40.841  18.661  25.769  1.00  0.00    -0.237 OA
ATOM     79  O   UNL A   1      43.182  18.414  25.048  1.00  0.00    -0.744 OA
ENDBRANCH  75  76
ENDBRANCH  43  68
BRANCH  55  80
ATOM     80  C   UNL A   1      49.155  26.577  26.679  1.00  0.00     0.058 A 
ATOM     81  C   UNL A   1      49.617  26.702  25.359  1.00  0.00     0.135 A 
ATOM     82  C   UNL A   1      50.042  26.072  27.643  1.00  0.00     0.135 A 
ATOM     83  F   UNL A   1      48.803  27.172  24.401  1.00  0.00    -0.206 F 
ATOM     84  C   UNL A   1      50.907  26.324  25.004  1.00  0.00     0.059 A 
ATOM     85  C   UNL A   1      51.342  25.703  27.313  1.00  0.00     0.059 A 
ATOM     86  F   UNL A   1      49.647  25.939  28.919  1.00  0.00    -0.206 F 
ATOM     87  C   UNL A   1      51.761  25.821  25.988  1.00  0.00     0.060 A 
BRANCH  87  88
ATOM     88  S   UNL A   1      53.442  25.351  25.525  1.00  0.00     0.124 S 
ATOM     89  O   UNL A   1      54.206  25.828  26.674  1.00  0.00    -0.237 OA
ATOM     90  O   UNL A   1      53.341  23.900  25.390  1.00  0.00    -0.237 OA
ATOM     91  O   UNL A   1      53.663  26.074  24.277  1.00  0.00    -0.744 OA
ENDBRANCH  87  88
ENDBRANCH  55  80
ENDBRANCH  29  30
ENDBRANCH  22  24
ENDBRANCH  21  22
ENDBRANCH   1  21
TORSDOF 17
ENDMDL
MODEL 2
REMARK VINA RESULT:     -11.4      1.716      3.010
REMARK SMILES Cn1cc(C[C@H](C(=O)OCCOC(=O)c2ccc(-c3c4nc(c(-c5c(F)cc(S(=O)(=O)[O-])cc5F)c5ccc([nH]5)c(-c5c(F)cc(S(=O)(=O)[O-])cc5F)c5nc(c(-c6c(F)cc(S(=O)(=O)[O-])cc6F)c6ccc3[nH]6)C=C5)C=C4)cc2)c2ccc(F)cc2)cn1
REMARK SMILES IDX 11 1 10 2 9 3 7 4 8 5 6 6 5 7 4 8 1 9 2 10 3 11 89 12 88 13
REMARK SMILES IDX 81 14 82 15 87 16 83 17 86 18 84 19 85 20 12 21 13 22 14 23
REMARK SMILES IDX 15 24 16 25 80 26 17 27 79 28 18 29 19 30 20 31 73 32 21 33
REMARK SMILES IDX 78 34 72 35 74 36 22 37 77 38 71 39 70 40 23 42 57 43 36 44
REMARK SMILES IDX 56 45 37 46 40 47 55 48 75 49 38 50 39 51 54 53 76 54 41 55
REMARK SMILES IDX 24 56 25 57 34 58 26 59 27 60 33 61 35 62 28 63 29 64 30 65
REMARK SMILES IDX 31 66 32 67 58 68 59 69 68 70 60 71 61 72 67 73 69 74 62 75
REMARK SMILES IDX 63 76 64 77 65 78 66 79 42 80 43 81 52 82 44 83 45 84 51 85
REMARK SMILES IDX 53 86 46 87 47 88 48 89 49 90 50 91
REMARK H PARENT 74 41 40 52
REMARK Flexibility Score: inf
ROOT
ATOM      1  C   UNL A   1      34.052  31.079  27.612  1.00  0.00     0.275 C 
ENDROOT
BRANCH   1   2
ATOM      2  C   UNL A   1      32.762  30.295  27.407  1.00  0.00     0.274 C 
BRANCH   2   3
ATOM      3  O   UNL A   1      33.074  28.904  27.180  1.00  0.00    -0.462 OA
BRANCH   3   4
ATOM      4  C   UNL A   1      32.026  28.044  27.095  1.00  0.00     0.313 C 
ATOM      5  O   UNL A   1      31.166  27.918  27.962  1.00  0.00    -0.252 OA
BRANCH   4   6
ATOM      6  C   UNL A   1      31.982  27.257  25.781  1.00  0.00     0.134 C 
BRANCH   6   7
ATOM      7  C   UNL A   1      32.302  28.266  24.666  1.00  0.00     0.059 C 
BRANCH   7   8
ATOM      8  C   UNL A   1      31.185  28.704  23.775  1.00  0.00    -0.009 A 
ATOM      9  C   UNL A   1      28.234  30.609  22.949  1.00  0.00     0.173 C 
ATOM     10  N   UNL A   1      29.396  29.755  23.038  1.00  0.00    -0.276 N 
ATOM     11  C   UNL A   1      30.362  29.792  23.999  1.00  0.00     0.112 A 
ATOM     12  N   UNL A   1      29.569  28.756  22.153  1.00  0.00    -0.182 NA
ATOM     13  C   UNL A   1      30.650  28.117  22.607  1.00  0.00     0.138 A 
ENDBRANCH   7   8
ENDBRANCH   6   7
BRANCH   6  14
ATOM     14  C   UNL A   1      32.788  25.957  25.816  1.00  0.00    -0.033 A 
ATOM     15  C   UNL A   1      32.260  24.859  26.529  1.00  0.00     0.007 A 
ATOM     16  C   UNL A   1      34.025  25.795  25.171  1.00  0.00     0.007 A 
ATOM     17  C   UNL A   1      32.961  23.656  26.620  1.00  0.00     0.039 A 
ATOM     18  C   UNL A   1      34.721  24.584  25.257  1.00  0.00     0.039 A 
ATOM     19  C   UNL A   1      34.186  23.530  25.985  1.00  0.00     0.123 A 
ATOM     20  F   UNL A   1      34.858  22.375  26.072  1.00  0.00    -0.207 F 
ENDBRANCH   6  14
ENDBRANCH   4   6
ENDBRANCH   3   4
ENDBRANCH   2   3
ENDBRANCH   1   2
BRANCH   1  21
ATOM     21  O   UNL A   1      35.045  30.178  28.131  1.00  0.00    -0.458 OA
BRANCH  21  22
ATOM     22  C   UNL A   1      35.931  30.716  29.001  1.00  0.00     0.338 C 
ATOM     23  O   UNL A   1      35.729  31.602  29.813  1.00  0.00    -0.246 OA
BRANCH  22  24
ATOM     24  C   UNL A   1      37.231  30.038  28.849  1.00  0.00     0.060 A 
ATOM     25  C   UNL A   1      37.937  29.616  29.975  1.00  0.00     0.016 A 
ATOM     26  C   UNL A   1      37.803  29.925  27.584  1.00  0.00     0.016 A 
ATOM     27  C   UNL A   1      39.260  29.191  29.850  1.00  0.00     0.010 A 
ATOM     28  C   UNL A   1      39.085  29.385  27.452  1.00  0.00     0.010 A 
ATOM     29  C   UNL A   1      39.852  29.055  28.584  1.00  0.00    -0.014 A 
BRANCH  29  30
ATOM     30  C   UNL A   1      41.271  28.611  28.430  1.00  0.00     0.031 A 
ATOM     31  C   UNL A   1      42.397  29.604  28.595  1.00  0.00     0.074 A 
ATOM     32  C   UNL A   1      41.572  27.330  28.131  1.00  0.00     0.049 A 
ATOM     33  N   UNL A   1      43.658  29.488  28.264  1.00  0.00    -0.248 NA
ATOM     34  C   UNL A   1      42.053  30.906  29.186  1.00  0.00     0.031 C 
ATOM     35  C   UNL A   1      40.606  26.242  27.971  1.00  0.00     0.029 A 
ATOM     36  N   UNL A   1      42.786  26.726  27.906  1.00  0.00    -0.354 N 
ATOM     37  C   UNL A   1      44.237  30.726  28.526  1.00  0.00     0.074 A 
ATOM     38  C   UNL A   1      43.192  31.572  29.060  1.00  0.00     0.031 C 
ATOM     39  C   UNL A   1      41.264  25.100  27.722  1.00  0.00     0.029 A 
ATOM     40  C   UNL A   1      42.689  25.387  27.607  1.00  0.00     0.049 A 
ATOM     41  H   UNL A   1      43.644  27.206  27.954  1.00  0.00     0.167 HD
ATOM     42  C   UNL A   1      45.518  31.122  28.332  1.00  0.00     0.037 A 
ATOM     43  C   UNL A   1      43.627  24.495  27.236  1.00  0.00     0.037 A 
ATOM     44  C   UNL A   1      46.576  30.258  27.877  1.00  0.00     0.049 A 
ATOM     45  C   UNL A   1      45.048  24.942  27.058  1.00  0.00     0.074 A 
ATOM     46  C   UNL A   1      47.909  30.565  27.664  1.00  0.00     0.029 A 
ATOM     47  N   UNL A   1      46.429  28.909  27.593  1.00  0.00    -0.354 N 
ATOM     48  N   UNL A   1      45.559  26.139  27.222  1.00  0.00    -0.248 NA
ATOM     49  C   UNL A   1      46.015  23.928  26.618  1.00  0.00     0.031 C 
ATOM     50  C   UNL A   1      48.565  29.403  27.239  1.00  0.00     0.029 A 
ATOM     51  C   UNL A   1      47.646  28.368  27.214  1.00  0.00     0.049 A 
ATOM     52  H   UNL A   1      45.582  28.409  27.654  1.00  0.00     0.167 HD
ATOM     53  C   UNL A   1      46.905  26.024  26.895  1.00  0.00     0.074 A 
ATOM     54  C   UNL A   1      47.135  24.635  26.551  1.00  0.00     0.031 C 
ATOM     55  C   UNL A   1      47.859  26.986  26.870  1.00  0.00     0.037 A 
BRANCH  42  56
ATOM     56  C   UNL A   1      45.841  32.570  28.577  1.00  0.00     0.058 A 
ATOM     57  C   UNL A   1      45.713  33.543  27.575  1.00  0.00     0.135 A 
ATOM     58  C   UNL A   1      46.267  32.990  29.849  1.00  0.00     0.135 A 
ATOM     59  F   UNL A   1      45.326  33.191  26.338  1.00  0.00    -0.206 F 
ATOM     60  C   UNL A   1      46.026  34.878  27.815  1.00  0.00     0.059 A 
ATOM     61  C   UNL A   1      46.564  34.323  30.117  1.00  0.00     0.059 A 
ATOM     62  F   UNL A   1      46.404  32.099  30.843  1.00  0.00    -0.206 F 
ATOM     63  C   UNL A   1      46.457  35.257  29.087  1.00  0.00     0.060 A 
BRANCH  63  64
ATOM     64  S   UNL A   1      46.873  36.988  29.389  1.00  0.00     0.124 S 
ATOM     65  O   UNL A   1      46.337  37.184  30.732  1.00  0.00    -0.237 OA
ATOM     66  O   UNL A   1      48.328  36.989  29.282  1.00  0.00    -0.237 OA
ATOM     67  O   UNL A   1      46.171  37.695  28.321  1.00  0.00    -0.744 OA
ENDBRANCH  63  64
ENDBRANCH  42  56
BRANCH  43  68
ATOM     68  C   UNL A   1      43.229  23.088  26.970  1.00  0.00     0.058 A 
ATOM     69  C   UNL A   1      43.150  22.600  25.658  1.00  0.00     0.135 A 
ATOM     70  C   UNL A   1      42.980  22.192  28.021  1.00  0.00     0.135 A 
ATOM     71  F   UNL A   1      43.368  23.424  24.621  1.00  0.00    -0.206 F 
ATOM     72  C   UNL A   1      42.850  21.268  25.396  1.00  0.00     0.059 A 
ATOM     73  C   UNL A   1      42.701  20.851  27.784  1.00  0.00     0.059 A 
ATOM     74  F   UNL A   1      43.057  22.612  29.293  1.00  0.00    -0.206 F 
ATOM     75  C   UNL A   1      42.635  20.399  26.467  1.00  0.00     0.060 A 
BRANCH  75  76
ATOM     76  S   UNL A   1      42.352  18.646  26.130  1.00  0.00     0.124 S 
ATOM     77  O   UNL A   1      42.698  18.043  27.411  1.00  0.00    -0.237 OA
ATOM     78  O   UNL A   1      40.936  18.622  25.774  1.00  0.00    -0.237 OA
ATOM     79  O   UNL A   1      43.269  18.370  25.028  1.00  0.00    -0.744 OA
ENDBRANCH  75  76
ENDBRANCH  43  68
BRANCH  55  80
ATOM     80  C   UNL A   1      49.241  26.566  26.466  1.00  0.00     0.058 A 
ATOM     81  C   UNL A   1      50.122  25.973  27.384  1.00  0.00     0.135 A 
ATOM     82  C   UNL A   1      49.680  26.730  25.143  1.00  0.00     0.135 A 
ATOM     83  F   UNL A   1      49.750  25.802  28.662  1.00  0.00    -0.206 F 
ATOM     84  C   UNL A   1      51.399  25.573  27.008  1.00  0.00     0.059 A 
ATOM     85  C   UNL A   1      50.948  26.322  24.741  1.00  0.00     0.059 A 
ATOM     86  F   UNL A   1      48.871  27.288  24.227  1.00  0.00    -0.206 F 
ATOM     87  C   UNL A   1      51.805  25.756  25.684  1.00  0.00     0.060 A 
BRANCH  87  88
ATOM     88  S   UNL A   1      53.458  25.216  25.197  1.00  0.00     0.124 S 
ATOM     89  O   UNL A   1      53.533  25.708  23.825  1.00  0.00    -0.237 OA
ATOM     90  O   UNL A   1      54.313  25.899  26.163  1.00  0.00    -0.237 OA
ATOM     91  O   UNL A   1      53.395  23.765  25.343  1.00  0.00    -0.744 OA
ENDBRANCH  87  88
ENDBRANCH  55  80
ENDBRANCH  29  30
ENDBRANCH  22  24
ENDBRANCH  21  22
ENDBRANCH   1  21
TORSDOF 17
ENDMDL
MODEL 3
REMARK VINA RESULT:     -11.3      6.723     12.124
REMARK SMILES Cn1cc(C[C@H](C(=O)OCCOC(=O)c2ccc(-c3c4nc(c(-c5c(F)cc(S(=O)(=O)[O-])cc5F)c5ccc([nH]5)c(-c5c(F)cc(S(=O)(=O)[O-])cc5F)c5nc(c(-c6c(F)cc(S(=O)(=O)[O-])cc6F)c6ccc3[nH]6)C=C5)C=C4)cc2)c2ccc(F)cc2)cn1
REMARK SMILES IDX 11 1 10 2 9 3 7 4 8 5 6 6 5 7 4 8 1 9 2 10 3 11 89 12 88 13
REMARK SMILES IDX 81 14 82 15 87 16 83 17 86 18 84 19 85 20 12 21 13 22 14 23
REMARK SMILES IDX 15 24 16 25 80 26 17 27 79 28 18 29 19 30 20 31 73 32 21 33
REMARK SMILES IDX 78 34 72 35 74 36 22 37 77 38 71 39 70 40 23 42 57 43 36 44
REMARK SMILES IDX 56 45 37 46 40 47 55 48 75 49 38 50 39 51 54 53 76 54 41 55
REMARK SMILES IDX 24 56 25 57 34 58 26 59 27 60 33 61 35 62 28 63 29 64 30 65
REMARK SMILES IDX 31 66 32 67 58 68 59 69 68 70 60 71 61 72 67 73 69 74 62 75
REMARK SMILES IDX 63 76 64 77 65 78 66 79 42 80 43 81 52 82 44 83 45 84 51 85
REMARK SMILES IDX 53 86 46 87 47 88 48 89 49 90 50 91
REMARK H PARENT 74 41 40 52
REMARK Flexibility Score: inf
ROOT
ATOM      1  C   UNL A   1      39.038  22.346  26.190  1.00  0.00     0.275 C 
ENDROOT
BRANCH   1   2
ATOM      2  C   UNL A   1      37.713  22.880  25.660  1.00  0.00     0.274 C 
BRANCH   2   3
ATOM      3  O   UNL A   1      37.385  22.211  24.424  1.00  0.00    -0.462 OA
BRANCH   3   4
ATOM      4  C   UNL A   1      36.446  22.799  23.637  1.00  0.00     0.313 C 
ATOM      5  O   UNL A   1      36.648  23.170  22.484  1.00  0.00    -0.252 OA
BRANCH   4   6
ATOM      6  C   UNL A   1      35.074  22.924  24.306  1.00  0.00     0.134 C 
BRANCH   6   7
ATOM      7  C   UNL A   1      34.432  24.198  23.731  1.00  0.00     0.059 C 
BRANCH   7   8
ATOM      8  C   UNL A   1      33.674  25.084  24.665  1.00  0.00    -0.009 A 
ATOM      9  C   UNL A   1      33.290  27.892  26.899  1.00  0.00     0.173 C 
ATOM     10  N   UNL A   1      33.192  26.726  26.052  1.00  0.00    -0.276 N 
ATOM     11  C   UNL A   1      34.097  26.320  25.116  1.00  0.00     0.112 A 
ATOM     12  N   UNL A   1      32.162  25.871  26.195  1.00  0.00    -0.182 NA
ATOM     13  C   UNL A   1      32.461  24.874  25.358  1.00  0.00     0.138 A 
ENDBRANCH   7   8
ENDBRANCH   6   7
BRANCH   6  14
ATOM     14  C   UNL A   1      34.251  21.635  24.268  1.00  0.00    -0.033 A 
ATOM     15  C   UNL A   1      33.074  21.613  23.489  1.00  0.00     0.007 A 
ATOM     16  C   UNL A   1      34.606  20.469  24.965  1.00  0.00     0.007 A 
ATOM     17  C   UNL A   1      32.266  20.477  23.437  1.00  0.00     0.039 A 
ATOM     18  C   UNL A   1      33.798  19.327  24.904  1.00  0.00     0.039 A 
ATOM     19  C   UNL A   1      32.635  19.345  24.147  1.00  0.00     0.123 A 
ATOM     20  F   UNL A   1      31.859  18.254  24.097  1.00  0.00    -0.207 F 
ENDBRANCH   6  14
ENDBRANCH   4   6
ENDBRANCH   3   4
ENDBRANCH   2   3
ENDBRANCH   1   2
BRANCH   1  21
ATOM     21  O   UNL A   1      39.458  23.188  27.277  1.00  0.00    -0.458 OA
BRANCH  21  22
ATOM     22  C   UNL A   1      40.550  23.951  27.044  1.00  0.00     0.338 C 
ATOM     23  O   UNL A   1      41.486  23.701  26.307  1.00  0.00    -0.246 OA
BRANCH  22  24
ATOM     24  C   UNL A   1      40.441  25.200  27.820  1.00  0.00     0.060 A 
ATOM     25  C   UNL A   1      41.467  26.142  27.777  1.00  0.00     0.016 A 
ATOM     26  C   UNL A   1      39.363  25.381  28.683  1.00  0.00     0.016 A 
ATOM     27  C   UNL A   1      41.477  27.206  28.680  1.00  0.00     0.010 A 
ATOM     28  C   UNL A   1      39.317  26.513  29.502  1.00  0.00     0.010 A 
ATOM     29  C   UNL A   1      40.395  27.417  29.549  1.00  0.00    -0.014 A 
BRANCH  29  30
ATOM     30  C   UNL A   1      40.390  28.544  30.530  1.00  0.00     0.031 A 
ATOM     31  C   UNL A   1      41.395  28.570  31.658  1.00  0.00     0.074 A 
ATOM     32  C   UNL A   1      39.490  29.544  30.440  1.00  0.00     0.049 A 
ATOM     33  N   UNL A   1      41.407  29.305  32.740  1.00  0.00    -0.248 NA
ATOM     34  C   UNL A   1      42.522  27.627  31.565  1.00  0.00     0.031 C 
ATOM     35  C   UNL A   1      38.474  29.686  29.395  1.00  0.00     0.029 A 
ATOM     36  N   UNL A   1      39.284  30.638  31.247  1.00  0.00    -0.354 N 
ATOM     37  C   UNL A   1      42.487  28.856  33.495  1.00  0.00     0.074 A 
ATOM     38  C   UNL A   1      43.116  27.797  32.738  1.00  0.00     0.031 C 
ATOM     39  C   UNL A   1      37.788  30.820  29.596  1.00  0.00     0.029 A 
ATOM     40  C   UNL A   1      38.244  31.439  30.835  1.00  0.00     0.049 A 
ATOM     41  H   UNL A   1      39.828  30.829  32.044  1.00  0.00     0.167 HD
ATOM     42  C   UNL A   1      42.908  29.283  34.711  1.00  0.00     0.037 A 
ATOM     43  C   UNL A   1      37.684  32.522  31.407  1.00  0.00     0.037 A 
ATOM     44  C   UNL A   1      42.332  30.390  35.429  1.00  0.00     0.049 A 
ATOM     45  C   UNL A   1      38.185  33.002  32.737  1.00  0.00     0.074 A 
ATOM     46  C   UNL A   1      42.700  30.905  36.660  1.00  0.00     0.029 A 
ATOM     47  N   UNL A   1      41.284  31.173  34.967  1.00  0.00    -0.354 N 
ATOM     48  N   UNL A   1      39.147  32.508  33.479  1.00  0.00    -0.248 NA
ATOM     49  C   UNL A   1      37.508  34.167  33.323  1.00  0.00     0.031 C 
ATOM     50  C   UNL A   1      41.866  31.993  36.948  1.00  0.00     0.029 A 
ATOM     51  C   UNL A   1      40.998  32.170  35.884  1.00  0.00     0.049 A 
ATOM     52  H   UNL A   1      40.814  31.039  34.112  1.00  0.00     0.167 HD
ATOM     53  C   UNL A   1      39.184  33.295  34.624  1.00  0.00     0.074 A 
ATOM     54  C   UNL A   1      38.167  34.315  34.464  1.00  0.00     0.031 C 
ATOM     55  C   UNL A   1      39.980  33.175  35.714  1.00  0.00     0.037 A 
BRANCH  42  56
ATOM     56  C   UNL A   1      44.029  28.522  35.362  1.00  0.00     0.058 A 
ATOM     57  C   UNL A   1      43.796  27.437  36.221  1.00  0.00     0.135 A 
ATOM     58  C   UNL A   1      45.364  28.876  35.101  1.00  0.00     0.135 A 
ATOM     59  F   UNL A   1      42.539  27.069  36.517  1.00  0.00    -0.206 F 
ATOM     60  C   UNL A   1      44.845  26.751  36.824  1.00  0.00     0.059 A 
ATOM     61  C   UNL A   1      46.429  28.189  35.675  1.00  0.00     0.059 A 
ATOM     62  F   UNL A   1      45.642  29.905  34.284  1.00  0.00    -0.206 F 
ATOM     63  C   UNL A   1      46.158  27.138  36.550  1.00  0.00     0.060 A 
BRANCH  63  64
ATOM     64  S   UNL A   1      47.515  26.250  37.345  1.00  0.00     0.124 S 
ATOM     65  O   UNL A   1      48.676  26.896  36.740  1.00  0.00    -0.237 OA
ATOM     66  O   UNL A   1      47.297  26.536  38.759  1.00  0.00    -0.237 OA
ATOM     67  O   UNL A   1      47.288  24.863  36.949  1.00  0.00    -0.744 OA
ENDBRANCH  63  64
ENDBRANCH  42  56
BRANCH  43  68
ATOM     68  C   UNL A   1      36.550  33.201  30.727  1.00  0.00     0.058 A 
ATOM     69  C   UNL A   1      35.240  33.062  31.205  1.00  0.00     0.135 A 
ATOM     70  C   UNL A   1      36.763  34.045  29.626  1.00  0.00     0.135 A 
ATOM     71  F   UNL A   1      34.987  32.256  32.247  1.00  0.00    -0.206 F 
ATOM     72  C   UNL A   1      34.179  33.748  30.623  1.00  0.00     0.059 A 
ATOM     73  C   UNL A   1      35.722  34.758  29.043  1.00  0.00     0.059 A 
ATOM     74  F   UNL A   1      38.003  34.217  29.143  1.00  0.00    -0.206 F 
ATOM     75  C   UNL A   1      34.432  34.601  29.548  1.00  0.00     0.060 A 
BRANCH  75  76
ATOM     76  S   UNL A   1      33.072  35.573  28.861  1.00  0.00     0.124 S 
ATOM     77  O   UNL A   1      33.794  36.613  28.136  1.00  0.00    -0.237 OA
ATOM     78  O   UNL A   1      32.370  34.592  28.040  1.00  0.00    -0.237 OA
ATOM     79  O   UNL A   1      32.349  36.013  30.050  1.00  0.00    -0.744 OA
ENDBRANCH  75  76
ENDBRANCH  43  68
BRANCH  55  80
ATOM     80  C   UNL A   1      39.789  34.177  36.814  1.00  0.00     0.058 A 
ATOM     81  C   UNL A   1      39.005  33.883  37.940  1.00  0.00     0.135 A 
ATOM     82  C   UNL A   1      40.418  35.430  36.756  1.00  0.00     0.135 A 
ATOM     83  F   UNL A   1      38.378  32.700  38.037  1.00  0.00    -0.206 F 
ATOM     84  C   UNL A   1      38.836  34.806  38.966  1.00  0.00     0.059 A 
ATOM     85  C   UNL A   1      40.275  36.363  37.779  1.00  0.00     0.059 A 
ATOM     86  F   UNL A   1      41.182  35.755  35.701  1.00  0.00    -0.206 F 
ATOM     87  C   UNL A   1      39.472  36.047  38.874  1.00  0.00     0.060 A 
BRANCH  87  88
ATOM     88  S   UNL A   1      39.265  37.234  40.218  1.00  0.00     0.124 S 
ATOM     89  O   UNL A   1      38.530  36.441  41.198  1.00  0.00    -0.237 OA
ATOM     90  O   UNL A   1      40.645  37.557  40.571  1.00  0.00    -0.237 OA
ATOM     91  O   UNL A   1      38.515  38.321  39.596  1.00  0.00    -0.744 OA
ENDBRANCH  87  88
ENDBRANCH  55  80
ENDBRANCH  29  30
ENDBRANCH  22  24
ENDBRANCH  21  22
ENDBRANCH   1  21
TORSDOF 17
ENDMDL
