MODEL 1
REMARK VINA RESULT:     -10.5      0.000      0.000
REMARK SMILES CC[NH2+][C@@]1(C(=O)OCCOC(=O)c2ccc(-c3c4nc(c(-c5c(F)cc(S(=O)(=O)[O-])cc5F)c5ccc([nH]5)c(-c5c(F)cc(S(=O)(=O)[O-])cc5F)c5nc(c(-c6c(F)cc(S(=O)(=O)[O-])cc6F)c6ccc3[nH]6)C=C5)C=C4)cc2)CCC[C@H]1CC[NH+]1CCCCC1
REMARK SMILES IDX 8 1 7 2 5 3 6 4 4 5 79 6 82 7 80 8 81 9 3 10 2 13 1 14 83 15
REMARK SMILES IDX 84 16 85 17 86 18 90 19 87 21 89 22 88 23 9 24 10 25 11 26
REMARK SMILES IDX 12 27 13 28 14 29 78 30 15 31 77 32 16 33 17 34 18 35 71 36
REMARK SMILES IDX 19 37 76 38 70 39 72 40 20 41 75 42 69 43 68 44 21 46 55 47
REMARK SMILES IDX 34 48 54 49 35 50 38 51 53 52 73 53 36 54 37 55 52 57 74 58
REMARK SMILES IDX 39 59 22 60 23 61 32 62 24 63 25 64 31 65 33 66 26 67 27 68
REMARK SMILES IDX 28 69 29 70 30 71 56 72 57 73 66 74 58 75 59 76 65 77 67 78
REMARK SMILES IDX 60 79 61 80 62 81 63 82 64 83 40 84 41 85 50 86 42 87 43 88
REMARK SMILES IDX 49 89 51 90 44 91 45 92 46 93 47 94 48 95
REMARK H PARENT 3 11 3 12 85 20 72 45 38 56
REMARK Flexibility Score: inf
ROOT
ATOM      1  C   UNL A   1      38.832  21.674  25.785  1.00  0.00     0.274 C 
ENDROOT
BRANCH   1   2
ATOM      2  O   UNL A   1      37.499  22.219  25.810  1.00  0.00    -0.457 OA
BRANCH   2   3
ATOM      3  C   UNL A   1      36.509  21.410  25.336  1.00  0.00     0.368 C 
ATOM      4  O   UNL A   1      36.682  20.228  25.054  1.00  0.00    -0.245 OA
BRANCH   3   5
ATOM      5  C   UNL A   1      35.150  22.173  25.084  1.00  0.00     0.197 C 
ATOM      6  C   UNL A   1      34.857  22.974  26.367  1.00  0.00     0.081 C 
ATOM      7  C   UNL A   1      33.914  21.197  25.018  1.00  0.00     0.068 C 
ATOM      8  C   UNL A   1      34.389  21.910  27.348  1.00  0.00     0.008 C 
ATOM      9  C   UNL A   1      33.556  20.947  26.511  1.00  0.00     0.011 C 
BRANCH   5  10
ATOM     10  N   UNL A   1      35.252  23.046  23.888  1.00  0.00    -0.332 N 
ATOM     11  H   UNL A   1      36.218  23.016  23.560  1.00  0.00     0.347 HD
ATOM     12  H   UNL A   1      34.574  22.678  23.220  1.00  0.00     0.347 HD
BRANCH  10  13
ATOM     13  C   UNL A   1      34.889  24.455  24.086  1.00  0.00     0.257 C 
ATOM     14  C   UNL A   1      34.003  24.940  22.945  1.00  0.00     0.071 C 
ENDBRANCH  10  13
ENDBRANCH   5  10
BRANCH   7  15
ATOM     15  C   UNL A   1      32.633  21.682  24.281  1.00  0.00     0.072 C 
BRANCH  15  16
ATOM     16  C   UNL A   1      31.550  22.391  25.122  1.00  0.00     0.262 C 
BRANCH  16  17
ATOM     17  N   UNL A   1      31.509  23.856  25.163  1.00  0.00    -0.335 N 
ATOM     18  C   UNL A   1      30.485  24.479  24.333  1.00  0.00     0.262 C 
ATOM     19  C   UNL A   1      31.542  24.440  26.504  1.00  0.00     0.262 C 
ATOM     20  H   UNL A   1      32.400  24.091  24.725  1.00  0.00     0.348 HD
ATOM     21  C   UNL A   1      30.792  25.962  24.141  1.00  0.00     0.062 C 
ATOM     22  C   UNL A   1      31.817  25.948  26.429  1.00  0.00     0.062 C 
ATOM     23  C   UNL A   1      30.854  26.668  25.489  1.00  0.00     0.012 C 
ENDBRANCH  16  17
ENDBRANCH  15  16
ENDBRANCH   7  15
ENDBRANCH   3   5
ENDBRANCH   2   3
ENDBRANCH   1   2
BRANCH   1  24
ATOM     24  C   UNL A   1      39.695  22.374  26.827  1.00  0.00     0.275 C 
BRANCH  24  25
ATOM     25  O   UNL A   1      39.480  23.792  26.741  1.00  0.00    -0.458 OA
BRANCH  25  26
ATOM     26  C   UNL A   1      40.604  24.539  26.696  1.00  0.00     0.338 C 
ATOM     27  O   UNL A   1      41.581  24.367  25.978  1.00  0.00    -0.246 OA
BRANCH  26  28
ATOM     28  C   UNL A   1      40.499  25.648  27.654  1.00  0.00     0.060 A 
ATOM     29  C   UNL A   1      41.465  26.654  27.655  1.00  0.00     0.016 A 
ATOM     30  C   UNL A   1      39.507  25.620  28.635  1.00  0.00     0.016 A 
ATOM     31  C   UNL A   1      41.472  27.613  28.665  1.00  0.00     0.010 A 
ATOM     32  C   UNL A   1      39.477  26.620  29.611  1.00  0.00     0.010 A 
ATOM     33  C   UNL A   1      40.469  27.614  29.641  1.00  0.00    -0.014 A 
BRANCH  33  34
ATOM     34  C   UNL A   1      40.447  28.665  30.686  1.00  0.00     0.031 A 
ATOM     35  C   UNL A   1      41.393  28.602  31.848  1.00  0.00     0.074 A 
ATOM     36  C   UNL A   1      39.572  29.682  30.580  1.00  0.00     0.049 A 
ATOM     37  N   UNL A   1      41.434  29.354  32.918  1.00  0.00    -0.248 NA
ATOM     38  C   UNL A   1      42.433  27.563  31.799  1.00  0.00     0.031 C 
ATOM     39  C   UNL A   1      38.647  29.888  29.465  1.00  0.00     0.029 A 
ATOM     40  N   UNL A   1      39.314  30.731  31.427  1.00  0.00    -0.354 N 
ATOM     41  C   UNL A   1      42.489  28.871  33.681  1.00  0.00     0.074 A 
ATOM     42  C   UNL A   1      43.061  27.758  32.952  1.00  0.00     0.031 C 
ATOM     43  C   UNL A   1      37.923  30.995  29.695  1.00  0.00     0.029 A 
ATOM     44  C   UNL A   1      38.293  31.543  30.996  1.00  0.00     0.049 A 
ATOM     45  H   UNL A   1      39.812  30.886  32.262  1.00  0.00     0.167 HD
ATOM     46  C   UNL A   1      42.934  29.316  34.881  1.00  0.00     0.037 A 
ATOM     47  C   UNL A   1      37.697  32.590  31.599  1.00  0.00     0.037 A 
ATOM     48  C   UNL A   1      42.364  30.425  35.602  1.00  0.00     0.049 A 
ATOM     49  C   UNL A   1      38.157  33.013  32.967  1.00  0.00     0.074 A 
ATOM     50  C   UNL A   1      42.733  30.935  36.835  1.00  0.00     0.029 A 
ATOM     51  N   UNL A   1      41.302  31.199  35.154  1.00  0.00    -0.354 N 
ATOM     52  N   UNL A   1      39.128  32.522  33.699  1.00  0.00    -0.248 NA
ATOM     53  C   UNL A   1      37.429  34.123  33.598  1.00  0.00     0.031 C 
ATOM     54  C   UNL A   1      41.875  31.996  37.147  1.00  0.00     0.029 A 
ATOM     55  C   UNL A   1      40.992  32.169  36.093  1.00  0.00     0.049 A 
ATOM     56  H   UNL A   1      40.837  31.076  34.295  1.00  0.00     0.167 HD
ATOM     57  C   UNL A   1      39.135  33.268  34.871  1.00  0.00     0.074 A 
ATOM     58  C   UNL A   1      38.081  34.255  34.745  1.00  0.00     0.031 C 
ATOM     59  C   UNL A   1      39.940  33.145  35.955  1.00  0.00     0.037 A 
BRANCH  46  60
ATOM     60  C   UNL A   1      44.074  28.571  35.513  1.00  0.00     0.058 A 
ATOM     61  C   UNL A   1      45.411  28.930  35.278  1.00  0.00     0.135 A 
ATOM     62  C   UNL A   1      43.825  27.499  36.384  1.00  0.00     0.135 A 
ATOM     63  F   UNL A   1      45.703  29.939  34.444  1.00  0.00    -0.206 F 
ATOM     64  C   UNL A   1      46.462  28.237  35.870  1.00  0.00     0.059 A 
ATOM     65  C   UNL A   1      44.860  26.803  37.000  1.00  0.00     0.059 A 
ATOM     66  F   UNL A   1      42.564  27.116  36.639  1.00  0.00    -0.206 F 
ATOM     67  C   UNL A   1      46.176  27.170  36.726  1.00  0.00     0.060 A 
BRANCH  67  68
ATOM     68  S   UNL A   1      47.547  26.272  37.484  1.00  0.00     0.124 S 
ATOM     69  O   UNL A   1      48.698  26.958  36.906  1.00  0.00    -0.237 OA
ATOM     70  O   UNL A   1      47.325  26.497  38.908  1.00  0.00    -0.237 OA
ATOM     71  O   UNL A   1      47.344  24.899  37.033  1.00  0.00    -0.744 OA
ENDBRANCH  67  68
ENDBRANCH  46  60
BRANCH  47  72
ATOM     72  C   UNL A   1      36.572  33.287  30.927  1.00  0.00     0.058 A 
ATOM     73  C   UNL A   1      35.254  33.133  31.380  1.00  0.00     0.135 A 
ATOM     74  C   UNL A   1      36.794  34.125  29.823  1.00  0.00     0.135 A 
ATOM     75  F   UNL A   1      34.994  32.333  32.426  1.00  0.00    -0.206 F 
ATOM     76  C   UNL A   1      34.193  33.780  30.757  1.00  0.00     0.059 A 
ATOM     77  C   UNL A   1      35.751  34.800  29.199  1.00  0.00     0.059 A 
ATOM     78  F   UNL A   1      38.040  34.312  29.360  1.00  0.00    -0.206 F 
ATOM     79  C   UNL A   1      34.451  34.613  29.667  1.00  0.00     0.060 A 
BRANCH  79  80
ATOM     80  S   UNL A   1      33.076  35.490  28.892  1.00  0.00     0.124 S 
ATOM     81  O   UNL A   1      33.776  36.525  28.141  1.00  0.00    -0.237 OA
ATOM     82  O   UNL A   1      32.445  34.440  28.098  1.00  0.00    -0.237 OA
ATOM     83  O   UNL A   1      32.294  35.955  30.034  1.00  0.00    -0.744 OA
ENDBRANCH  79  80
ENDBRANCH  47  72
BRANCH  59  84
ATOM     84  C   UNL A   1      39.723  34.113  37.083  1.00  0.00     0.058 A 
ATOM     85  C   UNL A   1      38.953  33.770  38.205  1.00  0.00     0.135 A 
ATOM     86  C   UNL A   1      40.321  35.383  37.059  1.00  0.00     0.135 A 
ATOM     87  F   UNL A   1      38.354  32.571  38.271  1.00  0.00    -0.206 F 
ATOM     88  C   UNL A   1      38.766  34.661  39.257  1.00  0.00     0.059 A 
ATOM     89  C   UNL A   1      40.164  36.282  38.109  1.00  0.00     0.059 A 
ATOM     90  F   UNL A   1      41.073  35.756  36.011  1.00  0.00    -0.206 F 
ATOM     91  C   UNL A   1      39.375  35.916  39.199  1.00  0.00     0.060 A 
BRANCH  91  92
ATOM     92  S   UNL A   1      39.154  37.056  40.583  1.00  0.00     0.124 S 
ATOM     93  O   UNL A   1      38.525  36.193  41.576  1.00  0.00    -0.237 OA
ATOM     94  O   UNL A   1      40.523  37.466  40.877  1.00  0.00    -0.237 OA
ATOM     95  O   UNL A   1      38.301  38.101  40.026  1.00  0.00    -0.744 OA
ENDBRANCH  91  92
ENDBRANCH  59  84
ENDBRANCH  33  34
ENDBRANCH  26  28
ENDBRANCH  25  26
ENDBRANCH  24  25
ENDBRANCH   1  24
TORSDOF 19
ENDMDL
MODEL 2
REMARK VINA RESULT:     -10.4      5.176     10.739
REMARK SMILES CC[NH2+][C@@]1(C(=O)OCCOC(=O)c2ccc(-c3c4nc(c(-c5c(F)cc(S(=O)(=O)[O-])cc5F)c5ccc([nH]5)c(-c5c(F)cc(S(=O)(=O)[O-])cc5F)c5nc(c(-c6c(F)cc(S(=O)(=O)[O-])cc6F)c6ccc3[nH]6)C=C5)C=C4)cc2)CCC[C@H]1CC[NH+]1CCCCC1
REMARK SMILES IDX 8 1 7 2 5 3 6 4 4 5 79 6 82 7 80 8 81 9 3 10 2 13 1 14 83 15
REMARK SMILES IDX 84 16 85 17 86 18 90 19 87 21 89 22 88 23 9 24 10 25 11 26
REMARK SMILES IDX 12 27 13 28 14 29 78 30 15 31 77 32 16 33 17 34 18 35 71 36
REMARK SMILES IDX 19 37 76 38 70 39 72 40 20 41 75 42 69 43 68 44 21 46 55 47
REMARK SMILES IDX 34 48 54 49 35 50 38 51 53 52 73 53 36 54 37 55 52 57 74 58
REMARK SMILES IDX 39 59 22 60 23 61 32 62 24 63 25 64 31 65 33 66 26 67 27 68
REMARK SMILES IDX 28 69 29 70 30 71 56 72 57 73 66 74 58 75 59 76 65 77 67 78
REMARK SMILES IDX 60 79 61 80 62 81 63 82 64 83 40 84 41 85 50 86 42 87 43 88
REMARK SMILES IDX 49 89 51 90 44 91 45 92 46 93 47 94 48 95
REMARK H PARENT 3 11 3 12 85 20 72 45 38 56
REMARK Flexibility Score: inf
ROOT
ATOM      1  C   UNL A   1      32.123  27.944  26.123  1.00  0.00     0.274 C 
ENDROOT
BRANCH   1   2
ATOM      2  O   UNL A   1      32.104  26.591  26.616  1.00  0.00    -0.457 OA
BRANCH   2   3
ATOM      3  C   UNL A   1      31.083  25.803  26.174  1.00  0.00     0.368 C 
ATOM      4  O   UNL A   1      29.924  25.921  26.563  1.00  0.00    -0.245 OA
BRANCH   3   5
ATOM      5  C   UNL A   1      31.559  24.657  25.198  1.00  0.00     0.197 C 
ATOM      6  C   UNL A   1      30.681  23.431  25.507  1.00  0.00     0.081 C 
ATOM      7  C   UNL A   1      33.001  24.125  25.552  1.00  0.00     0.068 C 
ATOM      8  C   UNL A   1      31.245  22.914  26.821  1.00  0.00     0.008 C 
ATOM      9  C   UNL A   1      32.752  23.111  26.704  1.00  0.00     0.011 C 
BRANCH   5  10
ATOM     10  N   UNL A   1      31.442  25.090  23.783  1.00  0.00    -0.332 N 
ATOM     11  H   UNL A   1      32.272  25.638  23.554  1.00  0.00     0.347 HD
ATOM     12  H   UNL A   1      31.347  24.232  23.239  1.00  0.00     0.347 HD
BRANCH  10  13
ATOM     13  C   UNL A   1      30.263  25.901  23.454  1.00  0.00     0.257 C 
ATOM     14  C   UNL A   1      30.682  27.185  22.747  1.00  0.00     0.071 C 
ENDBRANCH  10  13
ENDBRANCH   5  10
BRANCH   7  15
ATOM     15  C   UNL A   1      33.814  23.410  24.435  1.00  0.00     0.072 C 
BRANCH  15  16
ATOM     16  C   UNL A   1      34.685  22.204  24.847  1.00  0.00     0.262 C 
BRANCH  16  17
ATOM     17  N   UNL A   1      36.113  22.400  25.113  1.00  0.00    -0.335 N 
ATOM     18  C   UNL A   1      36.435  23.447  26.076  1.00  0.00     0.262 C 
ATOM     19  C   UNL A   1      36.868  21.175  25.381  1.00  0.00     0.262 C 
ATOM     20  H   UNL A   1      36.438  22.746  24.210  1.00  0.00     0.348 HD
ATOM     21  C   UNL A   1      37.910  23.826  25.969  1.00  0.00     0.062 C 
ATOM     22  C   UNL A   1      38.378  21.449  25.326  1.00  0.00     0.062 C 
ATOM     23  C   UNL A   1      38.789  22.610  26.227  1.00  0.00     0.012 C 
ENDBRANCH  16  17
ENDBRANCH  15  16
ENDBRANCH   7  15
ENDBRANCH   3   5
ENDBRANCH   2   3
ENDBRANCH   1   2
BRANCH   1  24
ATOM     24  C   UNL A   1      32.410  28.907  27.267  1.00  0.00     0.275 C 
BRANCH  24  25
ATOM     25  O   UNL A   1      33.812  28.863  27.579  1.00  0.00    -0.458 OA
BRANCH  25  26
ATOM     26  C   UNL A   1      34.361  30.051  27.915  1.00  0.00     0.338 C 
ATOM     27  O   UNL A   1      33.794  31.134  27.992  1.00  0.00    -0.246 OA
BRANCH  26  28
ATOM     28  C   UNL A   1      35.790  29.872  28.202  1.00  0.00     0.060 A 
ATOM     29  C   UNL A   1      36.726  30.040  27.181  1.00  0.00     0.016 A 
ATOM     30  C   UNL A   1      36.189  29.414  29.458  1.00  0.00     0.016 A 
ATOM     31  C   UNL A   1      38.061  29.707  27.398  1.00  0.00     0.010 A 
ATOM     32  C   UNL A   1      37.539  29.142  29.694  1.00  0.00     0.010 A 
ATOM     33  C   UNL A   1      38.482  29.271  28.661  1.00  0.00    -0.014 A 
BRANCH  33  34
ATOM     34  C   UNL A   1      39.911  28.966  28.905  1.00  0.00     0.031 A 
ATOM     35  C   UNL A   1      40.830  30.017  29.455  1.00  0.00     0.074 A 
ATOM     36  C   UNL A   1      40.378  27.733  28.634  1.00  0.00     0.049 A 
ATOM     37  N   UNL A   1      42.128  29.974  29.612  1.00  0.00    -0.248 NA
ATOM     38  C   UNL A   1      40.209  31.277  29.891  1.00  0.00     0.031 C 
ATOM     39  C   UNL A   1      39.569  26.610  28.158  1.00  0.00     0.029 A 
ATOM     40  N   UNL A   1      41.648  27.221  28.714  1.00  0.00    -0.354 N 
ATOM     41  C   UNL A   1      42.486  31.205  30.147  1.00  0.00     0.074 A 
ATOM     42  C   UNL A   1      41.267  31.974  30.285  1.00  0.00     0.031 C 
ATOM     43  C   UNL A   1      40.363  25.540  27.989  1.00  0.00     0.029 A 
ATOM     44  C   UNL A   1      41.740  25.918  28.290  1.00  0.00     0.049 A 
ATOM     45  H   UNL A   1      42.419  27.738  29.043  1.00  0.00     0.167 HD
ATOM     46  C   UNL A   1      43.720  31.649  30.486  1.00  0.00     0.037 A 
ATOM     47  C   UNL A   1      42.819  25.127  28.127  1.00  0.00     0.037 A 
ATOM     48  C   UNL A   1      44.930  30.879  30.350  1.00  0.00     0.049 A 
ATOM     49  C   UNL A   1      44.186  25.672  28.436  1.00  0.00     0.074 A 
ATOM     50  C   UNL A   1      46.229  31.253  30.647  1.00  0.00     0.029 A 
ATOM     51  N   UNL A   1      44.990  29.576  29.876  1.00  0.00    -0.354 N 
ATOM     52  N   UNL A   1      44.518  26.852  28.900  1.00  0.00    -0.248 NA
ATOM     53  C   UNL A   1      45.328  24.781  28.181  1.00  0.00     0.031 C 
ATOM     54  C   UNL A   1      47.078  30.188  30.323  1.00  0.00     0.029 A 
ATOM     55  C   UNL A   1      46.305  29.138  29.857  1.00  0.00     0.049 A 
ATOM     56  H   UNL A   1      44.213  29.041  29.596  1.00  0.00     0.167 HD
ATOM     57  C   UNL A   1      45.904  26.844  29.004  1.00  0.00     0.074 A 
ATOM     58  C   UNL A   1      46.348  25.535  28.569  1.00  0.00     0.031 C 
ATOM     59  C   UNL A   1      46.733  27.832  29.420  1.00  0.00     0.037 A 
BRANCH  46  60
ATOM     60  C   UNL A   1      43.828  33.055  31.003  1.00  0.00     0.058 A 
ATOM     61  C   UNL A   1      43.807  33.340  32.377  1.00  0.00     0.135 A 
ATOM     62  C   UNL A   1      43.982  34.128  30.111  1.00  0.00     0.135 A 
ATOM     63  F   UNL A   1      43.649  32.352  33.270  1.00  0.00    -0.206 F 
ATOM     64  C   UNL A   1      43.912  34.645  32.848  1.00  0.00     0.059 A 
ATOM     65  C   UNL A   1      44.106  35.438  30.560  1.00  0.00     0.059 A 
ATOM     66  F   UNL A   1      44.008  33.907  28.787  1.00  0.00    -0.206 F 
ATOM     67  C   UNL A   1      44.055  35.689  31.930  1.00  0.00     0.060 A 
BRANCH  67  68
ATOM     68  S   UNL A   1      44.183  37.380  32.550  1.00  0.00     0.124 S 
ATOM     69  O   UNL A   1      43.140  37.395  33.571  1.00  0.00    -0.237 OA
ATOM     70  O   UNL A   1      45.554  37.434  33.045  1.00  0.00    -0.237 OA
ATOM     71  O   UNL A   1      43.916  38.195  31.369  1.00  0.00    -0.744 OA
ENDBRANCH  67  68
ENDBRANCH  46  60
BRANCH  47  72
ATOM     72  C   UNL A   1      42.650  23.746  27.611  1.00  0.00     0.058 A 
ATOM     73  C   UNL A   1      42.696  23.479  26.235  1.00  0.00     0.135 A 
ATOM     74  C   UNL A   1      42.447  22.665  28.483  1.00  0.00     0.135 A 
ATOM     75  F   UNL A   1      42.879  24.483  25.363  1.00  0.00    -0.206 F 
ATOM     76  C   UNL A   1      42.538  22.190  25.740  1.00  0.00     0.059 A 
ATOM     77  C   UNL A   1      42.309  21.364  28.012  1.00  0.00     0.059 A 
ATOM     78  F   UNL A   1      42.405  22.869  29.809  1.00  0.00    -0.206 F 
ATOM     79  C   UNL A   1      42.345  21.137  26.637  1.00  0.00     0.060 A 
BRANCH  79  80
ATOM     80  S   UNL A   1      42.191  19.458  25.993  1.00  0.00     0.124 S 
ATOM     81  O   UNL A   1      43.018  19.527  24.795  1.00  0.00    -0.237 OA
ATOM     82  O   UNL A   1      42.720  18.654  27.091  1.00  0.00    -0.237 OA
ATOM     83  O   UNL A   1      40.755  19.321  25.764  1.00  0.00    -0.744 OA
ENDBRANCH  79  80
ENDBRANCH  47  72
BRANCH  59  84
ATOM     84  C   UNL A   1      48.204  27.529  29.441  1.00  0.00     0.058 A 
ATOM     85  C   UNL A   1      49.030  27.831  28.347  1.00  0.00     0.135 A 
ATOM     86  C   UNL A   1      48.801  26.964  30.579  1.00  0.00     0.135 A 
ATOM     87  F   UNL A   1      48.505  28.364  27.232  1.00  0.00    -0.206 F 
ATOM     88  C   UNL A   1      50.395  27.566  28.373  1.00  0.00     0.059 A 
ATOM     89  C   UNL A   1      50.168  26.709  30.635  1.00  0.00     0.059 A 
ATOM     90  F   UNL A   1      48.055  26.664  31.655  1.00  0.00    -0.206 F 
ATOM     91  C   UNL A   1      50.955  27.002  29.522  1.00  0.00     0.060 A 
BRANCH  91  92
ATOM     92  S   UNL A   1      52.733  26.689  29.560  1.00  0.00     0.124 S 
ATOM     93  O   UNL A   1      53.269  28.045  29.593  1.00  0.00    -0.237 OA
ATOM     94  O   UNL A   1      52.891  25.916  30.788  1.00  0.00    -0.237 OA
ATOM     95  O   UNL A   1      52.972  25.947  28.327  1.00  0.00    -0.744 OA
ENDBRANCH  91  92
ENDBRANCH  59  84
ENDBRANCH  33  34
ENDBRANCH  26  28
ENDBRANCH  25  26
ENDBRANCH  24  25
ENDBRANCH   1  24
TORSDOF 19
ENDMDL
MODEL 3
REMARK VINA RESULT:     -10.2      5.139     10.741
REMARK SMILES CC[NH2+][C@@]1(C(=O)OCCOC(=O)c2ccc(-c3c4nc(c(-c5c(F)cc(S(=O)(=O)[O-])cc5F)c5ccc([nH]5)c(-c5c(F)cc(S(=O)(=O)[O-])cc5F)c5nc(c(-c6c(F)cc(S(=O)(=O)[O-])cc6F)c6ccc3[nH]6)C=C5)C=C4)cc2)CCC[C@H]1CC[NH+]1CCCCC1
REMARK SMILES IDX 8 1 7 2 5 3 6 4 4 5 79 6 82 7 80 8 81 9 3 10 2 13 1 14 83 15
REMARK SMILES IDX 84 16 85 17 86 18 90 19 87 21 89 22 88 23 9 24 10 25 11 26
REMARK SMILES IDX 12 27 13 28 14 29 78 30 15 31 77 32 16 33 17 34 18 35 71 36
REMARK SMILES IDX 19 37 76 38 70 39 72 40 20 41 75 42 69 43 68 44 21 46 55 47
REMARK SMILES IDX 34 48 54 49 35 50 38 51 53 52 73 53 36 54 37 55 52 57 74 58
REMARK SMILES IDX 39 59 22 60 23 61 32 62 24 63 25 64 31 65 33 66 26 67 27 68
REMARK SMILES IDX 28 69 29 70 30 71 56 72 57 73 66 74 58 75 59 76 65 77 67 78
REMARK SMILES IDX 60 79 61 80 62 81 63 82 64 83 40 84 41 85 50 86 42 87 43 88
REMARK SMILES IDX 49 89 51 90 44 91 45 92 46 93 47 94 48 95
REMARK H PARENT 3 11 3 12 85 20 72 45 38 56
REMARK Flexibility Score: inf
ROOT
ATOM      1  C   UNL A   1      31.845  29.534  26.092  1.00  0.00     0.274 C 
ENDROOT
BRANCH   1   2
ATOM      2  O   UNL A   1      31.428  28.156  26.135  1.00  0.00    -0.457 OA
BRANCH   2   3
ATOM      3  C   UNL A   1      31.033  27.611  24.949  1.00  0.00     0.368 C 
ATOM      4  O   UNL A   1      30.407  28.234  24.096  1.00  0.00    -0.245 OA
BRANCH   3   5
ATOM      5  C   UNL A   1      31.364  26.071  24.832  1.00  0.00     0.197 C 
ATOM      6  C   UNL A   1      32.895  25.947  24.948  1.00  0.00     0.081 C 
ATOM      7  C   UNL A   1      31.098  25.506  23.385  1.00  0.00     0.068 C 
ATOM      8  C   UNL A   1      33.391  26.431  23.594  1.00  0.00     0.008 C 
ATOM      9  C   UNL A   1      32.377  25.894  22.592  1.00  0.00     0.011 C 
BRANCH   5  10
ATOM     10  N   UNL A   1      30.657  25.301  25.886  1.00  0.00    -0.332 N 
ATOM     11  H   UNL A   1      30.153  25.965  26.474  1.00  0.00     0.347 HD
ATOM     12  H   UNL A   1      30.053  24.645  25.389  1.00  0.00     0.347 HD
BRANCH  10  13
ATOM     13  C   UNL A   1      31.502  24.478  26.759  1.00  0.00     0.257 C 
ATOM     14  C   UNL A   1      31.064  23.019  26.702  1.00  0.00     0.071 C 
ENDBRANCH  10  13
ENDBRANCH   5  10
BRANCH   7  15
ATOM     15  C   UNL A   1      30.866  23.977  23.225  1.00  0.00     0.072 C 
BRANCH  15  16
ATOM     16  C   UNL A   1      32.041  23.128  22.695  1.00  0.00     0.262 C 
BRANCH  16  17
ATOM     17  N   UNL A   1      32.827  22.316  23.629  1.00  0.00    -0.335 N 
ATOM     18  C   UNL A   1      32.606  20.876  23.550  1.00  0.00     0.262 C 
ATOM     19  C   UNL A   1      34.253  22.637  23.682  1.00  0.00     0.262 C 
ATOM     20  H   UNL A   1      32.434  22.607  24.525  1.00  0.00     0.348 HD
ATOM     21  C   UNL A   1      33.148  20.191  24.801  1.00  0.00     0.062 C 
ATOM     22  C   UNL A   1      34.913  21.969  24.897  1.00  0.00     0.062 C 
ATOM     23  C   UNL A   1      34.638  20.469  24.953  1.00  0.00     0.012 C 
ENDBRANCH  16  17
ENDBRANCH  15  16
ENDBRANCH   7  15
ENDBRANCH   3   5
ENDBRANCH   2   3
ENDBRANCH   1   2
BRANCH   1  24
ATOM     24  C   UNL A   1      33.367  29.613  26.084  1.00  0.00     0.275 C 
BRANCH  24  25
ATOM     25  O   UNL A   1      33.861  29.301  27.397  1.00  0.00    -0.458 OA
BRANCH  25  26
ATOM     26  C   UNL A   1      34.558  30.290  27.995  1.00  0.00     0.338 C 
ATOM     27  O   UNL A   1      34.142  31.392  28.332  1.00  0.00    -0.246 OA
BRANCH  26  28
ATOM     28  C   UNL A   1      35.944  29.856  28.215  1.00  0.00     0.060 A 
ATOM     29  C   UNL A   1      36.364  29.509  29.499  1.00  0.00     0.016 A 
ATOM     30  C   UNL A   1      36.860  29.915  27.164  1.00  0.00     0.016 A 
ATOM     31  C   UNL A   1      37.712  29.263  29.749  1.00  0.00     0.010 A 
ATOM     32  C   UNL A   1      38.201  29.604  27.403  1.00  0.00     0.010 A 
ATOM     33  C   UNL A   1      38.639  29.291  28.700  1.00  0.00    -0.014 A 
BRANCH  33  34
ATOM     34  C   UNL A   1      40.064  28.978  28.958  1.00  0.00     0.031 A 
ATOM     35  C   UNL A   1      40.980  30.019  29.531  1.00  0.00     0.074 A 
ATOM     36  C   UNL A   1      40.531  27.748  28.676  1.00  0.00     0.049 A 
ATOM     37  N   UNL A   1      42.276  29.971  29.702  1.00  0.00    -0.248 NA
ATOM     38  C   UNL A   1      40.358  31.275  29.975  1.00  0.00     0.031 C 
ATOM     39  C   UNL A   1      39.725  26.633  28.177  1.00  0.00     0.029 A 
ATOM     40  N   UNL A   1      41.799  27.231  28.764  1.00  0.00    -0.354 N 
ATOM     41  C   UNL A   1      42.632  31.193  30.257  1.00  0.00     0.074 A 
ATOM     42  C   UNL A   1      41.413  31.965  30.391  1.00  0.00     0.031 C 
ATOM     43  C   UNL A   1      40.517  25.563  28.003  1.00  0.00     0.029 A 
ATOM     44  C   UNL A   1      41.892  25.932  28.325  1.00  0.00     0.049 A 
ATOM     45  H   UNL A   1      42.567  27.741  29.109  1.00  0.00     0.167 HD
ATOM     46  C   UNL A   1      43.863  31.630  30.616  1.00  0.00     0.037 A 
ATOM     47  C   UNL A   1      42.970  25.141  28.165  1.00  0.00     0.037 A 
ATOM     48  C   UNL A   1      45.072  30.858  30.484  1.00  0.00     0.049 A 
ATOM     49  C   UNL A   1      44.335  25.677  28.496  1.00  0.00     0.074 A 
ATOM     50  C   UNL A   1      46.369  31.224  30.801  1.00  0.00     0.029 A 
ATOM     51  N   UNL A   1      45.134  29.560  29.995  1.00  0.00    -0.354 N 
ATOM     52  N   UNL A   1      44.665  26.851  28.979  1.00  0.00    -0.248 NA
ATOM     53  C   UNL A   1      45.477  24.787  28.243  1.00  0.00     0.031 C 
ATOM     54  C   UNL A   1      47.218  30.161  30.473  1.00  0.00     0.029 A 
ATOM     55  C   UNL A   1      46.447  29.119  29.985  1.00  0.00     0.049 A 
ATOM     56  H   UNL A   1      44.359  29.032  29.698  1.00  0.00     0.167 HD
ATOM     57  C   UNL A   1      46.050  26.837  29.099  1.00  0.00     0.074 A 
ATOM     58  C   UNL A   1      46.495  25.533  28.652  1.00  0.00     0.031 C 
ATOM     59  C   UNL A   1      46.877  27.818  29.537  1.00  0.00     0.037 A 
BRANCH  46  60
ATOM     60  C   UNL A   1      43.969  33.029  31.151  1.00  0.00     0.058 A 
ATOM     61  C   UNL A   1      44.059  34.140  30.299  1.00  0.00     0.135 A 
ATOM     62  C   UNL A   1      43.955  33.261  32.536  1.00  0.00     0.135 A 
ATOM     63  F   UNL A   1      44.090  33.971  28.969  1.00  0.00    -0.206 F 
ATOM     64  C   UNL A   1      44.153  35.434  30.803  1.00  0.00     0.059 A 
ATOM     65  C   UNL A   1      44.030  34.547  33.061  1.00  0.00     0.059 A 
ATOM     66  F   UNL A   1      43.870  32.231  33.392  1.00  0.00    -0.206 F 
ATOM     67  C   UNL A   1      44.144  35.627  32.187  1.00  0.00     0.060 A 
BRANCH  67  68
ATOM     68  S   UNL A   1      44.274  37.309  32.831  1.00  0.00     0.124 S 
ATOM     69  O   UNL A   1      43.054  37.409  33.626  1.00  0.00    -0.237 OA
ATOM     70  O   UNL A   1      45.521  37.263  33.587  1.00  0.00    -0.237 OA
ATOM     71  O   UNL A   1      44.308  38.131  31.626  1.00  0.00    -0.744 OA
ENDBRANCH  67  68
ENDBRANCH  46  60
BRANCH  47  72
ATOM     72  C   UNL A   1      42.803  23.767  27.629  1.00  0.00     0.058 A 
ATOM     73  C   UNL A   1      42.920  23.509  26.256  1.00  0.00     0.135 A 
ATOM     74  C   UNL A   1      42.532  22.684  28.480  1.00  0.00     0.135 A 
ATOM     75  F   UNL A   1      43.169  24.515  25.403  1.00  0.00    -0.206 F 
ATOM     76  C   UNL A   1      42.764  22.226  25.742  1.00  0.00     0.059 A 
ATOM     77  C   UNL A   1      42.395  21.389  27.993  1.00  0.00     0.059 A 
ATOM     78  F   UNL A   1      42.422  22.880  29.803  1.00  0.00    -0.206 F 
ATOM     79  C   UNL A   1      42.503  21.171  26.620  1.00  0.00     0.060 A 
BRANCH  79  80
ATOM     80  S   UNL A   1      42.351  19.499  25.955  1.00  0.00     0.124 S 
ATOM     81  O   UNL A   1      43.212  19.573  24.781  1.00  0.00    -0.237 OA
ATOM     82  O   UNL A   1      42.843  18.680  27.059  1.00  0.00    -0.237 OA
ATOM     83  O   UNL A   1      40.921  19.378  25.685  1.00  0.00    -0.744 OA
ENDBRANCH  79  80
ENDBRANCH  47  72
BRANCH  59  84
ATOM     84  C   UNL A   1      48.347  27.510  29.570  1.00  0.00     0.058 A 
ATOM     85  C   UNL A   1      49.200  27.895  28.525  1.00  0.00     0.135 A 
ATOM     86  C   UNL A   1      48.914  26.855  30.675  1.00  0.00     0.135 A 
ATOM     87  F   UNL A   1      48.704  28.516  27.443  1.00  0.00    -0.206 F 
ATOM     88  C   UNL A   1      50.564  27.625  28.564  1.00  0.00     0.059 A 
ATOM     89  C   UNL A   1      50.279  26.592  30.745  1.00  0.00     0.059 A 
ATOM     90  F   UNL A   1      48.141  26.473  31.704  1.00  0.00    -0.206 F 
ATOM     91  C   UNL A   1      51.094  26.971  29.679  1.00  0.00     0.060 A 
BRANCH  91  92
ATOM     92  S   UNL A   1      52.871  26.650  29.738  1.00  0.00     0.124 S 
ATOM     93  O   UNL A   1      52.978  25.812  30.927  1.00  0.00    -0.237 OA
ATOM     94  O   UNL A   1      53.113  25.978  28.465  1.00  0.00    -0.237 OA
ATOM     95  O   UNL A   1      53.451  27.985  29.854  1.00  0.00    -0.744 OA
ENDBRANCH  91  92
ENDBRANCH  59  84
ENDBRANCH  33  34
ENDBRANCH  26  28
ENDBRANCH  25  26
ENDBRANCH  24  25
ENDBRANCH   1  24
TORSDOF 19
ENDMDL
