MODEL 1
REMARK VINA RESULT:     -11.8      0.000      0.000
REMARK SMILES CC(C)(C)OC(=O)N1C[C@H](c2ccc(C(F)(F)F)cc2)[C@H](C(=O)OCCOC(=O)c2ccc(-c3c4nc(c(-c5c(F)cc(S(=O)(=O)[O-])cc5F)c5ccc([nH]5)c(-c5c(F)cc(S(=O)(=O)[O-])cc5F)c5nc(c(-c6c(F)cc(S(=O)(=O)[O-])cc6F)c6ccc3[nH]6)C=C5)C=C4)cc2)C1
REMARK SMILES IDX 25 1 24 2 22 3 23 4 21 5 8 6 9 7 96 8 10 9 6 10 7 11 5 12
REMARK SMILES IDX 2 13 1 14 3 15 4 16 11 17 12 18 20 19 13 20 19 21 14 22
REMARK SMILES IDX 15 23 16 24 17 25 18 26 26 27 27 28 28 29 29 30 30 31 31 32
REMARK SMILES IDX 95 33 32 34 94 35 33 36 34 37 35 38 88 39 36 40 93 41 87 42
REMARK SMILES IDX 89 43 37 44 92 45 86 46 85 47 38 49 72 50 51 51 71 52 52 53
REMARK SMILES IDX 55 54 70 55 90 56 53 57 54 58 69 60 91 61 56 62 39 63 40 64
REMARK SMILES IDX 49 65 41 66 42 67 48 68 50 69 43 70 44 71 45 72 46 73 47 74
REMARK SMILES IDX 73 75 74 76 83 77 75 78 76 79 82 80 84 81 77 82 78 83 79 84
REMARK SMILES IDX 80 85 81 86 57 87 58 88 67 89 59 90 60 91 66 92 68 93 61 94
REMARK SMILES IDX 62 95 63 96 64 97 65 98
REMARK H PARENT 89 48 55 59
REMARK Flexibility Score: inf
ROOT
ATOM      1  C   UNL A   1      34.079  30.732  27.499  1.00  0.00     0.274 C 
ENDROOT
BRANCH   1   2
ATOM      2  O   UNL A   1      33.586  29.381  27.568  1.00  0.00    -0.462 OA
BRANCH   2   3
ATOM      3  C   UNL A   1      32.498  29.059  26.841  1.00  0.00     0.311 C 
ATOM      4  O   UNL A   1      31.504  28.507  27.299  1.00  0.00    -0.252 OA
BRANCH   3   5
ATOM      5  C   UNL A   1      32.611  29.397  25.375  1.00  0.00     0.128 C 
ATOM      6  N   UNL A   1      31.469  29.160  23.339  1.00  0.00    -0.307 N 
ATOM      7  C   UNL A   1      32.881  29.017  23.036  1.00  0.00     0.132 C 
ATOM      8  C   UNL A   1      31.238  29.456  24.733  1.00  0.00     0.139 C 
ATOM      9  C   UNL A   1      33.519  28.631  24.379  1.00  0.00     0.055 C 
BRANCH   6  10
ATOM     10  C   UNL A   1      30.418  28.931  22.495  1.00  0.00     0.410 C 
ATOM     11  O   UNL A   1      30.031  27.815  22.202  1.00  0.00    -0.224 OA
BRANCH  10  12
ATOM     12  O   UNL A   1      29.961  30.089  21.959  1.00  0.00    -0.444 OA
BRANCH  12  13
ATOM     13  C   UNL A   1      28.662  30.607  22.331  1.00  0.00     0.106 C 
ATOM     14  C   UNL A   1      28.125  31.255  21.047  1.00  0.00     0.056 C 
ATOM     15  C   UNL A   1      28.843  31.670  23.413  1.00  0.00     0.056 C 
ATOM     16  C   UNL A   1      27.667  29.515  22.755  1.00  0.00     0.056 C 
ENDBRANCH  12  13
ENDBRANCH  10  12
ENDBRANCH   6  10
BRANCH   9  17
ATOM     17  C   UNL A   1      33.743  27.129  24.395  1.00  0.00    -0.042 A 
ATOM     18  C   UNL A   1      33.994  26.377  25.545  1.00  0.00     0.005 A 
ATOM     19  C   UNL A   1      33.673  26.449  23.164  1.00  0.00     0.005 A 
ATOM     20  C   UNL A   1      34.318  25.018  25.450  1.00  0.00     0.013 A 
ATOM     21  C   UNL A   1      33.952  25.086  23.070  1.00  0.00     0.013 A 
ATOM     22  C   UNL A   1      34.318  24.363  24.210  1.00  0.00     0.056 A 
BRANCH  22  23
ATOM     23  C   UNL A   1      34.771  22.932  24.082  1.00  0.00     0.416 C 
ATOM     24  F   UNL A   1      33.727  22.057  24.066  1.00  0.00    -0.166 F 
ATOM     25  F   UNL A   1      35.474  22.687  22.939  1.00  0.00    -0.166 F 
ATOM     26  F   UNL A   1      35.579  22.530  25.103  1.00  0.00    -0.166 F 
ENDBRANCH  22  23
ENDBRANCH   9  17
ENDBRANCH   3   5
ENDBRANCH   2   3
ENDBRANCH   1   2
BRANCH   1  27
ATOM     27  C   UNL A   1      35.185  30.933  28.537  1.00  0.00     0.275 C 
BRANCH  27  28
ATOM     28  O   UNL A   1      35.857  29.690  28.809  1.00  0.00    -0.458 OA
BRANCH  28  29
ATOM     29  C   UNL A   1      36.616  29.677  29.930  1.00  0.00     0.338 C 
ATOM     30  O   UNL A   1      36.235  29.659  31.088  1.00  0.00    -0.246 OA
BRANCH  29  31
ATOM     31  C   UNL A   1      38.021  29.483  29.551  1.00  0.00     0.060 A 
ATOM     32  C   UNL A   1      38.332  29.488  28.188  1.00  0.00     0.016 A 
ATOM     33  C   UNL A   1      39.013  29.273  30.508  1.00  0.00     0.016 A 
ATOM     34  C   UNL A   1      39.639  29.293  27.769  1.00  0.00     0.010 A 
ATOM     35  C   UNL A   1      40.327  29.068  30.086  1.00  0.00     0.010 A 
ATOM     36  C   UNL A   1      40.643  29.072  28.716  1.00  0.00    -0.014 A 
BRANCH  36  37
ATOM     37  C   UNL A   1      42.016  28.783  28.259  1.00  0.00     0.031 A 
ATOM     38  C   UNL A   1      42.372  27.386  27.849  1.00  0.00     0.074 A 
ATOM     39  C   UNL A   1      42.919  29.779  28.193  1.00  0.00     0.049 A 
ATOM     40  N   UNL A   1      43.533  26.897  27.503  1.00  0.00    -0.248 NA
ATOM     41  C   UNL A   1      41.273  26.407  27.828  1.00  0.00     0.031 C 
ATOM     42  C   UNL A   1      42.650  31.182  28.517  1.00  0.00     0.029 A 
ATOM     43  N   UNL A   1      44.241  29.763  27.838  1.00  0.00    -0.354 N 
ATOM     44  C   UNL A   1      43.313  25.551  27.244  1.00  0.00     0.074 A 
ATOM     45  C   UNL A   1      41.908  25.295  27.488  1.00  0.00     0.031 C 
ATOM     46  C   UNL A   1      43.779  31.890  28.353  1.00  0.00     0.029 A 
ATOM     47  C   UNL A   1      44.856  30.986  27.958  1.00  0.00     0.049 A 
ATOM     48  H   UNL A   1      44.707  28.954  27.525  1.00  0.00     0.167 HD
ATOM     49  C   UNL A   1      44.206  24.617  26.843  1.00  0.00     0.037 A 
ATOM     50  C   UNL A   1      46.149  31.326  27.802  1.00  0.00     0.037 A 
ATOM     51  C   UNL A   1      45.598  24.897  26.601  1.00  0.00     0.049 A 
ATOM     52  C   UNL A   1      47.134  30.259  27.409  1.00  0.00     0.074 A 
ATOM     53  C   UNL A   1      46.592  24.029  26.188  1.00  0.00     0.029 A 
ATOM     54  N   UNL A   1      46.191  26.143  26.756  1.00  0.00    -0.354 N 
ATOM     55  N   UNL A   1      46.918  28.985  27.177  1.00  0.00    -0.248 NA
ATOM     56  C   UNL A   1      48.536  30.670  27.260  1.00  0.00     0.031 C 
ATOM     57  C   UNL A   1      47.795  24.740  26.132  1.00  0.00     0.029 A 
ATOM     58  C   UNL A   1      47.542  26.063  26.464  1.00  0.00     0.049 A 
ATOM     59  H   UNL A   1      45.721  26.962  27.031  1.00  0.00     0.167 HD
ATOM     60  C   UNL A   1      48.153  28.446  26.835  1.00  0.00     0.074 A 
ATOM     61  C   UNL A   1      49.108  29.536  26.878  1.00  0.00     0.031 C 
ATOM     62  C   UNL A   1      48.471  27.166  26.514  1.00  0.00     0.037 A 
BRANCH  49  63
ATOM     63  C   UNL A   1      43.711  23.208  26.680  1.00  0.00     0.058 A 
ATOM     64  C   UNL A   1      43.550  22.620  25.416  1.00  0.00     0.135 A 
ATOM     65  C   UNL A   1      43.402  22.431  27.808  1.00  0.00     0.135 A 
ATOM     66  F   UNL A   1      43.810  23.325  24.303  1.00  0.00    -0.206 F 
ATOM     67  C   UNL A   1      43.074  21.318  25.275  1.00  0.00     0.059 A 
ATOM     68  C   UNL A   1      42.949  21.120  27.691  1.00  0.00     0.059 A 
ATOM     69  F   UNL A   1      43.532  22.948  29.040  1.00  0.00    -0.206 F 
ATOM     70  C   UNL A   1      42.774  20.578  26.420  1.00  0.00     0.060 A 
BRANCH  70  71
ATOM     71  S   UNL A   1      42.150  18.896  26.222  1.00  0.00     0.124 S 
ATOM     72  O   UNL A   1      43.099  18.344  25.261  1.00  0.00    -0.237 OA
ATOM     73  O   UNL A   1      42.243  18.366  27.579  1.00  0.00    -0.237 OA
ATOM     74  O   UNL A   1      40.793  19.093  25.722  1.00  0.00    -0.744 OA
ENDBRANCH  70  71
ENDBRANCH  49  63
BRANCH  50  75
ATOM     75  C   UNL A   1      46.581  32.728  28.041  1.00  0.00     0.058 A 
ATOM     76  C   UNL A   1      46.491  33.698  27.033  1.00  0.00     0.135 A 
ATOM     77  C   UNL A   1      47.073  33.131  29.294  1.00  0.00     0.135 A 
ATOM     78  F   UNL A   1      46.034  33.360  25.817  1.00  0.00    -0.206 F 
ATOM     79  C   UNL A   1      46.881  35.015  27.252  1.00  0.00     0.059 A 
ATOM     80  C   UNL A   1      47.445  34.447  29.545  1.00  0.00     0.059 A 
ATOM     81  F   UNL A   1      47.168  32.244  30.296  1.00  0.00    -0.206 F 
ATOM     82  C   UNL A   1      47.354  35.381  28.514  1.00  0.00     0.060 A 
BRANCH  82  83
ATOM     83  S   UNL A   1      47.809  37.104  28.805  1.00  0.00     0.124 S 
ATOM     84  O   UNL A   1      48.919  36.961  29.741  1.00  0.00    -0.237 OA
ATOM     85  O   UNL A   1      48.159  37.562  27.464  1.00  0.00    -0.237 OA
ATOM     86  O   UNL A   1      46.588  37.684  29.357  1.00  0.00    -0.744 OA
ENDBRANCH  82  83
ENDBRANCH  50  75
BRANCH  62  87
ATOM     87  C   UNL A   1      49.902  26.884  26.155  1.00  0.00     0.058 A 
ATOM     88  C   UNL A   1      50.820  26.415  27.106  1.00  0.00     0.135 A 
ATOM     89  C   UNL A   1      50.344  27.036  24.831  1.00  0.00     0.135 A 
ATOM     90  F   UNL A   1      50.448  26.262  28.387  1.00  0.00    -0.206 F 
ATOM     91  C   UNL A   1      52.135  26.124  26.761  1.00  0.00     0.059 A 
ATOM     92  C   UNL A   1      51.647  26.726  24.458  1.00  0.00     0.059 A 
ATOM     93  F   UNL A   1      49.500  27.472  23.882  1.00  0.00    -0.206 F 
ATOM     94  C   UNL A   1      52.539  26.282  25.434  1.00  0.00     0.060 A 
BRANCH  94  95
ATOM     95  S   UNL A   1      54.239  25.866  24.990  1.00  0.00     0.124 S 
ATOM     96  O   UNL A   1      54.329  26.405  23.637  1.00  0.00    -0.237 OA
ATOM     97  O   UNL A   1      55.010  26.573  26.007  1.00  0.00    -0.237 OA
ATOM     98  O   UNL A   1      54.269  24.410  25.091  1.00  0.00    -0.744 OA
ENDBRANCH  94  95
ENDBRANCH  62  87
ENDBRANCH  36  37
ENDBRANCH  29  31
ENDBRANCH  28  29
ENDBRANCH  27  28
ENDBRANCH   1  27
TORSDOF 19
ENDMDL
MODEL 2
REMARK VINA RESULT:     -11.7      2.288      8.900
REMARK SMILES CC(C)(C)OC(=O)N1C[C@H](c2ccc(C(F)(F)F)cc2)[C@H](C(=O)OCCOC(=O)c2ccc(-c3c4nc(c(-c5c(F)cc(S(=O)(=O)[O-])cc5F)c5ccc([nH]5)c(-c5c(F)cc(S(=O)(=O)[O-])cc5F)c5nc(c(-c6c(F)cc(S(=O)(=O)[O-])cc6F)c6ccc3[nH]6)C=C5)C=C4)cc2)C1
REMARK SMILES IDX 25 1 24 2 22 3 23 4 21 5 8 6 9 7 96 8 10 9 6 10 7 11 5 12
REMARK SMILES IDX 2 13 1 14 3 15 4 16 11 17 12 18 20 19 13 20 19 21 14 22
REMARK SMILES IDX 15 23 16 24 17 25 18 26 26 27 27 28 28 29 29 30 30 31 31 32
REMARK SMILES IDX 95 33 32 34 94 35 33 36 34 37 35 38 88 39 36 40 93 41 87 42
REMARK SMILES IDX 89 43 37 44 92 45 86 46 85 47 38 49 72 50 51 51 71 52 52 53
REMARK SMILES IDX 55 54 70 55 90 56 53 57 54 58 69 60 91 61 56 62 39 63 40 64
REMARK SMILES IDX 49 65 41 66 42 67 48 68 50 69 43 70 44 71 45 72 46 73 47 74
REMARK SMILES IDX 73 75 74 76 83 77 75 78 76 79 82 80 84 81 77 82 78 83 79 84
REMARK SMILES IDX 80 85 81 86 57 87 58 88 67 89 59 90 60 91 66 92 68 93 61 94
REMARK SMILES IDX 62 95 63 96 64 97 65 98
REMARK H PARENT 89 48 55 59
REMARK Flexibility Score: inf
ROOT
ATOM      1  C   UNL A   1      33.190  29.735  27.303  1.00  0.00     0.274 C 
ENDROOT
BRANCH   1   2
ATOM      2  O   UNL A   1      33.190  28.340  26.950  1.00  0.00    -0.462 OA
BRANCH   2   3
ATOM      3  C   UNL A   1      32.078  27.618  27.196  1.00  0.00     0.311 C 
ATOM      4  O   UNL A   1      31.237  27.915  28.036  1.00  0.00    -0.252 OA
BRANCH   3   5
ATOM      5  C   UNL A   1      31.963  26.360  26.371  1.00  0.00     0.128 C 
ATOM      6  N   UNL A   1      32.923  25.275  24.525  1.00  0.00    -0.307 N 
ATOM      7  C   UNL A   1      31.498  25.005  24.464  1.00  0.00     0.132 C 
ATOM      8  C   UNL A   1      33.283  26.040  25.695  1.00  0.00     0.139 C 
ATOM      9  C   UNL A   1      30.864  26.124  25.303  1.00  0.00     0.055 C 
BRANCH   6  10
ATOM     10  C   UNL A   1      33.857  24.988  23.570  1.00  0.00     0.410 C 
ATOM     11  O   UNL A   1      34.305  25.822  22.805  1.00  0.00    -0.224 OA
BRANCH  10  12
ATOM     12  O   UNL A   1      34.117  23.658  23.525  1.00  0.00    -0.444 OA
BRANCH  12  13
ATOM     13  C   UNL A   1      35.277  23.114  24.197  1.00  0.00     0.106 C 
ATOM     14  C   UNL A   1      36.304  22.897  23.076  1.00  0.00     0.056 C 
ATOM     15  C   UNL A   1      34.902  21.772  24.825  1.00  0.00     0.056 C 
ATOM     16  C   UNL A   1      35.898  24.078  25.221  1.00  0.00     0.056 C 
ENDBRANCH  12  13
ENDBRANCH  10  12
ENDBRANCH   6  10
BRANCH   9  17
ATOM     17  C   UNL A   1      30.332  27.192  24.362  1.00  0.00    -0.042 A 
ATOM     18  C   UNL A   1      31.070  28.288  23.909  1.00  0.00     0.005 A 
ATOM     19  C   UNL A   1      29.008  27.052  23.903  1.00  0.00     0.005 A 
ATOM     20  C   UNL A   1      30.457  29.292  23.148  1.00  0.00     0.013 A 
ATOM     21  C   UNL A   1      28.407  28.028  23.109  1.00  0.00     0.013 A 
ATOM     22  C   UNL A   1      29.115  29.181  22.756  1.00  0.00     0.056 A 
BRANCH  22  23
ATOM     23  C   UNL A   1      28.417  30.303  22.034  1.00  0.00     0.416 C 
ATOM     24  F   UNL A   1      27.381  30.818  22.754  1.00  0.00    -0.166 F 
ATOM     25  F   UNL A   1      29.234  31.360  21.757  1.00  0.00    -0.166 F 
ATOM     26  F   UNL A   1      27.886  29.926  20.837  1.00  0.00    -0.166 F 
ENDBRANCH  22  23
ENDBRANCH   9  17
ENDBRANCH   3   5
ENDBRANCH   2   3
ENDBRANCH   1   2
BRANCH   1  27
ATOM     27  C   UNL A   1      34.630  30.239  27.420  1.00  0.00     0.275 C 
BRANCH  27  28
ATOM     28  O   UNL A   1      35.328  29.544  28.468  1.00  0.00    -0.458 OA
BRANCH  28  29
ATOM     29  C   UNL A   1      36.213  30.291  29.168  1.00  0.00     0.338 C 
ATOM     30  O   UNL A   1      35.973  31.119  30.031  1.00  0.00    -0.246 OA
BRANCH  29  31
ATOM     31  C   UNL A   1      37.572  29.817  28.875  1.00  0.00     0.060 A 
ATOM     32  C   UNL A   1      38.396  29.501  29.960  1.00  0.00     0.016 A 
ATOM     33  C   UNL A   1      38.043  29.711  27.567  1.00  0.00     0.016 A 
ATOM     34  C   UNL A   1      39.695  29.065  29.746  1.00  0.00     0.010 A 
ATOM     35  C   UNL A   1      39.353  29.281  27.352  1.00  0.00     0.010 A 
ATOM     36  C   UNL A   1      40.184  28.962  28.441  1.00  0.00    -0.014 A 
BRANCH  36  37
ATOM     37  C   UNL A   1      41.592  28.577  28.225  1.00  0.00     0.031 A 
ATOM     38  C   UNL A   1      42.657  29.630  28.289  1.00  0.00     0.074 A 
ATOM     39  C   UNL A   1      41.902  27.287  28.002  1.00  0.00     0.049 A 
ATOM     40  N   UNL A   1      43.935  29.528  28.044  1.00  0.00    -0.248 NA
ATOM     41  C   UNL A   1      42.221  30.982  28.678  1.00  0.00     0.031 C 
ATOM     42  C   UNL A   1      40.942  26.182  27.978  1.00  0.00     0.029 A 
ATOM     43  N   UNL A   1      43.108  26.690  27.746  1.00  0.00    -0.354 N 
ATOM     44  C   UNL A   1      44.457  30.802  28.227  1.00  0.00     0.074 A 
ATOM     45  C   UNL A   1      43.352  31.665  28.589  1.00  0.00     0.031 C 
ATOM     46  C   UNL A   1      41.598  25.040  27.713  1.00  0.00     0.029 A 
ATOM     47  C   UNL A   1      43.011  25.341  27.504  1.00  0.00     0.049 A 
ATOM     48  H   UNL A   1      43.962  27.180  27.738  1.00  0.00     0.167 HD
ATOM     49  C   UNL A   1      45.741  31.208  28.100  1.00  0.00     0.037 A 
ATOM     50  C   UNL A   1      43.954  24.459  27.121  1.00  0.00     0.037 A 
ATOM     51  C   UNL A   1      46.825  30.328  27.744  1.00  0.00     0.049 A 
ATOM     52  C   UNL A   1      45.365  24.946  26.933  1.00  0.00     0.074 A 
ATOM     53  C   UNL A   1      48.166  30.631  27.592  1.00  0.00     0.029 A 
ATOM     54  N   UNL A   1      46.687  28.971  27.483  1.00  0.00    -0.354 N 
ATOM     55  N   UNL A   1      45.847  26.156  27.097  1.00  0.00    -0.248 NA
ATOM     56  C   UNL A   1      46.359  23.954  26.504  1.00  0.00     0.031 C 
ATOM     57  C   UNL A   1      48.832  29.465  27.198  1.00  0.00     0.029 A 
ATOM     58  C   UNL A   1      47.915  28.426  27.152  1.00  0.00     0.049 A 
ATOM     59  H   UNL A   1      45.841  28.471  27.527  1.00  0.00     0.167 HD
ATOM     60  C   UNL A   1      47.204  26.066  26.811  1.00  0.00     0.074 A 
ATOM     61  C   UNL A   1      47.468  24.680  26.476  1.00  0.00     0.031 C 
ATOM     62  C   UNL A   1      48.149  27.040  26.824  1.00  0.00     0.037 A 
BRANCH  49  63
ATOM     63  C   UNL A   1      46.032  32.667  28.308  1.00  0.00     0.058 A 
ATOM     64  C   UNL A   1      45.945  33.598  27.262  1.00  0.00     0.135 A 
ATOM     65  C   UNL A   1      46.394  33.142  29.579  1.00  0.00     0.135 A 
ATOM     66  F   UNL A   1      45.625  33.195  26.022  1.00  0.00    -0.206 F 
ATOM     67  C   UNL A   1      46.234  34.946  27.462  1.00  0.00     0.059 A 
ATOM     68  C   UNL A   1      46.663  34.489  29.807  1.00  0.00     0.059 A 
ATOM     69  F   UNL A   1      46.499  32.293  30.613  1.00  0.00    -0.206 F 
ATOM     70  C   UNL A   1      46.595  35.380  28.739  1.00  0.00     0.060 A 
BRANCH  70  71
ATOM     71  S   UNL A   1      46.974  37.128  28.982  1.00  0.00     0.124 S 
ATOM     72  O   UNL A   1      48.011  37.344  27.977  1.00  0.00    -0.237 OA
ATOM     73  O   UNL A   1      45.690  37.767  28.713  1.00  0.00    -0.237 OA
ATOM     74  O   UNL A   1      47.423  37.190  30.369  1.00  0.00    -0.744 OA
ENDBRANCH  70  71
ENDBRANCH  49  63
BRANCH  50  75
ATOM     75  C   UNL A   1      43.584  23.041  26.870  1.00  0.00     0.058 A 
ATOM     76  C   UNL A   1      43.331  22.159  27.929  1.00  0.00     0.135 A 
ATOM     77  C   UNL A   1      43.454  22.547  25.562  1.00  0.00     0.135 A 
ATOM     78  F   UNL A   1      43.450  22.581  29.198  1.00  0.00    -0.206 F 
ATOM     79  C   UNL A   1      42.972  20.833  27.704  1.00  0.00     0.059 A 
ATOM     80  C   UNL A   1      43.071  21.233  25.311  1.00  0.00     0.059 A 
ATOM     81  F   UNL A   1      43.673  23.354  24.513  1.00  0.00    -0.206 F 
ATOM     82  C   UNL A   1      42.841  20.381  26.389  1.00  0.00     0.060 A 
BRANCH  82  83
ATOM     83  S   UNL A   1      42.324  18.674  26.105  1.00  0.00     0.124 S 
ATOM     84  O   UNL A   1      43.275  18.245  25.086  1.00  0.00    -0.237 OA
ATOM     85  O   UNL A   1      42.491  18.077  27.427  1.00  0.00    -0.237 OA
ATOM     86  O   UNL A   1      40.940  18.813  25.660  1.00  0.00    -0.744 OA
ENDBRANCH  82  83
ENDBRANCH  50  75
BRANCH  62  87
ATOM     87  C   UNL A   1      49.558  26.634  26.496  1.00  0.00     0.058 A 
ATOM     88  C   UNL A   1      50.393  26.035  27.451  1.00  0.00     0.135 A 
ATOM     89  C   UNL A   1      50.057  26.798  25.194  1.00  0.00     0.135 A 
ATOM     90  F   UNL A   1      49.964  25.864  28.712  1.00  0.00    -0.206 F 
ATOM     91  C   UNL A   1      51.684  25.631  27.132  1.00  0.00     0.059 A 
ATOM     92  C   UNL A   1      51.335  26.377  24.846  1.00  0.00     0.059 A 
ATOM     93  F   UNL A   1      49.292  27.356  24.242  1.00  0.00    -0.206 F 
ATOM     94  C   UNL A   1      52.146  25.806  25.825  1.00  0.00     0.060 A 
BRANCH  94  95
ATOM     95  S   UNL A   1      53.811  25.243  25.413  1.00  0.00     0.124 S 
ATOM     96  O   UNL A   1      53.963  25.749  24.053  1.00  0.00    -0.237 OA
ATOM     97  O   UNL A   1      54.626  25.903  26.429  1.00  0.00    -0.237 OA
ATOM     98  O   UNL A   1      53.720  23.792  25.538  1.00  0.00    -0.744 OA
ENDBRANCH  94  95
ENDBRANCH  62  87
ENDBRANCH  36  37
ENDBRANCH  29  31
ENDBRANCH  28  29
ENDBRANCH  27  28
ENDBRANCH   1  27
TORSDOF 19
ENDMDL
MODEL 3
REMARK VINA RESULT:     -11.7      1.028      8.172
REMARK SMILES CC(C)(C)OC(=O)N1C[C@H](c2ccc(C(F)(F)F)cc2)[C@H](C(=O)OCCOC(=O)c2ccc(-c3c4nc(c(-c5c(F)cc(S(=O)(=O)[O-])cc5F)c5ccc([nH]5)c(-c5c(F)cc(S(=O)(=O)[O-])cc5F)c5nc(c(-c6c(F)cc(S(=O)(=O)[O-])cc6F)c6ccc3[nH]6)C=C5)C=C4)cc2)C1
REMARK SMILES IDX 25 1 24 2 22 3 23 4 21 5 8 6 9 7 96 8 10 9 6 10 7 11 5 12
REMARK SMILES IDX 2 13 1 14 3 15 4 16 11 17 12 18 20 19 13 20 19 21 14 22
REMARK SMILES IDX 15 23 16 24 17 25 18 26 26 27 27 28 28 29 29 30 30 31 31 32
REMARK SMILES IDX 95 33 32 34 94 35 33 36 34 37 35 38 88 39 36 40 93 41 87 42
REMARK SMILES IDX 89 43 37 44 92 45 86 46 85 47 38 49 72 50 51 51 71 52 52 53
REMARK SMILES IDX 55 54 70 55 90 56 53 57 54 58 69 60 91 61 56 62 39 63 40 64
REMARK SMILES IDX 49 65 41 66 42 67 48 68 50 69 43 70 44 71 45 72 46 73 47 74
REMARK SMILES IDX 73 75 74 76 83 77 75 78 76 79 82 80 84 81 77 82 78 83 79 84
REMARK SMILES IDX 80 85 81 86 57 87 58 88 67 89 59 90 60 91 66 92 68 93 61 94
REMARK SMILES IDX 62 95 63 96 64 97 65 98
REMARK H PARENT 89 48 55 59
REMARK Flexibility Score: inf
ROOT
ATOM      1  C   UNL A   1      33.795  31.347  27.253  1.00  0.00     0.274 C 
ENDROOT
BRANCH   1   2
ATOM      2  O   UNL A   1      32.519  30.735  27.521  1.00  0.00    -0.462 OA
BRANCH   2   3
ATOM      3  C   UNL A   1      32.277  29.511  27.013  1.00  0.00     0.311 C 
ATOM      4  O   UNL A   1      31.876  28.559  27.674  1.00  0.00    -0.252 OA
BRANCH   3   5
ATOM      5  C   UNL A   1      32.585  29.380  25.542  1.00  0.00     0.128 C 
ATOM      6  N   UNL A   1      31.555  28.950  23.478  1.00  0.00    -0.307 N 
ATOM      7  C   UNL A   1      32.854  28.306  23.429  1.00  0.00     0.132 C 
ATOM      8  C   UNL A   1      31.351  29.676  24.710  1.00  0.00     0.139 C 
ATOM      9  C   UNL A   1      33.245  28.130  24.904  1.00  0.00     0.055 C 
BRANCH   6  10
ATOM     10  C   UNL A   1      30.540  28.829  22.569  1.00  0.00     0.410 C 
ATOM     11  O   UNL A   1      30.222  27.768  22.066  1.00  0.00    -0.224 OA
BRANCH  10  12
ATOM     12  O   UNL A   1      30.036  30.042  22.235  1.00  0.00    -0.444 OA
BRANCH  12  13
ATOM     13  C   UNL A   1      28.614  30.295  22.324  1.00  0.00     0.106 C 
ATOM     14  C   UNL A   1      28.493  31.469  23.306  1.00  0.00     0.056 C 
ATOM     15  C   UNL A   1      27.927  29.060  22.905  1.00  0.00     0.056 C 
ATOM     16  C   UNL A   1      27.987  30.733  20.992  1.00  0.00     0.056 C 
ENDBRANCH  12  13
ENDBRANCH  10  12
ENDBRANCH   6  10
BRANCH   9  17
ATOM     17  C   UNL A   1      32.955  26.696  25.315  1.00  0.00    -0.042 A 
ATOM     18  C   UNL A   1      31.674  26.163  25.478  1.00  0.00     0.005 A 
ATOM     19  C   UNL A   1      34.057  25.846  25.525  1.00  0.00     0.005 A 
ATOM     20  C   UNL A   1      31.503  24.868  25.986  1.00  0.00     0.013 A 
ATOM     21  C   UNL A   1      33.890  24.541  25.989  1.00  0.00     0.013 A 
ATOM     22  C   UNL A   1      32.609  24.052  26.264  1.00  0.00     0.056 A 
BRANCH  22  23
ATOM     23  C   UNL A   1      32.441  22.703  26.912  1.00  0.00     0.416 C 
ATOM     24  F   UNL A   1      32.902  22.682  28.193  1.00  0.00    -0.166 F 
ATOM     25  F   UNL A   1      31.141  22.294  26.982  1.00  0.00    -0.166 F 
ATOM     26  F   UNL A   1      33.104  21.706  26.261  1.00  0.00    -0.166 F 
ENDBRANCH  22  23
ENDBRANCH   9  17
ENDBRANCH   3   5
ENDBRANCH   2   3
ENDBRANCH   1   2
BRANCH   1  27
ATOM     27  C   UNL A   1      34.593  31.470  28.552  1.00  0.00     0.275 C 
BRANCH  27  28
ATOM     28  O   UNL A   1      35.528  30.385  28.679  1.00  0.00    -0.458 OA
BRANCH  28  29
ATOM     29  C   UNL A   1      36.329  30.435  29.769  1.00  0.00     0.338 C 
ATOM     30  O   UNL A   1      36.007  30.682  30.919  1.00  0.00    -0.246 OA
BRANCH  29  31
ATOM     31  C   UNL A   1      37.663  29.943  29.404  1.00  0.00     0.060 A 
ATOM     32  C   UNL A   1      38.555  29.656  30.441  1.00  0.00     0.016 A 
ATOM     33  C   UNL A   1      38.046  29.792  28.071  1.00  0.00     0.016 A 
ATOM     34  C   UNL A   1      39.835  29.205  30.157  1.00  0.00     0.010 A 
ATOM     35  C   UNL A   1      39.337  29.346  27.785  1.00  0.00     0.010 A 
ATOM     36  C   UNL A   1      40.236  29.057  28.826  1.00  0.00    -0.014 A 
BRANCH  36  37
ATOM     37  C   UNL A   1      41.626  28.655  28.531  1.00  0.00     0.031 A 
ATOM     38  C   UNL A   1      42.710  29.689  28.570  1.00  0.00     0.074 A 
ATOM     39  C   UNL A   1      41.902  27.367  28.258  1.00  0.00     0.049 A 
ATOM     40  N   UNL A   1      43.973  29.573  28.260  1.00  0.00    -0.248 NA
ATOM     41  C   UNL A   1      42.317  31.037  29.016  1.00  0.00     0.031 C 
ATOM     42  C   UNL A   1      40.923  26.278  28.252  1.00  0.00     0.029 A 
ATOM     43  N   UNL A   1      43.083  26.759  27.927  1.00  0.00    -0.354 N 
ATOM     44  C   UNL A   1      44.525  30.834  28.450  1.00  0.00     0.074 A 
ATOM     45  C   UNL A   1      43.454  31.704  28.889  1.00  0.00     0.031 C 
ATOM     46  C   UNL A   1      41.545  25.135  27.924  1.00  0.00     0.029 A 
ATOM     47  C   UNL A   1      42.952  25.419  27.653  1.00  0.00     0.049 A 
ATOM     48  H   UNL A   1      43.944  27.235  27.890  1.00  0.00     0.167 HD
ATOM     49  C   UNL A   1      45.808  31.223  28.271  1.00  0.00     0.037 A 
ATOM     50  C   UNL A   1      43.859  24.532  27.201  1.00  0.00     0.037 A 
ATOM     51  C   UNL A   1      46.858  30.336  27.839  1.00  0.00     0.049 A 
ATOM     52  C   UNL A   1      45.267  25.002  26.956  1.00  0.00     0.074 A 
ATOM     53  C   UNL A   1      48.194  30.621  27.629  1.00  0.00     0.029 A 
ATOM     54  N   UNL A   1      46.684  28.989  27.549  1.00  0.00    -0.354 N 
ATOM     55  N   UNL A   1      45.777  26.199  27.129  1.00  0.00    -0.248 NA
ATOM     56  C   UNL A   1      46.222  24.006  26.453  1.00  0.00     0.031 C 
ATOM     57  C   UNL A   1      48.821  29.457  27.171  1.00  0.00     0.029 A 
ATOM     58  C   UNL A   1      47.885  28.434  27.142  1.00  0.00     0.049 A 
ATOM     59  H   UNL A   1      45.832  28.501  27.621  1.00  0.00     0.167 HD
ATOM     60  C   UNL A   1      47.118  26.096  26.774  1.00  0.00     0.074 A 
ATOM     61  C   UNL A   1      47.340  24.716  26.390  1.00  0.00     0.031 C 
ATOM     62  C   UNL A   1      48.078  27.054  26.767  1.00  0.00     0.037 A 
BRANCH  49  63
ATOM     63  C   UNL A   1      46.134  32.670  28.504  1.00  0.00     0.058 A 
ATOM     64  C   UNL A   1      46.553  33.145  29.757  1.00  0.00     0.135 A 
ATOM     65  C   UNL A   1      46.032  33.598  27.454  1.00  0.00     0.135 A 
ATOM     66  F   UNL A   1      46.646  32.306  30.801  1.00  0.00    -0.206 F 
ATOM     67  C   UNL A   1      46.836  34.492  29.967  1.00  0.00     0.059 A 
ATOM     68  C   UNL A   1      46.334  34.944  27.636  1.00  0.00     0.059 A 
ATOM     69  F   UNL A   1      45.628  33.198  26.238  1.00  0.00    -0.206 F 
ATOM     70  C   UNL A   1      46.720  35.384  28.899  1.00  0.00     0.060 A 
BRANCH  70  71
ATOM     71  S   UNL A   1      47.081  37.129  29.188  1.00  0.00     0.124 S 
ATOM     72  O   UNL A   1      45.743  37.672  29.402  1.00  0.00    -0.237 OA
ATOM     73  O   UNL A   1      47.939  37.080  30.368  1.00  0.00    -0.237 OA
ATOM     74  O   UNL A   1      47.740  37.549  27.956  1.00  0.00    -0.744 OA
ENDBRANCH  70  71
ENDBRANCH  49  63
BRANCH  50  75
ATOM     75  C   UNL A   1      43.453  23.128  26.931  1.00  0.00     0.058 A 
ATOM     76  C   UNL A   1      43.335  22.646  25.621  1.00  0.00     0.135 A 
ATOM     77  C   UNL A   1      43.197  22.233  27.983  1.00  0.00     0.135 A 
ATOM     78  F   UNL A   1      43.562  23.464  24.581  1.00  0.00    -0.206 F 
ATOM     79  C   UNL A   1      42.969  21.329  25.359  1.00  0.00     0.059 A 
ATOM     80  C   UNL A   1      42.854  20.906  27.747  1.00  0.00     0.059 A 
ATOM     81  F   UNL A   1      43.307  22.642  29.256  1.00  0.00    -0.206 F 
ATOM     82  C   UNL A   1      42.733  20.465  26.430  1.00  0.00     0.060 A 
BRANCH  82  83
ATOM     83  S   UNL A   1      42.309  18.745  26.082  1.00  0.00     0.124 S 
ATOM     84  O   UNL A   1      42.595  18.108  27.363  1.00  0.00    -0.237 OA
ATOM     85  O   UNL A   1      40.898  18.842  25.719  1.00  0.00    -0.237 OA
ATOM     86  O   UNL A   1      43.207  18.393  24.987  1.00  0.00    -0.744 OA
ENDBRANCH  82  83
ENDBRANCH  50  75
BRANCH  62  87
ATOM     87  C   UNL A   1      49.462  26.635  26.358  1.00  0.00     0.058 A 
ATOM     88  C   UNL A   1      50.372  26.100  27.282  1.00  0.00     0.135 A 
ATOM     89  C   UNL A   1      49.860  26.721  25.014  1.00  0.00     0.135 A 
ATOM     90  F   UNL A   1      50.041  26.005  28.580  1.00  0.00    -0.206 F 
ATOM     91  C   UNL A   1      51.640  25.683  26.892  1.00  0.00     0.059 A 
ATOM     92  C   UNL A   1      51.113  26.284  24.597  1.00  0.00     0.059 A 
ATOM     93  F   UNL A   1      49.021  27.215  24.091  1.00  0.00    -0.206 F 
ATOM     94  C   UNL A   1      52.000  25.778  25.546  1.00  0.00     0.060 A 
BRANCH  94  95
ATOM     95  S   UNL A   1      53.635  25.199  25.044  1.00  0.00     0.124 S 
ATOM     96  O   UNL A   1      53.813  25.890  23.771  1.00  0.00    -0.237 OA
ATOM     97  O   UNL A   1      54.481  25.661  26.140  1.00  0.00    -0.237 OA
ATOM     98  O   UNL A   1      53.470  23.751  24.956  1.00  0.00    -0.744 OA
ENDBRANCH  94  95
ENDBRANCH  62  87
ENDBRANCH  36  37
ENDBRANCH  29  31
ENDBRANCH  28  29
ENDBRANCH  27  28
ENDBRANCH   1  27
TORSDOF 19
ENDMDL
