MODEL 1
REMARK VINA RESULT:     -10.6      0.000      0.000
REMARK SMILES O=C(OCCOC(=O)[C@@H]1CCn2c(C(=O)c3ccccc3)ccc21)c1ccc(-c2c3nc(c(-c4c(F)cc(S(=O)(=O)[O-])cc4F)c4ccc([nH]4)c(-c4c(F)cc(S(=O)(=O)[O-])cc4F)c4nc(c(-c5c(F)cc(S(=O)(=O)[O-])cc5F)c5ccc2[nH]5)C=C4)C=C3)cc1
REMARK SMILES IDX 4 1 3 2 2 3 1 4 25 5 26 6 90 7 27 8 89 9 28 10 29 11 30 12
REMARK SMILES IDX 83 13 31 14 88 15 82 16 84 17 32 18 87 19 81 20 80 21 33 23
REMARK SMILES IDX 67 24 46 25 66 26 47 27 50 28 65 29 85 30 48 31 49 32 64 34
REMARK SMILES IDX 86 35 51 36 34 37 35 38 44 39 36 40 37 41 43 42 45 43 38 44
REMARK SMILES IDX 39 45 40 46 41 47 42 48 68 49 69 50 78 51 70 52 71 53 77 54
REMARK SMILES IDX 79 55 72 56 73 57 74 58 75 59 76 60 52 61 53 62 62 63 54 64
REMARK SMILES IDX 55 65 61 66 63 67 56 68 57 69 58 70 59 71 60 72 5 73 6 74
REMARK SMILES IDX 7 75 8 76 9 77 10 78 24 79 11 80 12 81 23 82 13 83 22 84
REMARK SMILES IDX 14 85 15 86 16 87 17 88 21 89 18 90 20 91 19 92
REMARK H PARENT 84 22 50 33
REMARK Flexibility Score: inf
ROOT
ATOM      1  C   UNL A   1      34.290  33.030  28.015  1.00  0.00     0.275 C 
ENDROOT
BRANCH   1   2
ATOM      2  O   UNL A   1      33.765  31.736  27.701  1.00  0.00    -0.458 OA
BRANCH   2   3
ATOM      3  C   UNL A   1      34.415  30.557  27.571  1.00  0.00     0.338 C 
ATOM      4  O   UNL A   1      33.900  29.678  26.881  1.00  0.00    -0.246 OA
BRANCH   3   5
ATOM      5  C   UNL A   1      35.677  30.228  28.310  1.00  0.00     0.060 A 
ATOM      6  C   UNL A   1      35.789  29.713  29.605  1.00  0.00     0.016 A 
ATOM      7  C   UNL A   1      36.862  30.478  27.614  1.00  0.00     0.016 A 
ATOM      8  C   UNL A   1      37.032  29.346  30.145  1.00  0.00     0.010 A 
ATOM      9  C   UNL A   1      38.098  30.100  28.143  1.00  0.00     0.010 A 
ATOM     10  C   UNL A   1      38.201  29.509  29.406  1.00  0.00    -0.014 A 
BRANCH  10  11
ATOM     11  C   UNL A   1      39.535  29.161  29.965  1.00  0.00     0.031 A 
ATOM     12  C   UNL A   1      40.107  30.040  31.046  1.00  0.00     0.074 A 
ATOM     13  C   UNL A   1      40.250  28.122  29.478  1.00  0.00     0.049 A 
ATOM     14  N   UNL A   1      41.252  29.945  31.668  1.00  0.00    -0.248 NA
ATOM     15  C   UNL A   1      39.286  31.185  31.481  1.00  0.00     0.031 C 
ATOM     16  C   UNL A   1      39.805  27.186  28.442  1.00  0.00     0.029 A 
ATOM     17  N   UNL A   1      41.523  27.693  29.760  1.00  0.00    -0.354 N 
ATOM     18  C   UNL A   1      41.278  31.007  32.563  1.00  0.00     0.074 A 
ATOM     19  C   UNL A   1      40.094  31.797  32.328  1.00  0.00     0.031 C 
ATOM     20  C   UNL A   1      40.809  26.356  28.116  1.00  0.00     0.029 A 
ATOM     21  C   UNL A   1      41.952  26.650  28.967  1.00  0.00     0.049 A 
ATOM     22  H   UNL A   1      42.080  28.093  30.466  1.00  0.00     0.167 HD
ATOM     23  C   UNL A   1      42.179  31.267  33.536  1.00  0.00     0.037 A 
ATOM     24  C   UNL A   1      43.119  25.977  28.956  1.00  0.00     0.037 A 
ATOM     25  C   UNL A   1      43.355  30.473  33.754  1.00  0.00     0.049 A 
ATOM     26  C   UNL A   1      44.111  26.278  30.047  1.00  0.00     0.074 A 
ATOM     27  C   UNL A   1      44.328  30.613  34.725  1.00  0.00     0.029 A 
ATOM     28  N   UNL A   1      43.712  29.379  32.977  1.00  0.00    -0.354 N 
ATOM     29  N   UNL A   1      44.066  27.221  30.959  1.00  0.00    -0.248 NA
ATOM     30  C   UNL A   1      45.268  25.382  30.160  1.00  0.00     0.031 C 
ATOM     31  C   UNL A   1      45.294  29.623  34.513  1.00  0.00     0.029 A 
ATOM     32  C   UNL A   1      44.898  28.839  33.440  1.00  0.00     0.049 A 
ATOM     33  H   UNL A   1      43.198  29.038  32.211  1.00  0.00     0.167 HD
ATOM     34  C   UNL A   1      45.153  26.991  31.794  1.00  0.00     0.074 A 
ATOM     35  C   UNL A   1      45.835  25.823  31.274  1.00  0.00     0.031 C 
ATOM     36  C   UNL A   1      45.546  27.671  32.899  1.00  0.00     0.037 A 
BRANCH  23  37
ATOM     37  C   UNL A   1      41.883  32.431  34.441  1.00  0.00     0.058 A 
ATOM     38  C   UNL A   1      42.135  33.753  34.029  1.00  0.00     0.135 A 
ATOM     39  C   UNL A   1      41.377  32.237  35.734  1.00  0.00     0.135 A 
ATOM     40  F   UNL A   1      42.644  33.996  32.809  1.00  0.00    -0.206 F 
ATOM     41  C   UNL A   1      41.935  34.833  34.878  1.00  0.00     0.059 A 
ATOM     42  C   UNL A   1      41.137  33.308  36.591  1.00  0.00     0.059 A 
ATOM     43  F   UNL A   1      41.128  30.996  36.182  1.00  0.00    -0.206 F 
ATOM     44  C   UNL A   1      41.435  34.601  36.159  1.00  0.00     0.060 A 
BRANCH  44  45
ATOM     45  S   UNL A   1      41.168  36.020  37.240  1.00  0.00     0.124 S 
ATOM     46  O   UNL A   1      41.096  35.382  38.550  1.00  0.00    -0.237 OA
ATOM     47  O   UNL A   1      42.357  36.828  36.993  1.00  0.00    -0.237 OA
ATOM     48  O   UNL A   1      39.915  36.589  36.747  1.00  0.00    -0.744 OA
ENDBRANCH  44  45
ENDBRANCH  23  37
BRANCH  24  49
ATOM     49  C   UNL A   1      43.371  24.889  27.968  1.00  0.00     0.058 A 
ATOM     50  C   UNL A   1      43.002  23.561  28.236  1.00  0.00     0.135 A 
ATOM     51  C   UNL A   1      44.010  25.150  26.745  1.00  0.00     0.135 A 
ATOM     52  F   UNL A   1      42.381  23.260  29.386  1.00  0.00    -0.206 F 
ATOM     53  C   UNL A   1      43.297  22.525  27.356  1.00  0.00     0.059 A 
ATOM     54  C   UNL A   1      44.297  24.131  25.835  1.00  0.00     0.059 A 
ATOM     55  F   UNL A   1      44.358  26.405  26.422  1.00  0.00    -0.206 F 
ATOM     56  C   UNL A   1      43.953  22.819  26.159  1.00  0.00     0.060 A 
BRANCH  56  57
ATOM     57  S   UNL A   1      44.328  21.462  25.024  1.00  0.00     0.124 S 
ATOM     58  O   UNL A   1      45.641  21.040  25.495  1.00  0.00    -0.237 OA
ATOM     59  O   UNL A   1      43.227  20.538  25.283  1.00  0.00    -0.237 OA
ATOM     60  O   UNL A   1      44.301  22.106  23.714  1.00  0.00    -0.744 OA
ENDBRANCH  56  57
ENDBRANCH  24  49
BRANCH  36  61
ATOM     61  C   UNL A   1      46.747  27.149  33.630  1.00  0.00     0.058 A 
ATOM     62  C   UNL A   1      46.628  26.197  34.654  1.00  0.00     0.135 A 
ATOM     63  C   UNL A   1      48.035  27.577  33.271  1.00  0.00     0.135 A 
ATOM     64  F   UNL A   1      45.417  25.761  35.034  1.00  0.00    -0.206 F 
ATOM     65  C   UNL A   1      47.746  25.713  35.323  1.00  0.00     0.059 A 
ATOM     66  C   UNL A   1      49.168  27.082  33.903  1.00  0.00     0.059 A 
ATOM     67  F   UNL A   1      48.200  28.478  32.288  1.00  0.00    -0.206 F 
ATOM     68  C   UNL A   1      49.011  26.161  34.939  1.00  0.00     0.060 A 
BRANCH  68  69
ATOM     69  S   UNL A   1      50.453  25.508  35.801  1.00  0.00     0.124 S 
ATOM     70  O   UNL A   1      51.462  26.515  35.489  1.00  0.00    -0.237 OA
ATOM     71  O   UNL A   1      49.998  25.474  37.188  1.00  0.00    -0.237 OA
ATOM     72  O   UNL A   1      50.656  24.201  35.182  1.00  0.00    -0.744 OA
ENDBRANCH  68  69
ENDBRANCH  36  61
ENDBRANCH  10  11
ENDBRANCH   3   5
ENDBRANCH   2   3
ENDBRANCH   1   2
BRANCH   1  73
ATOM     73  C   UNL A   1      33.274  34.175  28.015  1.00  0.00     0.274 C 
BRANCH  73  74
ATOM     74  O   UNL A   1      32.631  34.446  29.271  1.00  0.00    -0.462 OA
BRANCH  74  75
ATOM     75  C   UNL A   1      33.023  35.582  29.925  1.00  0.00     0.315 C 
ATOM     76  O   UNL A   1      33.261  36.640  29.352  1.00  0.00    -0.251 OA
BRANCH  75  77
ATOM     77  C   UNL A   1      33.228  35.380  31.430  1.00  0.00     0.148 C 
ATOM     78  C   UNL A   1      33.708  36.613  32.224  1.00  0.00     0.043 C 
ATOM     79  C   UNL A   1      34.294  34.392  31.769  1.00  0.00     0.033 A 
ATOM     80  C   UNL A   1      34.576  36.071  33.371  1.00  0.00     0.124 C 
ATOM     81  N   UNL A   1      35.035  34.791  32.860  1.00  0.00    -0.341 N 
ATOM     82  C   UNL A   1      34.788  33.197  31.329  1.00  0.00     0.025 A 
ATOM     83  C   UNL A   1      36.088  33.954  33.095  1.00  0.00     0.090 A 
ATOM     84  C   UNL A   1      35.906  32.918  32.166  1.00  0.00     0.032 A 
BRANCH  83  85
ATOM     85  C   UNL A   1      37.259  34.053  33.973  1.00  0.00     0.209 C 
ATOM     86  O   UNL A   1      38.126  34.903  33.763  1.00  0.00    -0.287 OA
BRANCH  85  87
ATOM     87  C   UNL A   1      37.464  33.235  35.199  1.00  0.00     0.024 A 
ATOM     88  C   UNL A   1      37.403  33.882  36.445  1.00  0.00     0.012 A 
ATOM     89  C   UNL A   1      37.807  31.884  35.153  1.00  0.00     0.012 A 
ATOM     90  C   UNL A   1      37.622  33.173  37.628  1.00  0.00     0.001 A 
ATOM     91  C   UNL A   1      38.001  31.169  36.340  1.00  0.00     0.001 A 
ATOM     92  C   UNL A   1      37.900  31.811  37.576  1.00  0.00     0.000 A 
ENDBRANCH  85  87
ENDBRANCH  83  85
ENDBRANCH  75  77
ENDBRANCH  74  75
ENDBRANCH  73  74
ENDBRANCH   1  73
TORSDOF 16
ENDMDL
MODEL 2
REMARK VINA RESULT:     -10.6      3.593      6.790
REMARK SMILES O=C(OCCOC(=O)[C@@H]1CCn2c(C(=O)c3ccccc3)ccc21)c1ccc(-c2c3nc(c(-c4c(F)cc(S(=O)(=O)[O-])cc4F)c4ccc([nH]4)c(-c4c(F)cc(S(=O)(=O)[O-])cc4F)c4nc(c(-c5c(F)cc(S(=O)(=O)[O-])cc5F)c5ccc2[nH]5)C=C4)C=C3)cc1
REMARK SMILES IDX 4 1 3 2 2 3 1 4 25 5 26 6 90 7 27 8 89 9 28 10 29 11 30 12
REMARK SMILES IDX 83 13 31 14 88 15 82 16 84 17 32 18 87 19 81 20 80 21 33 23
REMARK SMILES IDX 67 24 46 25 66 26 47 27 50 28 65 29 85 30 48 31 49 32 64 34
REMARK SMILES IDX 86 35 51 36 34 37 35 38 44 39 36 40 37 41 43 42 45 43 38 44
REMARK SMILES IDX 39 45 40 46 41 47 42 48 68 49 69 50 78 51 70 52 71 53 77 54
REMARK SMILES IDX 79 55 72 56 73 57 74 58 75 59 76 60 52 61 53 62 62 63 54 64
REMARK SMILES IDX 55 65 61 66 63 67 56 68 57 69 58 70 59 71 60 72 5 73 6 74
REMARK SMILES IDX 7 75 8 76 9 77 10 78 24 79 11 80 12 81 23 82 13 83 22 84
REMARK SMILES IDX 14 85 15 86 16 87 17 88 21 89 18 90 20 91 19 92
REMARK H PARENT 84 22 50 33
REMARK Flexibility Score: inf
ROOT
ATOM      1  C   UNL A   1      32.457  29.105  26.727  1.00  0.00     0.275 C 
ENDROOT
BRANCH   1   2
ATOM      2  O   UNL A   1      33.531  30.027  26.515  1.00  0.00    -0.458 OA
BRANCH   2   3
ATOM      3  C   UNL A   1      34.273  30.700  27.424  1.00  0.00     0.338 C 
ATOM      4  O   UNL A   1      33.884  31.808  27.791  1.00  0.00    -0.246 OA
BRANCH   3   5
ATOM      5  C   UNL A   1      35.598  30.212  27.929  1.00  0.00     0.060 A 
ATOM      6  C   UNL A   1      36.815  30.209  27.240  1.00  0.00     0.016 A 
ATOM      7  C   UNL A   1      35.594  29.700  29.228  1.00  0.00     0.016 A 
ATOM      8  C   UNL A   1      38.011  29.822  27.866  1.00  0.00     0.010 A 
ATOM      9  C   UNL A   1      36.784  29.329  29.856  1.00  0.00     0.010 A 
ATOM     10  C   UNL A   1      38.014  29.404  29.194  1.00  0.00    -0.014 A 
BRANCH  10  11
ATOM     11  C   UNL A   1      39.260  28.956  29.872  1.00  0.00     0.031 A 
ATOM     12  C   UNL A   1      39.724  29.718  31.086  1.00  0.00     0.074 A 
ATOM     13  C   UNL A   1      39.995  27.933  29.382  1.00  0.00     0.049 A 
ATOM     14  N   UNL A   1      40.783  29.524  31.827  1.00  0.00    -0.248 NA
ATOM     15  C   UNL A   1      38.893  30.856  31.520  1.00  0.00     0.031 C 
ATOM     16  C   UNL A   1      39.649  27.106  28.224  1.00  0.00     0.029 A 
ATOM     17  N   UNL A   1      41.212  27.430  29.773  1.00  0.00    -0.354 N 
ATOM     18  C   UNL A   1      40.734  30.506  32.808  1.00  0.00     0.074 A 
ATOM     19  C   UNL A   1      39.612  31.361  32.507  1.00  0.00     0.031 C 
ATOM     20  C   UNL A   1      40.659  26.265  27.946  1.00  0.00     0.029 A 
ATOM     21  C   UNL A   1      41.700  26.441  28.947  1.00  0.00     0.049 A 
ATOM     22  H   UNL A   1      41.692  27.747  30.572  1.00  0.00     0.167 HD
ATOM     23  C   UNL A   1      41.520  30.646  33.899  1.00  0.00     0.037 A 
ATOM     24  C   UNL A   1      42.839  25.723  29.014  1.00  0.00     0.037 A 
ATOM     25  C   UNL A   1      42.635  29.789  34.182  1.00  0.00     0.049 A 
ATOM     26  C   UNL A   1      43.701  25.891  30.236  1.00  0.00     0.074 A 
ATOM     27  C   UNL A   1      43.489  29.807  35.269  1.00  0.00     0.029 A 
ATOM     28  N   UNL A   1      43.049  28.750  33.360  1.00  0.00    -0.354 N 
ATOM     29  N   UNL A   1      43.576  26.755  31.215  1.00  0.00    -0.248 NA
ATOM     30  C   UNL A   1      44.807  24.941  30.404  1.00  0.00     0.031 C 
ATOM     31  C   UNL A   1      44.442  28.800  35.086  1.00  0.00     0.029 A 
ATOM     32  C   UNL A   1      44.153  28.125  33.909  1.00  0.00     0.049 A 
ATOM     33  H   UNL A   1      42.621  28.496  32.511  1.00  0.00     0.167 HD
ATOM     34  C   UNL A   1      44.547  26.412  32.148  1.00  0.00     0.074 A 
ATOM     35  C   UNL A   1      45.250  25.264  31.611  1.00  0.00     0.031 C 
ATOM     36  C   UNL A   1      44.825  26.980  33.347  1.00  0.00     0.037 A 
BRANCH  23  37
ATOM     37  C   UNL A   1      41.154  31.742  34.862  1.00  0.00     0.058 A 
ATOM     38  C   UNL A   1      40.157  31.550  35.836  1.00  0.00     0.135 A 
ATOM     39  C   UNL A   1      41.770  33.000  34.800  1.00  0.00     0.135 A 
ATOM     40  F   UNL A   1      39.515  30.372  35.924  1.00  0.00    -0.206 F 
ATOM     41  C   UNL A   1      39.757  32.574  36.684  1.00  0.00     0.059 A 
ATOM     42  C   UNL A   1      41.409  34.032  35.663  1.00  0.00     0.059 A 
ATOM     43  F   UNL A   1      42.721  33.242  33.883  1.00  0.00    -0.206 F 
ATOM     44  C   UNL A   1      40.389  33.813  36.590  1.00  0.00     0.060 A 
BRANCH  44  45
ATOM     45  S   UNL A   1      39.865  35.125  37.712  1.00  0.00     0.124 S 
ATOM     46  O   UNL A   1      41.021  35.236  38.595  1.00  0.00    -0.237 OA
ATOM     47  O   UNL A   1      39.652  36.245  36.803  1.00  0.00    -0.237 OA
ATOM     48  O   UNL A   1      38.655  34.581  38.326  1.00  0.00    -0.744 OA
ENDBRANCH  44  45
ENDBRANCH  23  37
BRANCH  24  49
ATOM     49  C   UNL A   1      43.173  24.712  27.970  1.00  0.00     0.058 A 
ATOM     50  C   UNL A   1      42.753  23.377  28.087  1.00  0.00     0.135 A 
ATOM     51  C   UNL A   1      43.944  25.053  26.847  1.00  0.00     0.135 A 
ATOM     52  F   UNL A   1      42.007  23.001  29.137  1.00  0.00    -0.206 F 
ATOM     53  C   UNL A   1      43.120  22.408  27.159  1.00  0.00     0.059 A 
ATOM     54  C   UNL A   1      44.307  24.103  25.891  1.00  0.00     0.059 A 
ATOM     55  F   UNL A   1      44.348  26.320  26.667  1.00  0.00    -0.206 F 
ATOM     56  C   UNL A   1      43.905  22.779  26.067  1.00  0.00     0.060 A 
BRANCH  56  57
ATOM     57  S   UNL A   1      44.373  21.509  24.868  1.00  0.00     0.124 S 
ATOM     58  O   UNL A   1      44.171  22.208  23.605  1.00  0.00    -0.237 OA
ATOM     59  O   UNL A   1      45.760  21.240  25.238  1.00  0.00    -0.237 OA
ATOM     60  O   UNL A   1      43.435  20.424  25.147  1.00  0.00    -0.744 OA
ENDBRANCH  56  57
ENDBRANCH  24  49
BRANCH  36  61
ATOM     61  C   UNL A   1      45.913  26.350  34.164  1.00  0.00     0.058 A 
ATOM     62  C   UNL A   1      45.644  25.317  35.075  1.00  0.00     0.135 A 
ATOM     63  C   UNL A   1      47.247  26.759  34.003  1.00  0.00     0.135 A 
ATOM     64  F   UNL A   1      44.384  24.897  35.267  1.00  0.00    -0.206 F 
ATOM     65  C   UNL A   1      46.658  24.734  35.825  1.00  0.00     0.059 A 
ATOM     66  C   UNL A   1      48.280  26.166  34.717  1.00  0.00     0.059 A 
ATOM     67  F   UNL A   1      47.555  27.736  33.134  1.00  0.00    -0.206 F 
ATOM     68  C   UNL A   1      47.972  25.165  35.638  1.00  0.00     0.060 A 
BRANCH  68  69
ATOM     69  S   UNL A   1      49.280  24.383  36.602  1.00  0.00     0.124 S 
ATOM     70  O   UNL A   1      50.440  25.184  36.226  1.00  0.00    -0.237 OA
ATOM     71  O   UNL A   1      48.805  24.558  37.971  1.00  0.00    -0.237 OA
ATOM     72  O   UNL A   1      49.282  23.006  36.117  1.00  0.00    -0.744 OA
ENDBRANCH  68  69
ENDBRANCH  36  61
ENDBRANCH  10  11
ENDBRANCH   3   5
ENDBRANCH   2   3
ENDBRANCH   1   2
BRANCH   1  73
ATOM     73  C   UNL A   1      32.866  27.643  26.917  1.00  0.00     0.274 C 
BRANCH  73  74
ATOM     74  O   UNL A   1      32.291  26.702  25.996  1.00  0.00    -0.462 OA
BRANCH  74  75
ATOM     75  C   UNL A   1      32.972  26.500  24.826  1.00  0.00     0.315 C 
ATOM     76  O   UNL A   1      34.098  26.016  24.778  1.00  0.00    -0.251 OA
BRANCH  75  77
ATOM     77  C   UNL A   1      32.231  27.022  23.590  1.00  0.00     0.148 C 
ATOM     78  C   UNL A   1      32.362  28.532  23.305  1.00  0.00     0.043 C 
ATOM     79  C   UNL A   1      30.749  26.874  23.666  1.00  0.00     0.033 A 
ATOM     80  C   UNL A   1      31.040  28.959  22.649  1.00  0.00     0.124 C 
ATOM     81  N   UNL A   1      30.097  27.964  23.130  1.00  0.00    -0.341 N 
ATOM     82  C   UNL A   1      29.808  25.991  24.114  1.00  0.00     0.025 A 
ATOM     83  C   UNL A   1      28.745  27.889  23.311  1.00  0.00     0.090 A 
ATOM     84  C   UNL A   1      28.554  26.623  23.883  1.00  0.00     0.032 A 
BRANCH  83  85
ATOM     85  C   UNL A   1      27.663  28.862  23.122  1.00  0.00     0.209 C 
ATOM     86  O   UNL A   1      26.507  28.577  23.442  1.00  0.00    -0.287 OA
BRANCH  85  87
ATOM     87  C   UNL A   1      27.857  30.252  22.632  1.00  0.00     0.024 A 
ATOM     88  C   UNL A   1      28.028  30.451  21.251  1.00  0.00     0.012 A 
ATOM     89  C   UNL A   1      27.971  31.344  23.494  1.00  0.00     0.012 A 
ATOM     90  C   UNL A   1      28.248  31.731  20.737  1.00  0.00     0.001 A 
ATOM     91  C   UNL A   1      28.167  32.629  22.974  1.00  0.00     0.001 A 
ATOM     92  C   UNL A   1      28.297  32.823  21.598  1.00  0.00     0.000 A 
ENDBRANCH  85  87
ENDBRANCH  83  85
ENDBRANCH  75  77
ENDBRANCH  74  75
ENDBRANCH  73  74
ENDBRANCH   1  73
TORSDOF 16
ENDMDL
MODEL 3
REMARK VINA RESULT:     -10.5      4.022     11.982
REMARK SMILES O=C(OCCOC(=O)[C@@H]1CCn2c(C(=O)c3ccccc3)ccc21)c1ccc(-c2c3nc(c(-c4c(F)cc(S(=O)(=O)[O-])cc4F)c4ccc([nH]4)c(-c4c(F)cc(S(=O)(=O)[O-])cc4F)c4nc(c(-c5c(F)cc(S(=O)(=O)[O-])cc5F)c5ccc2[nH]5)C=C4)C=C3)cc1
REMARK SMILES IDX 4 1 3 2 2 3 1 4 25 5 26 6 90 7 27 8 89 9 28 10 29 11 30 12
REMARK SMILES IDX 83 13 31 14 88 15 82 16 84 17 32 18 87 19 81 20 80 21 33 23
REMARK SMILES IDX 67 24 46 25 66 26 47 27 50 28 65 29 85 30 48 31 49 32 64 34
REMARK SMILES IDX 86 35 51 36 34 37 35 38 44 39 36 40 37 41 43 42 45 43 38 44
REMARK SMILES IDX 39 45 40 46 41 47 42 48 68 49 69 50 78 51 70 52 71 53 77 54
REMARK SMILES IDX 79 55 72 56 73 57 74 58 75 59 76 60 52 61 53 62 62 63 54 64
REMARK SMILES IDX 55 65 61 66 63 67 56 68 57 69 58 70 59 71 60 72 5 73 6 74
REMARK SMILES IDX 7 75 8 76 9 77 10 78 24 79 11 80 12 81 23 82 13 83 22 84
REMARK SMILES IDX 14 85 15 86 16 87 17 88 21 89 18 90 20 91 19 92
REMARK H PARENT 84 22 50 33
REMARK Flexibility Score: inf
ROOT
ATOM      1  C   UNL A   1      43.940  23.523  24.937  1.00  0.00     0.275 C 
ENDROOT
BRANCH   1   2
ATOM      2  O   UNL A   1      43.663  24.502  25.944  1.00  0.00    -0.458 OA
BRANCH   2   3
ATOM      3  C   UNL A   1      42.598  25.328  26.065  1.00  0.00     0.338 C 
ATOM      4  O   UNL A   1      41.781  25.368  25.146  1.00  0.00    -0.246 OA
BRANCH   3   5
ATOM      5  C   UNL A   1      42.417  26.274  27.214  1.00  0.00     0.060 A 
ATOM      6  C   UNL A   1      43.146  27.439  27.472  1.00  0.00     0.016 A 
ATOM      7  C   UNL A   1      41.410  25.933  28.120  1.00  0.00     0.016 A 
ATOM      8  C   UNL A   1      42.806  28.299  28.528  1.00  0.00     0.010 A 
ATOM      9  C   UNL A   1      41.060  26.794  29.161  1.00  0.00     0.010 A 
ATOM     10  C   UNL A   1      41.737  28.000  29.370  1.00  0.00    -0.014 A 
BRANCH  10  11
ATOM     11  C   UNL A   1      41.375  28.875  30.517  1.00  0.00     0.031 A 
ATOM     12  C   UNL A   1      42.094  28.671  31.824  1.00  0.00     0.074 A 
ATOM     13  C   UNL A   1      40.384  29.789  30.416  1.00  0.00     0.049 A 
ATOM     14  N   UNL A   1      41.936  29.298  32.960  1.00  0.00    -0.248 NA
ATOM     15  C   UNL A   1      43.122  27.614  31.864  1.00  0.00     0.031 C 
ATOM     16  C   UNL A   1      39.620  30.095  29.204  1.00  0.00     0.029 A 
ATOM     17  N   UNL A   1      39.818  30.613  31.358  1.00  0.00    -0.354 N 
ATOM     18  C   UNL A   1      42.846  28.716  33.835  1.00  0.00     0.074 A 
ATOM     19  C   UNL A   1      43.469  27.616  33.139  1.00  0.00     0.031 C 
ATOM     20  C   UNL A   1      38.637  30.964  29.491  1.00  0.00     0.029 A 
ATOM     21  C   UNL A   1      38.740  31.336  30.895  1.00  0.00     0.049 A 
ATOM     22  H   UNL A   1      40.152  30.680  32.282  1.00  0.00     0.167 HD
ATOM     23  C   UNL A   1      43.176  29.102  35.087  1.00  0.00     0.037 A 
ATOM     24  C   UNL A   1      37.950  32.232  31.518  1.00  0.00     0.037 A 
ATOM     25  C   UNL A   1      42.543  30.196  35.766  1.00  0.00     0.049 A 
ATOM     26  C   UNL A   1      38.332  32.652  32.912  1.00  0.00     0.074 A 
ATOM     27  C   UNL A   1      42.808  30.707  37.023  1.00  0.00     0.029 A 
ATOM     28  N   UNL A   1      41.508  30.953  35.232  1.00  0.00    -0.354 N 
ATOM     29  N   UNL A   1      39.272  32.164  33.687  1.00  0.00    -0.248 NA
ATOM     30  C   UNL A   1      37.606  33.790  33.485  1.00  0.00     0.031 C 
ATOM     31  C   UNL A   1      41.908  31.751  37.263  1.00  0.00     0.029 A 
ATOM     32  C   UNL A   1      41.116  31.921  36.138  1.00  0.00     0.049 A 
ATOM     33  H   UNL A   1      41.113  30.819  34.341  1.00  0.00     0.167 HD
ATOM     34  C   UNL A   1      39.294  32.977  34.813  1.00  0.00     0.074 A 
ATOM     35  C   UNL A   1      38.271  33.984  34.616  1.00  0.00     0.031 C 
ATOM     36  C   UNL A   1      40.095  32.911  35.905  1.00  0.00     0.037 A 
BRANCH  23  37
ATOM     37  C   UNL A   1      44.292  28.349  35.757  1.00  0.00     0.058 A 
ATOM     38  C   UNL A   1      44.027  27.250  36.594  1.00  0.00     0.135 A 
ATOM     39  C   UNL A   1      45.630  28.736  35.594  1.00  0.00     0.135 A 
ATOM     40  F   UNL A   1      42.761  26.852  36.807  1.00  0.00    -0.206 F 
ATOM     41  C   UNL A   1      45.040  26.590  37.276  1.00  0.00     0.059 A 
ATOM     42  C   UNL A   1      46.666  28.068  36.242  1.00  0.00     0.059 A 
ATOM     43  F   UNL A   1      45.940  29.784  34.814  1.00  0.00    -0.206 F 
ATOM     44  C   UNL A   1      46.358  27.007  37.094  1.00  0.00     0.060 A 
BRANCH  44  45
ATOM     45  S   UNL A   1      47.661  26.125  37.977  1.00  0.00     0.124 S 
ATOM     46  O   UNL A   1      47.468  26.604  39.341  1.00  0.00    -0.237 OA
ATOM     47  O   UNL A   1      47.310  24.730  37.739  1.00  0.00    -0.237 OA
ATOM     48  O   UNL A   1      48.885  26.580  37.318  1.00  0.00    -0.744 OA
ENDBRANCH  44  45
ENDBRANCH  23  37
BRANCH  24  49
ATOM     49  C   UNL A   1      36.806  32.873  30.809  1.00  0.00     0.058 A 
ATOM     50  C   UNL A   1      37.012  33.889  29.862  1.00  0.00     0.135 A 
ATOM     51  C   UNL A   1      35.479  32.502  31.084  1.00  0.00     0.135 A 
ATOM     52  F   UNL A   1      38.260  34.274  29.556  1.00  0.00    -0.206 F 
ATOM     53  C   UNL A   1      35.950  34.546  29.248  1.00  0.00     0.059 A 
ATOM     54  C   UNL A   1      34.398  33.132  30.465  1.00  0.00     0.059 A 
ATOM     55  F   UNL A   1      35.224  31.517  31.958  1.00  0.00    -0.206 F 
ATOM     56  C   UNL A   1      34.645  34.166  29.562  1.00  0.00     0.060 A 
BRANCH  56  57
ATOM     57  S   UNL A   1      33.276  35.028  28.754  1.00  0.00     0.124 S 
ATOM     58  O   UNL A   1      32.498  35.482  29.900  1.00  0.00    -0.237 OA
ATOM     59  O   UNL A   1      33.974  36.066  28.002  1.00  0.00    -0.237 OA
ATOM     60  O   UNL A   1      32.656  33.984  27.942  1.00  0.00    -0.744 OA
ENDBRANCH  56  57
ENDBRANCH  24  49
BRANCH  36  61
ATOM     61  C   UNL A   1      39.912  33.972  36.949  1.00  0.00     0.058 A 
ATOM     62  C   UNL A   1      40.526  35.228  36.836  1.00  0.00     0.135 A 
ATOM     63  C   UNL A   1      39.080  33.740  38.056  1.00  0.00     0.135 A 
ATOM     64  F   UNL A   1      41.335  35.494  35.798  1.00  0.00    -0.206 F 
ATOM     65  C   UNL A   1      40.349  36.208  37.804  1.00  0.00     0.059 A 
ATOM     66  C   UNL A   1      38.861  34.717  39.018  1.00  0.00     0.059 A 
ATOM     67  F   UNL A   1      38.461  32.557  38.201  1.00  0.00    -0.206 F 
ATOM     68  C   UNL A   1      39.513  35.943  38.891  1.00  0.00     0.060 A 
BRANCH  68  69
ATOM     69  S   UNL A   1      39.275  37.233  40.128  1.00  0.00     0.124 S 
ATOM     70  O   UNL A   1      38.530  36.516  41.158  1.00  0.00    -0.237 OA
ATOM     71  O   UNL A   1      40.647  37.592  40.472  1.00  0.00    -0.237 OA
ATOM     72  O   UNL A   1      38.526  38.259  39.408  1.00  0.00    -0.744 OA
ENDBRANCH  68  69
ENDBRANCH  36  61
ENDBRANCH  10  11
ENDBRANCH   3   5
ENDBRANCH   2   3
ENDBRANCH   1   2
BRANCH   1  73
ATOM     73  C   UNL A   1      43.649  22.072  25.327  1.00  0.00     0.274 C 
BRANCH  73  74
ATOM     74  O   UNL A   1      42.261  21.713  25.428  1.00  0.00    -0.462 OA
BRANCH  74  75
ATOM     75  C   UNL A   1      41.739  21.647  26.690  1.00  0.00     0.315 C 
ATOM     76  O   UNL A   1      42.384  21.908  27.701  1.00  0.00    -0.251 OA
BRANCH  75  77
ATOM     77  C   UNL A   1      40.298  21.126  26.729  1.00  0.00     0.148 C 
ATOM     78  C   UNL A   1      39.961  19.982  25.751  1.00  0.00     0.043 C 
ATOM     79  C   UNL A   1      39.277  22.142  26.342  1.00  0.00     0.033 A 
ATOM     80  C   UNL A   1      38.485  20.170  25.366  1.00  0.00     0.124 C 
ATOM     81  N   UNL A   1      38.267  21.590  25.585  1.00  0.00    -0.341 N 
ATOM     82  C   UNL A   1      39.020  23.475  26.492  1.00  0.00     0.025 A 
ATOM     83  C   UNL A   1      37.398  22.538  25.123  1.00  0.00     0.090 A 
ATOM     84  C   UNL A   1      37.839  23.721  25.737  1.00  0.00     0.032 A 
BRANCH  83  85
ATOM     85  C   UNL A   1      36.316  22.497  24.134  1.00  0.00     0.209 C 
ATOM     86  O   UNL A   1      36.481  22.973  23.009  1.00  0.00    -0.287 OA
BRANCH  85  87
ATOM     87  C   UNL A   1      35.005  21.828  24.348  1.00  0.00     0.024 A 
ATOM     88  C   UNL A   1      33.885  22.330  23.663  1.00  0.00     0.012 A 
ATOM     89  C   UNL A   1      34.829  20.794  25.268  1.00  0.00     0.012 A 
ATOM     90  C   UNL A   1      32.621  21.765  23.851  1.00  0.00     0.001 A 
ATOM     91  C   UNL A   1      33.567  20.212  25.436  1.00  0.00     0.001 A 
ATOM     92  C   UNL A   1      32.467  20.692  24.723  1.00  0.00     0.000 A 
ENDBRANCH  85  87
ENDBRANCH  83  85
ENDBRANCH  75  77
ENDBRANCH  74  75
ENDBRANCH  73  74
ENDBRANCH   1  73
TORSDOF 16
ENDMDL
