MODEL 1
REMARK VINA RESULT:     -11.1      0.000      0.000
REMARK SMILES O=C(Cc1csc(NC(=O)[C@H]2CC(=O)N(C3CC3)C2)n1)OCCOC(=O)c1ccc(-c2c3nc(c(-c4c(F)cc(S(=O)(=O)[O-])cc4F)c4ccc([nH]4)c(-c4c(F)cc(S(=O)(=O)[O-])cc4F)c4nc(c(-c5c(F)cc(S(=O)(=O)[O-])cc5F)c5ccc2[nH]5)C=C4)C=C3)cc1
REMARK SMILES IDX 22 1 21 2 2 3 1 4 3 5 4 6 5 7 20 8 6 9 7 10 8 11 9 12 10 14
REMARK SMILES IDX 11 15 12 16 19 17 13 18 15 19 14 20 16 21 17 22 18 23 23 24
REMARK SMILES IDX 24 25 25 26 26 27 27 28 28 29 92 30 29 31 91 32 30 33 31 34
REMARK SMILES IDX 32 35 85 36 33 37 90 38 84 39 86 40 34 41 89 42 83 43 82 44
REMARK SMILES IDX 35 46 69 47 48 48 68 49 49 50 52 51 67 52 87 53 50 54 51 55
REMARK SMILES IDX 66 57 88 58 53 59 36 60 37 61 46 62 38 63 39 64 45 65 47 66
REMARK SMILES IDX 40 67 41 68 42 69 43 70 44 71 70 72 71 73 80 74 72 75 73 76
REMARK SMILES IDX 79 77 81 78 74 79 75 80 76 81 77 82 78 83 54 84 55 85 64 86
REMARK SMILES IDX 56 87 57 88 63 89 65 90 58 91 59 92 60 93 61 94 62 95
REMARK H PARENT 8 13 86 45 52 56
REMARK Flexibility Score: inf
ROOT
ATOM      1  C   UNL A   1      39.452  21.448  26.182  1.00  0.00     0.274 C 
ENDROOT
BRANCH   1   2
ATOM      2  O   UNL A   1      38.379  22.252  25.645  1.00  0.00    -0.462 OA
BRANCH   2   3
ATOM      3  C   UNL A   1      37.386  21.860  24.810  1.00  0.00     0.312 C 
ATOM      4  O   UNL A   1      36.942  22.665  23.991  1.00  0.00    -0.252 OA
BRANCH   3   5
ATOM      5  C   UNL A   1      36.765  20.498  24.959  1.00  0.00     0.179 C 
BRANCH   5   6
ATOM      6  C   UNL A   1      35.290  20.472  25.092  1.00  0.00     0.065 A 
ATOM      7  C   UNL A   1      34.455  19.530  24.520  1.00  0.00     0.093 A 
ATOM      8  N   UNL A   1      34.650  21.401  25.891  1.00  0.00    -0.224 NA
ATOM      9  S   UNL A   1      32.842  19.924  24.875  1.00  0.00    -0.105 S 
ATOM     10  C   UNL A   1      33.362  21.151  25.929  1.00  0.00     0.189 A 
BRANCH  10  11
ATOM     11  N   UNL A   1      32.535  21.894  26.728  1.00  0.00    -0.302 N 
ATOM     12  C   UNL A   1      32.082  23.175  26.684  1.00  0.00     0.231 C 
ATOM     13  H   UNL A   1      32.194  21.390  27.502  1.00  0.00     0.172 HD
ATOM     14  O   UNL A   1      31.423  23.579  27.648  1.00  0.00    -0.274 OA
BRANCH  12  15
ATOM     15  C   UNL A   1      32.360  24.090  25.520  1.00  0.00     0.107 C 
ATOM     16  C   UNL A   1      31.477  23.827  24.303  1.00  0.00     0.115 C 
ATOM     17  C   UNL A   1      32.043  25.549  25.800  1.00  0.00     0.133 C 
ATOM     18  C   UNL A   1      31.635  25.116  23.538  1.00  0.00     0.223 C 
ATOM     19  N   UNL A   1      31.982  26.102  24.468  1.00  0.00    -0.339 N 
ATOM     20  O   UNL A   1      31.491  25.225  22.332  1.00  0.00    -0.275 OA
BRANCH  19  21
ATOM     21  C   UNL A   1      32.260  27.478  24.218  1.00  0.00     0.085 C 
ATOM     22  C   UNL A   1      31.221  28.497  23.840  1.00  0.00     0.027 C 
ATOM     23  C   UNL A   1      31.849  28.536  25.203  1.00  0.00     0.027 C 
ENDBRANCH  19  21
ENDBRANCH  12  15
ENDBRANCH  10  11
ENDBRANCH   5   6
ENDBRANCH   3   5
ENDBRANCH   2   3
ENDBRANCH   1   2
BRANCH   1  24
ATOM     24  C   UNL A   1      40.767  22.221  26.261  1.00  0.00     0.275 C 
BRANCH  24  25
ATOM     25  O   UNL A   1      40.594  23.417  27.039  1.00  0.00    -0.458 OA
BRANCH  25  26
ATOM     26  C   UNL A   1      41.468  24.424  26.782  1.00  0.00     0.338 C 
ATOM     27  O   UNL A   1      42.199  24.527  25.814  1.00  0.00    -0.246 OA
BRANCH  26  28
ATOM     28  C   UNL A   1      41.219  25.510  27.758  1.00  0.00     0.060 A 
ATOM     29  C   UNL A   1      42.192  26.511  27.889  1.00  0.00     0.016 A 
ATOM     30  C   UNL A   1      40.016  25.597  28.464  1.00  0.00     0.016 A 
ATOM     31  C   UNL A   1      41.963  27.602  28.729  1.00  0.00     0.010 A 
ATOM     32  C   UNL A   1      39.796  26.679  29.319  1.00  0.00     0.010 A 
ATOM     33  C   UNL A   1      40.774  27.677  29.467  1.00  0.00    -0.014 A 
BRANCH  33  34
ATOM     34  C   UNL A   1      40.618  28.697  30.529  1.00  0.00     0.031 A 
ATOM     35  C   UNL A   1      41.452  28.557  31.771  1.00  0.00     0.074 A 
ATOM     36  C   UNL A   1      39.726  29.696  30.418  1.00  0.00     0.049 A 
ATOM     37  N   UNL A   1      41.448  29.283  32.857  1.00  0.00    -0.248 NA
ATOM     38  C   UNL A   1      42.412  27.441  31.790  1.00  0.00     0.031 C 
ATOM     39  C   UNL A   1      38.866  29.941  29.262  1.00  0.00     0.029 A 
ATOM     40  N   UNL A   1      39.382  30.683  31.310  1.00  0.00    -0.354 N 
ATOM     41  C   UNL A   1      42.402  28.712  33.690  1.00  0.00     0.074 A 
ATOM     42  C   UNL A   1      42.944  27.564  32.995  1.00  0.00     0.031 C 
ATOM     43  C   UNL A   1      38.068  30.991  29.528  1.00  0.00     0.029 A 
ATOM     44  C   UNL A   1      38.350  31.480  30.878  1.00  0.00     0.049 A 
ATOM     45  H   UNL A   1      39.833  30.807  32.176  1.00  0.00     0.167 HD
ATOM     46  C   UNL A   1      42.794  29.110  34.923  1.00  0.00     0.037 A 
ATOM     47  C   UNL A   1      37.693  32.474  31.511  1.00  0.00     0.037 A 
ATOM     48  C   UNL A   1      42.241  30.237  35.620  1.00  0.00     0.049 A 
ATOM     49  C   UNL A   1      38.109  32.869  32.905  1.00  0.00     0.074 A 
ATOM     50  C   UNL A   1      42.595  30.739  36.860  1.00  0.00     0.029 A 
ATOM     51  N   UNL A   1      41.202  31.025  35.150  1.00  0.00    -0.354 N 
ATOM     52  N   UNL A   1      39.061  32.366  33.655  1.00  0.00    -0.248 NA
ATOM     53  C   UNL A   1      37.366  33.969  33.539  1.00  0.00     0.031 C 
ATOM     54  C   UNL A   1      41.739  31.804  37.158  1.00  0.00     0.029 A 
ATOM     55  C   UNL A   1      40.882  31.992  36.085  1.00  0.00     0.049 A 
ATOM     56  H   UNL A   1      40.759  30.912  34.277  1.00  0.00     0.167 HD
ATOM     57  C   UNL A   1      39.047  33.102  34.836  1.00  0.00     0.074 A 
ATOM     58  C   UNL A   1      37.994  34.088  34.702  1.00  0.00     0.031 C 
ATOM     59  C   UNL A   1      39.838  32.976  35.931  1.00  0.00     0.037 A 
BRANCH  46  60
ATOM     60  C   UNL A   1      43.853  28.288  35.596  1.00  0.00     0.058 A 
ATOM     61  C   UNL A   1      43.525  27.216  36.441  1.00  0.00     0.135 A 
ATOM     62  C   UNL A   1      45.212  28.590  35.411  1.00  0.00     0.135 A 
ATOM     63  F   UNL A   1      42.239  26.903  36.666  1.00  0.00    -0.206 F 
ATOM     64  C   UNL A   1      44.507  26.493  37.109  1.00  0.00     0.059 A 
ATOM     65  C   UNL A   1      46.211  27.866  36.052  1.00  0.00     0.059 A 
ATOM     66  F   UNL A   1      45.575  29.610  34.620  1.00  0.00    -0.206 F 
ATOM     67  C   UNL A   1      45.847  26.832  36.916  1.00  0.00     0.060 A 
BRANCH  67  68
ATOM     68  S   UNL A   1      47.111  25.912  37.816  1.00  0.00     0.124 S 
ATOM     69  O   UNL A   1      47.221  26.696  39.041  1.00  0.00    -0.237 OA
ATOM     70  O   UNL A   1      46.498  24.594  37.961  1.00  0.00    -0.237 OA
ATOM     71  O   UNL A   1      48.267  25.967  36.928  1.00  0.00    -0.744 OA
ENDBRANCH  67  68
ENDBRANCH  46  60
BRANCH  47  72
ATOM     72  C   UNL A   1      36.561  33.160  30.834  1.00  0.00     0.058 A 
ATOM     73  C   UNL A   1      35.237  32.940  31.236  1.00  0.00     0.135 A 
ATOM     74  C   UNL A   1      36.785  34.056  29.777  1.00  0.00     0.135 A 
ATOM     75  F   UNL A   1      34.971  32.083  32.233  1.00  0.00    -0.206 F 
ATOM     76  C   UNL A   1      34.171  33.580  30.611  1.00  0.00     0.059 A 
ATOM     77  C   UNL A   1      35.738  34.724  29.150  1.00  0.00     0.059 A 
ATOM     78  F   UNL A   1      38.037  34.305  29.362  1.00  0.00    -0.206 F 
ATOM     79  C   UNL A   1      34.431  34.473  29.570  1.00  0.00     0.060 A 
BRANCH  79  80
ATOM     80  S   UNL A   1      33.043  35.340  28.806  1.00  0.00     0.124 S 
ATOM     81  O   UNL A   1      32.227  35.668  29.969  1.00  0.00    -0.237 OA
ATOM     82  O   UNL A   1      33.706  36.464  28.153  1.00  0.00    -0.237 OA
ATOM     83  O   UNL A   1      32.481  34.342  27.900  1.00  0.00    -0.744 OA
ENDBRANCH  79  80
ENDBRANCH  47  72
BRANCH  59  84
ATOM     84  C   UNL A   1      39.629  33.937  37.067  1.00  0.00     0.058 A 
ATOM     85  C   UNL A   1      38.836  33.605  38.176  1.00  0.00     0.135 A 
ATOM     86  C   UNL A   1      40.318  35.161  37.095  1.00  0.00     0.135 A 
ATOM     87  F   UNL A   1      38.154  32.450  38.196  1.00  0.00    -0.206 F 
ATOM     88  C   UNL A   1      38.733  34.452  39.274  1.00  0.00     0.059 A 
ATOM     89  C   UNL A   1      40.246  36.015  38.192  1.00  0.00     0.059 A 
ATOM     90  F   UNL A   1      41.098  35.521  36.063  1.00  0.00    -0.206 F 
ATOM     91  C   UNL A   1      39.449  35.652  39.276  1.00  0.00     0.060 A 
BRANCH  91  92
ATOM     92  S   UNL A   1      39.370  36.708  40.740  1.00  0.00     0.124 S 
ATOM     93  O   UNL A   1      38.657  37.872  40.225  1.00  0.00    -0.237 OA
ATOM     94  O   UNL A   1      38.629  35.879  41.686  1.00  0.00    -0.237 OA
ATOM     95  O   UNL A   1      40.773  36.929  41.075  1.00  0.00    -0.744 OA
ENDBRANCH  91  92
ENDBRANCH  59  84
ENDBRANCH  33  34
ENDBRANCH  26  28
ENDBRANCH  25  26
ENDBRANCH  24  25
ENDBRANCH   1  24
TORSDOF 18
ENDMDL
MODEL 2
REMARK VINA RESULT:     -10.9      6.348     12.161
REMARK SMILES O=C(Cc1csc(NC(=O)[C@H]2CC(=O)N(C3CC3)C2)n1)OCCOC(=O)c1ccc(-c2c3nc(c(-c4c(F)cc(S(=O)(=O)[O-])cc4F)c4ccc([nH]4)c(-c4c(F)cc(S(=O)(=O)[O-])cc4F)c4nc(c(-c5c(F)cc(S(=O)(=O)[O-])cc5F)c5ccc2[nH]5)C=C4)C=C3)cc1
REMARK SMILES IDX 22 1 21 2 2 3 1 4 3 5 4 6 5 7 20 8 6 9 7 10 8 11 9 12 10 14
REMARK SMILES IDX 11 15 12 16 19 17 13 18 15 19 14 20 16 21 17 22 18 23 23 24
REMARK SMILES IDX 24 25 25 26 26 27 27 28 28 29 92 30 29 31 91 32 30 33 31 34
REMARK SMILES IDX 32 35 85 36 33 37 90 38 84 39 86 40 34 41 89 42 83 43 82 44
REMARK SMILES IDX 35 46 69 47 48 48 68 49 49 50 52 51 67 52 87 53 50 54 51 55
REMARK SMILES IDX 66 57 88 58 53 59 36 60 37 61 46 62 38 63 39 64 45 65 47 66
REMARK SMILES IDX 40 67 41 68 42 69 43 70 44 71 70 72 71 73 80 74 72 75 73 76
REMARK SMILES IDX 79 77 81 78 74 79 75 80 76 81 77 82 78 83 54 84 55 85 64 86
REMARK SMILES IDX 56 87 57 88 63 89 65 90 58 91 59 92 60 93 61 94 62 95
REMARK H PARENT 8 13 86 45 52 56
REMARK Flexibility Score: inf
ROOT
ATOM      1  C   UNL A   1      34.277  32.152  27.921  1.00  0.00     0.274 C 
ENDROOT
BRANCH   1   2
ATOM      2  O   UNL A   1      33.226  31.165  27.845  1.00  0.00    -0.462 OA
BRANCH   2   3
ATOM      3  C   UNL A   1      32.986  30.284  26.844  1.00  0.00     0.312 C 
ATOM      4  O   UNL A   1      32.135  30.559  25.997  1.00  0.00    -0.252 OA
BRANCH   3   5
ATOM      5  C   UNL A   1      33.672  28.945  26.833  1.00  0.00     0.179 C 
BRANCH   5   6
ATOM      6  C   UNL A   1      32.910  27.835  26.215  1.00  0.00     0.065 A 
ATOM      7  C   UNL A   1      31.716  27.326  26.691  1.00  0.00     0.093 A 
ATOM      8  N   UNL A   1      33.348  27.267  25.033  1.00  0.00    -0.224 NA
ATOM      9  S   UNL A   1      31.235  26.021  25.717  1.00  0.00    -0.105 S 
ATOM     10  C   UNL A   1      32.491  26.361  24.623  1.00  0.00     0.189 A 
BRANCH  10  11
ATOM     11  N   UNL A   1      32.675  25.723  23.427  1.00  0.00    -0.302 N 
ATOM     12  C   UNL A   1      33.508  24.737  23.002  1.00  0.00     0.231 C 
ATOM     13  H   UNL A   1      32.072  26.050  22.720  1.00  0.00     0.172 HD
ATOM     14  O   UNL A   1      33.498  24.464  21.796  1.00  0.00    -0.274 OA
BRANCH  12  15
ATOM     15  C   UNL A   1      34.420  23.991  23.940  1.00  0.00     0.107 C 
ATOM     16  C   UNL A   1      33.716  22.909  24.756  1.00  0.00     0.115 C 
ATOM     17  C   UNL A   1      35.488  23.173  23.234  1.00  0.00     0.133 C 
ATOM     18  C   UNL A   1      34.884  22.069  25.206  1.00  0.00     0.223 C 
ATOM     19  N   UNL A   1      35.911  22.270  24.277  1.00  0.00    -0.339 N 
ATOM     20  O   UNL A   1      34.889  21.373  26.207  1.00  0.00    -0.275 OA
BRANCH  19  21
ATOM     21  C   UNL A   1      37.222  21.707  24.291  1.00  0.00     0.085 C 
ATOM     22  C   UNL A   1      38.146  21.744  25.477  1.00  0.00     0.027 C 
ATOM     23  C   UNL A   1      37.510  20.449  25.059  1.00  0.00     0.027 C 
ENDBRANCH  19  21
ENDBRANCH  12  15
ENDBRANCH  10  11
ENDBRANCH   5   6
ENDBRANCH   3   5
ENDBRANCH   2   3
ENDBRANCH   1   2
BRANCH   1  24
ATOM     24  C   UNL A   1      35.111  32.009  29.193  1.00  0.00     0.275 C 
BRANCH  24  25
ATOM     25  O   UNL A   1      35.779  30.737  29.207  1.00  0.00    -0.458 OA
BRANCH  25  26
ATOM     26  C   UNL A   1      36.400  30.405  30.369  1.00  0.00     0.338 C 
ATOM     27  O   UNL A   1      35.875  30.228  31.452  1.00  0.00    -0.246 OA
BRANCH  26  28
ATOM     28  C   UNL A   1      37.804  30.054  30.056  1.00  0.00     0.060 A 
ATOM     29  C   UNL A   1      38.170  29.949  28.707  1.00  0.00     0.016 A 
ATOM     30  C   UNL A   1      38.767  29.920  31.062  1.00  0.00     0.016 A 
ATOM     31  C   UNL A   1      39.501  29.709  28.361  1.00  0.00     0.010 A 
ATOM     32  C   UNL A   1      40.094  29.661  30.714  1.00  0.00     0.010 A 
ATOM     33  C   UNL A   1      40.463  29.539  29.364  1.00  0.00    -0.014 A 
BRANCH  33  34
ATOM     34  C   UNL A   1      41.821  29.055  29.023  1.00  0.00     0.031 A 
ATOM     35  C   UNL A   1      42.941  30.055  28.995  1.00  0.00     0.074 A 
ATOM     36  C   UNL A   1      42.049  27.770  28.702  1.00  0.00     0.049 A 
ATOM     37  N   UNL A   1      44.194  29.887  28.666  1.00  0.00    -0.248 NA
ATOM     38  C   UNL A   1      42.594  31.434  29.379  1.00  0.00     0.031 C 
ATOM     39  C   UNL A   1      41.047  26.705  28.700  1.00  0.00     0.029 A 
ATOM     40  N   UNL A   1      43.203  27.149  28.291  1.00  0.00    -0.354 N 
ATOM     41  C   UNL A   1      44.786  31.136  28.803  1.00  0.00     0.074 A 
ATOM     42  C   UNL A   1      43.750  32.058  29.217  1.00  0.00     0.031 C 
ATOM     43  C   UNL A   1      41.624  25.566  28.275  1.00  0.00     0.029 A 
ATOM     44  C   UNL A   1      43.028  25.827  27.958  1.00  0.00     0.049 A 
ATOM     45  H   UNL A   1      44.072  27.607  28.239  1.00  0.00     0.167 HD
ATOM     46  C   UNL A   1      46.079  31.484  28.605  1.00  0.00     0.037 A 
ATOM     47  C   UNL A   1      43.898  24.938  27.435  1.00  0.00     0.037 A 
ATOM     48  C   UNL A   1      47.103  30.574  28.175  1.00  0.00     0.049 A 
ATOM     49  C   UNL A   1      45.322  25.359  27.172  1.00  0.00     0.074 A 
ATOM     50  C   UNL A   1      48.449  30.825  27.977  1.00  0.00     0.029 A 
ATOM     51  N   UNL A   1      46.891  29.242  27.854  1.00  0.00    -0.354 N 
ATOM     52  N   UNL A   1      45.887  26.526  27.372  1.00  0.00    -0.248 NA
ATOM     53  C   UNL A   1      46.228  24.343  26.615  1.00  0.00     0.031 C 
ATOM     54  C   UNL A   1      49.043  29.654  27.494  1.00  0.00     0.029 A 
ATOM     55  C   UNL A   1      48.075  28.664  27.432  1.00  0.00     0.049 A 
ATOM     56  H   UNL A   1      46.025  28.777  27.918  1.00  0.00     0.167 HD
ATOM     57  C   UNL A   1      47.217  26.377  26.990  1.00  0.00     0.074 A 
ATOM     58  C   UNL A   1      47.375  25.007  26.549  1.00  0.00     0.031 C 
ATOM     59  C   UNL A   1      48.218  27.293  27.008  1.00  0.00     0.037 A 
BRANCH  46  60
ATOM     60  C   UNL A   1      46.436  32.925  28.826  1.00  0.00     0.058 A 
ATOM     61  C   UNL A   1      46.842  33.397  30.084  1.00  0.00     0.135 A 
ATOM     62  C   UNL A   1      46.351  33.848  27.771  1.00  0.00     0.135 A 
ATOM     63  F   UNL A   1      46.916  32.557  31.129  1.00  0.00    -0.206 F 
ATOM     64  C   UNL A   1      47.116  34.743  30.299  1.00  0.00     0.059 A 
ATOM     65  C   UNL A   1      46.643  35.194  27.958  1.00  0.00     0.059 A 
ATOM     66  F   UNL A   1      45.961  33.446  26.552  1.00  0.00    -0.206 F 
ATOM     67  C   UNL A   1      47.004  35.636  29.231  1.00  0.00     0.060 A 
BRANCH  67  68
ATOM     68  S   UNL A   1      47.326  37.386  29.530  1.00  0.00     0.124 S 
ATOM     69  O   UNL A   1      45.982  37.885  29.795  1.00  0.00    -0.237 OA
ATOM     70  O   UNL A   1      48.226  37.348  30.680  1.00  0.00    -0.237 OA
ATOM     71  O   UNL A   1      47.930  37.836  28.280  1.00  0.00    -0.744 OA
ENDBRANCH  67  68
ENDBRANCH  46  60
BRANCH  47  72
ATOM     72  C   UNL A   1      43.443  23.560  27.115  1.00  0.00     0.058 A 
ATOM     73  C   UNL A   1      43.204  23.166  25.791  1.00  0.00     0.135 A 
ATOM     74  C   UNL A   1      43.247  22.608  28.128  1.00  0.00     0.135 A 
ATOM     75  F   UNL A   1      43.365  24.044  24.790  1.00  0.00    -0.206 F 
ATOM     76  C   UNL A   1      42.781  21.877  25.481  1.00  0.00     0.059 A 
ATOM     77  C   UNL A   1      42.844  21.307  27.841  1.00  0.00     0.059 A 
ATOM     78  F   UNL A   1      43.470  22.935  29.409  1.00  0.00    -0.206 F 
ATOM     79  C   UNL A   1      42.606  20.953  26.512  1.00  0.00     0.060 A 
BRANCH  79  80
ATOM     80  S   UNL A   1      42.112  19.268  26.090  1.00  0.00     0.124 S 
ATOM     81  O   UNL A   1      42.978  18.985  24.951  1.00  0.00    -0.237 OA
ATOM     82  O   UNL A   1      42.415  18.543  27.319  1.00  0.00    -0.237 OA
ATOM     83  O   UNL A   1      40.690  19.401  25.785  1.00  0.00    -0.744 OA
ENDBRANCH  79  80
ENDBRANCH  47  72
BRANCH  59  84
ATOM     84  C   UNL A   1      49.586  26.851  26.568  1.00  0.00     0.058 A 
ATOM     85  C   UNL A   1      50.482  26.236  27.457  1.00  0.00     0.135 A 
ATOM     86  C   UNL A   1      49.962  26.948  25.218  1.00  0.00     0.135 A 
ATOM     87  F   UNL A   1      50.172  26.123  28.757  1.00  0.00    -0.206 F 
ATOM     88  C   UNL A   1      51.702  25.731  27.021  1.00  0.00     0.059 A 
ATOM     89  C   UNL A   1      51.169  26.431  24.757  1.00  0.00     0.059 A 
ATOM     90  F   UNL A   1      49.136  27.520  24.327  1.00  0.00    -0.206 F 
ATOM     91  C   UNL A   1      52.034  25.826  25.668  1.00  0.00     0.060 A 
BRANCH  91  92
ATOM     92  S   UNL A   1      53.587  25.097  25.100  1.00  0.00     0.124 S 
ATOM     93  O   UNL A   1      53.675  25.616  23.739  1.00  0.00    -0.237 OA
ATOM     94  O   UNL A   1      54.554  25.639  26.050  1.00  0.00    -0.237 OA
ATOM     95  O   UNL A   1      53.348  23.661  25.210  1.00  0.00    -0.744 OA
ENDBRANCH  91  92
ENDBRANCH  59  84
ENDBRANCH  33  34
ENDBRANCH  26  28
ENDBRANCH  25  26
ENDBRANCH  24  25
ENDBRANCH   1  24
TORSDOF 18
ENDMDL
MODEL 3
REMARK VINA RESULT:     -10.9      1.097      2.103
REMARK SMILES O=C(Cc1csc(NC(=O)[C@H]2CC(=O)N(C3CC3)C2)n1)OCCOC(=O)c1ccc(-c2c3nc(c(-c4c(F)cc(S(=O)(=O)[O-])cc4F)c4ccc([nH]4)c(-c4c(F)cc(S(=O)(=O)[O-])cc4F)c4nc(c(-c5c(F)cc(S(=O)(=O)[O-])cc5F)c5ccc2[nH]5)C=C4)C=C3)cc1
REMARK SMILES IDX 22 1 21 2 2 3 1 4 3 5 4 6 5 7 20 8 6 9 7 10 8 11 9 12 10 14
REMARK SMILES IDX 11 15 12 16 19 17 13 18 15 19 14 20 16 21 17 22 18 23 23 24
REMARK SMILES IDX 24 25 25 26 26 27 27 28 28 29 92 30 29 31 91 32 30 33 31 34
REMARK SMILES IDX 32 35 85 36 33 37 90 38 84 39 86 40 34 41 89 42 83 43 82 44
REMARK SMILES IDX 35 46 69 47 48 48 68 49 49 50 52 51 67 52 87 53 50 54 51 55
REMARK SMILES IDX 66 57 88 58 53 59 36 60 37 61 46 62 38 63 39 64 45 65 47 66
REMARK SMILES IDX 40 67 41 68 42 69 43 70 44 71 70 72 71 73 80 74 72 75 73 76
REMARK SMILES IDX 79 77 81 78 74 79 75 80 76 81 77 82 78 83 54 84 55 85 64 86
REMARK SMILES IDX 56 87 57 88 63 89 65 90 58 91 59 92 60 93 61 94 62 95
REMARK H PARENT 8 13 86 45 52 56
REMARK Flexibility Score: inf
ROOT
ATOM      1  C   UNL A   1      39.273  21.781  25.988  1.00  0.00     0.274 C 
ENDROOT
BRANCH   1   2
ATOM      2  O   UNL A   1      37.872  22.093  26.155  1.00  0.00    -0.462 OA
BRANCH   2   3
ATOM      3  C   UNL A   1      36.987  22.471  25.201  1.00  0.00     0.312 C 
ATOM      4  O   UNL A   1      37.073  23.602  24.722  1.00  0.00    -0.252 OA
BRANCH   3   5
ATOM      5  C   UNL A   1      35.852  21.561  24.817  1.00  0.00     0.179 C 
BRANCH   5   6
ATOM      6  C   UNL A   1      34.578  22.230  24.468  1.00  0.00     0.065 A 
ATOM      7  C   UNL A   1      34.149  22.507  23.183  1.00  0.00     0.093 A 
ATOM      8  N   UNL A   1      33.679  22.570  25.461  1.00  0.00    -0.224 NA
ATOM      9  S   UNL A   1      32.672  23.341  23.253  1.00  0.00    -0.105 S 
ATOM     10  C   UNL A   1      32.591  23.078  24.930  1.00  0.00     0.189 A 
BRANCH  10  11
ATOM     11  N   UNL A   1      31.524  23.412  25.720  1.00  0.00    -0.302 N 
ATOM     12  C   UNL A   1      30.919  24.586  26.041  1.00  0.00     0.231 C 
ATOM     13  H   UNL A   1      31.104  22.631  26.148  1.00  0.00     0.172 HD
ATOM     14  O   UNL A   1      30.027  24.551  26.896  1.00  0.00    -0.274 OA
BRANCH  12  15
ATOM     15  C   UNL A   1      31.302  25.894  25.399  1.00  0.00     0.107 C 
ATOM     16  C   UNL A   1      30.149  26.588  24.677  1.00  0.00     0.115 C 
ATOM     17  C   UNL A   1      31.711  26.967  26.393  1.00  0.00     0.133 C 
ATOM     18  C   UNL A   1      30.674  27.996  24.566  1.00  0.00     0.223 C 
ATOM     19  N   UNL A   1      31.604  28.167  25.597  1.00  0.00    -0.339 N 
ATOM     20  O   UNL A   1      30.332  28.795  23.711  1.00  0.00    -0.275 OA
BRANCH  19  21
ATOM     21  C   UNL A   1      32.384  29.325  25.886  1.00  0.00     0.085 C 
ATOM     22  C   UNL A   1      31.814  30.705  26.069  1.00  0.00     0.027 C 
ATOM     23  C   UNL A   1      32.353  29.952  27.252  1.00  0.00     0.027 C 
ENDBRANCH  19  21
ENDBRANCH  12  15
ENDBRANCH  10  11
ENDBRANCH   5   6
ENDBRANCH   3   5
ENDBRANCH   2   3
ENDBRANCH   1   2
BRANCH   1  24
ATOM     24  C   UNL A   1      40.167  22.669  26.851  1.00  0.00     0.275 C 
BRANCH  24  25
ATOM     25  O   UNL A   1      39.774  24.045  26.722  1.00  0.00    -0.458 OA
BRANCH  25  26
ATOM     26  C   UNL A   1      40.775  24.930  26.480  1.00  0.00     0.338 C 
ATOM     27  O   UNL A   1      41.437  25.022  25.462  1.00  0.00    -0.246 OA
BRANCH  26  28
ATOM     28  C   UNL A   1      40.778  25.932  27.570  1.00  0.00     0.060 A 
ATOM     29  C   UNL A   1      39.699  25.930  28.466  1.00  0.00     0.016 A 
ATOM     30  C   UNL A   1      41.859  26.797  27.766  1.00  0.00     0.016 A 
ATOM     31  C   UNL A   1      39.700  26.796  29.561  1.00  0.00     0.010 A 
ATOM     32  C   UNL A   1      41.849  27.675  28.852  1.00  0.00     0.010 A 
ATOM     33  C   UNL A   1      40.763  27.689  29.743  1.00  0.00    -0.014 A 
BRANCH  33  34
ATOM     34  C   UNL A   1      40.669  28.765  30.757  1.00  0.00     0.031 A 
ATOM     35  C   UNL A   1      41.548  28.671  31.971  1.00  0.00     0.074 A 
ATOM     36  C   UNL A   1      39.794  29.777  30.628  1.00  0.00     0.049 A 
ATOM     37  N   UNL A   1      41.602  29.451  33.018  1.00  0.00    -0.248 NA
ATOM     38  C   UNL A   1      42.485  27.536  32.012  1.00  0.00     0.031 C 
ATOM     39  C   UNL A   1      38.894  29.982  29.494  1.00  0.00     0.029 A 
ATOM     40  N   UNL A   1      39.506  30.816  31.479  1.00  0.00    -0.354 N 
ATOM     41  C   UNL A   1      42.576  28.902  33.842  1.00  0.00     0.074 A 
ATOM     42  C   UNL A   1      43.068  27.709  33.187  1.00  0.00     0.031 C 
ATOM     43  C   UNL A   1      38.130  31.062  29.735  1.00  0.00     0.029 A 
ATOM     44  C   UNL A   1      38.473  31.613  31.046  1.00  0.00     0.049 A 
ATOM     45  H   UNL A   1      39.993  30.974  32.320  1.00  0.00     0.167 HD
ATOM     46  C   UNL A   1      43.024  29.354  35.036  1.00  0.00     0.037 A 
ATOM     47  C   UNL A   1      37.863  32.652  31.652  1.00  0.00     0.037 A 
ATOM     48  C   UNL A   1      42.523  30.527  35.695  1.00  0.00     0.049 A 
ATOM     49  C   UNL A   1      38.341  33.109  33.006  1.00  0.00     0.074 A 
ATOM     50  C   UNL A   1      42.935  31.084  36.892  1.00  0.00     0.029 A 
ATOM     51  N   UNL A   1      41.482  31.313  35.224  1.00  0.00    -0.354 N 
ATOM     52  N   UNL A   1      39.311  32.623  33.745  1.00  0.00    -0.248 NA
ATOM     53  C   UNL A   1      37.646  34.256  33.610  1.00  0.00     0.031 C 
ATOM     54  C   UNL A   1      42.113  32.182  37.167  1.00  0.00     0.029 A 
ATOM     55  C   UNL A   1      41.218  32.334  36.120  1.00  0.00     0.049 A 
ATOM     56  H   UNL A   1      41.002  31.166  34.377  1.00  0.00     0.167 HD
ATOM     57  C   UNL A   1      39.359  33.419  34.886  1.00  0.00     0.074 A 
ATOM     58  C   UNL A   1      38.322  34.420  34.741  1.00  0.00     0.031 C 
ATOM     59  C   UNL A   1      40.190  33.331  35.954  1.00  0.00     0.037 A 
BRANCH  46  60
ATOM     60  C   UNL A   1      44.092  28.545  35.711  1.00  0.00     0.058 A 
ATOM     61  C   UNL A   1      45.453  28.740  35.425  1.00  0.00     0.135 A 
ATOM     62  C   UNL A   1      43.750  27.548  36.639  1.00  0.00     0.135 A 
ATOM     63  F   UNL A   1      45.829  29.666  34.528  1.00  0.00    -0.206 F 
ATOM     64  C   UNL A   1      46.436  27.950  36.009  1.00  0.00     0.059 A 
ATOM     65  C   UNL A   1      44.718  26.762  37.252  1.00  0.00     0.059 A 
ATOM     66  F   UNL A   1      42.462  27.319  36.939  1.00  0.00    -0.206 F 
ATOM     67  C   UNL A   1      46.058  26.956  36.914  1.00  0.00     0.060 A 
BRANCH  67  68
ATOM     68  S   UNL A   1      47.339  25.911  37.638  1.00  0.00     0.124 S 
ATOM     69  O   UNL A   1      47.813  26.752  38.732  1.00  0.00    -0.237 OA
ATOM     70  O   UNL A   1      46.590  24.722  38.032  1.00  0.00    -0.237 OA
ATOM     71  O   UNL A   1      48.280  25.720  36.539  1.00  0.00    -0.744 OA
ENDBRANCH  67  68
ENDBRANCH  46  60
BRANCH  47  72
ATOM     72  C   UNL A   1      36.719  33.328  30.983  1.00  0.00     0.058 A 
ATOM     73  C   UNL A   1      36.922  34.177  29.887  1.00  0.00     0.135 A 
ATOM     74  C   UNL A   1      35.402  33.127  31.423  1.00  0.00     0.135 A 
ATOM     75  F   UNL A   1      38.164  34.410  29.438  1.00  0.00    -0.206 F 
ATOM     76  C   UNL A   1      35.858  34.812  29.252  1.00  0.00     0.059 A 
ATOM     77  C   UNL A   1      34.320  33.734  30.792  1.00  0.00     0.059 A 
ATOM     78  F   UNL A   1      35.157  32.316  32.464  1.00  0.00    -0.206 F 
ATOM     79  C   UNL A   1      34.560  34.581  29.710  1.00  0.00     0.060 A 
BRANCH  79  80
ATOM     80  S   UNL A   1      33.184  35.365  28.841  1.00  0.00     0.124 S 
ATOM     81  O   UNL A   1      33.881  36.334  28.003  1.00  0.00    -0.237 OA
ATOM     82  O   UNL A   1      32.580  34.235  28.143  1.00  0.00    -0.237 OA
ATOM     83  O   UNL A   1      32.380  35.927  29.922  1.00  0.00    -0.744 OA
ENDBRANCH  79  80
ENDBRANCH  47  72
BRANCH  59  84
ATOM     84  C   UNL A   1      40.045  34.354  37.046  1.00  0.00     0.058 A 
ATOM     85  C   UNL A   1      40.705  35.591  36.988  1.00  0.00     0.135 A 
ATOM     86  C   UNL A   1      39.152  34.135  38.108  1.00  0.00     0.135 A 
ATOM     87  F   UNL A   1      41.571  35.848  35.996  1.00  0.00    -0.206 F 
ATOM     88  C   UNL A   1      40.483  36.577  37.944  1.00  0.00     0.059 A 
ATOM     89  C   UNL A   1      38.900  35.114  39.065  1.00  0.00     0.059 A 
ATOM     90  F   UNL A   1      38.489  32.971  38.204  1.00  0.00    -0.206 F 
ATOM     91  C   UNL A   1      39.573  36.332  38.975  1.00  0.00     0.060 A 
BRANCH  91  92
ATOM     92  S   UNL A   1      39.234  37.647  40.167  1.00  0.00     0.124 S 
ATOM     93  O   UNL A   1      40.525  38.324  40.232  1.00  0.00    -0.237 OA
ATOM     94  O   UNL A   1      38.160  38.391  39.517  1.00  0.00    -0.237 OA
ATOM     95  O   UNL A   1      38.845  36.921  41.371  1.00  0.00    -0.744 OA
ENDBRANCH  91  92
ENDBRANCH  59  84
ENDBRANCH  33  34
ENDBRANCH  26  28
ENDBRANCH  25  26
ENDBRANCH  24  25
ENDBRANCH   1  24
TORSDOF 18
ENDMDL
