MODEL 1
REMARK VINA RESULT:     -12.0      0.000      0.000
REMARK SMILES O=C(OCCOC(=O)c1ccccc1/C=C1\SC(=S)N(Cc2ccccc2)C1=O)c1ccc(-c2c3nc(c(-c4c(F)cc(S(=O)(=O)[O-])cc4F)c4ccc([nH]4)c(-c4c(F)cc(S(=O)(=O)[O-])cc4F)c4nc(c(-c5c(F)cc(S(=O)(=O)[O-])cc5F)c5ccc2[nH]5)C=C4)C=C3)cc1
REMARK SMILES IDX 4 1 3 2 2 3 1 4 30 5 31 6 95 7 32 8 94 9 33 10 34 11 35 12
REMARK SMILES IDX 88 13 36 14 93 15 87 16 89 17 37 18 92 19 86 20 85 21 38 23
REMARK SMILES IDX 72 24 51 25 71 26 52 27 55 28 70 29 90 30 53 31 54 32 69 34
REMARK SMILES IDX 91 35 56 36 39 37 40 38 49 39 41 40 42 41 48 42 50 43 43 44
REMARK SMILES IDX 44 45 45 46 46 47 47 48 73 49 74 50 83 51 75 52 76 53 82 54
REMARK SMILES IDX 84 55 77 56 78 57 79 58 80 59 81 60 57 61 58 62 67 63 59 64
REMARK SMILES IDX 60 65 66 66 68 67 61 68 62 69 63 70 64 71 65 72 5 73 6 74
REMARK SMILES IDX 7 75 8 76 9 77 10 78 14 79 11 80 13 81 12 82 15 83 16 84
REMARK SMILES IDX 17 85 28 86 18 87 20 88 29 89 19 90 21 91 22 92 23 93 27 94
REMARK SMILES IDX 24 95 26 96 25 97
REMARK H PARENT 89 22 55 33
REMARK Flexibility Score: inf
ROOT
ATOM      1  C   UNL A   1      33.480  28.350  27.145  1.00  0.00     0.275 C 
ENDROOT
BRANCH   1   2
ATOM      2  O   UNL A   1      33.679  29.768  27.299  1.00  0.00    -0.458 OA
BRANCH   2   3
ATOM      3  C   UNL A   1      34.555  30.472  28.053  1.00  0.00     0.338 C 
ATOM      4  O   UNL A   1      34.202  31.585  28.447  1.00  0.00    -0.246 OA
BRANCH   3   5
ATOM      5  C   UNL A   1      35.947  30.030  28.411  1.00  0.00     0.060 A 
ATOM      6  C   UNL A   1      36.382  29.614  29.669  1.00  0.00     0.016 A 
ATOM      7  C   UNL A   1      36.903  30.062  27.372  1.00  0.00     0.016 A 
ATOM      8  C   UNL A   1      37.707  29.224  29.883  1.00  0.00     0.010 A 
ATOM      9  C   UNL A   1      38.235  29.677  27.580  1.00  0.00     0.010 A 
ATOM     10  C   UNL A   1      38.645  29.270  28.848  1.00  0.00    -0.014 A 
BRANCH  10  11
ATOM     11  C   UNL A   1      40.062  28.991  29.182  1.00  0.00     0.031 A 
ATOM     12  C   UNL A   1      40.633  27.660  28.823  1.00  0.00     0.074 A 
ATOM     13  C   UNL A   1      40.850  29.976  29.650  1.00  0.00     0.049 A 
ATOM     14  N   UNL A   1      41.875  27.268  28.864  1.00  0.00    -0.248 NA
ATOM     15  C   UNL A   1      39.685  26.638  28.353  1.00  0.00     0.031 C 
ATOM     16  C   UNL A   1      40.354  31.287  30.027  1.00  0.00     0.029 A 
ATOM     17  N   UNL A   1      42.198  30.068  29.859  1.00  0.00    -0.354 N 
ATOM     18  C   UNL A   1      41.866  25.961  28.406  1.00  0.00     0.074 A 
ATOM     19  C   UNL A   1      40.490  25.611  28.131  1.00  0.00     0.031 C 
ATOM     20  C   UNL A   1      41.376  32.091  30.351  1.00  0.00     0.029 A 
ATOM     21  C   UNL A   1      42.610  31.322  30.263  1.00  0.00     0.049 A 
ATOM     22  H   UNL A   1      42.817  29.312  29.733  1.00  0.00     0.167 HD
ATOM     23  C   UNL A   1      42.923  25.137  28.223  1.00  0.00     0.037 A 
ATOM     24  C   UNL A   1      43.844  31.786  30.537  1.00  0.00     0.037 A 
ATOM     25  C   UNL A   1      44.275  25.501  28.551  1.00  0.00     0.049 A 
ATOM     26  C   UNL A   1      44.994  30.831  30.368  1.00  0.00     0.074 A 
ATOM     27  C   UNL A   1      45.417  24.726  28.494  1.00  0.00     0.029 A 
ATOM     28  N   UNL A   1      44.664  26.757  29.005  1.00  0.00    -0.354 N 
ATOM     29  N   UNL A   1      44.967  29.586  29.947  1.00  0.00    -0.248 NA
ATOM     30  C   UNL A   1      46.331  31.323  30.714  1.00  0.00     0.031 C 
ATOM     31  C   UNL A   1      46.491  25.502  28.945  1.00  0.00     0.029 A 
ATOM     32  C   UNL A   1      46.028  26.776  29.238  1.00  0.00     0.049 A 
ATOM     33  H   UNL A   1      44.058  27.521  29.142  1.00  0.00     0.167 HD
ATOM     34  C   UNL A   1      46.282  29.145  29.979  1.00  0.00     0.074 A 
ATOM     35  C   UNL A   1      47.084  30.271  30.423  1.00  0.00     0.031 C 
ATOM     36  C   UNL A   1      46.785  27.920  29.687  1.00  0.00     0.037 A 
BRANCH  23  37
ATOM     37  C   UNL A   1      42.626  23.768  27.688  1.00  0.00     0.058 A 
ATOM     38  C   UNL A   1      42.361  22.688  28.547  1.00  0.00     0.135 A 
ATOM     39  C   UNL A   1      42.646  23.519  26.309  1.00  0.00     0.135 A 
ATOM     40  F   UNL A   1      42.368  22.866  29.879  1.00  0.00    -0.206 F 
ATOM     41  C   UNL A   1      42.150  21.405  28.057  1.00  0.00     0.059 A 
ATOM     42  C   UNL A   1      42.414  22.247  25.794  1.00  0.00     0.059 A 
ATOM     43  F   UNL A   1      42.914  24.512  25.446  1.00  0.00    -0.206 F 
ATOM     44  C   UNL A   1      42.181  21.194  26.678  1.00  0.00     0.060 A 
BRANCH  44  45
ATOM     45  S   UNL A   1      41.915  19.519  26.057  1.00  0.00     0.124 S 
ATOM     46  O   UNL A   1      42.832  19.480  24.922  1.00  0.00    -0.237 OA
ATOM     47  O   UNL A   1      42.291  18.700  27.204  1.00  0.00    -0.237 OA
ATOM     48  O   UNL A   1      40.496  19.505  25.718  1.00  0.00    -0.744 OA
ENDBRANCH  44  45
ENDBRANCH  23  37
BRANCH  24  49
ATOM     49  C   UNL A   1      44.051  33.181  31.024  1.00  0.00     0.058 A 
ATOM     50  C   UNL A   1      44.001  33.505  32.389  1.00  0.00     0.135 A 
ATOM     51  C   UNL A   1      44.286  34.234  30.122  1.00  0.00     0.135 A 
ATOM     52  F   UNL A   1      43.780  32.544  33.298  1.00  0.00    -0.206 F 
ATOM     53  C   UNL A   1      44.145  34.816  32.838  1.00  0.00     0.059 A 
ATOM     54  C   UNL A   1      44.466  35.547  30.549  1.00  0.00     0.059 A 
ATOM     55  F   UNL A   1      44.364  33.986  28.804  1.00  0.00    -0.206 F 
ATOM     56  C   UNL A   1      44.373  35.832  31.908  1.00  0.00     0.060 A 
BRANCH  56  57
ATOM     57  S   UNL A   1      44.576  37.529  32.497  1.00  0.00     0.124 S 
ATOM     58  O   UNL A   1      44.087  38.294  31.356  1.00  0.00    -0.237 OA
ATOM     59  O   UNL A   1      43.730  37.546  33.687  1.00  0.00    -0.237 OA
ATOM     60  O   UNL A   1      46.010  37.623  32.754  1.00  0.00    -0.744 OA
ENDBRANCH  56  57
ENDBRANCH  24  49
BRANCH  36  61
ATOM     61  C   UNL A   1      48.269  27.754  29.832  1.00  0.00     0.058 A 
ATOM     62  C   UNL A   1      48.843  27.326  31.039  1.00  0.00     0.135 A 
ATOM     63  C   UNL A   1      49.119  27.997  28.743  1.00  0.00     0.135 A 
ATOM     64  F   UNL A   1      48.070  27.088  32.110  1.00  0.00    -0.206 F 
ATOM     65  C   UNL A   1      50.219  27.177  31.170  1.00  0.00     0.059 A 
ATOM     66  C   UNL A   1      50.495  27.826  28.844  1.00  0.00     0.059 A 
ATOM     67  F   UNL A   1      48.614  28.398  27.565  1.00  0.00    -0.206 F 
ATOM     68  C   UNL A   1      51.035  27.431  30.067  1.00  0.00     0.060 A 
BRANCH  68  69
ATOM     69  S   UNL A   1      52.818  27.217  30.245  1.00  0.00     0.124 S 
ATOM     70  O   UNL A   1      52.891  25.926  30.920  1.00  0.00    -0.237 OA
ATOM     71  O   UNL A   1      53.276  27.236  28.859  1.00  0.00    -0.237 OA
ATOM     72  O   UNL A   1      53.219  28.370  31.046  1.00  0.00    -0.744 OA
ENDBRANCH  68  69
ENDBRANCH  36  61
ENDBRANCH  10  11
ENDBRANCH   3   5
ENDBRANCH   2   3
ENDBRANCH   1   2
BRANCH   1  73
ATOM     73  C   UNL A   1      32.296  27.976  26.258  1.00  0.00     0.275 C 
BRANCH  73  74
ATOM     74  O   UNL A   1      31.588  29.123  25.778  1.00  0.00    -0.458 OA
BRANCH  74  75
ATOM     75  C   UNL A   1      31.637  29.338  24.439  1.00  0.00     0.338 C 
ATOM     76  O   UNL A   1      32.645  29.376  23.752  1.00  0.00    -0.246 OA
BRANCH  75  77
ATOM     77  C   UNL A   1      30.269  29.436  23.877  1.00  0.00     0.067 A 
ATOM     78  C   UNL A   1      29.667  30.704  23.932  1.00  0.00     0.016 A 
ATOM     79  C   UNL A   1      29.591  28.358  23.276  1.00  0.00    -0.010 A 
ATOM     80  C   UNL A   1      28.409  30.913  23.368  1.00  0.00     0.001 A 
ATOM     81  C   UNL A   1      28.300  28.575  22.768  1.00  0.00     0.009 A 
ATOM     82  C   UNL A   1      27.721  29.848  22.797  1.00  0.00     0.001 A 
BRANCH  79  83
ATOM     83  C   UNL A   1      30.245  27.085  22.951  1.00  0.00     0.030 C 
ATOM     84  C   UNL A   1      30.460  26.008  23.708  1.00  0.00     0.081 C 
ATOM     85  S   UNL A   1      29.893  25.617  25.268  1.00  0.00    -0.054 SA
ATOM     86  C   UNL A   1      31.464  25.017  23.251  1.00  0.00     0.266 C 
ATOM     87  C   UNL A   1      30.889  24.161  25.351  1.00  0.00     0.148 C 
ATOM     88  N   UNL A   1      31.585  23.999  24.174  1.00  0.00    -0.288 N 
ATOM     89  O   UNL A   1      32.159  25.170  22.254  1.00  0.00    -0.268 OA
ATOM     90  S   UNL A   1      30.946  23.212  26.723  1.00  0.00    -0.052 S 
BRANCH  88  91
ATOM     91  C   UNL A   1      32.430  22.863  23.817  1.00  0.00     0.163 C 
BRANCH  91  92
ATOM     92  C   UNL A   1      33.880  23.194  24.095  1.00  0.00    -0.028 A 
ATOM     93  C   UNL A   1      34.290  23.575  25.379  1.00  0.00     0.005 A 
ATOM     94  C   UNL A   1      34.854  22.999  23.102  1.00  0.00     0.005 A 
ATOM     95  C   UNL A   1      35.646  23.729  25.668  1.00  0.00     0.000 A 
ATOM     96  C   UNL A   1      36.209  23.142  23.397  1.00  0.00     0.000 A 
ATOM     97  C   UNL A   1      36.604  23.500  24.682  1.00  0.00     0.000 A 
ENDBRANCH  91  92
ENDBRANCH  88  91
ENDBRANCH  79  83
ENDBRANCH  75  77
ENDBRANCH  74  75
ENDBRANCH  73  74
ENDBRANCH   1  73
TORSDOF 17
ENDMDL
MODEL 2
REMARK VINA RESULT:     -11.8      3.501      9.600
REMARK SMILES O=C(OCCOC(=O)c1ccccc1/C=C1\SC(=S)N(Cc2ccccc2)C1=O)c1ccc(-c2c3nc(c(-c4c(F)cc(S(=O)(=O)[O-])cc4F)c4ccc([nH]4)c(-c4c(F)cc(S(=O)(=O)[O-])cc4F)c4nc(c(-c5c(F)cc(S(=O)(=O)[O-])cc5F)c5ccc2[nH]5)C=C4)C=C3)cc1
REMARK SMILES IDX 4 1 3 2 2 3 1 4 30 5 31 6 95 7 32 8 94 9 33 10 34 11 35 12
REMARK SMILES IDX 88 13 36 14 93 15 87 16 89 17 37 18 92 19 86 20 85 21 38 23
REMARK SMILES IDX 72 24 51 25 71 26 52 27 55 28 70 29 90 30 53 31 54 32 69 34
REMARK SMILES IDX 91 35 56 36 39 37 40 38 49 39 41 40 42 41 48 42 50 43 43 44
REMARK SMILES IDX 44 45 45 46 46 47 47 48 73 49 74 50 83 51 75 52 76 53 82 54
REMARK SMILES IDX 84 55 77 56 78 57 79 58 80 59 81 60 57 61 58 62 67 63 59 64
REMARK SMILES IDX 60 65 66 66 68 67 61 68 62 69 63 70 64 71 65 72 5 73 6 74
REMARK SMILES IDX 7 75 8 76 9 77 10 78 14 79 11 80 13 81 12 82 15 83 16 84
REMARK SMILES IDX 17 85 28 86 18 87 20 88 29 89 19 90 21 91 22 92 23 93 27 94
REMARK SMILES IDX 24 95 26 96 25 97
REMARK H PARENT 89 22 55 33
REMARK Flexibility Score: inf
ROOT
ATOM      1  C   UNL A   1      36.968  23.658  24.954  1.00  0.00     0.275 C 
ENDROOT
BRANCH   1   2
ATOM      2  O   UNL A   1      37.852  22.969  25.858  1.00  0.00    -0.458 OA
BRANCH   2   3
ATOM      3  C   UNL A   1      39.100  23.264  26.289  1.00  0.00     0.338 C 
ATOM      4  O   UNL A   1      39.972  22.408  26.144  1.00  0.00    -0.246 OA
BRANCH   3   5
ATOM      5  C   UNL A   1      39.503  24.538  26.979  1.00  0.00     0.060 A 
ATOM      6  C   UNL A   1      40.340  25.528  26.462  1.00  0.00     0.016 A 
ATOM      7  C   UNL A   1      38.997  24.735  28.283  1.00  0.00     0.016 A 
ATOM      8  C   UNL A   1      40.644  26.675  27.200  1.00  0.00     0.010 A 
ATOM      9  C   UNL A   1      39.302  25.881  29.031  1.00  0.00     0.010 A 
ATOM     10  C   UNL A   1      40.144  26.852  28.493  1.00  0.00    -0.014 A 
BRANCH  10  11
ATOM     11  C   UNL A   1      40.631  28.013  29.273  1.00  0.00     0.031 A 
ATOM     12  C   UNL A   1      39.734  29.195  29.431  1.00  0.00     0.074 A 
ATOM     13  C   UNL A   1      41.789  27.931  29.953  1.00  0.00     0.049 A 
ATOM     14  N   UNL A   1      39.884  30.234  30.204  1.00  0.00    -0.248 NA
ATOM     15  C   UNL A   1      38.508  29.209  28.619  1.00  0.00     0.031 C 
ATOM     16  C   UNL A   1      42.709  26.813  29.835  1.00  0.00     0.029 A 
ATOM     17  N   UNL A   1      42.381  28.739  30.883  1.00  0.00    -0.354 N 
ATOM     18  C   UNL A   1      38.762  31.019  29.990  1.00  0.00     0.074 A 
ATOM     19  C   UNL A   1      37.960  30.357  28.985  1.00  0.00     0.031 C 
ATOM     20  C   UNL A   1      43.717  26.953  30.707  1.00  0.00     0.029 A 
ATOM     21  C   UNL A   1      43.543  28.215  31.411  1.00  0.00     0.049 A 
ATOM     22  H   UNL A   1      42.014  29.614  31.151  1.00  0.00     0.167 HD
ATOM     23  C   UNL A   1      38.435  32.183  30.594  1.00  0.00     0.037 A 
ATOM     24  C   UNL A   1      44.372  28.709  32.351  1.00  0.00     0.037 A 
ATOM     25  C   UNL A   1      39.279  32.838  31.558  1.00  0.00     0.049 A 
ATOM     26  C   UNL A   1      44.004  30.029  32.971  1.00  0.00     0.074 A 
ATOM     27  C   UNL A   1      39.099  34.062  32.174  1.00  0.00     0.029 A 
ATOM     28  N   UNL A   1      40.473  32.316  32.042  1.00  0.00    -0.354 N 
ATOM     29  N   UNL A   1      42.943  30.770  32.745  1.00  0.00    -0.248 NA
ATOM     30  C   UNL A   1      44.933  30.588  33.958  1.00  0.00     0.031 C 
ATOM     31  C   UNL A   1      40.201  34.295  33.005  1.00  0.00     0.029 A 
ATOM     32  C   UNL A   1      41.046  33.196  32.944  1.00  0.00     0.049 A 
ATOM     33  H   UNL A   1      40.858  31.448  31.780  1.00  0.00     0.167 HD
ATOM     34  C   UNL A   1      43.077  31.885  33.560  1.00  0.00     0.074 A 
ATOM     35  C   UNL A   1      44.304  31.699  34.314  1.00  0.00     0.031 C 
ATOM     36  C   UNL A   1      42.274  32.972  33.668  1.00  0.00     0.037 A 
BRANCH  23  37
ATOM     37  C   UNL A   1      37.138  32.815  30.185  1.00  0.00     0.058 A 
ATOM     38  C   UNL A   1      37.071  33.720  29.113  1.00  0.00     0.135 A 
ATOM     39  C   UNL A   1      35.957  32.548  30.893  1.00  0.00     0.135 A 
ATOM     40  F   UNL A   1      38.181  34.038  28.427  1.00  0.00    -0.206 F 
ATOM     41  C   UNL A   1      35.883  34.356  28.773  1.00  0.00     0.059 A 
ATOM     42  C   UNL A   1      34.751  33.155  30.555  1.00  0.00     0.059 A 
ATOM     43  F   UNL A   1      35.971  31.705  31.938  1.00  0.00    -0.206 F 
ATOM     44  C   UNL A   1      34.728  34.068  29.501  1.00  0.00     0.060 A 
BRANCH  44  45
ATOM     45  S   UNL A   1      33.195  34.910  29.054  1.00  0.00     0.124 S 
ATOM     46  O   UNL A   1      33.702  36.144  28.461  1.00  0.00    -0.237 OA
ATOM     47  O   UNL A   1      32.583  33.966  28.125  1.00  0.00    -0.237 OA
ATOM     48  O   UNL A   1      32.507  35.064  30.331  1.00  0.00    -0.744 OA
ENDBRANCH  44  45
ENDBRANCH  23  37
BRANCH  24  49
ATOM     49  C   UNL A   1      45.623  27.988  32.729  1.00  0.00     0.058 A 
ATOM     50  C   UNL A   1      46.847  28.243  32.090  1.00  0.00     0.135 A 
ATOM     51  C   UNL A   1      45.615  27.006  33.735  1.00  0.00     0.135 A 
ATOM     52  F   UNL A   1      46.918  29.169  31.122  1.00  0.00    -0.206 F 
ATOM     53  C   UNL A   1      48.004  27.534  32.410  1.00  0.00     0.059 A 
ATOM     54  C   UNL A   1      46.765  26.307  34.095  1.00  0.00     0.059 A 
ATOM     55  F   UNL A   1      44.480  26.730  34.396  1.00  0.00    -0.206 F 
ATOM     56  C   UNL A   1      47.951  26.564  33.412  1.00  0.00     0.060 A 
BRANCH  56  57
ATOM     57  S   UNL A   1      49.457  25.659  33.835  1.00  0.00     0.124 S 
ATOM     58  O   UNL A   1      49.029  24.916  35.015  1.00  0.00    -0.237 OA
ATOM     59  O   UNL A   1      49.690  24.867  32.631  1.00  0.00    -0.237 OA
ATOM     60  O   UNL A   1      50.428  26.722  34.075  1.00  0.00    -0.744 OA
ENDBRANCH  56  57
ENDBRANCH  24  49
BRANCH  36  61
ATOM     61  C   UNL A   1      42.704  34.028  34.643  1.00  0.00     0.058 A 
ATOM     62  C   UNL A   1      42.301  33.991  35.987  1.00  0.00     0.135 A 
ATOM     63  C   UNL A   1      43.551  35.068  34.234  1.00  0.00     0.135 A 
ATOM     64  F   UNL A   1      41.485  33.019  36.423  1.00  0.00    -0.206 F 
ATOM     65  C   UNL A   1      42.698  34.974  36.886  1.00  0.00     0.059 A 
ATOM     66  C   UNL A   1      43.984  36.045  35.123  1.00  0.00     0.059 A 
ATOM     67  F   UNL A   1      43.971  35.139  32.960  1.00  0.00    -0.206 F 
ATOM     68  C   UNL A   1      43.538  35.997  36.443  1.00  0.00     0.060 A 
BRANCH  68  69
ATOM     69  S   UNL A   1      44.061  37.257  37.624  1.00  0.00     0.124 S 
ATOM     70  O   UNL A   1      44.207  38.423  36.759  1.00  0.00    -0.237 OA
ATOM     71  O   UNL A   1      42.941  37.295  38.559  1.00  0.00    -0.237 OA
ATOM     72  O   UNL A   1      45.304  36.717  38.166  1.00  0.00    -0.744 OA
ENDBRANCH  68  69
ENDBRANCH  36  61
ENDBRANCH  10  11
ENDBRANCH   3   5
ENDBRANCH   2   3
ENDBRANCH   1   2
BRANCH   1  73
ATOM     73  C   UNL A   1      35.733  22.857  24.552  1.00  0.00     0.275 C 
BRANCH  73  74
ATOM     74  O   UNL A   1      35.870  21.462  24.835  1.00  0.00    -0.458 OA
BRANCH  74  75
ATOM     75  C   UNL A   1      34.863  20.895  25.547  1.00  0.00     0.338 C 
ATOM     76  O   UNL A   1      34.515  21.204  26.675  1.00  0.00    -0.246 OA
BRANCH  75  77
ATOM     77  C   UNL A   1      34.156  19.881  24.729  1.00  0.00     0.067 A 
ATOM     78  C   UNL A   1      34.764  18.618  24.647  1.00  0.00     0.016 A 
ATOM     79  C   UNL A   1      32.922  20.113  24.090  1.00  0.00    -0.010 A 
ATOM     80  C   UNL A   1      34.141  17.577  23.958  1.00  0.00     0.001 A 
ATOM     81  C   UNL A   1      32.341  19.070  23.351  1.00  0.00     0.009 A 
ATOM     82  C   UNL A   1      32.936  17.806  23.301  1.00  0.00     0.001 A 
BRANCH  79  83
ATOM     83  C   UNL A   1      32.105  21.307  24.341  1.00  0.00     0.030 C 
ATOM     84  C   UNL A   1      32.098  22.491  23.726  1.00  0.00     0.081 C 
ATOM     85  S   UNL A   1      32.883  23.007  22.302  1.00  0.00    -0.054 SA
ATOM     86  C   UNL A   1      31.448  23.634  24.411  1.00  0.00     0.266 C 
ATOM     87  C   UNL A   1      32.362  24.680  22.528  1.00  0.00     0.148 C 
ATOM     88  N   UNL A   1      31.574  24.779  23.652  1.00  0.00    -0.288 N 
ATOM     89  O   UNL A   1      30.983  23.568  25.542  1.00  0.00    -0.268 OA
ATOM     90  S   UNL A   1      32.850  25.898  21.497  1.00  0.00    -0.052 S 
BRANCH  88  91
ATOM     91  C   UNL A   1      30.869  25.973  24.112  1.00  0.00     0.163 C 
BRANCH  91  92
ATOM     92  C   UNL A   1      31.681  26.669  25.183  1.00  0.00    -0.028 A 
ATOM     93  C   UNL A   1      32.974  27.131  24.909  1.00  0.00     0.005 A 
ATOM     94  C   UNL A   1      31.100  26.974  26.425  1.00  0.00     0.005 A 
ATOM     95  C   UNL A   1      33.658  27.906  25.846  1.00  0.00     0.000 A 
ATOM     96  C   UNL A   1      31.782  27.757  27.355  1.00  0.00     0.000 A 
ATOM     97  C   UNL A   1      33.058  28.229  27.062  1.00  0.00     0.000 A 
ENDBRANCH  91  92
ENDBRANCH  88  91
ENDBRANCH  79  83
ENDBRANCH  75  77
ENDBRANCH  74  75
ENDBRANCH  73  74
ENDBRANCH   1  73
TORSDOF 17
ENDMDL
MODEL 3
REMARK VINA RESULT:     -11.6      3.147      8.551
REMARK SMILES O=C(OCCOC(=O)c1ccccc1/C=C1\SC(=S)N(Cc2ccccc2)C1=O)c1ccc(-c2c3nc(c(-c4c(F)cc(S(=O)(=O)[O-])cc4F)c4ccc([nH]4)c(-c4c(F)cc(S(=O)(=O)[O-])cc4F)c4nc(c(-c5c(F)cc(S(=O)(=O)[O-])cc5F)c5ccc2[nH]5)C=C4)C=C3)cc1
REMARK SMILES IDX 4 1 3 2 2 3 1 4 30 5 31 6 95 7 32 8 94 9 33 10 34 11 35 12
REMARK SMILES IDX 88 13 36 14 93 15 87 16 89 17 37 18 92 19 86 20 85 21 38 23
REMARK SMILES IDX 72 24 51 25 71 26 52 27 55 28 70 29 90 30 53 31 54 32 69 34
REMARK SMILES IDX 91 35 56 36 39 37 40 38 49 39 41 40 42 41 48 42 50 43 43 44
REMARK SMILES IDX 44 45 45 46 46 47 47 48 73 49 74 50 83 51 75 52 76 53 82 54
REMARK SMILES IDX 84 55 77 56 78 57 79 58 80 59 81 60 57 61 58 62 67 63 59 64
REMARK SMILES IDX 60 65 66 66 68 67 61 68 62 69 63 70 64 71 65 72 5 73 6 74
REMARK SMILES IDX 7 75 8 76 9 77 10 78 14 79 11 80 13 81 12 82 15 83 16 84
REMARK SMILES IDX 17 85 28 86 18 87 20 88 29 89 19 90 21 91 22 92 23 93 27 94
REMARK SMILES IDX 24 95 26 96 25 97
REMARK H PARENT 89 22 55 33
REMARK Flexibility Score: inf
ROOT
ATOM      1  C   UNL A   1      33.058  29.618  25.529  1.00  0.00     0.275 C 
ENDROOT
BRANCH   1   2
ATOM      2  O   UNL A   1      33.533  29.630  26.888  1.00  0.00    -0.458 OA
BRANCH   2   3
ATOM      3  C   UNL A   1      34.379  30.465  27.534  1.00  0.00     0.338 C 
ATOM      4  O   UNL A   1      34.068  31.655  27.599  1.00  0.00    -0.246 OA
BRANCH   3   5
ATOM      5  C   UNL A   1      35.697  30.070  28.141  1.00  0.00     0.060 A 
ATOM      6  C   UNL A   1      35.889  29.517  29.407  1.00  0.00     0.016 A 
ATOM      7  C   UNL A   1      36.846  30.303  27.355  1.00  0.00     0.016 A 
ATOM      8  C   UNL A   1      37.168  29.188  29.866  1.00  0.00     0.010 A 
ATOM      9  C   UNL A   1      38.133  29.981  27.809  1.00  0.00     0.010 A 
ATOM     10  C   UNL A   1      38.298  29.434  29.080  1.00  0.00    -0.014 A 
BRANCH  10  11
ATOM     11  C   UNL A   1      39.629  29.204  29.688  1.00  0.00     0.031 A 
ATOM     12  C   UNL A   1      39.993  29.962  30.921  1.00  0.00     0.074 A 
ATOM     13  C   UNL A   1      40.420  28.217  29.228  1.00  0.00     0.049 A 
ATOM     14  N   UNL A   1      41.019  29.796  31.708  1.00  0.00    -0.248 NA
ATOM     15  C   UNL A   1      39.083  31.045  31.324  1.00  0.00     0.031 C 
ATOM     16  C   UNL A   1      40.127  27.451  28.030  1.00  0.00     0.029 A 
ATOM     17  N   UNL A   1      41.578  27.660  29.693  1.00  0.00    -0.354 N 
ATOM     18  C   UNL A   1      40.870  30.738  32.713  1.00  0.00     0.074 A 
ATOM     19  C   UNL A   1      39.678  31.500  32.416  1.00  0.00     0.031 C 
ATOM     20  C   UNL A   1      41.028  26.470  27.879  1.00  0.00     0.029 A 
ATOM     21  C   UNL A   1      42.008  26.579  28.951  1.00  0.00     0.049 A 
ATOM     22  H   UNL A   1      42.060  27.997  30.483  1.00  0.00     0.167 HD
ATOM     23  C   UNL A   1      41.662  30.932  33.792  1.00  0.00     0.037 A 
ATOM     24  C   UNL A   1      43.077  25.778  29.118  1.00  0.00     0.037 A 
ATOM     25  C   UNL A   1      42.868  30.186  34.033  1.00  0.00     0.049 A 
ATOM     26  C   UNL A   1      43.964  26.050  30.304  1.00  0.00     0.074 A 
ATOM     27  C   UNL A   1      43.798  30.349  35.042  1.00  0.00     0.029 A 
ATOM     28  N   UNL A   1      43.311  29.130  33.244  1.00  0.00    -0.354 N 
ATOM     29  N   UNL A   1      43.819  26.959  31.241  1.00  0.00    -0.248 NA
ATOM     30  C   UNL A   1      45.155  25.208  30.457  1.00  0.00     0.031 C 
ATOM     31  C   UNL A   1      44.821  29.414  34.843  1.00  0.00     0.029 A 
ATOM     32  C   UNL A   1      44.505  28.636  33.739  1.00  0.00     0.049 A 
ATOM     33  H   UNL A   1      42.844  28.785  32.448  1.00  0.00     0.167 HD
ATOM     34  C   UNL A   1      44.900  26.801  32.095  1.00  0.00     0.074 A 
ATOM     35  C   UNL A   1      45.669  25.681  31.583  1.00  0.00     0.031 C 
ATOM     36  C   UNL A   1      45.241  27.521  33.192  1.00  0.00     0.037 A 
BRANCH  23  37
ATOM     37  C   UNL A   1      41.251  32.016  34.743  1.00  0.00     0.058 A 
ATOM     38  C   UNL A   1      41.740  33.327  34.613  1.00  0.00     0.135 A 
ATOM     39  C   UNL A   1      40.395  31.739  35.818  1.00  0.00     0.135 A 
ATOM     40  F   UNL A   1      42.593  33.635  33.622  1.00  0.00    -0.206 F 
ATOM     41  C   UNL A   1      41.412  34.318  35.530  1.00  0.00     0.059 A 
ATOM     42  C   UNL A   1      40.034  32.722  36.735  1.00  0.00     0.059 A 
ATOM     43  F   UNL A   1      39.916  30.498  35.998  1.00  0.00    -0.206 F 
ATOM     44  C   UNL A   1      40.560  34.006  36.590  1.00  0.00     0.060 A 
BRANCH  44  45
ATOM     45  S   UNL A   1      40.152  35.302  37.779  1.00  0.00     0.124 S 
ATOM     46  O   UNL A   1      41.390  35.394  38.546  1.00  0.00    -0.237 OA
ATOM     47  O   UNL A   1      39.858  36.437  36.911  1.00  0.00    -0.237 OA
ATOM     48  O   UNL A   1      39.008  34.753  38.499  1.00  0.00    -0.744 OA
ENDBRANCH  44  45
ENDBRANCH  23  37
BRANCH  24  49
ATOM     49  C   UNL A   1      43.386  24.691  28.143  1.00  0.00     0.058 A 
ATOM     50  C   UNL A   1      44.252  24.894  27.057  1.00  0.00     0.135 A 
ATOM     51  C   UNL A   1      42.800  23.420  28.270  1.00  0.00     0.135 A 
ATOM     52  F   UNL A   1      44.841  26.086  26.883  1.00  0.00    -0.206 F 
ATOM     53  C   UNL A   1      44.500  23.894  26.119  1.00  0.00     0.059 A 
ATOM     54  C   UNL A   1      43.058  22.394  27.364  1.00  0.00     0.059 A 
ATOM     55  F   UNL A   1      41.978  23.157  29.298  1.00  0.00    -0.206 F 
ATOM     56  C   UNL A   1      43.894  22.646  26.280  1.00  0.00     0.060 A 
BRANCH  56  57
ATOM     57  S   UNL A   1      44.232  21.346  25.070  1.00  0.00     0.124 S 
ATOM     58  O   UNL A   1      43.113  20.439  25.297  1.00  0.00    -0.237 OA
ATOM     59  O   UNL A   1      44.211  22.084  23.811  1.00  0.00    -0.237 OA
ATOM     60  O   UNL A   1      45.543  20.847  25.475  1.00  0.00    -0.744 OA
ENDBRANCH  56  57
ENDBRANCH  24  49
BRANCH  36  61
ATOM     61  C   UNL A   1      46.493  27.103  33.905  1.00  0.00     0.058 A 
ATOM     62  C   UNL A   1      47.742  27.654  33.577  1.00  0.00     0.135 A 
ATOM     63  C   UNL A   1      46.436  26.164  34.946  1.00  0.00     0.135 A 
ATOM     64  F   UNL A   1      47.846  28.550  32.584  1.00  0.00    -0.206 F 
ATOM     65  C   UNL A   1      48.899  27.260  34.238  1.00  0.00     0.059 A 
ATOM     66  C   UNL A   1      47.577  25.778  35.639  1.00  0.00     0.059 A 
ATOM     67  F   UNL A   1      45.262  25.618  35.303  1.00  0.00    -0.206 F 
ATOM     68  C   UNL A   1      48.806  26.321  35.266  1.00  0.00     0.060 A 
BRANCH  68  69
ATOM     69  S   UNL A   1      50.314  25.831  36.127  1.00  0.00     0.124 S 
ATOM     70  O   UNL A   1      50.109  24.394  36.279  1.00  0.00    -0.237 OA
ATOM     71  O   UNL A   1      51.357  26.228  35.186  1.00  0.00    -0.237 OA
ATOM     72  O   UNL A   1      50.265  26.607  37.363  1.00  0.00    -0.744 OA
ENDBRANCH  68  69
ENDBRANCH  36  61
ENDBRANCH  10  11
ENDBRANCH   3   5
ENDBRANCH   2   3
ENDBRANCH   1   2
BRANCH   1  73
ATOM     73  C   UNL A   1      33.798  28.645  24.615  1.00  0.00     0.275 C 
BRANCH  73  74
ATOM     74  O   UNL A   1      33.547  28.899  23.229  1.00  0.00    -0.458 OA
BRANCH  74  75
ATOM     75  C   UNL A   1      33.193  27.824  22.480  1.00  0.00     0.338 C 
ATOM     76  O   UNL A   1      33.865  27.304  21.603  1.00  0.00    -0.246 OA
BRANCH  75  77
ATOM     77  C   UNL A   1      31.888  27.284  22.928  1.00  0.00     0.067 A 
ATOM     78  C   UNL A   1      30.797  28.166  22.860  1.00  0.00     0.016 A 
ATOM     79  C   UNL A   1      31.697  25.959  23.365  1.00  0.00    -0.010 A 
ATOM     80  C   UNL A   1      29.515  27.732  23.195  1.00  0.00     0.001 A 
ATOM     81  C   UNL A   1      30.409  25.558  23.756  1.00  0.00     0.009 A 
ATOM     82  C   UNL A   1      29.323  26.432  23.653  1.00  0.00     0.001 A 
BRANCH  79  83
ATOM     83  C   UNL A   1      32.720  24.916  23.220  1.00  0.00     0.030 C 
ATOM     84  C   UNL A   1      33.178  24.028  24.105  1.00  0.00     0.081 C 
ATOM     85  S   UNL A   1      32.623  23.634  25.669  1.00  0.00    -0.054 SA
ATOM     86  C   UNL A   1      34.461  23.346  23.815  1.00  0.00     0.266 C 
ATOM     87  C   UNL A   1      33.992  22.558  25.967  1.00  0.00     0.148 C 
ATOM     88  N   UNL A   1      34.798  22.502  24.853  1.00  0.00    -0.288 N 
ATOM     89  O   UNL A   1      35.160  23.606  22.843  1.00  0.00    -0.268 OA
ATOM     90  S   UNL A   1      34.212  21.802  27.439  1.00  0.00    -0.052 S 
BRANCH  88  91
ATOM     91  C   UNL A   1      35.965  21.643  24.671  1.00  0.00     0.163 C 
BRANCH  91  92
ATOM     92  C   UNL A   1      37.182  22.289  25.298  1.00  0.00    -0.028 A 
ATOM     93  C   UNL A   1      37.133  23.616  25.744  1.00  0.00     0.005 A 
ATOM     94  C   UNL A   1      38.334  21.528  25.556  1.00  0.00     0.005 A 
ATOM     95  C   UNL A   1      38.202  24.158  26.458  1.00  0.00     0.000 A 
ATOM     96  C   UNL A   1      39.396  22.069  26.280  1.00  0.00     0.000 A 
ATOM     97  C   UNL A   1      39.326  23.382  26.736  1.00  0.00     0.000 A 
ENDBRANCH  91  92
ENDBRANCH  88  91
ENDBRANCH  79  83
ENDBRANCH  75  77
ENDBRANCH  74  75
ENDBRANCH  73  74
ENDBRANCH   1  73
TORSDOF 17
ENDMDL
