MODEL 1
REMARK VINA RESULT:     -11.9      0.000      0.000
REMARK SMILES Cc1cc(N2N=C(C(=O)OCCOC(=O)c3ccc(-c4c5nc(c(-c6c(F)cc(S(=O)(=O)[O-])cc6F)c6ccc([nH]6)c(-c6c(F)cc(S(=O)(=O)[O-])cc6F)c6nc(c(-c7c(F)cc(S(=O)(=O)[O-])cc7F)c7ccc4[nH]7)C=C6)C=C5)cc3)C[C@H]2c2ccccc2)c([N+](=O)[O-])cc1C
REMARK SMILES IDX 12 1 11 2 10 3 8 4 9 5 7 6 5 7 6 8 83 9 82 10 4 11 1 12 2 13
REMARK SMILES IDX 3 14 95 15 94 16 96 17 90 18 91 19 92 20 93 21 84 22 85 23
REMARK SMILES IDX 89 24 86 25 88 26 87 27 13 28 14 29 15 30 16 31 17 32 81 33
REMARK SMILES IDX 18 34 80 35 19 36 20 37 21 38 74 39 22 40 79 41 73 42 75 43
REMARK SMILES IDX 23 44 78 45 72 46 71 47 24 49 58 50 37 51 57 52 38 53 41 54
REMARK SMILES IDX 56 55 76 56 39 57 40 58 55 60 77 61 42 62 25 63 26 64 35 65
REMARK SMILES IDX 27 66 28 67 34 68 36 69 29 70 30 71 31 72 32 73 33 74 59 75
REMARK SMILES IDX 60 76 69 77 61 78 62 79 68 80 70 81 63 82 64 83 65 84 66 85
REMARK SMILES IDX 67 86 43 87 44 88 53 89 45 90 46 91 52 92 54 93 47 94 48 95
REMARK SMILES IDX 49 96 50 97 51 98
REMARK H PARENT 75 48 41 59
REMARK Flexibility Score: inf
ROOT
ATOM      1  C   UNL A   1      41.343  22.711  26.159  1.00  0.00     0.275 C 
ENDROOT
BRANCH   1   2
ATOM      2  C   UNL A   1      40.186  22.375  27.099  1.00  0.00     0.275 C 
BRANCH   2   3
ATOM      3  O   UNL A   1      38.934  22.864  26.525  1.00  0.00    -0.458 OA
BRANCH   3   4
ATOM      4  C   UNL A   1      38.291  21.966  25.747  1.00  0.00     0.354 C 
ATOM      5  O   UNL A   1      38.561  20.872  25.403  1.00  0.00    -0.245 OA
BRANCH   4   6
ATOM      6  C   UNL A   1      37.015  22.668  25.265  1.00  0.00     0.148 C 
ATOM      7  N   UNL A   1      35.178  23.714  25.247  1.00  0.00    -0.250 N 
ATOM      8  N   UNL A   1      36.207  23.338  26.041  1.00  0.00    -0.169 NA
ATOM      9  C   UNL A   1      35.193  23.067  23.920  1.00  0.00     0.144 C 
ATOM     10  C   UNL A   1      36.659  22.638  23.805  1.00  0.00     0.098 C 
BRANCH   7  11
ATOM     11  C   UNL A   1      34.255  24.657  25.649  1.00  0.00     0.138 A 
ATOM     12  C   UNL A   1      33.878  28.450  25.257  1.00  0.00     0.045 C 
ATOM     13  C   UNL A   1      33.561  27.033  25.655  1.00  0.00    -0.046 A 
ATOM     14  C   UNL A   1      34.463  26.005  25.302  1.00  0.00     0.039 A 
ATOM     15  C   UNL A   1      32.391  26.708  26.368  1.00  0.00    -0.041 A 
ATOM     16  C   UNL A   1      32.153  25.368  26.709  1.00  0.00     0.091 A 
ATOM     17  C   UNL A   1      31.336  27.728  26.714  1.00  0.00     0.045 C 
ATOM     18  C   UNL A   1      33.085  24.369  26.370  1.00  0.00     0.294 A 
BRANCH  18  19
ATOM     19  N   UNL A   1      32.793  23.015  26.822  1.00  0.00     0.065 N 
ATOM     20  O   UNL A   1      31.828  22.436  26.301  1.00  0.00    -0.258 OA
ATOM     21  O   UNL A   1      33.475  22.551  27.749  1.00  0.00    -0.258 OA
ENDBRANCH  18  19
ENDBRANCH   7  11
BRANCH   9  22
ATOM     22  C   UNL A   1      34.178  21.931  23.868  1.00  0.00    -0.023 A 
ATOM     23  C   UNL A   1      33.018  21.971  23.072  1.00  0.00     0.006 A 
ATOM     24  C   UNL A   1      34.436  20.760  24.609  1.00  0.00     0.006 A 
ATOM     25  C   UNL A   1      32.130  20.892  23.049  1.00  0.00     0.000 A 
ATOM     26  C   UNL A   1      33.556  19.676  24.575  1.00  0.00     0.000 A 
ATOM     27  C   UNL A   1      32.399  19.746  23.800  1.00  0.00     0.000 A 
ENDBRANCH   9  22
ENDBRANCH   4   6
ENDBRANCH   3   4
ENDBRANCH   2   3
ENDBRANCH   1   2
BRANCH   1  28
ATOM     28  O   UNL A   1      42.098  23.829  26.671  1.00  0.00    -0.458 OA
BRANCH  28  29
ATOM     29  C   UNL A   1      41.633  25.044  26.285  1.00  0.00     0.338 C 
ATOM     30  O   UNL A   1      41.176  25.342  25.195  1.00  0.00    -0.246 OA
BRANCH  29  31
ATOM     31  C   UNL A   1      41.581  25.932  27.459  1.00  0.00     0.060 A 
ATOM     32  C   UNL A   1      40.514  25.755  28.348  1.00  0.00     0.016 A 
ATOM     33  C   UNL A   1      42.533  26.940  27.670  1.00  0.00     0.016 A 
ATOM     34  C   UNL A   1      40.380  26.596  29.449  1.00  0.00     0.010 A 
ATOM     35  C   UNL A   1      42.388  27.797  28.768  1.00  0.00     0.010 A 
ATOM     36  C   UNL A   1      41.301  27.638  29.652  1.00  0.00    -0.014 A 
BRANCH  36  37
ATOM     37  C   UNL A   1      41.078  28.586  30.768  1.00  0.00     0.031 A 
ATOM     38  C   UNL A   1      41.978  28.553  31.971  1.00  0.00     0.074 A 
ATOM     39  C   UNL A   1      40.100  29.506  30.679  1.00  0.00     0.049 A 
ATOM     40  N   UNL A   1      41.933  29.286  33.053  1.00  0.00    -0.248 NA
ATOM     41  C   UNL A   1      43.068  27.566  31.955  1.00  0.00     0.031 C 
ATOM     42  C   UNL A   1      39.181  29.657  29.550  1.00  0.00     0.029 A 
ATOM     43  N   UNL A   1      39.724  30.493  31.553  1.00  0.00    -0.354 N 
ATOM     44  C   UNL A   1      42.965  28.831  33.862  1.00  0.00     0.074 A 
ATOM     45  C   UNL A   1      43.626  27.762  33.143  1.00  0.00     0.031 C 
ATOM     46  C   UNL A   1      38.349  30.682  29.799  1.00  0.00     0.029 A 
ATOM     47  C   UNL A   1      38.667  31.249  31.108  1.00  0.00     0.049 A 
ATOM     48  H   UNL A   1      40.169  30.646  32.418  1.00  0.00     0.167 HD
ATOM     49  C   UNL A   1      43.329  29.266  35.091  1.00  0.00     0.037 A 
ATOM     50  C   UNL A   1      38.027  32.279  31.692  1.00  0.00     0.037 A 
ATOM     51  C   UNL A   1      42.707  30.359  35.790  1.00  0.00     0.049 A 
ATOM     52  C   UNL A   1      38.468  32.759  33.045  1.00  0.00     0.074 A 
ATOM     53  C   UNL A   1      43.031  30.889  37.027  1.00  0.00     0.029 A 
ATOM     54  N   UNL A   1      41.637  31.097  35.308  1.00  0.00    -0.354 N 
ATOM     55  N   UNL A   1      39.444  32.313  33.798  1.00  0.00    -0.248 NA
ATOM     56  C   UNL A   1      37.718  33.881  33.629  1.00  0.00     0.031 C 
ATOM     57  C   UNL A   1      42.151  31.945  37.297  1.00  0.00     0.029 A 
ATOM     58  C   UNL A   1      41.286  32.074  36.223  1.00  0.00     0.049 A 
ATOM     59  H   UNL A   1      41.193  30.947  34.442  1.00  0.00     0.167 HD
ATOM     60  C   UNL A   1      39.422  33.094  34.947  1.00  0.00     0.074 A 
ATOM     61  C   UNL A   1      38.350  34.055  34.782  1.00  0.00     0.031 C 
ATOM     62  C   UNL A   1      40.214  33.017  36.044  1.00  0.00     0.037 A 
BRANCH  49  63
ATOM     63  C   UNL A   1      44.449  28.541  35.774  1.00  0.00     0.058 A 
ATOM     64  C   UNL A   1      45.779  28.971  35.654  1.00  0.00     0.135 A 
ATOM     65  C   UNL A   1      44.179  27.428  36.589  1.00  0.00     0.135 A 
ATOM     66  F   UNL A   1      46.086  30.022  34.874  1.00  0.00    -0.206 F 
ATOM     67  C   UNL A   1      46.811  28.312  36.319  1.00  0.00     0.059 A 
ATOM     68  C   UNL A   1      45.192  26.762  37.269  1.00  0.00     0.059 A 
ATOM     69  F   UNL A   1      42.920  26.979  36.729  1.00  0.00    -0.206 F 
ATOM     70  C   UNL A   1      46.508  27.206  37.120  1.00  0.00     0.060 A 
BRANCH  70  71
ATOM     71  S   UNL A   1      47.844  26.364  38.000  1.00  0.00     0.124 S 
ATOM     72  O   UNL A   1      47.302  25.015  38.129  1.00  0.00    -0.237 OA
ATOM     73  O   UNL A   1      48.972  26.508  37.085  1.00  0.00    -0.237 OA
ATOM     74  O   UNL A   1      47.954  27.120  39.244  1.00  0.00    -0.744 OA
ENDBRANCH  70  71
ENDBRANCH  49  63
BRANCH  50  75
ATOM     75  C   UNL A   1      36.884  32.923  31.001  1.00  0.00     0.058 A 
ATOM     76  C   UNL A   1      37.098  33.909  30.022  1.00  0.00     0.135 A 
ATOM     77  C   UNL A   1      35.562  32.563  31.309  1.00  0.00     0.135 A 
ATOM     78  F   UNL A   1      38.349  34.286  29.706  1.00  0.00    -0.206 F 
ATOM     79  C   UNL A   1      36.036  34.526  29.371  1.00  0.00     0.059 A 
ATOM     80  C   UNL A   1      34.483  33.159  30.664  1.00  0.00     0.059 A 
ATOM     81  F   UNL A   1      35.315  31.619  32.235  1.00  0.00    -0.206 F 
ATOM     82  C   UNL A   1      34.731  34.146  29.703  1.00  0.00     0.060 A 
BRANCH  82  83
ATOM     83  S   UNL A   1      33.342  34.903  28.827  1.00  0.00     0.124 S 
ATOM     84  O   UNL A   1      32.494  35.324  29.936  1.00  0.00    -0.237 OA
ATOM     85  O   UNL A   1      33.982  35.976  28.071  1.00  0.00    -0.237 OA
ATOM     86  O   UNL A   1      32.829  33.801  28.019  1.00  0.00    -0.744 OA
ENDBRANCH  82  83
ENDBRANCH  50  75
BRANCH  62  87
ATOM     87  C   UNL A   1      39.940  33.991  37.149  1.00  0.00     0.058 A 
ATOM     88  C   UNL A   1      39.024  33.684  38.169  1.00  0.00     0.135 A 
ATOM     89  C   UNL A   1      40.610  35.224  37.203  1.00  0.00     0.135 A 
ATOM     90  F   UNL A   1      38.356  32.518  38.153  1.00  0.00    -0.206 F 
ATOM     91  C   UNL A   1      38.770  34.577  39.204  1.00  0.00     0.059 A 
ATOM     92  C   UNL A   1      40.378  36.129  38.234  1.00  0.00     0.059 A 
ATOM     93  F   UNL A   1      41.496  35.558  36.249  1.00  0.00    -0.206 F 
ATOM     94  C   UNL A   1      39.448  35.800  39.224  1.00  0.00     0.060 A 
BRANCH  94  95
ATOM     95  S   UNL A   1      39.138  36.955  40.579  1.00  0.00     0.124 S 
ATOM     96  O   UNL A   1      40.485  37.430  40.872  1.00  0.00    -0.237 OA
ATOM     97  O   UNL A   1      38.240  37.933  39.973  1.00  0.00    -0.237 OA
ATOM     98  O   UNL A   1      38.530  36.108  41.602  1.00  0.00    -0.744 OA
ENDBRANCH  94  95
ENDBRANCH  62  87
ENDBRANCH  36  37
ENDBRANCH  29  31
ENDBRANCH  28  29
ENDBRANCH   1  28
TORSDOF 17
ENDMDL
MODEL 2
REMARK VINA RESULT:     -11.9      6.381     11.931
REMARK SMILES Cc1cc(N2N=C(C(=O)OCCOC(=O)c3ccc(-c4c5nc(c(-c6c(F)cc(S(=O)(=O)[O-])cc6F)c6ccc([nH]6)c(-c6c(F)cc(S(=O)(=O)[O-])cc6F)c6nc(c(-c7c(F)cc(S(=O)(=O)[O-])cc7F)c7ccc4[nH]7)C=C6)C=C5)cc3)C[C@H]2c2ccccc2)c([N+](=O)[O-])cc1C
REMARK SMILES IDX 12 1 11 2 10 3 8 4 9 5 7 6 5 7 6 8 83 9 82 10 4 11 1 12 2 13
REMARK SMILES IDX 3 14 95 15 94 16 96 17 90 18 91 19 92 20 93 21 84 22 85 23
REMARK SMILES IDX 89 24 86 25 88 26 87 27 13 28 14 29 15 30 16 31 17 32 81 33
REMARK SMILES IDX 18 34 80 35 19 36 20 37 21 38 74 39 22 40 79 41 73 42 75 43
REMARK SMILES IDX 23 44 78 45 72 46 71 47 24 49 58 50 37 51 57 52 38 53 41 54
REMARK SMILES IDX 56 55 76 56 39 57 40 58 55 60 77 61 42 62 25 63 26 64 35 65
REMARK SMILES IDX 27 66 28 67 34 68 36 69 29 70 30 71 31 72 32 73 33 74 59 75
REMARK SMILES IDX 60 76 69 77 61 78 62 79 68 80 70 81 63 82 64 83 65 84 66 85
REMARK SMILES IDX 67 86 43 87 44 88 53 89 45 90 46 91 52 92 54 93 47 94 48 95
REMARK SMILES IDX 49 96 50 97 51 98
REMARK H PARENT 75 48 41 59
REMARK Flexibility Score: inf
ROOT
ATOM      1  C   UNL A   1      34.874  31.938  29.379  1.00  0.00     0.275 C 
ENDROOT
BRANCH   1   2
ATOM      2  C   UNL A   1      34.822  32.123  27.863  1.00  0.00     0.275 C 
BRANCH   2   3
ATOM      3  O   UNL A   1      34.451  30.859  27.230  1.00  0.00    -0.458 OA
BRANCH   3   4
ATOM      4  C   UNL A   1      33.149  30.775  26.879  1.00  0.00     0.354 C 
ATOM      5  O   UNL A   1      32.274  31.564  26.867  1.00  0.00    -0.245 OA
BRANCH   4   6
ATOM      6  C   UNL A   1      32.913  29.309  26.494  1.00  0.00     0.148 C 
ATOM      7  N   UNL A   1      33.064  27.431  25.536  1.00  0.00    -0.250 N 
ATOM      8  N   UNL A   1      33.660  28.639  25.659  1.00  0.00    -0.169 NA
ATOM      9  C   UNL A   1      31.723  27.372  26.150  1.00  0.00     0.144 C 
ATOM     10  C   UNL A   1      31.783  28.549  27.129  1.00  0.00     0.098 C 
BRANCH   7  11
ATOM     11  C   UNL A   1      33.701  26.363  24.938  1.00  0.00     0.138 A 
ATOM     12  C   UNL A   1      35.668  23.317  26.175  1.00  0.00     0.045 C 
ATOM     13  C   UNL A   1      34.996  24.274  25.226  1.00  0.00    -0.046 A 
ATOM     14  C   UNL A   1      34.338  25.408  25.752  1.00  0.00     0.039 A 
ATOM     15  C   UNL A   1      35.008  24.067  23.834  1.00  0.00    -0.041 A 
ATOM     16  C   UNL A   1      34.363  24.996  23.003  1.00  0.00     0.091 A 
ATOM     17  C   UNL A   1      35.615  22.845  23.194  1.00  0.00     0.045 C 
ATOM     18  C   UNL A   1      33.740  26.134  23.553  1.00  0.00     0.294 A 
BRANCH  18  19
ATOM     19  N   UNL A   1      33.154  27.082  22.615  1.00  0.00     0.065 N 
ATOM     20  O   UNL A   1      32.060  26.785  22.114  1.00  0.00    -0.258 OA
ATOM     21  O   UNL A   1      33.815  28.089  22.317  1.00  0.00    -0.258 OA
ENDBRANCH  18  19
ENDBRANCH   7  11
BRANCH   9  22
ATOM     22  C   UNL A   1      30.640  27.470  25.082  1.00  0.00    -0.023 A 
ATOM     23  C   UNL A   1      29.739  26.425  24.801  1.00  0.00     0.006 A 
ATOM     24  C   UNL A   1      30.495  28.682  24.377  1.00  0.00     0.006 A 
ATOM     25  C   UNL A   1      28.753  26.577  23.822  1.00  0.00     0.000 A 
ATOM     26  C   UNL A   1      29.500  28.838  23.409  1.00  0.00     0.000 A 
ATOM     27  C   UNL A   1      28.635  27.782  23.126  1.00  0.00     0.000 A 
ENDBRANCH   9  22
ENDBRANCH   4   6
ENDBRANCH   3   4
ENDBRANCH   2   3
ENDBRANCH   1   2
BRANCH   1  28
ATOM     28  O   UNL A   1      35.535  30.699  29.712  1.00  0.00    -0.458 OA
BRANCH  28  29
ATOM     29  C   UNL A   1      36.514  30.818  30.645  1.00  0.00     0.338 C 
ATOM     30  O   UNL A   1      36.380  31.157  31.808  1.00  0.00    -0.246 OA
BRANCH  29  31
ATOM     31  C   UNL A   1      37.770  30.288  30.090  1.00  0.00     0.060 A 
ATOM     32  C   UNL A   1      38.758  29.898  31.004  1.00  0.00     0.016 A 
ATOM     33  C   UNL A   1      37.997  30.206  28.708  1.00  0.00     0.016 A 
ATOM     34  C   UNL A   1      39.988  29.437  30.542  1.00  0.00     0.010 A 
ATOM     35  C   UNL A   1      39.240  29.759  28.245  1.00  0.00     0.010 A 
ATOM     36  C   UNL A   1      40.246  29.388  29.162  1.00  0.00    -0.014 A 
BRANCH  36  37
ATOM     37  C   UNL A   1      41.597  28.998  28.698  1.00  0.00     0.031 A 
ATOM     38  C   UNL A   1      42.708  30.009  28.689  1.00  0.00     0.074 A 
ATOM     39  C   UNL A   1      41.838  27.725  28.332  1.00  0.00     0.049 A 
ATOM     40  N   UNL A   1      43.950  29.865  28.304  1.00  0.00    -0.248 NA
ATOM     41  C   UNL A   1      42.379  31.358  29.175  1.00  0.00     0.031 C 
ATOM     42  C   UNL A   1      40.849  26.646  28.327  1.00  0.00     0.029 A 
ATOM     43  N   UNL A   1      42.993  27.125  27.902  1.00  0.00    -0.354 N 
ATOM     44  C   UNL A   1      44.544  31.109  28.469  1.00  0.00     0.074 A 
ATOM     45  C   UNL A   1      43.528  31.996  28.997  1.00  0.00     0.031 C 
ATOM     46  C   UNL A   1      41.444  25.513  27.917  1.00  0.00     0.029 A 
ATOM     47  C   UNL A   1      42.847  25.789  27.620  1.00  0.00     0.049 A 
ATOM     48  H   UNL A   1      43.847  27.607  27.806  1.00  0.00     0.167 HD
ATOM     49  C   UNL A   1      45.820  31.478  28.205  1.00  0.00     0.037 A 
ATOM     50  C   UNL A   1      43.744  24.892  27.169  1.00  0.00     0.037 A 
ATOM     51  C   UNL A   1      46.845  30.589  27.725  1.00  0.00     0.049 A 
ATOM     52  C   UNL A   1      45.160  25.321  26.909  1.00  0.00     0.074 A 
ATOM     53  C   UNL A   1      48.174  30.869  27.460  1.00  0.00     0.029 A 
ATOM     54  N   UNL A   1      46.657  29.244  27.447  1.00  0.00    -0.354 N 
ATOM     55  N   UNL A   1      45.704  26.503  27.066  1.00  0.00    -0.248 NA
ATOM     56  C   UNL A   1      46.084  24.293  26.408  1.00  0.00     0.031 C 
ATOM     57  C   UNL A   1      48.790  29.693  27.013  1.00  0.00     0.029 A 
ATOM     58  C   UNL A   1      47.844  28.682  27.010  1.00  0.00     0.049 A 
ATOM     59  H   UNL A   1      45.805  28.761  27.546  1.00  0.00     0.167 HD
ATOM     60  C   UNL A   1      47.030  26.364  26.677  1.00  0.00     0.074 A 
ATOM     61  C   UNL A   1      47.214  24.979  26.297  1.00  0.00     0.031 C 
ATOM     62  C   UNL A   1      48.006  27.303  26.631  1.00  0.00     0.037 A 
BRANCH  49  63
ATOM     63  C   UNL A   1      46.177  32.918  28.413  1.00  0.00     0.058 A 
ATOM     64  C   UNL A   1      46.020  33.865  27.390  1.00  0.00     0.135 A 
ATOM     65  C   UNL A   1      46.643  33.359  29.664  1.00  0.00     0.135 A 
ATOM     66  F   UNL A   1      45.591  33.487  26.172  1.00  0.00    -0.206 F 
ATOM     67  C   UNL A   1      46.323  35.209  27.600  1.00  0.00     0.059 A 
ATOM     68  C   UNL A   1      46.941  34.696  29.898  1.00  0.00     0.059 A 
ATOM     69  F   UNL A   1      46.812  32.485  30.670  1.00  0.00    -0.206 F 
ATOM     70  C   UNL A   1      46.787  35.613  28.857  1.00  0.00     0.060 A 
BRANCH  70  71
ATOM     71  S   UNL A   1      47.159  37.360  29.137  1.00  0.00     0.124 S 
ATOM     72  O   UNL A   1      45.820  37.930  29.241  1.00  0.00    -0.237 OA
ATOM     73  O   UNL A   1      47.932  37.329  30.376  1.00  0.00    -0.237 OA
ATOM     74  O   UNL A   1      47.914  37.736  27.946  1.00  0.00    -0.744 OA
ENDBRANCH  70  71
ENDBRANCH  49  63
BRANCH  50  75
ATOM     75  C   UNL A   1      43.324  23.492  26.920  1.00  0.00     0.058 A 
ATOM     76  C   UNL A   1      43.028  23.050  25.619  1.00  0.00     0.135 A 
ATOM     77  C   UNL A   1      43.214  22.576  27.978  1.00  0.00     0.135 A 
ATOM     78  F   UNL A   1      43.114  23.899  24.581  1.00  0.00    -0.206 F 
ATOM     79  C   UNL A   1      42.627  21.741  25.373  1.00  0.00     0.059 A 
ATOM     80  C   UNL A   1      42.826  21.259  27.756  1.00  0.00     0.059 A 
ATOM     81  F   UNL A   1      43.496  22.958  29.238  1.00  0.00    -0.206 F 
ATOM     82  C   UNL A   1      42.525  20.854  26.449  1.00  0.00     0.060 A 
BRANCH  82  83
ATOM     83  S   UNL A   1      42.057  19.137  26.137  1.00  0.00     0.124 S 
ATOM     84  O   UNL A   1      42.980  18.773  25.068  1.00  0.00    -0.237 OA
ATOM     85  O   UNL A   1      42.293  18.497  27.428  1.00  0.00    -0.237 OA
ATOM     86  O   UNL A   1      40.653  19.248  25.752  1.00  0.00    -0.744 OA
ENDBRANCH  82  83
ENDBRANCH  50  75
BRANCH  62  87
ATOM     87  C   UNL A   1      49.352  26.859  26.145  1.00  0.00     0.058 A 
ATOM     88  C   UNL A   1      50.239  26.181  26.998  1.00  0.00     0.135 A 
ATOM     89  C   UNL A   1      49.747  27.087  24.817  1.00  0.00     0.135 A 
ATOM     90  F   UNL A   1      49.904  25.947  28.278  1.00  0.00    -0.206 F 
ATOM     91  C   UNL A   1      51.486  25.757  26.553  1.00  0.00     0.059 A 
ATOM     92  C   UNL A   1      50.987  26.663  24.348  1.00  0.00     0.059 A 
ATOM     93  F   UNL A   1      48.928  27.729  23.965  1.00  0.00    -0.206 F 
ATOM     94  C   UNL A   1      51.853  26.008  25.227  1.00  0.00     0.060 A 
BRANCH  94  95
ATOM     95  S   UNL A   1      53.463  25.438  24.637  1.00  0.00     0.124 S 
ATOM     96  O   UNL A   1      54.370  26.305  25.381  1.00  0.00    -0.237 OA
ATOM     97  O   UNL A   1      53.471  24.032  25.026  1.00  0.00    -0.237 OA
ATOM     98  O   UNL A   1      53.394  25.682  23.199  1.00  0.00    -0.744 OA
ENDBRANCH  94  95
ENDBRANCH  62  87
ENDBRANCH  36  37
ENDBRANCH  29  31
ENDBRANCH  28  29
ENDBRANCH   1  28
TORSDOF 17
ENDMDL
MODEL 3
REMARK VINA RESULT:     -11.8      3.356      5.190
REMARK SMILES Cc1cc(N2N=C(C(=O)OCCOC(=O)c3ccc(-c4c5nc(c(-c6c(F)cc(S(=O)(=O)[O-])cc6F)c6ccc([nH]6)c(-c6c(F)cc(S(=O)(=O)[O-])cc6F)c6nc(c(-c7c(F)cc(S(=O)(=O)[O-])cc7F)c7ccc4[nH]7)C=C6)C=C5)cc3)C[C@H]2c2ccccc2)c([N+](=O)[O-])cc1C
REMARK SMILES IDX 12 1 11 2 10 3 8 4 9 5 7 6 5 7 6 8 83 9 82 10 4 11 1 12 2 13
REMARK SMILES IDX 3 14 95 15 94 16 96 17 90 18 91 19 92 20 93 21 84 22 85 23
REMARK SMILES IDX 89 24 86 25 88 26 87 27 13 28 14 29 15 30 16 31 17 32 81 33
REMARK SMILES IDX 18 34 80 35 19 36 20 37 21 38 74 39 22 40 79 41 73 42 75 43
REMARK SMILES IDX 23 44 78 45 72 46 71 47 24 49 58 50 37 51 57 52 38 53 41 54
REMARK SMILES IDX 56 55 76 56 39 57 40 58 55 60 77 61 42 62 25 63 26 64 35 65
REMARK SMILES IDX 27 66 28 67 34 68 36 69 29 70 30 71 31 72 32 73 33 74 59 75
REMARK SMILES IDX 60 76 69 77 61 78 62 79 68 80 70 81 63 82 64 83 65 84 66 85
REMARK SMILES IDX 67 86 43 87 44 88 53 89 45 90 46 91 52 92 54 93 47 94 48 95
REMARK SMILES IDX 49 96 50 97 51 98
REMARK H PARENT 75 48 41 59
REMARK Flexibility Score: inf
ROOT
ATOM      1  C   UNL A   1      36.269  23.193  25.687  1.00  0.00     0.275 C 
ENDROOT
BRANCH   1   2
ATOM      2  C   UNL A   1      35.139  23.861  24.905  1.00  0.00     0.275 C 
BRANCH   2   3
ATOM      3  O   UNL A   1      34.082  24.269  25.828  1.00  0.00    -0.458 OA
BRANCH   3   4
ATOM      4  C   UNL A   1      32.835  23.946  25.423  1.00  0.00     0.354 C 
ATOM      5  O   UNL A   1      32.341  22.926  25.101  1.00  0.00    -0.245 OA
BRANCH   4   6
ATOM      6  C   UNL A   1      32.053  25.266  25.383  1.00  0.00     0.148 C 
ATOM      7  N   UNL A   1      31.180  27.068  24.708  1.00  0.00    -0.250 N 
ATOM      8  N   UNL A   1      31.809  25.943  24.295  1.00  0.00    -0.169 NA
ATOM      9  C   UNL A   1      31.206  27.253  26.171  1.00  0.00     0.144 C 
ATOM     10  C   UNL A   1      31.480  25.825  26.655  1.00  0.00     0.098 C 
BRANCH   7  11
ATOM     11  C   UNL A   1      30.537  27.909  23.822  1.00  0.00     0.138 A 
ATOM     12  C   UNL A   1      26.888  28.783  23.048  1.00  0.00     0.045 C 
ATOM     13  C   UNL A   1      28.393  28.809  22.977  1.00  0.00    -0.046 A 
ATOM     14  C   UNL A   1      29.131  27.963  23.834  1.00  0.00     0.039 A 
ATOM     15  C   UNL A   1      29.078  29.651  22.081  1.00  0.00    -0.041 A 
ATOM     16  C   UNL A   1      30.480  29.628  22.065  1.00  0.00     0.091 A 
ATOM     17  C   UNL A   1      28.373  30.642  21.190  1.00  0.00     0.045 C 
ATOM     18  C   UNL A   1      31.190  28.752  22.909  1.00  0.00     0.294 A 
BRANCH  18  19
ATOM     19  N   UNL A   1      32.641  28.744  22.778  1.00  0.00     0.065 N 
ATOM     20  O   UNL A   1      33.134  27.955  21.959  1.00  0.00    -0.258 OA
ATOM     21  O   UNL A   1      33.298  29.468  23.542  1.00  0.00    -0.258 OA
ENDBRANCH  18  19
ENDBRANCH   7  11
BRANCH   9  22
ATOM     22  C   UNL A   1      32.259  28.284  26.562  1.00  0.00    -0.023 A 
ATOM     23  C   UNL A   1      31.949  29.622  26.868  1.00  0.00     0.006 A 
ATOM     24  C   UNL A   1      33.601  27.869  26.676  1.00  0.00     0.006 A 
ATOM     25  C   UNL A   1      32.953  30.521  27.238  1.00  0.00     0.000 A 
ATOM     26  C   UNL A   1      34.602  28.764  27.059  1.00  0.00     0.000 A 
ATOM     27  C   UNL A   1      34.278  30.092  27.332  1.00  0.00     0.000 A 
ENDBRANCH   9  22
ENDBRANCH   4   6
ENDBRANCH   3   4
ENDBRANCH   2   3
ENDBRANCH   1   2
BRANCH   1  28
ATOM     28  O   UNL A   1      37.551  23.590  25.156  1.00  0.00    -0.458 OA
BRANCH  28  29
ATOM     29  C   UNL A   1      38.617  23.115  25.850  1.00  0.00     0.338 C 
ATOM     30  O   UNL A   1      39.125  22.012  25.747  1.00  0.00    -0.246 OA
BRANCH  29  31
ATOM     31  C   UNL A   1      39.207  24.213  26.632  1.00  0.00     0.060 A 
ATOM     32  C   UNL A   1      38.836  24.311  27.979  1.00  0.00     0.016 A 
ATOM     33  C   UNL A   1      40.077  25.152  26.057  1.00  0.00     0.016 A 
ATOM     34  C   UNL A   1      39.319  25.358  28.759  1.00  0.00     0.010 A 
ATOM     35  C   UNL A   1      40.550  26.214  26.837  1.00  0.00     0.010 A 
ATOM     36  C   UNL A   1      40.158  26.329  28.187  1.00  0.00    -0.014 A 
BRANCH  36  37
ATOM     37  C   UNL A   1      40.572  27.492  29.007  1.00  0.00     0.031 A 
ATOM     38  C   UNL A   1      41.929  27.509  29.651  1.00  0.00     0.074 A 
ATOM     39  C   UNL A   1      39.751  28.550  29.132  1.00  0.00     0.049 A 
ATOM     40  N   UNL A   1      42.466  28.424  30.417  1.00  0.00    -0.248 NA
ATOM     41  C   UNL A   1      42.795  26.345  29.404  1.00  0.00     0.031 C 
ATOM     42  C   UNL A   1      38.422  28.664  28.529  1.00  0.00     0.029 A 
ATOM     43  N   UNL A   1      39.919  29.735  29.801  1.00  0.00    -0.354 N 
ATOM     44  C   UNL A   1      43.717  27.936  30.770  1.00  0.00     0.074 A 
ATOM     45  C   UNL A   1      43.864  26.646  30.129  1.00  0.00     0.031 C 
ATOM     46  C   UNL A   1      37.897  29.858  28.853  1.00  0.00     0.029 A 
ATOM     47  C   UNL A   1      38.845  30.584  29.695  1.00  0.00     0.049 A 
ATOM     48  H   UNL A   1      40.733  29.956  30.309  1.00  0.00     0.167 HD
ATOM     49  C   UNL A   1      44.657  28.511  31.557  1.00  0.00     0.037 A 
ATOM     50  C   UNL A   1      38.648  31.807  30.221  1.00  0.00     0.037 A 
ATOM     51  C   UNL A   1      44.535  29.813  32.157  1.00  0.00     0.049 A 
ATOM     52  C   UNL A   1      39.718  32.435  31.068  1.00  0.00     0.074 A 
ATOM     53  C   UNL A   1      45.452  30.489  32.944  1.00  0.00     0.029 A 
ATOM     54  N   UNL A   1      43.430  30.641  32.030  1.00  0.00    -0.354 N 
ATOM     55  N   UNL A   1      40.894  31.957  31.396  1.00  0.00    -0.248 NA
ATOM     56  C   UNL A   1      39.433  33.768  31.619  1.00  0.00     0.031 C 
ATOM     57  C   UNL A   1      44.897  31.726  33.300  1.00  0.00     0.029 A 
ATOM     58  C   UNL A   1      43.640  31.819  32.726  1.00  0.00     0.049 A 
ATOM     59  H   UNL A   1      42.617  30.423  31.520  1.00  0.00     0.167 HD
ATOM     60  C   UNL A   1      41.486  32.925  32.197  1.00  0.00     0.074 A 
ATOM     61  C   UNL A   1      40.549  34.026  32.288  1.00  0.00     0.031 C 
ATOM     62  C   UNL A   1      42.694  32.901  32.809  1.00  0.00     0.037 A 
BRANCH  49  63
ATOM     63  C   UNL A   1      45.901  27.723  31.831  1.00  0.00     0.058 A 
ATOM     64  C   UNL A   1      45.968  26.805  32.890  1.00  0.00     0.135 A 
ATOM     65  C   UNL A   1      47.024  27.861  30.996  1.00  0.00     0.135 A 
ATOM     66  F   UNL A   1      44.922  26.651  33.722  1.00  0.00    -0.206 F 
ATOM     67  C   UNL A   1      47.116  26.051  33.118  1.00  0.00     0.059 A 
ATOM     68  C   UNL A   1      48.178  27.111  31.200  1.00  0.00     0.059 A 
ATOM     69  F   UNL A   1      47.006  28.731  29.973  1.00  0.00    -0.206 F 
ATOM     70  C   UNL A   1      48.218  26.215  32.271  1.00  0.00     0.060 A 
BRANCH  70  71
ATOM     71  S   UNL A   1      49.702  25.221  32.553  1.00  0.00     0.124 S 
ATOM     72  O   UNL A   1      50.050  24.825  31.193  1.00  0.00    -0.237 OA
ATOM     73  O   UNL A   1      50.609  26.173  33.187  1.00  0.00    -0.237 OA
ATOM     74  O   UNL A   1      49.225  24.148  33.420  1.00  0.00    -0.744 OA
ENDBRANCH  70  71
ENDBRANCH  49  63
BRANCH  50  75
ATOM     75  C   UNL A   1      37.373  32.520  29.971  1.00  0.00     0.058 A 
ATOM     76  C   UNL A   1      36.202  32.168  30.665  1.00  0.00     0.135 A 
ATOM     77  C   UNL A   1      37.305  33.565  29.035  1.00  0.00     0.135 A 
ATOM     78  F   UNL A   1      36.225  31.168  31.563  1.00  0.00    -0.206 F 
ATOM     79  C   UNL A   1      34.998  32.824  30.435  1.00  0.00     0.059 A 
ATOM     80  C   UNL A   1      36.114  34.243  28.795  1.00  0.00     0.059 A 
ATOM     81  F   UNL A   1      38.404  33.938  28.354  1.00  0.00    -0.206 F 
ATOM     82  C   UNL A   1      34.964  33.858  29.494  1.00  0.00     0.060 A 
BRANCH  82  83
ATOM     83  S   UNL A   1      33.418  34.755  29.224  1.00  0.00     0.124 S 
ATOM     84  O   UNL A   1      32.932  34.916  30.590  1.00  0.00    -0.237 OA
ATOM     85  O   UNL A   1      33.864  35.976  28.559  1.00  0.00    -0.237 OA
ATOM     86  O   UNL A   1      32.654  33.838  28.382  1.00  0.00    -0.744 OA
ENDBRANCH  82  83
ENDBRANCH  50  75
BRANCH  62  87
ATOM     87  C   UNL A   1      43.061  34.096  33.635  1.00  0.00     0.058 A 
ATOM     88  C   UNL A   1      43.697  35.205  33.053  1.00  0.00     0.135 A 
ATOM     89  C   UNL A   1      42.754  34.145  35.004  1.00  0.00     0.135 A 
ATOM     90  F   UNL A   1      44.015  35.198  31.747  1.00  0.00    -0.206 F 
ATOM     91  C   UNL A   1      44.033  36.323  33.809  1.00  0.00     0.059 A 
ATOM     92  C   UNL A   1      43.072  35.257  35.778  1.00  0.00     0.059 A 
ATOM     93  F   UNL A   1      42.143  33.106  35.601  1.00  0.00    -0.206 F 
ATOM     94  C   UNL A   1      43.721  36.337  35.173  1.00  0.00     0.060 A 
BRANCH  94  95
ATOM     95  S   UNL A   1      44.135  37.796  36.155  1.00  0.00     0.124 S 
ATOM     96  O   UNL A   1      45.535  37.547  36.474  1.00  0.00    -0.237 OA
ATOM     97  O   UNL A   1      43.883  38.894  35.226  1.00  0.00    -0.237 OA
ATOM     98  O   UNL A   1      43.206  37.712  37.278  1.00  0.00    -0.744 OA
ENDBRANCH  94  95
ENDBRANCH  62  87
ENDBRANCH  36  37
ENDBRANCH  29  31
ENDBRANCH  28  29
ENDBRANCH   1  28
TORSDOF 17
ENDMDL
