MODEL 1
REMARK VINA RESULT:     -11.4      0.000      0.000
REMARK SMILES COc1ccccc1-c1ccc(O)c(C(=O)OCCOC(=O)c2ccc(-c3c4nc(c(-c5c(F)cc(S(=O)(=O)[O-])cc5F)c5ccc([nH]5)c(-c5c(F)cc(S(=O)(=O)[O-])cc5F)c5nc(c(-c6c(F)cc(S(=O)(=O)[O-])cc6F)c6ccc3[nH]6)C=C5)C=C4)cc2)c1
REMARK SMILES IDX 19 1 18 2 17 3 15 4 16 5 14 6 9 7 10 8 89 9 11 10 12 11 8 12
REMARK SMILES IDX 3 13 4 14 5 15 7 16 6 17 2 18 1 19 13 20 20 22 21 23 22 24
REMARK SMILES IDX 23 25 24 26 88 27 25 28 87 29 26 30 27 31 28 32 81 33 29 34
REMARK SMILES IDX 86 35 80 36 82 37 30 38 85 39 79 40 78 41 31 43 65 44 44 45
REMARK SMILES IDX 64 46 45 47 48 48 63 49 83 50 46 51 47 52 62 54 84 55 49 56
REMARK SMILES IDX 32 57 33 58 42 59 34 60 35 61 41 62 43 63 36 64 37 65 38 66
REMARK SMILES IDX 39 67 40 68 66 69 67 70 76 71 68 72 69 73 75 74 77 75 70 76
REMARK SMILES IDX 71 77 72 78 73 79 74 80 50 81 51 82 60 83 52 84 53 85 59 86
REMARK SMILES IDX 61 87 54 88 55 89 56 90 57 91 58 92
REMARK H PARENT 13 21 82 42 48 53
REMARK Flexibility Score: inf
ROOT
ATOM      1  C   UNL A   1      40.322  22.426  26.607  1.00  0.00     0.275 C 
ENDROOT
BRANCH   1   2
ATOM      2  C   UNL A   1      39.100  21.635  26.127  1.00  0.00     0.275 C 
BRANCH   2   3
ATOM      3  O   UNL A   1      38.036  22.517  25.727  1.00  0.00    -0.458 OA
BRANCH   3   4
ATOM      4  C   UNL A   1      36.867  21.918  25.392  1.00  0.00     0.342 C 
ATOM      5  O   UNL A   1      36.727  20.771  24.998  1.00  0.00    -0.246 OA
BRANCH   4   6
ATOM      6  C   UNL A   1      35.707  22.806  25.640  1.00  0.00     0.102 A 
ATOM      7  C   UNL A   1      34.403  24.805  25.148  1.00  0.00    -0.014 A 
ATOM      8  C   UNL A   1      33.508  24.454  26.173  1.00  0.00     0.013 A 
ATOM      9  C   UNL A   1      35.548  24.013  24.948  1.00  0.00     0.028 A 
ATOM     10  C   UNL A   1      33.669  23.265  26.880  1.00  0.00     0.048 A 
ATOM     11  C   UNL A   1      34.730  22.419  26.570  1.00  0.00     0.130 A 
BRANCH   7  12
ATOM     12  C   UNL A   1      34.032  25.852  24.184  1.00  0.00     0.024 A 
ATOM     13  C   UNL A   1      33.687  25.539  22.851  1.00  0.00     0.126 A 
ATOM     14  C   UNL A   1      33.269  26.536  21.966  1.00  0.00     0.047 A 
ATOM     15  C   UNL A   1      33.168  27.858  22.395  1.00  0.00     0.004 A 
ATOM     16  C   UNL A   1      33.942  27.197  24.589  1.00  0.00     0.012 A 
ATOM     17  C   UNL A   1      33.514  28.190  23.702  1.00  0.00     0.001 A 
BRANCH  13  18
ATOM     18  O   UNL A   1      33.834  24.285  22.303  1.00  0.00    -0.496 OA
ATOM     19  C   UNL A   1      32.676  23.463  22.451  1.00  0.00     0.278 C 
ENDBRANCH  13  18
ENDBRANCH   7  12
BRANCH  11  20
ATOM     20  O   UNL A   1      34.754  21.226  27.240  1.00  0.00    -0.507 OA
ATOM     21  H   UNL A   1      35.539  20.944  27.667  1.00  0.00     0.293 HD
ENDBRANCH  11  20
ENDBRANCH   4   6
ENDBRANCH   3   4
ENDBRANCH   2   3
ENDBRANCH   1   2
BRANCH   1  22
ATOM     22  O   UNL A   1      40.130  23.846  26.449  1.00  0.00    -0.458 OA
BRANCH  22  23
ATOM     23  C   UNL A   1      41.220  24.607  26.718  1.00  0.00     0.338 C 
ATOM     24  O   UNL A   1      42.273  24.617  26.095  1.00  0.00    -0.246 OA
BRANCH  23  25
ATOM     25  C   UNL A   1      40.900  25.598  27.762  1.00  0.00     0.060 A 
ATOM     26  C   UNL A   1      41.883  26.548  28.047  1.00  0.00     0.016 A 
ATOM     27  C   UNL A   1      39.699  25.605  28.475  1.00  0.00     0.016 A 
ATOM     28  C   UNL A   1      41.653  27.550  28.983  1.00  0.00     0.010 A 
ATOM     29  C   UNL A   1      39.488  26.584  29.460  1.00  0.00     0.010 A 
ATOM     30  C   UNL A   1      40.461  27.569  29.712  1.00  0.00    -0.014 A 
BRANCH  30  31
ATOM     31  C   UNL A   1      40.313  28.572  30.796  1.00  0.00     0.031 A 
ATOM     32  C   UNL A   1      41.213  28.496  31.997  1.00  0.00     0.074 A 
ATOM     33  C   UNL A   1      39.453  29.599  30.666  1.00  0.00     0.049 A 
ATOM     34  N   UNL A   1      41.274  29.285  33.039  1.00  0.00    -0.248 NA
ATOM     35  C   UNL A   1      42.183  27.391  32.019  1.00  0.00     0.031 C 
ATOM     36  C   UNL A   1      38.583  29.830  29.512  1.00  0.00     0.029 A 
ATOM     37  N   UNL A   1      39.180  30.651  31.506  1.00  0.00    -0.354 N 
ATOM     38  C   UNL A   1      42.288  28.775  33.841  1.00  0.00     0.074 A 
ATOM     39  C   UNL A   1      42.795  27.592  33.177  1.00  0.00     0.031 C 
ATOM     40  C   UNL A   1      37.868  30.948  29.721  1.00  0.00     0.029 A 
ATOM     41  C   UNL A   1      38.204  31.497  31.034  1.00  0.00     0.049 A 
ATOM     42  H   UNL A   1      39.639  30.786  32.367  1.00  0.00     0.167 HD
ATOM     43  C   UNL A   1      42.756  29.251  35.020  1.00  0.00     0.037 A 
ATOM     44  C   UNL A   1      37.635  32.578  31.604  1.00  0.00     0.037 A 
ATOM     45  C   UNL A   1      42.242  30.425  35.683  1.00  0.00     0.049 A 
ATOM     46  C   UNL A   1      38.109  33.035  32.960  1.00  0.00     0.074 A 
ATOM     47  C   UNL A   1      42.646  30.981  36.885  1.00  0.00     0.029 A 
ATOM     48  N   UNL A   1      41.206  31.218  35.208  1.00  0.00    -0.354 N 
ATOM     49  N   UNL A   1      39.066  32.542  33.711  1.00  0.00    -0.248 NA
ATOM     50  C   UNL A   1      37.430  34.200  33.544  1.00  0.00     0.031 C 
ATOM     51  C   UNL A   1      41.818  32.073  37.165  1.00  0.00     0.029 A 
ATOM     52  C   UNL A   1      40.939  32.240  36.107  1.00  0.00     0.049 A 
ATOM     53  H   UNL A   1      40.730  31.075  34.357  1.00  0.00     0.167 HD
ATOM     54  C   UNL A   1      39.121  33.353  34.842  1.00  0.00     0.074 A 
ATOM     55  C   UNL A   1      38.115  34.380  34.664  1.00  0.00     0.031 C 
ATOM     56  C   UNL A   1      39.931  33.257  35.927  1.00  0.00     0.037 A 
BRANCH  43  57
ATOM     57  C   UNL A   1      43.854  28.475  35.695  1.00  0.00     0.058 A 
ATOM     58  C   UNL A   1      45.212  28.750  35.463  1.00  0.00     0.135 A 
ATOM     59  C   UNL A   1      43.541  27.458  36.611  1.00  0.00     0.135 A 
ATOM     60  F   UNL A   1      45.569  29.700  34.584  1.00  0.00    -0.206 F 
ATOM     61  C   UNL A   1      46.219  28.025  36.094  1.00  0.00     0.059 A 
ATOM     62  C   UNL A   1      44.531  26.740  37.275  1.00  0.00     0.059 A 
ATOM     63  F   UNL A   1      42.260  27.151  36.869  1.00  0.00    -0.206 F 
ATOM     64  C   UNL A   1      45.868  27.022  36.999  1.00  0.00     0.060 A 
BRANCH  64  65
ATOM     65  S   UNL A   1      47.185  26.092  37.810  1.00  0.00     0.124 S 
ATOM     66  O   UNL A   1      46.423  25.223  38.701  1.00  0.00    -0.237 OA
ATOM     67  O   UNL A   1      47.836  25.429  36.684  1.00  0.00    -0.237 OA
ATOM     68  O   UNL A   1      47.978  27.125  38.468  1.00  0.00    -0.744 OA
ENDBRANCH  64  65
ENDBRANCH  43  57
BRANCH  44  69
ATOM     69  C   UNL A   1      36.528  33.295  30.909  1.00  0.00     0.058 A 
ATOM     70  C   UNL A   1      36.777  34.153  29.826  1.00  0.00     0.135 A 
ATOM     71  C   UNL A   1      35.197  33.153  31.334  1.00  0.00     0.135 A 
ATOM     72  F   UNL A   1      38.034  34.338  29.392  1.00  0.00    -0.206 F 
ATOM     73  C   UNL A   1      35.751  34.857  29.203  1.00  0.00     0.059 A 
ATOM     74  C   UNL A   1      34.151  33.822  30.706  1.00  0.00     0.059 A 
ATOM     75  F   UNL A   1      34.902  32.343  32.362  1.00  0.00    -0.206 F 
ATOM     76  C   UNL A   1      34.440  34.682  29.648  1.00  0.00     0.060 A 
BRANCH  76  77
ATOM     77  S   UNL A   1      33.111  35.569  28.806  1.00  0.00     0.124 S 
ATOM     78  O   UNL A   1      32.529  34.515  27.982  1.00  0.00    -0.237 OA
ATOM     79  O   UNL A   1      32.295  36.029  29.925  1.00  0.00    -0.237 OA
ATOM     80  O   UNL A   1      33.815  36.621  28.079  1.00  0.00    -0.744 OA
ENDBRANCH  76  77
ENDBRANCH  44  69
BRANCH  56  81
ATOM     81  C   UNL A   1      39.787  34.313  36.994  1.00  0.00     0.058 A 
ATOM     82  C   UNL A   1      40.406  35.568  36.888  1.00  0.00     0.135 A 
ATOM     83  C   UNL A   1      39.005  34.069  38.136  1.00  0.00     0.135 A 
ATOM     84  F   UNL A   1      41.168  35.859  35.820  1.00  0.00    -0.206 F 
ATOM     85  C   UNL A   1      40.298  36.523  37.896  1.00  0.00     0.059 A 
ATOM     86  C   UNL A   1      38.854  35.021  39.140  1.00  0.00     0.059 A 
ATOM     87  F   UNL A   1      38.374  32.893  38.286  1.00  0.00    -0.206 F 
ATOM     88  C   UNL A   1      39.522  36.237  39.021  1.00  0.00     0.060 A 
BRANCH  88  89
ATOM     89  S   UNL A   1      39.397  37.480  40.325  1.00  0.00     0.124 S 
ATOM     90  O   UNL A   1      38.487  38.448  39.723  1.00  0.00    -0.237 OA
ATOM     91  O   UNL A   1      38.855  36.710  41.441  1.00  0.00    -0.237 OA
ATOM     92  O   UNL A   1      40.774  37.934  40.496  1.00  0.00    -0.744 OA
ENDBRANCH  88  89
ENDBRANCH  56  81
ENDBRANCH  30  31
ENDBRANCH  23  25
ENDBRANCH  22  23
ENDBRANCH   1  22
TORSDOF 17
ENDMDL
MODEL 2
REMARK VINA RESULT:     -11.4      5.137     12.058
REMARK SMILES COc1ccccc1-c1ccc(O)c(C(=O)OCCOC(=O)c2ccc(-c3c4nc(c(-c5c(F)cc(S(=O)(=O)[O-])cc5F)c5ccc([nH]5)c(-c5c(F)cc(S(=O)(=O)[O-])cc5F)c5nc(c(-c6c(F)cc(S(=O)(=O)[O-])cc6F)c6ccc3[nH]6)C=C5)C=C4)cc2)c1
REMARK SMILES IDX 19 1 18 2 17 3 15 4 16 5 14 6 9 7 10 8 89 9 11 10 12 11 8 12
REMARK SMILES IDX 3 13 4 14 5 15 7 16 6 17 2 18 1 19 13 20 20 22 21 23 22 24
REMARK SMILES IDX 23 25 24 26 88 27 25 28 87 29 26 30 27 31 28 32 81 33 29 34
REMARK SMILES IDX 86 35 80 36 82 37 30 38 85 39 79 40 78 41 31 43 65 44 44 45
REMARK SMILES IDX 64 46 45 47 48 48 63 49 83 50 46 51 47 52 62 54 84 55 49 56
REMARK SMILES IDX 32 57 33 58 42 59 34 60 35 61 41 62 43 63 36 64 37 65 38 66
REMARK SMILES IDX 39 67 40 68 66 69 67 70 76 71 68 72 69 73 75 74 77 75 70 76
REMARK SMILES IDX 71 77 72 78 73 79 74 80 50 81 51 82 60 83 52 84 53 85 59 86
REMARK SMILES IDX 61 87 54 88 55 89 56 90 57 91 58 92
REMARK H PARENT 13 21 82 42 48 53
REMARK Flexibility Score: inf
ROOT
ATOM      1  C   UNL A   1      33.483  32.310  27.646  1.00  0.00     0.275 C 
ENDROOT
BRANCH   1   2
ATOM      2  C   UNL A   1      33.716  33.765  28.067  1.00  0.00     0.275 C 
BRANCH   2   3
ATOM      3  O   UNL A   1      32.808  34.154  29.113  1.00  0.00    -0.458 OA
BRANCH   3   4
ATOM      4  C   UNL A   1      32.896  35.444  29.521  1.00  0.00     0.342 C 
ATOM      5  O   UNL A   1      32.461  36.421  28.934  1.00  0.00    -0.246 OA
BRANCH   4   6
ATOM      6  C   UNL A   1      33.531  35.554  30.855  1.00  0.00     0.102 A 
ATOM      7  C   UNL A   1      34.851  34.617  32.677  1.00  0.00    -0.014 A 
ATOM      8  C   UNL A   1      34.687  35.816  33.392  1.00  0.00     0.013 A 
ATOM      9  C   UNL A   1      34.196  34.469  31.442  1.00  0.00     0.028 A 
ATOM     10  C   UNL A   1      34.011  36.893  32.824  1.00  0.00     0.048 A 
ATOM     11  C   UNL A   1      33.491  36.778  31.539  1.00  0.00     0.130 A 
BRANCH   7  12
ATOM     12  C   UNL A   1      35.852  33.635  33.121  1.00  0.00     0.024 A 
ATOM     13  C   UNL A   1      36.500  32.775  32.206  1.00  0.00     0.126 A 
ATOM     14  C   UNL A   1      37.500  31.896  32.632  1.00  0.00     0.047 A 
ATOM     15  C   UNL A   1      37.887  31.871  33.970  1.00  0.00     0.004 A 
ATOM     16  C   UNL A   1      36.247  33.577  34.470  1.00  0.00     0.012 A 
ATOM     17  C   UNL A   1      37.255  32.703  34.891  1.00  0.00     0.001 A 
BRANCH  13  18
ATOM     18  O   UNL A   1      36.133  32.658  30.884  1.00  0.00    -0.496 OA
ATOM     19  C   UNL A   1      37.163  33.049  29.975  1.00  0.00     0.278 C 
ENDBRANCH  13  18
ENDBRANCH   7  12
BRANCH  11  20
ATOM     20  O   UNL A   1      32.934  37.916  31.019  1.00  0.00    -0.507 OA
ATOM     21  H   UNL A   1      32.892  38.696  31.538  1.00  0.00     0.293 HD
ENDBRANCH  11  20
ENDBRANCH   4   6
ENDBRANCH   3   4
ENDBRANCH   2   3
ENDBRANCH   1   2
BRANCH   1  22
ATOM     22  O   UNL A   1      34.077  31.386  28.581  1.00  0.00    -0.458 OA
BRANCH  22  23
ATOM     23  C   UNL A   1      34.453  30.195  28.052  1.00  0.00     0.338 C 
ATOM     24  O   UNL A   1      33.811  29.512  27.267  1.00  0.00    -0.246 OA
BRANCH  23  25
ATOM     25  C   UNL A   1      35.859  29.911  28.394  1.00  0.00     0.060 A 
ATOM     26  C   UNL A   1      36.801  30.101  27.381  1.00  0.00     0.016 A 
ATOM     27  C   UNL A   1      36.268  29.447  29.646  1.00  0.00     0.016 A 
ATOM     28  C   UNL A   1      38.156  29.904  27.625  1.00  0.00     0.010 A 
ATOM     29  C   UNL A   1      37.630  29.195  29.877  1.00  0.00     0.010 A 
ATOM     30  C   UNL A   1      38.584  29.432  28.869  1.00  0.00    -0.014 A 
BRANCH  30  31
ATOM     31  C   UNL A   1      40.021  29.104  29.042  1.00  0.00     0.031 A 
ATOM     32  C   UNL A   1      40.942  30.126  29.646  1.00  0.00     0.074 A 
ATOM     33  C   UNL A   1      40.481  27.871  28.756  1.00  0.00     0.049 A 
ATOM     34  N   UNL A   1      42.219  30.036  29.914  1.00  0.00    -0.248 NA
ATOM     35  C   UNL A   1      40.339  31.417  30.008  1.00  0.00     0.031 C 
ATOM     36  C   UNL A   1      39.670  26.767  28.242  1.00  0.00     0.029 A 
ATOM     37  N   UNL A   1      41.741  27.337  28.873  1.00  0.00    -0.354 N 
ATOM     38  C   UNL A   1      42.575  31.256  30.478  1.00  0.00     0.074 A 
ATOM     39  C   UNL A   1      41.384  32.078  30.487  1.00  0.00     0.031 C 
ATOM     40  C   UNL A   1      40.455  25.688  28.080  1.00  0.00     0.029 A 
ATOM     41  C   UNL A   1      41.828  26.031  28.449  1.00  0.00     0.049 A 
ATOM     42  H   UNL A   1      42.509  27.841  29.226  1.00  0.00     0.167 HD
ATOM     43  C   UNL A   1      43.782  31.651  30.949  1.00  0.00     0.037 A 
ATOM     44  C   UNL A   1      42.896  25.214  28.353  1.00  0.00     0.037 A 
ATOM     45  C   UNL A   1      44.969  30.832  30.929  1.00  0.00     0.049 A 
ATOM     46  C   UNL A   1      44.249  25.710  28.797  1.00  0.00     0.074 A 
ATOM     47  C   UNL A   1      46.241  31.148  31.376  1.00  0.00     0.029 A 
ATOM     48  N   UNL A   1      45.036  29.538  30.429  1.00  0.00    -0.354 N 
ATOM     49  N   UNL A   1      44.574  26.867  29.324  1.00  0.00    -0.248 NA
ATOM     50  C   UNL A   1      45.380  24.786  28.638  1.00  0.00     0.031 C 
ATOM     51  C   UNL A   1      47.088  30.072  31.093  1.00  0.00     0.029 A 
ATOM     52  C   UNL A   1      46.333  29.056  30.530  1.00  0.00     0.049 A 
ATOM     53  H   UNL A   1      44.274  29.037  30.057  1.00  0.00     0.167 HD
ATOM     54  C   UNL A   1      45.940  26.798  29.586  1.00  0.00     0.074 A 
ATOM     55  C   UNL A   1      46.374  25.477  29.177  1.00  0.00     0.031 C 
ATOM     56  C   UNL A   1      46.760  27.741  30.116  1.00  0.00     0.037 A 
BRANCH  43  57
ATOM     57  C   UNL A   1      43.893  33.053  31.485  1.00  0.00     0.058 A 
ATOM     58  C   UNL A   1      43.701  33.347  32.844  1.00  0.00     0.135 A 
ATOM     59  C   UNL A   1      44.224  34.114  30.627  1.00  0.00     0.135 A 
ATOM     60  F   UNL A   1      43.364  32.374  33.707  1.00  0.00    -0.206 F 
ATOM     61  C   UNL A   1      43.805  34.648  33.329  1.00  0.00     0.059 A 
ATOM     62  C   UNL A   1      44.363  35.418  31.094  1.00  0.00     0.059 A 
ATOM     63  F   UNL A   1      44.416  33.891  29.317  1.00  0.00    -0.206 F 
ATOM     64  C   UNL A   1      44.138  35.676  32.445  1.00  0.00     0.060 A 
BRANCH  64  65
ATOM     65  S   UNL A   1      44.271  37.357  33.089  1.00  0.00     0.124 S 
ATOM     66  O   UNL A   1      45.612  37.346  33.662  1.00  0.00    -0.237 OA
ATOM     67  O   UNL A   1      44.104  38.165  31.885  1.00  0.00    -0.237 OA
ATOM     68  O   UNL A   1      43.178  37.442  34.053  1.00  0.00    -0.744 OA
ENDBRANCH  64  65
ENDBRANCH  43  57
BRANCH  44  69
ATOM     69  C   UNL A   1      42.741  23.844  27.785  1.00  0.00     0.058 A 
ATOM     70  C   UNL A   1      42.776  23.616  26.401  1.00  0.00     0.135 A 
ATOM     71  C   UNL A   1      42.530  22.736  28.622  1.00  0.00     0.135 A 
ATOM     72  F   UNL A   1      42.957  24.644  25.556  1.00  0.00    -0.206 F 
ATOM     73  C   UNL A   1      42.589  22.346  25.866  1.00  0.00     0.059 A 
ATOM     74  C   UNL A   1      42.372  21.451  28.111  1.00  0.00     0.059 A 
ATOM     75  F   UNL A   1      42.491  22.896  29.954  1.00  0.00    -0.206 F 
ATOM     76  C   UNL A   1      42.391  21.268  26.730  1.00  0.00     0.060 A 
BRANCH  76  77
ATOM     77  S   UNL A   1      42.189  19.616  26.028  1.00  0.00     0.124 S 
ATOM     78  O   UNL A   1      42.624  18.770  27.134  1.00  0.00    -0.237 OA
ATOM     79  O   UNL A   1      40.763  19.586  25.724  1.00  0.00    -0.237 OA
ATOM     80  O   UNL A   1      43.071  19.634  24.864  1.00  0.00    -0.744 OA
ENDBRANCH  76  77
ENDBRANCH  44  69
BRANCH  56  81
ATOM     81  C   UNL A   1      48.206  27.366  30.318  1.00  0.00     0.058 A 
ATOM     82  C   UNL A   1      48.637  26.632  31.435  1.00  0.00     0.135 A 
ATOM     83  C   UNL A   1      49.177  27.737  29.372  1.00  0.00     0.135 A 
ATOM     84  F   UNL A   1      47.755  26.250  32.374  1.00  0.00    -0.206 F 
ATOM     85  C   UNL A   1      49.979  26.322  31.632  1.00  0.00     0.059 A 
ATOM     86  C   UNL A   1      50.520  27.409  29.530  1.00  0.00     0.059 A 
ATOM     87  F   UNL A   1      48.824  28.426  28.274  1.00  0.00    -0.206 F 
ATOM     88  C   UNL A   1      50.915  26.721  30.675  1.00  0.00     0.060 A 
BRANCH  88  89
ATOM     89  S   UNL A   1      52.655  26.322  30.946  1.00  0.00     0.124 S 
ATOM     90  O   UNL A   1      52.558  25.158  31.821  1.00  0.00    -0.237 OA
ATOM     91  O   UNL A   1      53.131  26.058  29.592  1.00  0.00    -0.237 OA
ATOM     92  O   UNL A   1      53.189  27.531  31.567  1.00  0.00    -0.744 OA
ENDBRANCH  88  89
ENDBRANCH  56  81
ENDBRANCH  30  31
ENDBRANCH  23  25
ENDBRANCH  22  23
ENDBRANCH   1  22
TORSDOF 17
ENDMDL
MODEL 3
REMARK VINA RESULT:     -11.4      4.895     12.016
REMARK SMILES COc1ccccc1-c1ccc(O)c(C(=O)OCCOC(=O)c2ccc(-c3c4nc(c(-c5c(F)cc(S(=O)(=O)[O-])cc5F)c5ccc([nH]5)c(-c5c(F)cc(S(=O)(=O)[O-])cc5F)c5nc(c(-c6c(F)cc(S(=O)(=O)[O-])cc6F)c6ccc3[nH]6)C=C5)C=C4)cc2)c1
REMARK SMILES IDX 19 1 18 2 17 3 15 4 16 5 14 6 9 7 10 8 89 9 11 10 12 11 8 12
REMARK SMILES IDX 3 13 4 14 5 15 7 16 6 17 2 18 1 19 13 20 20 22 21 23 22 24
REMARK SMILES IDX 23 25 24 26 88 27 25 28 87 29 26 30 27 31 28 32 81 33 29 34
REMARK SMILES IDX 86 35 80 36 82 37 30 38 85 39 79 40 78 41 31 43 65 44 44 45
REMARK SMILES IDX 64 46 45 47 48 48 63 49 83 50 46 51 47 52 62 54 84 55 49 56
REMARK SMILES IDX 32 57 33 58 42 59 34 60 35 61 41 62 43 63 36 64 37 65 38 66
REMARK SMILES IDX 39 67 40 68 66 69 67 70 76 71 68 72 69 73 75 74 77 75 70 76
REMARK SMILES IDX 71 77 72 78 73 79 74 80 50 81 51 82 60 83 52 84 53 85 59 86
REMARK SMILES IDX 61 87 54 88 55 89 56 90 57 91 58 92
REMARK H PARENT 13 21 82 42 48 53
REMARK Flexibility Score: inf
ROOT
ATOM      1  C   UNL A   1      34.050  32.398  28.504  1.00  0.00     0.275 C 
ENDROOT
BRANCH   1   2
ATOM      2  C   UNL A   1      33.586  33.768  28.001  1.00  0.00     0.275 C 
BRANCH   2   3
ATOM      3  O   UNL A   1      34.169  34.831  28.776  1.00  0.00    -0.458 OA
BRANCH   3   4
ATOM      4  C   UNL A   1      33.295  35.624  29.444  1.00  0.00     0.342 C 
ATOM      5  O   UNL A   1      32.272  36.114  28.994  1.00  0.00    -0.246 OA
BRANCH   4   6
ATOM      6  C   UNL A   1      33.676  35.781  30.867  1.00  0.00     0.102 A 
ATOM      7  C   UNL A   1      34.658  34.918  32.924  1.00  0.00    -0.014 A 
ATOM      8  C   UNL A   1      34.349  36.132  33.562  1.00  0.00     0.013 A 
ATOM      9  C   UNL A   1      34.239  34.725  31.595  1.00  0.00     0.028 A 
ATOM     10  C   UNL A   1      33.772  37.180  32.849  1.00  0.00     0.048 A 
ATOM     11  C   UNL A   1      33.494  37.022  31.495  1.00  0.00     0.130 A 
BRANCH   7  12
ATOM     12  C   UNL A   1      35.576  33.969  33.570  1.00  0.00     0.024 A 
ATOM     13  C   UNL A   1      36.205  32.937  32.840  1.00  0.00     0.126 A 
ATOM     14  C   UNL A   1      37.130  32.086  33.452  1.00  0.00     0.047 A 
ATOM     15  C   UNL A   1      37.459  32.258  34.794  1.00  0.00     0.004 A 
ATOM     16  C   UNL A   1      35.910  34.111  34.930  1.00  0.00     0.012 A 
ATOM     17  C   UNL A   1      36.843  33.263  35.536  1.00  0.00     0.001 A 
BRANCH  13  18
ATOM     18  O   UNL A   1      35.888  32.626  31.537  1.00  0.00    -0.496 OA
ATOM     19  C   UNL A   1      36.978  32.801  30.631  1.00  0.00     0.278 C 
ENDBRANCH  13  18
ENDBRANCH   7  12
BRANCH  11  20
ATOM     20  O   UNL A   1      33.025  38.134  30.851  1.00  0.00    -0.507 OA
ATOM     21  H   UNL A   1      32.168  38.463  31.046  1.00  0.00     0.293 HD
ENDBRANCH  11  20
ENDBRANCH   4   6
ENDBRANCH   3   4
ENDBRANCH   2   3
ENDBRANCH   1   2
BRANCH   1  22
ATOM     22  O   UNL A   1      34.284  31.484  27.413  1.00  0.00    -0.458 OA
BRANCH  22  23
ATOM     23  C   UNL A   1      34.391  30.180  27.768  1.00  0.00     0.338 C 
ATOM     24  O   UNL A   1      33.543  29.312  27.618  1.00  0.00    -0.246 OA
BRANCH  23  25
ATOM     25  C   UNL A   1      35.774  29.882  28.188  1.00  0.00     0.060 A 
ATOM     26  C   UNL A   1      36.769  30.041  27.223  1.00  0.00     0.016 A 
ATOM     27  C   UNL A   1      36.109  29.433  29.468  1.00  0.00     0.016 A 
ATOM     28  C   UNL A   1      38.107  29.828  27.541  1.00  0.00     0.010 A 
ATOM     29  C   UNL A   1      37.454  29.166  29.774  1.00  0.00     0.010 A 
ATOM     30  C   UNL A   1      38.462  29.372  28.813  1.00  0.00    -0.014 A 
BRANCH  30  31
ATOM     31  C   UNL A   1      39.883  29.027  29.067  1.00  0.00     0.031 A 
ATOM     32  C   UNL A   1      40.771  30.022  29.760  1.00  0.00     0.074 A 
ATOM     33  C   UNL A   1      40.352  27.799  28.772  1.00  0.00     0.049 A 
ATOM     34  N   UNL A   1      42.027  29.912  30.106  1.00  0.00    -0.248 NA
ATOM     35  C   UNL A   1      40.154  31.306  30.124  1.00  0.00     0.031 C 
ATOM     36  C   UNL A   1      39.569  26.719  28.173  1.00  0.00     0.029 A 
ATOM     37  N   UNL A   1      41.599  27.251  28.951  1.00  0.00    -0.354 N 
ATOM     38  C   UNL A   1      42.354  31.111  30.729  1.00  0.00     0.074 A 
ATOM     39  C   UNL A   1      41.170  31.943  30.688  1.00  0.00     0.031 C 
ATOM     40  C   UNL A   1      40.356  25.639  28.028  1.00  0.00     0.029 A 
ATOM     41  C   UNL A   1      41.705  25.958  28.493  1.00  0.00     0.049 A 
ATOM     42  H   UNL A   1      42.346  27.737  29.368  1.00  0.00     0.167 HD
ATOM     43  C   UNL A   1      43.532  31.481  31.288  1.00  0.00     0.037 A 
ATOM     44  C   UNL A   1      42.771  25.135  28.439  1.00  0.00     0.037 A 
ATOM     45  C   UNL A   1      44.712  30.653  31.318  1.00  0.00     0.049 A 
ATOM     46  C   UNL A   1      44.096  25.606  28.984  1.00  0.00     0.074 A 
ATOM     47  C   UNL A   1      45.955  30.944  31.854  1.00  0.00     0.029 A 
ATOM     48  N   UNL A   1      44.802  29.375  30.783  1.00  0.00    -0.354 N 
ATOM     49  N   UNL A   1      44.394  26.743  29.567  1.00  0.00    -0.248 NA
ATOM     50  C   UNL A   1      45.229  24.677  28.868  1.00  0.00     0.031 C 
ATOM     51  C   UNL A   1      46.811  29.870  31.592  1.00  0.00     0.029 A 
ATOM     52  C   UNL A   1      46.087  28.878  30.950  1.00  0.00     0.049 A 
ATOM     53  H   UNL A   1      44.062  28.892  30.347  1.00  0.00     0.167 HD
ATOM     54  C   UNL A   1      45.740  26.654  29.913  1.00  0.00     0.074 A 
ATOM     55  C   UNL A   1      46.191  25.343  29.490  1.00  0.00     0.031 C 
ATOM     56  C   UNL A   1      46.531  27.573  30.523  1.00  0.00     0.037 A 
BRANCH  43  57
ATOM     57  C   UNL A   1      43.617  32.865  31.874  1.00  0.00     0.058 A 
ATOM     58  C   UNL A   1      43.240  33.136  33.199  1.00  0.00     0.135 A 
ATOM     59  C   UNL A   1      44.111  33.930  31.104  1.00  0.00     0.135 A 
ATOM     60  F   UNL A   1      42.744  32.159  33.976  1.00  0.00    -0.206 F 
ATOM     61  C   UNL A   1      43.323  34.420  33.730  1.00  0.00     0.059 A 
ATOM     62  C   UNL A   1      44.230  35.215  31.623  1.00  0.00     0.059 A 
ATOM     63  F   UNL A   1      44.484  33.728  29.830  1.00  0.00    -0.206 F 
ATOM     64  C   UNL A   1      43.821  35.453  32.933  1.00  0.00     0.060 A 
BRANCH  64  65
ATOM     65  S   UNL A   1      43.924  37.112  33.637  1.00  0.00     0.124 S 
ATOM     66  O   UNL A   1      43.630  37.942  32.473  1.00  0.00    -0.237 OA
ATOM     67  O   UNL A   1      42.891  37.078  34.667  1.00  0.00    -0.237 OA
ATOM     68  O   UNL A   1      45.295  37.189  34.131  1.00  0.00    -0.744 OA
ENDBRANCH  64  65
ENDBRANCH  43  57
BRANCH  44  69
ATOM     69  C   UNL A   1      42.644  23.785  27.820  1.00  0.00     0.058 A 
ATOM     70  C   UNL A   1      42.570  22.624  28.604  1.00  0.00     0.135 A 
ATOM     71  C   UNL A   1      42.619  23.631  26.425  1.00  0.00     0.135 A 
ATOM     72  F   UNL A   1      42.608  22.714  29.943  1.00  0.00    -0.206 F 
ATOM     73  C   UNL A   1      42.495  21.359  28.029  1.00  0.00     0.059 A 
ATOM     74  C   UNL A   1      42.512  22.379  25.827  1.00  0.00     0.059 A 
ATOM     75  F   UNL A   1      42.683  24.708  25.627  1.00  0.00    -0.206 F 
ATOM     76  C   UNL A   1      42.462  21.247  26.638  1.00  0.00     0.060 A 
BRANCH  76  77
ATOM     77  S   UNL A   1      42.323  19.604  25.901  1.00  0.00     0.124 S 
ATOM     78  O   UNL A   1      40.939  19.602  25.443  1.00  0.00    -0.237 OA
ATOM     79  O   UNL A   1      43.341  19.651  24.857  1.00  0.00    -0.237 OA
ATOM     80  O   UNL A   1      42.620  18.708  27.015  1.00  0.00    -0.744 OA
ENDBRANCH  76  77
ENDBRANCH  44  69
BRANCH  56  81
ATOM     81  C   UNL A   1      47.959  27.180  30.805  1.00  0.00     0.058 A 
ATOM     82  C   UNL A   1      49.000  27.462  29.906  1.00  0.00     0.135 A 
ATOM     83  C   UNL A   1      48.294  26.520  31.999  1.00  0.00     0.135 A 
ATOM     84  F   UNL A   1      48.741  28.089  28.746  1.00  0.00    -0.206 F 
ATOM     85  C   UNL A   1      50.310  27.062  30.157  1.00  0.00     0.059 A 
ATOM     86  C   UNL A   1      49.602  26.142  32.288  1.00  0.00     0.059 A 
ATOM     87  F   UNL A   1      47.344  26.239  32.907  1.00  0.00    -0.206 F 
ATOM     88  C   UNL A   1      50.599  26.397  31.350  1.00  0.00     0.060 A 
BRANCH  88  89
ATOM     89  S   UNL A   1      52.300  25.875  31.660  1.00  0.00     0.124 S 
ATOM     90  O   UNL A   1      52.712  26.814  32.696  1.00  0.00    -0.237 OA
ATOM     91  O   UNL A   1      52.129  24.491  32.090  1.00  0.00    -0.237 OA
ATOM     92  O   UNL A   1      52.950  26.045  30.364  1.00  0.00    -0.744 OA
ENDBRANCH  88  89
ENDBRANCH  56  81
ENDBRANCH  30  31
ENDBRANCH  23  25
ENDBRANCH  22  23
ENDBRANCH   1  22
TORSDOF 17
ENDMDL
